MODEL 1
REMARK VINA RESULT:      -9.6      0.000      0.000
REMARK SMILES COc1c(C)cccc1C(=O)NC(=S)Nc1ccc(C(=O)OCCOCCOCCOC(=O)c2ccc(-c3c4nc(c(-c5cccc(S(=O)(=O)[O-])c5F)c5ccc([nH]5)c(-c5cccc(S(=O)(=O)[O-])c5F)c5nc(c(-c6cccc(S(=O)(=O)[O-])c6F)c6ccc3[nH]6)C=C5)C=C4)cc2)cc1C
REMARK SMILES IDX 26 1 25 2 24 3 23 4 22 5 20 6 21 7 19 8 16 9 17 10 98 11
REMARK SMILES IDX 18 12 97 13 99 14 15 15 13 17 14 18 12 19 10 20 11 21 9 23
REMARK SMILES IDX 3 24 4 25 5 26 6 27 8 28 7 29 2 30 1 31 27 32 28 33 29 34
REMARK SMILES IDX 30 35 31 36 32 37 33 38 34 39 35 40 96 41 36 42 95 43 37 44
REMARK SMILES IDX 38 45 39 46 89 47 40 48 94 49 88 50 90 51 41 52 93 53 87 54
REMARK SMILES IDX 86 55 42 57 74 58 54 59 73 60 55 61 58 62 72 63 91 64 56 65
REMARK SMILES IDX 57 66 71 68 92 69 59 70 43 71 44 72 52 73 45 74 47 75 53 76
REMARK SMILES IDX 46 77 48 78 49 79 50 80 51 81 75 82 76 83 84 84 77 85 79 86
REMARK SMILES IDX 85 87 78 88 80 89 81 90 82 91 83 92 60 93 61 94 69 95 62 96
REMARK SMILES IDX 64 97 70 98 63 99 65 100 66 101 67 102 68 103
REMARK H PARENT 15 16 12 22 90 56 58 67
REMARK Flexibility Score: inf
ROOT
ATOM      1  C   UNL A   1      51.022  24.960  33.887  1.00  0.00     0.188 C 
ENDROOT
BRANCH   1   2
ATOM      2  O   UNL A   1      50.583  25.497  32.622  1.00  0.00    -0.376 OA
BRANCH   2   3
ATOM      3  C   UNL A   1      49.213  25.608  32.125  1.00  0.00     0.202 C 
BRANCH   3   4
ATOM      4  C   UNL A   1      47.695  26.418  32.643  1.00  0.00     0.261 C 
BRANCH   4   5
ATOM      5  O   UNL A   1      45.988  25.829  33.186  1.00  0.00    -0.460 OA
BRANCH   5   6
ATOM      6  C   UNL A   1      45.249  24.561  33.801  1.00  0.00     0.338 C 
ATOM      7  O   UNL A   1      44.036  24.614  33.986  1.00  0.00    -0.246 OA
BRANCH   6   8
ATOM      8  C   UNL A   1      45.735  23.156  34.492  1.00  0.00     0.060 A 
ATOM      9  C   UNL A   1      46.451  20.898  37.202  1.00  0.00     0.043 A 
ATOM     10  C   UNL A   1      46.828  22.655  37.307  1.00  0.00     0.027 A 
ATOM     11  C   UNL A   1      45.750  20.115  35.830  1.00  0.00    -0.027 A 
ATOM     12  C   UNL A   1      46.501  23.789  35.989  1.00  0.00     0.018 A 
ATOM     13  C   UNL A   1      45.326  21.167  34.472  1.00  0.00     0.021 A 
ATOM     14  C   UNL A   1      45.371  18.677  35.697  1.00  0.00     0.046 C 
BRANCH   9  15
ATOM     15  N   UNL A   1      46.196  20.266  38.404  1.00  0.00    -0.332 N 
ATOM     16  H   UNL A   1      45.298  20.261  38.808  1.00  0.00     0.169 HD
BRANCH  15  17
ATOM     17  C   UNL A   1      47.252  19.655  38.998  1.00  0.00     0.177 C 
ATOM     18  S   UNL A   1      47.217  19.302  40.626  1.00  0.00    -0.040 S 
BRANCH  17  19
ATOM     19  N   UNL A   1      48.376  19.418  38.223  1.00  0.00    -0.299 N 
ATOM     20  C   UNL A   1      49.764  19.712  38.270  1.00  0.00     0.261 C 
ATOM     21  O   UNL A   1      50.428  19.147  37.393  1.00  0.00    -0.269 OA
ATOM     22  H   UNL A   1      48.150  18.900  37.418  1.00  0.00     0.172 HD
BRANCH  20  23
ATOM     23  C   UNL A   1      50.556  20.606  39.365  1.00  0.00     0.082 A 
ATOM     24  C   UNL A   1      51.469  20.516  41.181  1.00  0.00     0.134 A 
ATOM     25  C   UNL A   1      52.006  22.079  41.934  1.00  0.00    -0.008 A 
ATOM     26  C   UNL A   1      53.160  22.132  42.897  1.00  0.00     0.048 C 
ATOM     27  C   UNL A   1      51.704  23.576  41.057  1.00  0.00     0.007 A 
ATOM     28  C   UNL A   1      50.366  22.244  38.609  1.00  0.00     0.018 A 
ATOM     29  C   UNL A   1      50.937  23.670  39.474  1.00  0.00     0.001 A 
BRANCH  24  30
ATOM     30  O   UNL A   1      51.531  19.538  42.214  1.00  0.00    -0.496 OA
ATOM     31  C   UNL A   1      52.472  18.481  42.089  1.00  0.00     0.278 C 
ENDBRANCH  24  30
ENDBRANCH  20  23
ENDBRANCH  17  19
ENDBRANCH  15  17
ENDBRANCH   9  15
ENDBRANCH   6   8
ENDBRANCH   5   6
ENDBRANCH   4   5
ENDBRANCH   3   4
ENDBRANCH   2   3
ENDBRANCH   1   2
BRANCH   1  32
ATOM     32  C   UNL A   1      50.615  25.606  35.183  1.00  0.00     0.188 C 
BRANCH  32  33
ATOM     33  O   UNL A   1      50.738  26.986  34.984  1.00  0.00    -0.376 OA
BRANCH  33  34
ATOM     34  C   UNL A   1      49.707  27.795  35.467  1.00  0.00     0.202 C 
BRANCH  34  35
ATOM     35  C   UNL A   1      49.550  29.017  34.573  1.00  0.00     0.261 C 
BRANCH  35  36
ATOM     36  O   UNL A   1      50.311  28.896  33.341  1.00  0.00    -0.460 OA
BRANCH  36  37
ATOM     37  C   UNL A   1      50.656  30.064  32.684  1.00  0.00     0.338 C 
ATOM     38  O   UNL A   1      51.500  30.834  33.104  1.00  0.00    -0.246 OA
BRANCH  37  39
ATOM     39  C   UNL A   1      49.903  30.212  31.402  1.00  0.00     0.060 A 
ATOM     40  C   UNL A   1      48.852  31.112  31.118  1.00  0.00     0.016 A 
ATOM     41  C   UNL A   1      50.073  29.199  30.539  1.00  0.00     0.016 A 
ATOM     42  C   UNL A   1      47.764  30.826  30.159  1.00  0.00     0.010 A 
ATOM     43  C   UNL A   1      48.982  28.927  29.733  1.00  0.00     0.010 A 
ATOM     44  C   UNL A   1      47.681  29.629  29.455  1.00  0.00    -0.014 A 
BRANCH  44  45
ATOM     45  C   UNL A   1      46.266  29.059  28.431  1.00  0.00     0.031 A 
ATOM     46  C   UNL A   1      44.460  28.909  28.831  1.00  0.00     0.074 A 
ATOM     47  C   UNL A   1      46.439  28.656  27.151  1.00  0.00     0.049 A 
ATOM     48  N   UNL A   1      43.660  27.988  28.344  1.00  0.00    -0.248 NA
ATOM     49  C   UNL A   1      43.612  29.603  29.947  1.00  0.00     0.031 C 
ATOM     50  C   UNL A   1      45.395  28.536  26.129  1.00  0.00     0.029 A 
ATOM     51  N   UNL A   1      47.609  28.393  26.443  1.00  0.00    -0.354 N 
ATOM     52  C   UNL A   1      42.418  28.041  29.017  1.00  0.00     0.074 A 
ATOM     53  C   UNL A   1      42.510  28.918  30.107  1.00  0.00     0.031 C 
ATOM     54  C   UNL A   1      45.924  28.004  25.018  1.00  0.00     0.029 A 
ATOM     55  C   UNL A   1      47.278  27.609  25.335  1.00  0.00     0.049 A 
ATOM     56  H   UNL A   1      48.512  28.706  26.682  1.00  0.00     0.167 HD
ATOM     57  C   UNL A   1      41.261  27.557  28.507  1.00  0.00     0.034 A 
ATOM     58  C   UNL A   1      47.864  26.396  25.159  1.00  0.00     0.034 A 
ATOM     59  C   UNL A   1      41.573  26.980  27.222  1.00  0.00     0.049 A 
ATOM     60  C   UNL A   1      46.828  25.292  25.224  1.00  0.00     0.074 A 
ATOM     61  C   UNL A   1      41.672  27.504  25.945  1.00  0.00     0.029 A 
ATOM     62  N   UNL A   1      42.378  25.858  27.236  1.00  0.00    -0.354 N 
ATOM     63  N   UNL A   1      45.542  25.501  25.356  1.00  0.00    -0.248 NA
ATOM     64  C   UNL A   1      47.133  23.869  25.170  1.00  0.00     0.031 C 
ATOM     65  C   UNL A   1      42.491  26.621  25.177  1.00  0.00     0.029 A 
ATOM     66  C   UNL A   1      42.840  25.547  25.976  1.00  0.00     0.049 A 
ATOM     67  H   UNL A   1      42.594  25.342  28.047  1.00  0.00     0.167 HD
ATOM     68  C   UNL A   1      44.870  24.322  25.534  1.00  0.00     0.074 A 
ATOM     69  C   UNL A   1      45.920  23.323  25.385  1.00  0.00     0.031 C 
ATOM     70  C   UNL A   1      43.524  24.275  25.815  1.00  0.00     0.034 A 
BRANCH  57  71
ATOM     71  C   UNL A   1      39.906  28.060  29.023  1.00  0.00     0.023 A 
ATOM     72  C   UNL A   1      39.105  28.746  28.094  1.00  0.00     0.012 A 
ATOM     73  C   UNL A   1      39.426  28.044  30.373  1.00  0.00     0.148 A 
ATOM     74  C   UNL A   1      37.960  29.458  28.473  1.00  0.00     0.002 A 
ATOM     75  C   UNL A   1      38.329  28.830  30.765  1.00  0.00     0.091 A 
ATOM     76  F   UNL A   1      40.037  27.273  31.288  1.00  0.00    -0.205 F 
ATOM     77  C   UNL A   1      37.593  29.533  29.810  1.00  0.00     0.022 A 
BRANCH  75  78
ATOM     78  S   UNL A   1      37.887  29.141  32.496  1.00  0.00     0.127 S 
ATOM     79  O   UNL A   1      36.606  29.848  32.375  1.00  0.00    -0.237 OA
ATOM     80  O   UNL A   1      37.774  27.797  33.052  1.00  0.00    -0.237 OA
ATOM     81  O   UNL A   1      38.955  29.974  33.037  1.00  0.00    -0.744 OA
ENDBRANCH  75  78
ENDBRANCH  57  71
BRANCH  58  82
ATOM     82  C   UNL A   1      49.320  26.434  25.544  1.00  0.00     0.023 A 
ATOM     83  C   UNL A   1      49.642  25.754  26.759  1.00  0.00     0.012 A 
ATOM     84  C   UNL A   1      50.378  26.731  24.665  1.00  0.00     0.148 A 
ATOM     85  C   UNL A   1      50.921  25.250  27.014  1.00  0.00     0.002 A 
ATOM     86  C   UNL A   1      51.671  26.259  24.951  1.00  0.00     0.091 A 
ATOM     87  F   UNL A   1      50.106  27.399  23.539  1.00  0.00    -0.205 F 
ATOM     88  C   UNL A   1      51.927  25.478  26.092  1.00  0.00     0.022 A 
BRANCH  86  89
ATOM     89  S   UNL A   1      53.102  26.548  23.899  1.00  0.00     0.127 S 
ATOM     90  O   UNL A   1      53.605  27.819  24.418  1.00  0.00    -0.237 OA
ATOM     91  O   UNL A   1      53.948  25.398  24.210  1.00  0.00    -0.237 OA
ATOM     92  O   UNL A   1      52.592  26.595  22.537  1.00  0.00    -0.744 OA
ENDBRANCH  86  89
ENDBRANCH  58  82
BRANCH  70  93
ATOM     93  C   UNL A   1      42.689  23.009  26.018  1.00  0.00     0.023 A 
ATOM     94  C   UNL A   1      41.412  23.075  26.590  1.00  0.00     0.012 A 
ATOM     95  C   UNL A   1      43.182  21.692  25.754  1.00  0.00     0.148 A 
ATOM     96  C   UNL A   1      40.618  21.932  26.757  1.00  0.00     0.002 A 
ATOM     97  C   UNL A   1      42.403  20.558  25.931  1.00  0.00     0.091 A 
ATOM     98  F   UNL A   1      44.444  21.489  25.381  1.00  0.00    -0.205 F 
ATOM     99  C   UNL A   1      41.103  20.678  26.406  1.00  0.00     0.022 A 
BRANCH  97 100
ATOM    100  S   UNL A   1      43.034  18.899  25.613  1.00  0.00     0.127 S 
ATOM    101  O   UNL A   1      41.869  18.077  25.944  1.00  0.00    -0.237 OA
ATOM    102  O   UNL A   1      43.345  18.968  24.185  1.00  0.00    -0.237 OA
ATOM    103  O   UNL A   1      44.188  18.712  26.479  1.00  0.00    -0.744 OA
ENDBRANCH  97 100
ENDBRANCH  70  93
ENDBRANCH  44  45
ENDBRANCH  37  39
ENDBRANCH  36  37
ENDBRANCH  35  36
ENDBRANCH  34  35
ENDBRANCH  33  34
ENDBRANCH  32  33
ENDBRANCH   1  32
TORSDOF 25
ENDMDL
MODEL 2
REMARK VINA RESULT:      -9.5      9.054     15.129
REMARK SMILES COc1c(C)cccc1C(=O)NC(=S)Nc1ccc(C(=O)OCCOCCOCCOC(=O)c2ccc(-c3c4nc(c(-c5cccc(S(=O)(=O)[O-])c5F)c5ccc([nH]5)c(-c5cccc(S(=O)(=O)[O-])c5F)c5nc(c(-c6cccc(S(=O)(=O)[O-])c6F)c6ccc3[nH]6)C=C5)C=C4)cc2)cc1C
REMARK SMILES IDX 26 1 25 2 24 3 23 4 22 5 20 6 21 7 19 8 16 9 17 10 98 11
REMARK SMILES IDX 18 12 97 13 99 14 15 15 13 17 14 18 12 19 10 20 11 21 9 23
REMARK SMILES IDX 3 24 4 25 5 26 6 27 8 28 7 29 2 30 1 31 27 32 28 33 29 34
REMARK SMILES IDX 30 35 31 36 32 37 33 38 34 39 35 40 96 41 36 42 95 43 37 44
REMARK SMILES IDX 38 45 39 46 89 47 40 48 94 49 88 50 90 51 41 52 93 53 87 54
REMARK SMILES IDX 86 55 42 57 74 58 54 59 73 60 55 61 58 62 72 63 91 64 56 65
REMARK SMILES IDX 57 66 71 68 92 69 59 70 43 71 44 72 52 73 45 74 47 75 53 76
REMARK SMILES IDX 46 77 48 78 49 79 50 80 51 81 75 82 76 83 84 84 77 85 79 86
REMARK SMILES IDX 85 87 78 88 80 89 81 90 82 91 83 92 60 93 61 94 69 95 62 96
REMARK SMILES IDX 64 97 70 98 63 99 65 100 66 101 67 102 68 103
REMARK H PARENT 15 16 12 22 90 56 58 67
REMARK Flexibility Score: inf
ROOT
ATOM      1  C   UNL A   1      55.314  29.130  24.399  1.00  0.00     0.188 C 
ENDROOT
BRANCH   1   2
ATOM      2  O   UNL A   1      54.408  28.205  25.035  1.00  0.00    -0.376 OA
BRANCH   2   3
ATOM      3  C   UNL A   1      53.835  26.985  24.471  1.00  0.00     0.202 C 
BRANCH   3   4
ATOM      4  C   UNL A   1      52.218  26.435  23.913  1.00  0.00     0.261 C 
BRANCH   4   5
ATOM      5  O   UNL A   1      50.443  27.001  24.207  1.00  0.00    -0.460 OA
BRANCH   5   6
ATOM      6  C   UNL A   1      48.944  26.650  23.805  1.00  0.00     0.338 C 
ATOM      7  O   UNL A   1      48.467  27.157  22.793  1.00  0.00    -0.246 OA
BRANCH   6   8
ATOM      8  C   UNL A   1      47.695  25.882  24.538  1.00  0.00     0.060 A 
ATOM      9  C   UNL A   1      44.265  25.345  25.489  1.00  0.00     0.043 A 
ATOM     10  C   UNL A   1      44.984  26.994  25.421  1.00  0.00     0.027 A 
ATOM     11  C   UNL A   1      45.113  23.880  25.142  1.00  0.00    -0.027 A 
ATOM     12  C   UNL A   1      46.668  27.291  24.971  1.00  0.00     0.018 A 
ATOM     13  C   UNL A   1      46.795  24.063  24.622  1.00  0.00     0.021 A 
ATOM     14  C   UNL A   1      44.566  22.491  25.134  1.00  0.00     0.046 C 
BRANCH   9  15
ATOM     15  N   UNL A   1      42.902  25.275  25.269  1.00  0.00    -0.332 N 
ATOM     16  H   UNL A   1      42.530  25.027  24.392  1.00  0.00     0.169 HD
BRANCH  15  17
ATOM     17  C   UNL A   1      42.107  25.569  26.328  1.00  0.00     0.177 C 
ATOM     18  S   UNL A   1      41.228  26.984  26.355  1.00  0.00    -0.040 S 
BRANCH  17  19
ATOM     19  N   UNL A   1      42.123  24.699  27.406  1.00  0.00    -0.299 N 
ATOM     20  C   UNL A   1      41.494  23.483  27.783  1.00  0.00     0.261 C 
ATOM     21  O   UNL A   1      41.948  22.981  28.817  1.00  0.00    -0.269 OA
ATOM     22  H   UNL A   1      42.745  25.008  28.103  1.00  0.00     0.172 HD
BRANCH  20  23
ATOM     23  C   UNL A   1      40.346  22.666  26.982  1.00  0.00     0.082 A 
ATOM     24  C   UNL A   1      39.930  20.867  26.128  1.00  0.00     0.134 A 
ATOM     25  C   UNL A   1      38.396  20.725  25.166  1.00  0.00    -0.008 A 
ATOM     26  C   UNL A   1      37.686  19.409  25.009  1.00  0.00     0.048 C 
ATOM     27  C   UNL A   1      37.364  22.144  25.025  1.00  0.00     0.007 A 
ATOM     28  C   UNL A   1      39.139  23.999  26.746  1.00  0.00     0.018 A 
ATOM     29  C   UNL A   1      37.697  23.702  25.778  1.00  0.00     0.001 A 
BRANCH  24  30
ATOM     30  O   UNL A   1      40.706  19.717  25.807  1.00  0.00    -0.496 OA
ATOM     31  C   UNL A   1      42.094  19.733  26.110  1.00  0.00     0.278 C 
ENDBRANCH  24  30
ENDBRANCH  20  23
ENDBRANCH  17  19
ENDBRANCH  15  17
ENDBRANCH   9  15
ENDBRANCH   6   8
ENDBRANCH   5   6
ENDBRANCH   4   5
ENDBRANCH   3   4
ENDBRANCH   2   3
ENDBRANCH   1   2
BRANCH   1  32
ATOM     32  C   UNL A   1      54.927  30.569  24.191  1.00  0.00     0.188 C 
BRANCH  32  33
ATOM     33  O   UNL A   1      53.536  30.622  24.334  1.00  0.00    -0.376 OA
BRANCH  33  34
ATOM     34  C   UNL A   1      52.783  30.838  23.178  1.00  0.00     0.202 C 
BRANCH  34  35
ATOM     35  C   UNL A   1      52.367  32.300  23.101  1.00  0.00     0.261 C 
BRANCH  35  36
ATOM     36  O   UNL A   1      51.455  32.668  24.170  1.00  0.00    -0.460 OA
BRANCH  36  37
ATOM     37  C   UNL A   1      51.827  33.712  25.000  1.00  0.00     0.338 C 
ATOM     38  O   UNL A   1      52.927  34.231  24.956  1.00  0.00    -0.246 OA
BRANCH  37  39
ATOM     39  C   UNL A   1      50.702  34.126  25.893  1.00  0.00     0.060 A 
ATOM     40  C   UNL A   1      49.433  33.521  26.019  1.00  0.00     0.016 A 
ATOM     41  C   UNL A   1      50.834  35.355  26.416  1.00  0.00     0.016 A 
ATOM     42  C   UNL A   1      48.203  34.260  26.375  1.00  0.00     0.010 A 
ATOM     43  C   UNL A   1      49.645  36.026  26.640  1.00  0.00     0.010 A 
ATOM     44  C   UNL A   1      48.194  35.631  26.610  1.00  0.00    -0.014 A 
BRANCH  44  45
ATOM     45  C   UNL A   1      46.712  36.695  26.818  1.00  0.00     0.031 A 
ATOM     46  C   UNL A   1      46.329  38.387  26.160  1.00  0.00     0.074 A 
ATOM     47  C   UNL A   1      45.648  36.288  27.550  1.00  0.00     0.049 A 
ATOM     48  N   UNL A   1      45.612  39.290  26.790  1.00  0.00    -0.248 NA
ATOM     49  C   UNL A   1      46.943  39.162  24.948  1.00  0.00     0.031 C 
ATOM     50  C   UNL A   1      44.294  36.845  27.499  1.00  0.00     0.029 A 
ATOM     51  N   UNL A   1      45.511  35.196  28.404  1.00  0.00    -0.354 N 
ATOM     52  C   UNL A   1      45.699  40.522  26.103  1.00  0.00     0.074 A 
ATOM     53  C   UNL A   1      46.671  40.432  25.096  1.00  0.00     0.031 C 
ATOM     54  C   UNL A   1      43.541  36.262  28.443  1.00  0.00     0.029 A 
ATOM     55  C   UNL A   1      44.418  35.435  29.241  1.00  0.00     0.049 A 
ATOM     56  H   UNL A   1      46.085  34.396  28.415  1.00  0.00     0.167 HD
ATOM     57  C   UNL A   1      44.784  41.515  26.211  1.00  0.00     0.034 A 
ATOM     58  C   UNL A   1      44.580  35.437  30.589  1.00  0.00     0.034 A 
ATOM     59  C   UNL A   1      43.786  41.070  27.153  1.00  0.00     0.049 A 
ATOM     60  C   UNL A   1      44.275  36.807  31.159  1.00  0.00     0.074 A 
ATOM     61  C   UNL A   1      42.638  40.309  27.030  1.00  0.00     0.029 A 
ATOM     62  N   UNL A   1      44.206  40.916  28.460  1.00  0.00    -0.354 N 
ATOM     63  N   UNL A   1      43.845  37.817  30.446  1.00  0.00    -0.248 NA
ATOM     64  C   UNL A   1      44.443  37.176  32.558  1.00  0.00     0.031 C 
ATOM     65  C   UNL A   1      42.339  39.764  28.315  1.00  0.00     0.029 A 
ATOM     66  C   UNL A   1      43.276  40.237  29.216  1.00  0.00     0.049 A 
ATOM     67  H   UNL A   1      45.064  41.252  28.808  1.00  0.00     0.167 HD
ATOM     68  C   UNL A   1      43.800  38.962  31.195  1.00  0.00     0.074 A 
ATOM     69  C   UNL A   1      44.167  38.495  32.526  1.00  0.00     0.031 C 
ATOM     70  C   UNL A   1      43.496  40.189  30.652  1.00  0.00     0.034 A 
BRANCH  57  71
ATOM     71  C   UNL A   1      44.656  42.584  25.117  1.00  0.00     0.023 A 
ATOM     72  C   UNL A   1      43.397  42.689  24.501  1.00  0.00     0.012 A 
ATOM     73  C   UNL A   1      45.701  43.382  24.550  1.00  0.00     0.148 A 
ATOM     74  C   UNL A   1      43.193  43.448  23.341  1.00  0.00     0.002 A 
ATOM     75  C   UNL A   1      45.516  44.071  23.339  1.00  0.00     0.091 A 
ATOM     76  F   UNL A   1      46.885  43.471  25.176  1.00  0.00    -0.205 F 
ATOM     77  C   UNL A   1      44.256  44.106  22.738  1.00  0.00     0.022 A 
BRANCH  75  78
ATOM     78  S   UNL A   1      46.873  44.798  22.382  1.00  0.00     0.127 S 
ATOM     79  O   UNL A   1      47.792  43.666  22.222  1.00  0.00    -0.237 OA
ATOM     80  O   UNL A   1      46.216  45.211  21.145  1.00  0.00    -0.237 OA
ATOM     81  O   UNL A   1      47.416  45.869  23.210  1.00  0.00    -0.744 OA
ENDBRANCH  75  78
ENDBRANCH  57  71
BRANCH  58  82
ATOM     82  C   UNL A   1      45.535  34.355  31.024  1.00  0.00     0.023 A 
ATOM     83  C   UNL A   1      44.975  33.042  31.083  1.00  0.00     0.012 A 
ATOM     84  C   UNL A   1      46.938  34.463  31.004  1.00  0.00     0.148 A 
ATOM     85  C   UNL A   1      45.760  31.892  30.963  1.00  0.00     0.002 A 
ATOM     86  C   UNL A   1      47.722  33.300  30.929  1.00  0.00     0.091 A 
ATOM     87  F   UNL A   1      47.485  35.684  30.986  1.00  0.00    -0.205 F 
ATOM     88  C   UNL A   1      47.133  32.025  30.854  1.00  0.00     0.022 A 
BRANCH  86  89
ATOM     89  S   UNL A   1      49.522  33.303  30.871  1.00  0.00     0.127 S 
ATOM     90  O   UNL A   1      49.815  31.896  30.601  1.00  0.00    -0.237 OA
ATOM     91  O   UNL A   1      49.791  34.197  29.747  1.00  0.00    -0.237 OA
ATOM     92  O   UNL A   1      49.960  33.787  32.170  1.00  0.00    -0.744 OA
ENDBRANCH  86  89
ENDBRANCH  58  82
BRANCH  70  93
ATOM     93  C   UNL A   1      43.411  41.516  31.410  1.00  0.00     0.023 A 
ATOM     94  C   UNL A   1      42.342  42.396  31.201  1.00  0.00     0.012 A 
ATOM     95  C   UNL A   1      44.446  41.992  32.276  1.00  0.00     0.148 A 
ATOM     96  C   UNL A   1      42.229  43.601  31.908  1.00  0.00     0.002 A 
ATOM     97  C   UNL A   1      44.344  43.191  32.966  1.00  0.00     0.091 A 
ATOM     98  F   UNL A   1      45.593  41.329  32.412  1.00  0.00    -0.205 F 
ATOM     99  C   UNL A   1      43.217  43.988  32.806  1.00  0.00     0.022 A 
BRANCH  97 100
ATOM    100  S   UNL A   1      45.657  43.797  34.042  1.00  0.00     0.127 S 
ATOM    101  O   UNL A   1      45.087  45.060  34.513  1.00  0.00    -0.237 OA
ATOM    102  O   UNL A   1      45.721  42.742  35.055  1.00  0.00    -0.237 OA
ATOM    103  O   UNL A   1      46.852  43.925  33.221  1.00  0.00    -0.744 OA
ENDBRANCH  97 100
ENDBRANCH  70  93
ENDBRANCH  44  45
ENDBRANCH  37  39
ENDBRANCH  36  37
ENDBRANCH  35  36
ENDBRANCH  34  35
ENDBRANCH  33  34
ENDBRANCH  32  33
ENDBRANCH   1  32
TORSDOF 25
ENDMDL
MODEL 3
REMARK VINA RESULT:      -9.4      7.272     14.154
REMARK SMILES COc1c(C)cccc1C(=O)NC(=S)Nc1ccc(C(=O)OCCOCCOCCOC(=O)c2ccc(-c3c4nc(c(-c5cccc(S(=O)(=O)[O-])c5F)c5ccc([nH]5)c(-c5cccc(S(=O)(=O)[O-])c5F)c5nc(c(-c6cccc(S(=O)(=O)[O-])c6F)c6ccc3[nH]6)C=C5)C=C4)cc2)cc1C
REMARK SMILES IDX 26 1 25 2 24 3 23 4 22 5 20 6 21 7 19 8 16 9 17 10 98 11
REMARK SMILES IDX 18 12 97 13 99 14 15 15 13 17 14 18 12 19 10 20 11 21 9 23
REMARK SMILES IDX 3 24 4 25 5 26 6 27 8 28 7 29 2 30 1 31 27 32 28 33 29 34
REMARK SMILES IDX 30 35 31 36 32 37 33 38 34 39 35 40 96 41 36 42 95 43 37 44
REMARK SMILES IDX 38 45 39 46 89 47 40 48 94 49 88 50 90 51 41 52 93 53 87 54
REMARK SMILES IDX 86 55 42 57 74 58 54 59 73 60 55 61 58 62 72 63 91 64 56 65
REMARK SMILES IDX 57 66 71 68 92 69 59 70 43 71 44 72 52 73 45 74 47 75 53 76
REMARK SMILES IDX 46 77 48 78 49 79 50 80 51 81 75 82 76 83 84 84 77 85 79 86
REMARK SMILES IDX 85 87 78 88 80 89 81 90 82 91 83 92 60 93 61 94 69 95 62 96
REMARK SMILES IDX 64 97 70 98 63 99 65 100 66 101 67 102 68 103
REMARK H PARENT 15 16 12 22 90 56 58 67
REMARK Flexibility Score: inf
ROOT
ATOM      1  C   UNL A   1      38.986  31.841  35.594  1.00  0.00     0.188 C 
ENDROOT
BRANCH   1   2
ATOM      2  O   UNL A   1      39.791  30.708  35.984  1.00  0.00    -0.376 OA
BRANCH   2   3
ATOM      3  C   UNL A   1      40.946  30.150  35.285  1.00  0.00     0.202 C 
BRANCH   3   4
ATOM      4  C   UNL A   1      42.729  30.370  35.318  1.00  0.00     0.261 C 
BRANCH   4   5
ATOM      5  O   UNL A   1      44.058  30.681  34.016  1.00  0.00    -0.460 OA
BRANCH   5   6
ATOM      6  C   UNL A   1      44.836  29.951  32.836  1.00  0.00     0.338 C 
ATOM      7  O   UNL A   1      46.063  29.920  32.865  1.00  0.00    -0.246 OA
BRANCH   6   8
ATOM      8  C   UNL A   1      44.418  29.347  31.370  1.00  0.00     0.060 A 
ATOM      9  C   UNL A   1      42.379  27.545  29.014  1.00  0.00     0.043 A 
ATOM     10  C   UNL A   1      42.633  26.954  30.695  1.00  0.00     0.027 A 
ATOM     11  C   UNL A   1      43.078  28.980  28.352  1.00  0.00    -0.027 A 
ATOM     12  C   UNL A   1      43.639  27.808  31.873  1.00  0.00     0.018 A 
ATOM     13  C   UNL A   1      44.058  29.948  29.463  1.00  0.00     0.021 A 
ATOM     14  C   UNL A   1      42.870  29.548  26.987  1.00  0.00     0.046 C 
BRANCH   9  15
ATOM     15  N   UNL A   1      41.189  27.170  28.420  1.00  0.00    -0.332 N 
ATOM     16  H   UNL A   1      41.143  26.435  27.766  1.00  0.00     0.169 HD
BRANCH  15  17
ATOM     17  C   UNL A   1      40.087  27.874  28.786  1.00  0.00     0.177 C 
ATOM     18  S   UNL A   1      39.382  28.949  27.727  1.00  0.00    -0.040 S 
BRANCH  17  19
ATOM     19  N   UNL A   1      39.633  27.725  30.087  1.00  0.00    -0.299 N 
ATOM     20  C   UNL A   1      39.254  28.562  31.169  1.00  0.00     0.261 C 
ATOM     21  O   UNL A   1      38.758  27.956  32.125  1.00  0.00    -0.269 OA
ATOM     22  H   UNL A   1      39.547  26.774  30.327  1.00  0.00     0.172 HD
BRANCH  20  23
ATOM     23  C   UNL A   1      39.317  30.180  31.245  1.00  0.00     0.082 A 
ATOM     24  C   UNL A   1      38.221  31.864  30.926  1.00  0.00     0.134 A 
ATOM     25  C   UNL A   1      39.076  33.462  31.045  1.00  0.00    -0.008 A 
ATOM     26  C   UNL A   1      38.345  34.719  31.428  1.00  0.00     0.048 C 
ATOM     27  C   UNL A   1      40.796  33.463  31.424  1.00  0.00     0.007 A 
ATOM     28  C   UNL A   1      41.071  30.392  31.655  1.00  0.00     0.018 A 
ATOM     29  C   UNL A   1      41.755  32.015  31.727  1.00  0.00     0.001 A 
BRANCH  24  30
ATOM     30  O   UNL A   1      36.970  32.131  30.302  1.00  0.00    -0.496 OA
ATOM     31  C   UNL A   1      36.907  32.115  28.883  1.00  0.00     0.278 C 
ENDBRANCH  24  30
ENDBRANCH  20  23
ENDBRANCH  17  19
ENDBRANCH  15  17
ENDBRANCH   9  15
ENDBRANCH   6   8
ENDBRANCH   5   6
ENDBRANCH   4   5
ENDBRANCH   3   4
ENDBRANCH   2   3
ENDBRANCH   1   2
BRANCH   1  32
ATOM     32  C   UNL A   1      38.079  32.520  36.583  1.00  0.00     0.188 C 
BRANCH  32  33
ATOM     33  O   UNL A   1      38.389  33.883  36.523  1.00  0.00    -0.376 OA
BRANCH  33  34
ATOM     34  C   UNL A   1      39.637  34.231  36.001  1.00  0.00     0.202 C 
BRANCH  34  35
ATOM     35  C   UNL A   1      39.495  35.448  35.097  1.00  0.00     0.261 C 
BRANCH  35  36
ATOM     36  O   UNL A   1      40.063  36.644  35.694  1.00  0.00    -0.460 OA
BRANCH  36  37
ATOM     37  C   UNL A   1      41.298  36.529  36.310  1.00  0.00     0.338 C 
ATOM     38  O   UNL A   1      41.426  36.375  37.510  1.00  0.00    -0.246 OA
BRANCH  37  39
ATOM     39  C   UNL A   1      42.410  36.573  35.313  1.00  0.00     0.060 A 
ATOM     40  C   UNL A   1      42.731  37.622  34.423  1.00  0.00     0.016 A 
ATOM     41  C   UNL A   1      42.980  35.384  35.065  1.00  0.00     0.016 A 
ATOM     42  C   UNL A   1      43.359  37.413  33.101  1.00  0.00     0.010 A 
ATOM     43  C   UNL A   1      43.466  35.223  33.780  1.00  0.00     0.010 A 
ATOM     44  C   UNL A   1      43.681  36.151  32.615  1.00  0.00    -0.014 A 
BRANCH  44  45
ATOM     45  C   UNL A   1      44.232  35.743  30.911  1.00  0.00     0.031 A 
ATOM     46  C   UNL A   1      45.222  34.312  30.265  1.00  0.00     0.074 A 
ATOM     47  C   UNL A   1      43.927  36.539  29.861  1.00  0.00     0.049 A 
ATOM     48  N   UNL A   1      46.061  34.378  29.256  1.00  0.00    -0.248 NA
ATOM     49  C   UNL A   1      45.477  32.899  30.885  1.00  0.00     0.031 C 
ATOM     50  C   UNL A   1      43.972  36.166  28.445  1.00  0.00     0.029 A 
ATOM     51  N   UNL A   1      43.378  37.820  29.835  1.00  0.00    -0.354 N 
ATOM     52  C   UNL A   1      46.790  33.170  29.172  1.00  0.00     0.074 A 
ATOM     53  C   UNL A   1      46.525  32.381  30.300  1.00  0.00     0.031 C 
ATOM     54  C   UNL A   1      43.710  37.246  27.695  1.00  0.00     0.029 A 
ATOM     55  C   UNL A   1      43.652  38.383  28.586  1.00  0.00     0.049 A 
ATOM     56  H   UNL A   1      42.885  38.252  30.569  1.00  0.00     0.167 HD
ATOM     57  C   UNL A   1      47.401  32.733  28.045  1.00  0.00     0.034 A 
ATOM     58  C   UNL A   1      44.333  39.554  28.501  1.00  0.00     0.034 A 
ATOM     59  C   UNL A   1      47.181  33.733  27.029  1.00  0.00     0.049 A 
ATOM     60  C   UNL A   1      45.654  39.350  27.787  1.00  0.00     0.074 A 
ATOM     61  C   UNL A   1      46.154  33.964  26.132  1.00  0.00     0.029 A 
ATOM     62  N   UNL A   1      47.790  34.955  27.235  1.00  0.00    -0.354 N 
ATOM     63  N   UNL A   1      46.035  38.211  27.265  1.00  0.00    -0.248 NA
ATOM     64  C   UNL A   1      46.667  40.380  27.613  1.00  0.00     0.031 C 
ATOM     65  C   UNL A   1      46.216  35.338  25.746  1.00  0.00     0.029 A 
ATOM     66  C   UNL A   1      47.307  35.915  26.371  1.00  0.00     0.049 A 
ATOM     67  H   UNL A   1      48.483  35.121  27.914  1.00  0.00     0.167 HD
ATOM     68  C   UNL A   1      47.328  38.284  26.820  1.00  0.00     0.074 A 
ATOM     69  C   UNL A   1      47.670  39.683  27.045  1.00  0.00     0.031 C 
ATOM     70  C   UNL A   1      48.006  37.189  26.338  1.00  0.00     0.034 A 
BRANCH  57  71
ATOM     71  C   UNL A   1      47.740  31.247  27.865  1.00  0.00     0.023 A 
ATOM     72  C   UNL A   1      48.960  30.819  28.417  1.00  0.00     0.012 A 
ATOM     73  C   UNL A   1      47.035  30.280  27.078  1.00  0.00     0.148 A 
ATOM     74  C   UNL A   1      49.509  29.562  28.136  1.00  0.00     0.002 A 
ATOM     75  C   UNL A   1      47.627  29.055  26.727  1.00  0.00     0.091 A 
ATOM     76  F   UNL A   1      45.788  30.546  26.656  1.00  0.00    -0.205 F 
ATOM     77  C   UNL A   1      48.865  28.695  27.263  1.00  0.00     0.022 A 
BRANCH  75  78
ATOM     78  S   UNL A   1      46.959  27.946  25.457  1.00  0.00     0.127 S 
ATOM     79  O   UNL A   1      46.632  28.871  24.366  1.00  0.00    -0.237 OA
ATOM     80  O   UNL A   1      48.084  27.062  25.170  1.00  0.00    -0.237 OA
ATOM     81  O   UNL A   1      45.784  27.319  26.053  1.00  0.00    -0.744 OA
ENDBRANCH  75  78
ENDBRANCH  57  71
BRANCH  58  82
ATOM     82  C   UNL A   1      43.915  40.508  29.590  1.00  0.00     0.023 A 
ATOM     83  C   UNL A   1      42.548  40.920  29.542  1.00  0.00     0.012 A 
ATOM     84  C   UNL A   1      44.612  40.708  30.796  1.00  0.00     0.148 A 
ATOM     85  C   UNL A   1      41.861  41.356  30.678  1.00  0.00     0.002 A 
ATOM     86  C   UNL A   1      43.924  41.190  31.923  1.00  0.00     0.091 A 
ATOM     87  F   UNL A   1      45.904  40.364  30.854  1.00  0.00    -0.205 F 
ATOM     88  C   UNL A   1      42.545  41.461  31.876  1.00  0.00     0.022 A 
BRANCH  86  89
ATOM     89  S   UNL A   1      44.692  41.466  33.528  1.00  0.00     0.127 S 
ATOM     90  O   UNL A   1      43.546  41.863  34.344  1.00  0.00    -0.237 OA
ATOM     91  O   UNL A   1      45.223  40.142  33.845  1.00  0.00    -0.237 OA
ATOM     92  O   UNL A   1      45.690  42.503  33.319  1.00  0.00    -0.744 OA
ENDBRANCH  86  89
ENDBRANCH  58  82
BRANCH  70  93
ATOM     93  C   UNL A   1      49.443  37.177  25.811  1.00  0.00     0.023 A 
ATOM     94  C   UNL A   1      49.755  36.569  24.589  1.00  0.00     0.012 A 
ATOM     95  C   UNL A   1      50.557  37.670  26.560  1.00  0.00     0.148 A 
ATOM     96  C   UNL A   1      51.058  36.574  24.073  1.00  0.00     0.002 A 
ATOM     97  C   UNL A   1      51.851  37.664  26.059  1.00  0.00     0.091 A 
ATOM     98  F   UNL A   1      50.412  38.105  27.810  1.00  0.00    -0.205 F 
ATOM     99  C   UNL A   1      52.101  37.141  24.796  1.00  0.00     0.022 A 
BRANCH  97 100
ATOM    100  S   UNL A   1      53.255  38.270  27.013  1.00  0.00     0.127 S 
ATOM    101  O   UNL A   1      53.266  37.336  28.140  1.00  0.00    -0.237 OA
ATOM    102  O   UNL A   1      54.356  38.093  26.064  1.00  0.00    -0.237 OA
ATOM    103  O   UNL A   1      52.967  39.654  27.359  1.00  0.00    -0.744 OA
ENDBRANCH  97 100
ENDBRANCH  70  93
ENDBRANCH  44  45
ENDBRANCH  37  39
ENDBRANCH  36  37
ENDBRANCH  35  36
ENDBRANCH  34  35
ENDBRANCH  33  34
ENDBRANCH  32  33
ENDBRANCH   1  32
TORSDOF 25
ENDMDL
