MODEL 1
REMARK VINA RESULT:      -9.2      0.000      0.000
REMARK SMILES O=C(Cc1ccc(=O)n(C(F)F)c1)OCCOCCOCCOC(=O)c1ccc(-c2c3nc(c(-c4cccc(S(=O)(=O)[O-])c4F)c4ccc([nH]4)c(-c4cccc(S(=O)(=O)[O-])c4F)c4nc(c(-c5cccc(S(=O)(=O)[O-])c5F)c5ccc2[nH]5)C=C4)C=C3)cc1
REMARK SMILES IDX 19 1 18 2 17 3 16 4 15 5 14 6 2 7 1 8 3 9 4 10 5 11 13 12
REMARK SMILES IDX 6 13 9 14 7 15 8 16 10 17 11 18 12 19 20 20 21 21 22 22
REMARK SMILES IDX 23 23 24 24 25 25 26 26 27 27 88 28 28 29 87 30 29 31 30 32
REMARK SMILES IDX 31 33 81 34 32 35 86 36 80 37 82 38 33 39 85 40 79 41 78 42
REMARK SMILES IDX 34 44 66 45 46 46 65 47 47 48 50 49 64 50 83 51 48 52 49 53
REMARK SMILES IDX 63 55 84 56 51 57 35 58 36 59 44 60 37 61 39 62 45 63 38 64
REMARK SMILES IDX 40 65 41 66 42 67 43 68 67 69 68 70 76 71 69 72 71 73 77 74
REMARK SMILES IDX 70 75 72 76 73 77 74 78 75 79 52 80 53 81 61 82 54 83 56 84
REMARK SMILES IDX 62 85 55 86 57 87 58 88 59 89 60 90
REMARK H PARENT 82 43 50 54
REMARK Flexibility Score: inf
ROOT
ATOM      1  C   UNL A   1      33.682  28.591  24.107  1.00  0.00     0.188 C 
ENDROOT
BRANCH   1   2
ATOM      2  C   UNL A   1      33.330  28.081  22.704  1.00  0.00     0.188 C 
BRANCH   2   3
ATOM      3  O   UNL A   1      33.627  26.714  22.545  1.00  0.00    -0.376 OA
BRANCH   3   4
ATOM      4  C   UNL A   1      32.677  25.807  22.044  1.00  0.00     0.202 C 
BRANCH   4   5
ATOM      5  C   UNL A   1      31.577  25.281  22.967  1.00  0.00     0.261 C 
BRANCH   5   6
ATOM      6  O   UNL A   1      31.931  24.614  24.199  1.00  0.00    -0.463 OA
BRANCH   6   7
ATOM      7  C   UNL A   1      32.295  25.102  25.403  1.00  0.00     0.310 C 
ATOM      8  O   UNL A   1      31.426  25.537  26.157  1.00  0.00    -0.252 OA
BRANCH   7   9
ATOM      9  C   UNL A   1      33.763  25.209  25.779  1.00  0.00     0.159 C 
BRANCH   9  10
ATOM     10  C   UNL A   1      34.538  23.960  25.510  1.00  0.00    -0.020 A 
ATOM     11  C   UNL A   1      35.965  24.070  25.315  1.00  0.00     0.011 A 
ATOM     12  C   UNL A   1      33.964  22.748  25.443  1.00  0.00     0.099 A 
ATOM     13  C   UNL A   1      36.718  22.975  25.165  1.00  0.00     0.072 A 
ATOM     14  N   UNL A   1      34.719  21.597  25.345  1.00  0.00    -0.258 N 
ATOM     15  C   UNL A   1      36.099  21.620  25.213  1.00  0.00     0.254 A 
ATOM     16  O   UNL A   1      36.827  20.636  25.152  1.00  0.00    -0.269 OA
BRANCH  14  17
ATOM     17  C   UNL A   1      34.081  20.307  25.410  1.00  0.00     0.451 C 
ATOM     18  F   UNL A   1      32.863  20.390  25.990  1.00  0.00    -0.185 F 
ATOM     19  F   UNL A   1      33.927  19.776  24.171  1.00  0.00    -0.185 F 
ENDBRANCH  14  17
ENDBRANCH   9  10
ENDBRANCH   7   9
ENDBRANCH   6   7
ENDBRANCH   5   6
ENDBRANCH   4   5
ENDBRANCH   3   4
ENDBRANCH   2   3
ENDBRANCH   1   2
BRANCH   1  20
ATOM     20  O   UNL A   1      32.749  29.438  24.767  1.00  0.00    -0.376 OA
BRANCH  20  21
ATOM     21  C   UNL A   1      31.979  28.901  25.839  1.00  0.00     0.202 C 
BRANCH  21  22
ATOM     22  C   UNL A   1      32.576  28.882  27.257  1.00  0.00     0.261 C 
BRANCH  22  23
ATOM     23  O   UNL A   1      34.019  28.896  27.339  1.00  0.00    -0.460 OA
BRANCH  23  24
ATOM     24  C   UNL A   1      34.587  30.091  27.641  1.00  0.00     0.338 C 
ATOM     25  O   UNL A   1      34.043  31.189  27.610  1.00  0.00    -0.246 OA
BRANCH  24  26
ATOM     26  C   UNL A   1      35.957  29.896  28.159  1.00  0.00     0.060 A 
ATOM     27  C   UNL A   1      36.160  29.409  29.451  1.00  0.00     0.016 A 
ATOM     28  C   UNL A   1      37.052  30.112  27.310  1.00  0.00     0.016 A 
ATOM     29  C   UNL A   1      37.461  29.122  29.883  1.00  0.00     0.010 A 
ATOM     30  C   UNL A   1      38.353  29.840  27.752  1.00  0.00     0.010 A 
ATOM     31  C   UNL A   1      38.570  29.320  29.036  1.00  0.00    -0.014 A 
BRANCH  31  32
ATOM     32  C   UNL A   1      39.911  28.811  29.434  1.00  0.00     0.031 A 
ATOM     33  C   UNL A   1      40.546  27.615  28.784  1.00  0.00     0.074 A 
ATOM     34  C   UNL A   1      40.566  29.447  30.426  1.00  0.00     0.049 A 
ATOM     35  N   UNL A   1      41.749  27.130  28.963  1.00  0.00    -0.248 NA
ATOM     36  C   UNL A   1      39.736  26.866  27.813  1.00  0.00     0.031 C 
ATOM     37  C   UNL A   1      40.037  30.581  31.186  1.00  0.00     0.029 A 
ATOM     38  N   UNL A   1      41.809  29.232  30.970  1.00  0.00    -0.354 N 
ATOM     39  C   UNL A   1      41.847  26.020  28.134  1.00  0.00     0.074 A 
ATOM     40  C   UNL A   1      40.571  25.893  27.459  1.00  0.00     0.031 C 
ATOM     41  C   UNL A   1      40.954  30.972  32.084  1.00  0.00     0.029 A 
ATOM     42  C   UNL A   1      42.128  30.109  31.979  1.00  0.00     0.049 A 
ATOM     43  H   UNL A   1      42.414  28.518  30.664  1.00  0.00     0.167 HD
ATOM     44  C   UNL A   1      42.907  25.198  27.942  1.00  0.00     0.034 A 
ATOM     45  C   UNL A   1      43.237  30.220  32.735  1.00  0.00     0.034 A 
ATOM     46  C   UNL A   1      44.176  25.323  28.613  1.00  0.00     0.049 A 
ATOM     47  C   UNL A   1      44.399  29.300  32.497  1.00  0.00     0.074 A 
ATOM     48  C   UNL A   1      45.322  24.566  28.421  1.00  0.00     0.029 A 
ATOM     49  N   UNL A   1      44.467  26.236  29.611  1.00  0.00    -0.354 N 
ATOM     50  N   UNL A   1      44.522  28.350  31.603  1.00  0.00    -0.248 NA
ATOM     51  C   UNL A   1      45.586  29.485  33.346  1.00  0.00     0.031 C 
ATOM     52  C   UNL A   1      46.296  25.008  29.320  1.00  0.00     0.029 A 
ATOM     53  C   UNL A   1      45.767  26.057  30.054  1.00  0.00     0.049 A 
ATOM     54  H   UNL A   1      43.842  26.914  29.956  1.00  0.00     0.167 HD
ATOM     55  C   UNL A   1      45.803  27.838  31.767  1.00  0.00     0.074 A 
ATOM     56  C   UNL A   1      46.425  28.591  32.836  1.00  0.00     0.031 C 
ATOM     57  C   UNL A   1      46.401  26.828  31.091  1.00  0.00     0.034 A 
BRANCH  44  58
ATOM     58  C   UNL A   1      42.784  24.102  26.917  1.00  0.00     0.023 A 
ATOM     59  C   UNL A   1      43.428  24.256  25.673  1.00  0.00     0.012 A 
ATOM     60  C   UNL A   1      42.166  22.876  27.231  1.00  0.00     0.148 A 
ATOM     61  C   UNL A   1      43.454  23.208  24.754  1.00  0.00     0.002 A 
ATOM     62  C   UNL A   1      42.219  21.826  26.322  1.00  0.00     0.091 A 
ATOM     63  F   UNL A   1      41.558  22.756  28.421  1.00  0.00    -0.205 F 
ATOM     64  C   UNL A   1      42.860  21.991  25.083  1.00  0.00     0.022 A 
BRANCH  62  65
ATOM     65  S   UNL A   1      41.529  20.204  26.663  1.00  0.00     0.127 S 
ATOM     66  O   UNL A   1      41.869  19.478  25.439  1.00  0.00    -0.237 OA
ATOM     67  O   UNL A   1      42.284  19.792  27.846  1.00  0.00    -0.237 OA
ATOM     68  O   UNL A   1      40.105  20.408  26.884  1.00  0.00    -0.744 OA
ENDBRANCH  62  65
ENDBRANCH  44  58
BRANCH  45  69
ATOM     69  C   UNL A   1      43.311  31.301  33.753  1.00  0.00     0.023 A 
ATOM     70  C   UNL A   1      43.886  32.538  33.409  1.00  0.00     0.012 A 
ATOM     71  C   UNL A   1      42.743  31.131  35.031  1.00  0.00     0.148 A 
ATOM     72  C   UNL A   1      43.899  33.591  34.324  1.00  0.00     0.002 A 
ATOM     73  C   UNL A   1      42.724  32.194  35.923  1.00  0.00     0.091 A 
ATOM     74  F   UNL A   1      42.202  29.941  35.328  1.00  0.00    -0.205 F 
ATOM     75  C   UNL A   1      43.309  33.423  35.575  1.00  0.00     0.022 A 
BRANCH  73  76
ATOM     76  S   UNL A   1      41.908  32.106  37.519  1.00  0.00     0.127 S 
ATOM     77  O   UNL A   1      42.662  31.044  38.181  1.00  0.00    -0.237 OA
ATOM     78  O   UNL A   1      42.142  33.451  38.047  1.00  0.00    -0.237 OA
ATOM     79  O   UNL A   1      40.513  31.798  37.236  1.00  0.00    -0.744 OA
ENDBRANCH  73  76
ENDBRANCH  45  69
BRANCH  57  80
ATOM     80  C   UNL A   1      47.815  26.463  31.460  1.00  0.00     0.023 A 
ATOM     81  C   UNL A   1      48.890  27.106  30.816  1.00  0.00     0.012 A 
ATOM     82  C   UNL A   1      48.073  25.575  32.523  1.00  0.00     0.148 A 
ATOM     83  C   UNL A   1      50.203  26.862  31.219  1.00  0.00     0.002 A 
ATOM     84  C   UNL A   1      49.381  25.362  32.941  1.00  0.00     0.091 A 
ATOM     85  F   UNL A   1      47.032  24.970  33.114  1.00  0.00    -0.205 F 
ATOM     86  C   UNL A   1      50.447  26.001  32.288  1.00  0.00     0.022 A 
BRANCH  84  87
ATOM     87  S   UNL A   1      49.793  24.324  34.349  1.00  0.00     0.127 S 
ATOM     88  O   UNL A   1      51.236  24.540  34.464  1.00  0.00    -0.237 OA
ATOM     89  O   UNL A   1      48.999  24.926  35.419  1.00  0.00    -0.237 OA
ATOM     90  O   UNL A   1      49.400  22.971  33.984  1.00  0.00    -0.744 OA
ENDBRANCH  84  87
ENDBRANCH  57  80
ENDBRANCH  31  32
ENDBRANCH  24  26
ENDBRANCH  23  24
ENDBRANCH  22  23
ENDBRANCH  21  22
ENDBRANCH  20  21
ENDBRANCH   1  20
TORSDOF 22
ENDMDL
MODEL 2
REMARK VINA RESULT:      -9.1      1.756      2.240
REMARK SMILES O=C(Cc1ccc(=O)n(C(F)F)c1)OCCOCCOCCOC(=O)c1ccc(-c2c3nc(c(-c4cccc(S(=O)(=O)[O-])c4F)c4ccc([nH]4)c(-c4cccc(S(=O)(=O)[O-])c4F)c4nc(c(-c5cccc(S(=O)(=O)[O-])c5F)c5ccc2[nH]5)C=C4)C=C3)cc1
REMARK SMILES IDX 19 1 18 2 17 3 16 4 15 5 14 6 2 7 1 8 3 9 4 10 5 11 13 12
REMARK SMILES IDX 6 13 9 14 7 15 8 16 10 17 11 18 12 19 20 20 21 21 22 22
REMARK SMILES IDX 23 23 24 24 25 25 26 26 27 27 88 28 28 29 87 30 29 31 30 32
REMARK SMILES IDX 31 33 81 34 32 35 86 36 80 37 82 38 33 39 85 40 79 41 78 42
REMARK SMILES IDX 34 44 66 45 46 46 65 47 47 48 50 49 64 50 83 51 48 52 49 53
REMARK SMILES IDX 63 55 84 56 51 57 35 58 36 59 44 60 37 61 39 62 45 63 38 64
REMARK SMILES IDX 40 65 41 66 42 67 43 68 67 69 68 70 76 71 69 72 71 73 77 74
REMARK SMILES IDX 70 75 72 76 73 77 74 78 75 79 52 80 53 81 61 82 54 83 56 84
REMARK SMILES IDX 62 85 55 86 57 87 58 88 59 89 60 90
REMARK H PARENT 82 43 50 54
REMARK Flexibility Score: inf
ROOT
ATOM      1  C   UNL A   1      33.410  28.649  24.086  1.00  0.00     0.188 C 
ENDROOT
BRANCH   1   2
ATOM      2  C   UNL A   1      32.988  28.236  22.670  1.00  0.00     0.188 C 
BRANCH   2   3
ATOM      3  O   UNL A   1      32.282  27.018  22.661  1.00  0.00    -0.376 OA
BRANCH   3   4
ATOM      4  C   UNL A   1      30.878  26.980  22.587  1.00  0.00     0.202 C 
BRANCH   4   5
ATOM      5  C   UNL A   1      30.059  26.849  23.871  1.00  0.00     0.261 C 
BRANCH   5   6
ATOM      6  O   UNL A   1      29.925  25.560  24.510  1.00  0.00    -0.463 OA
BRANCH   6   7
ATOM      7  C   UNL A   1      30.700  24.932  25.419  1.00  0.00     0.310 C 
ATOM      8  O   UNL A   1      31.162  25.580  26.357  1.00  0.00    -0.252 OA
BRANCH   7   9
ATOM      9  C   UNL A   1      31.083  23.474  25.230  1.00  0.00     0.159 C 
BRANCH   9  10
ATOM     10  C   UNL A   1      32.424  23.289  24.598  1.00  0.00    -0.020 A 
ATOM     11  C   UNL A   1      32.553  23.543  23.182  1.00  0.00     0.011 A 
ATOM     12  C   UNL A   1      33.506  22.897  25.290  1.00  0.00     0.099 A 
ATOM     13  C   UNL A   1      33.750  23.485  22.587  1.00  0.00     0.072 A 
ATOM     14  N   UNL A   1      34.761  22.881  24.716  1.00  0.00    -0.258 N 
ATOM     15  C   UNL A   1      34.972  23.170  23.378  1.00  0.00     0.254 A 
ATOM     16  O   UNL A   1      36.062  23.203  22.817  1.00  0.00    -0.269 OA
BRANCH  14  17
ATOM     17  C   UNL A   1      35.919  22.586  25.522  1.00  0.00     0.451 C 
ATOM     18  F   UNL A   1      36.457  23.713  26.040  1.00  0.00    -0.185 F 
ATOM     19  F   UNL A   1      35.601  21.756  26.547  1.00  0.00    -0.185 F 
ENDBRANCH  14  17
ENDBRANCH   9  10
ENDBRANCH   7   9
ENDBRANCH   6   7
ENDBRANCH   5   6
ENDBRANCH   4   5
ENDBRANCH   3   4
ENDBRANCH   2   3
ENDBRANCH   1   2
BRANCH   1  20
ATOM     20  O   UNL A   1      32.673  29.679  24.732  1.00  0.00    -0.376 OA
BRANCH  20  21
ATOM     21  C   UNL A   1      31.845  29.334  25.839  1.00  0.00     0.202 C 
BRANCH  21  22
ATOM     22  C   UNL A   1      32.432  29.380  27.260  1.00  0.00     0.261 C 
BRANCH  22  23
ATOM     23  O   UNL A   1      33.870  29.269  27.357  1.00  0.00    -0.460 OA
BRANCH  23  24
ATOM     24  C   UNL A   1      34.539  30.417  27.628  1.00  0.00     0.338 C 
ATOM     25  O   UNL A   1      34.115  31.560  27.499  1.00  0.00    -0.246 OA
BRANCH  24  26
ATOM     26  C   UNL A   1      35.847  30.120  28.247  1.00  0.00     0.060 A 
ATOM     27  C   UNL A   1      35.917  29.657  29.562  1.00  0.00     0.016 A 
ATOM     28  C   UNL A   1      37.013  30.213  27.473  1.00  0.00     0.016 A 
ATOM     29  C   UNL A   1      37.155  29.271  30.093  1.00  0.00     0.010 A 
ATOM     30  C   UNL A   1      38.252  29.842  28.013  1.00  0.00     0.010 A 
ATOM     31  C   UNL A   1      38.332  29.345  29.322  1.00  0.00    -0.014 A 
BRANCH  31  32
ATOM     32  C   UNL A   1      39.592  28.734  29.827  1.00  0.00     0.031 A 
ATOM     33  C   UNL A   1      40.236  27.550  29.164  1.00  0.00     0.074 A 
ATOM     34  C   UNL A   1      40.160  29.262  30.930  1.00  0.00     0.049 A 
ATOM     35  N   UNL A   1      41.385  26.985  29.439  1.00  0.00    -0.248 NA
ATOM     36  C   UNL A   1      39.507  26.917  28.057  1.00  0.00     0.031 C 
ATOM     37  C   UNL A   1      39.605  30.371  31.708  1.00  0.00     0.029 A 
ATOM     38  N   UNL A   1      41.320  28.939  31.589  1.00  0.00    -0.354 N 
ATOM     39  C   UNL A   1      41.523  25.931  28.545  1.00  0.00     0.074 A 
ATOM     40  C   UNL A   1      40.327  25.923  27.725  1.00  0.00     0.031 C 
ATOM     41  C   UNL A   1      40.431  30.646  32.728  1.00  0.00     0.029 A 
ATOM     42  C   UNL A   1      41.565  29.725  32.690  1.00  0.00     0.049 A 
ATOM     43  H   UNL A   1      41.921  28.213  31.300  1.00  0.00     0.167 HD
ATOM     44  C   UNL A   1      42.555  25.064  28.411  1.00  0.00     0.034 A 
ATOM     45  C   UNL A   1      42.585  29.720  33.570  1.00  0.00     0.034 A 
ATOM     46  C   UNL A   1      43.744  25.069  29.225  1.00  0.00     0.049 A 
ATOM     47  C   UNL A   1      43.719  28.753  33.395  1.00  0.00     0.074 A 
ATOM     48  C   UNL A   1      44.865  24.262  29.105  1.00  0.00     0.029 A 
ATOM     49  N   UNL A   1      43.964  25.894  30.314  1.00  0.00    -0.354 N 
ATOM     50  N   UNL A   1      43.896  27.860  32.451  1.00  0.00    -0.248 NA
ATOM     51  C   UNL A   1      44.809  28.811  34.381  1.00  0.00     0.031 C 
ATOM     52  C   UNL A   1      45.751  24.585  30.137  1.00  0.00     0.029 A 
ATOM     53  C   UNL A   1      45.195  25.610  30.883  1.00  0.00     0.049 A 
ATOM     54  H   UNL A   1      43.338  26.582  30.638  1.00  0.00     0.167 HD
ATOM     55  C   UNL A   1      45.123  27.265  32.718  1.00  0.00     0.074 A 
ATOM     56  C   UNL A   1      45.655  27.907  33.901  1.00  0.00     0.031 C 
ATOM     57  C   UNL A   1      45.743  26.270  32.039  1.00  0.00     0.034 A 
BRANCH  44  58
ATOM     58  C   UNL A   1      42.496  24.049  27.300  1.00  0.00     0.023 A 
ATOM     59  C   UNL A   1      43.054  24.375  26.048  1.00  0.00     0.012 A 
ATOM     60  C   UNL A   1      42.028  22.741  27.532  1.00  0.00     0.148 A 
ATOM     61  C   UNL A   1      43.144  23.415  25.041  1.00  0.00     0.002 A 
ATOM     62  C   UNL A   1      42.145  21.782  26.533  1.00  0.00     0.091 A 
ATOM     63  F   UNL A   1      41.500  22.457  28.732  1.00  0.00    -0.205 F 
ATOM     64  C   UNL A   1      42.700  22.118  25.287  1.00  0.00     0.022 A 
BRANCH  62  65
ATOM     65  S   UNL A   1      41.650  20.071  26.760  1.00  0.00     0.127 S 
ATOM     66  O   UNL A   1      40.265  20.224  27.208  1.00  0.00    -0.237 OA
ATOM     67  O   UNL A   1      41.798  19.526  25.411  1.00  0.00    -0.237 OA
ATOM     68  O   UNL A   1      42.561  19.514  27.751  1.00  0.00    -0.744 OA
ENDBRANCH  62  65
ENDBRANCH  44  58
BRANCH  45  69
ATOM     69  C   UNL A   1      42.595  30.723  34.668  1.00  0.00     0.023 A 
ATOM     70  C   UNL A   1      42.102  30.366  35.936  1.00  0.00     0.012 A 
ATOM     71  C   UNL A   1      43.164  31.997  34.477  1.00  0.00     0.148 A 
ATOM     72  C   UNL A   1      42.170  31.266  37.000  1.00  0.00     0.002 A 
ATOM     73  C   UNL A   1      43.264  32.874  35.550  1.00  0.00     0.091 A 
ATOM     74  F   UNL A   1      43.626  32.307  33.258  1.00  0.00    -0.205 F 
ATOM     75  C   UNL A   1      42.760  32.513  36.810  1.00  0.00     0.022 A 
BRANCH  73  76
ATOM     76  S   UNL A   1      44.090  34.463  35.429  1.00  0.00     0.127 S 
ATOM     77  O   UNL A   1      43.182  35.204  34.557  1.00  0.00    -0.237 OA
ATOM     78  O   UNL A   1      44.098  34.900  36.825  1.00  0.00    -0.237 OA
ATOM     79  O   UNL A   1      45.406  34.186  34.870  1.00  0.00    -0.744 OA
ENDBRANCH  73  76
ENDBRANCH  45  69
BRANCH  57  80
ATOM     80  C   UNL A   1      47.086  25.801  32.533  1.00  0.00     0.023 A 
ATOM     81  C   UNL A   1      47.153  24.879  33.596  1.00  0.00     0.012 A 
ATOM     82  C   UNL A   1      48.269  26.181  31.868  1.00  0.00     0.148 A 
ATOM     83  C   UNL A   1      48.380  24.350  33.996  1.00  0.00     0.002 A 
ATOM     84  C   UNL A   1      49.483  25.625  32.250  1.00  0.00     0.091 A 
ATOM     85  F   UNL A   1      48.178  27.066  30.865  1.00  0.00    -0.205 F 
ATOM     86  C   UNL A   1      49.543  24.713  33.316  1.00  0.00     0.022 A 
BRANCH  84  87
ATOM     87  S   UNL A   1      51.024  25.978  31.394  1.00  0.00     0.127 S 
ATOM     88  O   UNL A   1      51.194  27.405  31.666  1.00  0.00    -0.237 OA
ATOM     89  O   UNL A   1      51.970  25.107  32.091  1.00  0.00    -0.237 OA
ATOM     90  O   UNL A   1      50.798  25.639  29.996  1.00  0.00    -0.744 OA
ENDBRANCH  84  87
ENDBRANCH  57  80
ENDBRANCH  31  32
ENDBRANCH  24  26
ENDBRANCH  23  24
ENDBRANCH  22  23
ENDBRANCH  21  22
ENDBRANCH  20  21
ENDBRANCH   1  20
TORSDOF 22
ENDMDL
MODEL 3
REMARK VINA RESULT:      -9.0      5.524      9.969
REMARK SMILES O=C(Cc1ccc(=O)n(C(F)F)c1)OCCOCCOCCOC(=O)c1ccc(-c2c3nc(c(-c4cccc(S(=O)(=O)[O-])c4F)c4ccc([nH]4)c(-c4cccc(S(=O)(=O)[O-])c4F)c4nc(c(-c5cccc(S(=O)(=O)[O-])c5F)c5ccc2[nH]5)C=C4)C=C3)cc1
REMARK SMILES IDX 19 1 18 2 17 3 16 4 15 5 14 6 2 7 1 8 3 9 4 10 5 11 13 12
REMARK SMILES IDX 6 13 9 14 7 15 8 16 10 17 11 18 12 19 20 20 21 21 22 22
REMARK SMILES IDX 23 23 24 24 25 25 26 26 27 27 88 28 28 29 87 30 29 31 30 32
REMARK SMILES IDX 31 33 81 34 32 35 86 36 80 37 82 38 33 39 85 40 79 41 78 42
REMARK SMILES IDX 34 44 66 45 46 46 65 47 47 48 50 49 64 50 83 51 48 52 49 53
REMARK SMILES IDX 63 55 84 56 51 57 35 58 36 59 44 60 37 61 39 62 45 63 38 64
REMARK SMILES IDX 40 65 41 66 42 67 43 68 67 69 68 70 76 71 69 72 71 73 77 74
REMARK SMILES IDX 70 75 72 76 73 77 74 78 75 79 52 80 53 81 61 82 54 83 56 84
REMARK SMILES IDX 62 85 55 86 57 87 58 88 59 89 60 90
REMARK H PARENT 82 43 50 54
REMARK Flexibility Score: inf
ROOT
ATOM      1  C   UNL A   1      36.607  22.956  23.436  1.00  0.00     0.188 C 
ENDROOT
BRANCH   1   2
ATOM      2  C   UNL A   1      35.127  23.280  23.191  1.00  0.00     0.188 C 
BRANCH   2   3
ATOM      3  O   UNL A   1      34.271  22.445  23.934  1.00  0.00    -0.376 OA
BRANCH   3   4
ATOM      4  C   UNL A   1      33.236  22.971  24.728  1.00  0.00     0.202 C 
BRANCH   4   5
ATOM      5  C   UNL A   1      32.399  24.136  24.200  1.00  0.00     0.261 C 
BRANCH   5   6
ATOM      6  O   UNL A   1      32.754  25.493  24.548  1.00  0.00    -0.463 OA
BRANCH   6   7
ATOM      7  C   UNL A   1      32.632  26.649  23.863  1.00  0.00     0.310 C 
ATOM      8  O   UNL A   1      33.072  26.711  22.716  1.00  0.00    -0.252 OA
BRANCH   7   9
ATOM      9  C   UNL A   1      32.055  27.885  24.533  1.00  0.00     0.159 C 
BRANCH   9  10
ATOM     10  C   UNL A   1      30.695  28.251  24.033  1.00  0.00    -0.020 A 
ATOM     11  C   UNL A   1      29.754  27.187  23.772  1.00  0.00     0.011 A 
ATOM     12  C   UNL A   1      30.318  29.521  23.818  1.00  0.00     0.099 A 
ATOM     13  C   UNL A   1      28.495  27.466  23.415  1.00  0.00     0.072 A 
ATOM     14  N   UNL A   1      29.013  29.842  23.503  1.00  0.00    -0.258 N 
ATOM     15  C   UNL A   1      28.039  28.879  23.295  1.00  0.00     0.254 A 
ATOM     16  O   UNL A   1      26.859  29.099  23.044  1.00  0.00    -0.269 OA
BRANCH  14  17
ATOM     17  C   UNL A   1      28.611  31.223  23.411  1.00  0.00     0.451 C 
ATOM     18  F   UNL A   1      27.321  31.385  23.783  1.00  0.00    -0.185 F 
ATOM     19  F   UNL A   1      29.384  32.009  24.203  1.00  0.00    -0.185 F 
ENDBRANCH  14  17
ENDBRANCH   9  10
ENDBRANCH   7   9
ENDBRANCH   6   7
ENDBRANCH   5   6
ENDBRANCH   4   5
ENDBRANCH   3   4
ENDBRANCH   2   3
ENDBRANCH   1   2
BRANCH   1  20
ATOM     20  O   UNL A   1      37.055  22.845  24.780  1.00  0.00    -0.376 OA
BRANCH  20  21
ATOM     21  C   UNL A   1      37.448  21.563  25.265  1.00  0.00     0.202 C 
BRANCH  21  22
ATOM     22  C   UNL A   1      38.796  21.415  25.992  1.00  0.00     0.261 C 
BRANCH  22  23
ATOM     23  O   UNL A   1      39.530  20.199  25.726  1.00  0.00    -0.460 OA
BRANCH  23  24
ATOM     24  C   UNL A   1      40.672  20.024  26.437  1.00  0.00     0.338 C 
ATOM     25  O   UNL A   1      41.192  18.955  26.737  1.00  0.00    -0.246 OA
BRANCH  24  26
ATOM     26  C   UNL A   1      41.317  21.325  26.708  1.00  0.00     0.060 A 
ATOM     27  C   UNL A   1      41.886  22.061  25.668  1.00  0.00     0.016 A 
ATOM     28  C   UNL A   1      41.268  21.863  28.002  1.00  0.00     0.016 A 
ATOM     29  C   UNL A   1      42.389  23.344  25.924  1.00  0.00     0.010 A 
ATOM     30  C   UNL A   1      41.788  23.138  28.259  1.00  0.00     0.010 A 
ATOM     31  C   UNL A   1      42.334  23.901  27.217  1.00  0.00    -0.014 A 
BRANCH  31  32
ATOM     32  C   UNL A   1      42.675  25.336  27.425  1.00  0.00     0.031 A 
ATOM     33  C   UNL A   1      41.721  26.309  28.056  1.00  0.00     0.074 A 
ATOM     34  C   UNL A   1      43.883  25.770  27.013  1.00  0.00     0.049 A 
ATOM     35  N   UNL A   1      41.929  27.558  28.388  1.00  0.00    -0.248 NA
ATOM     36  C   UNL A   1      40.364  25.828  28.353  1.00  0.00     0.031 C 
ATOM     37  C   UNL A   1      44.879  24.945  26.327  1.00  0.00     0.029 A 
ATOM     38  N   UNL A   1      44.477  27.005  27.105  1.00  0.00    -0.354 N 
ATOM     39  C   UNL A   1      40.736  28.019  28.931  1.00  0.00     0.074 A 
ATOM     40  C   UNL A   1      39.799  26.915  28.870  1.00  0.00     0.031 C 
ATOM     41  C   UNL A   1      45.965  25.692  26.074  1.00  0.00     0.029 A 
ATOM     42  C   UNL A   1      45.740  27.050  26.563  1.00  0.00     0.049 A 
ATOM     43  H   UNL A   1      44.040  27.784  27.520  1.00  0.00     0.167 HD
ATOM     44  C   UNL A   1      40.457  29.240  29.447  1.00  0.00     0.034 A 
ATOM     45  C   UNL A   1      46.625  28.060  26.471  1.00  0.00     0.034 A 
ATOM     46  C   UNL A   1      41.387  30.339  29.508  1.00  0.00     0.049 A 
ATOM     47  C   UNL A   1      46.294  29.401  27.057  1.00  0.00     0.074 A 
ATOM     48  C   UNL A   1      41.197  31.589  30.078  1.00  0.00     0.029 A 
ATOM     49  N   UNL A   1      42.662  30.339  28.970  1.00  0.00    -0.354 N 
ATOM     50  N   UNL A   1      45.211  29.770  27.698  1.00  0.00    -0.248 NA
ATOM     51  C   UNL A   1      47.312  30.457  26.937  1.00  0.00     0.031 C 
ATOM     52  C   UNL A   1      42.350  32.350  29.862  1.00  0.00     0.029 A 
ATOM     53  C   UNL A   1      43.267  31.567  29.182  1.00  0.00     0.049 A 
ATOM     54  H   UNL A   1      43.079  29.578  28.504  1.00  0.00     0.167 HD
ATOM     55  C   UNL A   1      45.426  31.090  28.076  1.00  0.00     0.074 A 
ATOM     56  C   UNL A   1      46.745  31.455  27.605  1.00  0.00     0.031 C 
ATOM     57  C   UNL A   1      44.593  31.921  28.747  1.00  0.00     0.034 A 
BRANCH  44  58
ATOM     58  C   UNL A   1      39.098  29.465  30.055  1.00  0.00     0.023 A 
ATOM     59  C   UNL A   1      38.849  29.001  31.362  1.00  0.00     0.012 A 
ATOM     60  C   UNL A   1      38.129  30.252  29.401  1.00  0.00     0.148 A 
ATOM     61  C   UNL A   1      37.654  29.312  32.008  1.00  0.00     0.002 A 
ATOM     62  C   UNL A   1      36.951  30.581  30.062  1.00  0.00     0.091 A 
ATOM     63  F   UNL A   1      38.389  30.680  28.157  1.00  0.00    -0.205 F 
ATOM     64  C   UNL A   1      36.711  30.109  31.364  1.00  0.00     0.022 A 
BRANCH  62  65
ATOM     65  S   UNL A   1      35.693  31.641  29.343  1.00  0.00     0.127 S 
ATOM     66  O   UNL A   1      36.502  32.735  28.809  1.00  0.00    -0.237 OA
ATOM     67  O   UNL A   1      35.098  30.769  28.330  1.00  0.00    -0.237 OA
ATOM     68  O   UNL A   1      34.802  32.009  30.435  1.00  0.00    -0.744 OA
ENDBRANCH  62  65
ENDBRANCH  44  58
BRANCH  45  69
ATOM     69  C   UNL A   1      47.949  27.804  25.843  1.00  0.00     0.023 A 
ATOM     70  C   UNL A   1      49.049  27.476  26.657  1.00  0.00     0.012 A 
ATOM     71  C   UNL A   1      48.098  27.808  24.443  1.00  0.00     0.148 A 
ATOM     72  C   UNL A   1      50.281  27.159  26.085  1.00  0.00     0.002 A 
ATOM     73  C   UNL A   1      49.316  27.454  23.879  1.00  0.00     0.091 A 
ATOM     74  F   UNL A   1      47.031  28.123  23.695  1.00  0.00    -0.205 F 
ATOM     75  C   UNL A   1      50.412  27.137  24.698  1.00  0.00     0.022 A 
BRANCH  73  76
ATOM     76  S   UNL A   1      49.557  27.306  22.106  1.00  0.00     0.127 S 
ATOM     77  O   UNL A   1      48.646  26.214  21.772  1.00  0.00    -0.237 OA
ATOM     78  O   UNL A   1      49.135  28.626  21.638  1.00  0.00    -0.237 OA
ATOM     79  O   UNL A   1      50.972  27.018  21.919  1.00  0.00    -0.744 OA
ENDBRANCH  73  76
ENDBRANCH  45  69
BRANCH  57  80
ATOM     80  C   UNL A   1      45.068  33.319  29.042  1.00  0.00     0.023 A 
ATOM     81  C   UNL A   1      45.695  33.597  30.271  1.00  0.00     0.012 A 
ATOM     82  C   UNL A   1      44.999  34.324  28.056  1.00  0.00     0.148 A 
ATOM     83  C   UNL A   1      46.239  34.857  30.519  1.00  0.00     0.002 A 
ATOM     84  C   UNL A   1      45.572  35.566  28.296  1.00  0.00     0.091 A 
ATOM     85  F   UNL A   1      44.389  34.037  26.896  1.00  0.00    -0.205 F 
ATOM     86  C   UNL A   1      46.189  35.837  29.528  1.00  0.00     0.022 A 
BRANCH  84  87
ATOM     87  S   UNL A   1      45.617  36.870  27.060  1.00  0.00     0.127 S 
ATOM     88  O   UNL A   1      46.185  36.168  25.910  1.00  0.00    -0.237 OA
ATOM     89  O   UNL A   1      44.202  37.217  26.925  1.00  0.00    -0.237 OA
ATOM     90  O   UNL A   1      46.454  37.925  27.614  1.00  0.00    -0.744 OA
ENDBRANCH  84  87
ENDBRANCH  57  80
ENDBRANCH  31  32
ENDBRANCH  24  26
ENDBRANCH  23  24
ENDBRANCH  22  23
ENDBRANCH  21  22
ENDBRANCH  20  21
ENDBRANCH   1  20
TORSDOF 22
ENDMDL
