MODEL 1
REMARK VINA RESULT:     -10.4      0.000      0.000
REMARK SMILES NS(=O)(=O)c1ccc(-n2nc(C(F)(F)F)cc2-c2ccc(C(=O)OCCOCCOCCOC(=O)c3ccc(-c4c5nc(c(-c6cccc(S(=O)(=O)[O-])c6F)c6ccc([nH]6)c(-c6cccc(S(=O)(=O)[O-])c6F)c6nc(c(-c7cccc(S(=O)(=O)[O-])c7F)c7ccc4[nH]7)C=C6)C=C5)cc3)cc2)cc1
REMARK SMILES IDX 28 1 27 2 26 3 25 4 24 5 22 6 23 7 21 8 18 9 19 10 100 11
REMARK SMILES IDX 20 12 99 13 17 14 9 15 10 16 11 17 16 18 8 19 5 20 6 21
REMARK SMILES IDX 102 22 7 23 101 24 2 25 3 26 4 27 1 28 12 31 13 32 14 33
REMARK SMILES IDX 15 34 29 35 30 36 31 37 32 38 33 39 34 40 35 41 36 42 37 43
REMARK SMILES IDX 98 44 38 45 97 46 39 47 40 48 41 49 91 50 42 51 96 52 90 53
REMARK SMILES IDX 92 54 43 55 95 56 89 57 88 58 44 60 76 61 56 62 75 63 57 64
REMARK SMILES IDX 60 65 74 66 93 67 58 68 59 69 73 71 94 72 61 73 45 74 46 75
REMARK SMILES IDX 54 76 47 77 49 78 55 79 48 80 50 81 51 82 52 83 53 84 77 85
REMARK SMILES IDX 78 86 86 87 79 88 81 89 87 90 80 91 82 92 83 93 84 94 85 95
REMARK SMILES IDX 62 96 63 97 71 98 64 99 66 100 72 101 65 102 67 103 68 104
REMARK SMILES IDX 69 105 70 106
REMARK H PARENT 1 29 1 30 92 59 60 70
REMARK Flexibility Score: inf
ROOT
ATOM      1  C   UNL A   1      31.791  29.396  24.974  1.00  0.00     0.188 C 
ENDROOT
BRANCH   1   2
ATOM      2  O   UNL A   1      32.974  29.568  24.213  1.00  0.00    -0.376 OA
BRANCH   2   3
ATOM      3  C   UNL A   1      33.105  28.981  22.929  1.00  0.00     0.202 C 
BRANCH   3   4
ATOM      4  C   UNL A   1      33.666  27.561  22.714  1.00  0.00     0.261 C 
BRANCH   4   5
ATOM      5  O   UNL A   1      33.029  26.512  23.455  1.00  0.00    -0.460 OA
BRANCH   5   6
ATOM      6  C   UNL A   1      33.716  26.039  24.518  1.00  0.00     0.338 C 
ATOM      7  O   UNL A   1      34.120  26.678  25.476  1.00  0.00    -0.246 OA
BRANCH   6   8
ATOM      8  C   UNL A   1      33.786  24.562  24.464  1.00  0.00     0.060 A 
ATOM      9  C   UNL A   1      33.982  21.763  24.547  1.00  0.00     0.000 A 
ATOM     10  C   UNL A   1      33.445  22.470  25.633  1.00  0.00     0.011 A 
ATOM     11  C   UNL A   1      34.373  22.467  23.399  1.00  0.00     0.011 A 
ATOM     12  C   UNL A   1      33.355  23.861  25.595  1.00  0.00     0.016 A 
ATOM     13  C   UNL A   1      34.264  23.865  23.350  1.00  0.00     0.016 A 
BRANCH   9  14
ATOM     14  C   UNL A   1      34.256  20.331  24.687  1.00  0.00     0.075 A 
ATOM     15  N   UNL A   1      35.510  19.739  24.805  1.00  0.00    -0.233 N 
ATOM     16  N   UNL A   1      35.475  18.422  24.464  1.00  0.00    -0.163 NA
ATOM     17  C   UNL A   1      34.168  18.123  24.345  1.00  0.00     0.167 A 
ATOM     18  C   UNL A   1      33.375  19.286  24.480  1.00  0.00     0.064 A 
BRANCH  15  19
ATOM     19  C   UNL A   1      36.732  20.334  25.218  1.00  0.00     0.065 A 
ATOM     20  C   UNL A   1      39.139  21.493  26.004  1.00  0.00     0.082 A 
ATOM     21  C   UNL A   1      37.962  22.247  26.054  1.00  0.00     0.024 A 
ATOM     22  C   UNL A   1      39.119  20.159  25.587  1.00  0.00     0.024 A 
ATOM     23  C   UNL A   1      36.758  21.670  25.645  1.00  0.00     0.030 A 
ATOM     24  C   UNL A   1      37.908  19.570  25.215  1.00  0.00     0.030 A 
BRANCH  20  25
ATOM     25  S   UNL A   1      40.666  22.226  26.529  1.00  0.00     0.238 S 
ATOM     26  O   UNL A   1      40.347  23.268  27.487  1.00  0.00    -0.207 OA
ATOM     27  O   UNL A   1      41.500  22.436  25.382  1.00  0.00    -0.207 OA
BRANCH  25  28
ATOM     28  N   UNL A   1      41.387  20.984  27.404  1.00  0.00    -0.225 NA
ATOM     29  H   UNL A   1      42.348  21.243  27.631  1.00  0.00     0.137 HD
ATOM     30  H   UNL A   1      41.389  20.131  26.844  1.00  0.00     0.137 HD
ENDBRANCH  25  28
ENDBRANCH  20  25
ENDBRANCH  15  19
BRANCH  17  31
ATOM     31  C   UNL A   1      33.662  16.737  24.049  1.00  0.00     0.435 C 
ATOM     32  F   UNL A   1      32.620  16.366  24.838  1.00  0.00    -0.164 F 
ATOM     33  F   UNL A   1      33.255  16.603  22.758  1.00  0.00    -0.164 F 
ATOM     34  F   UNL A   1      34.634  15.799  24.236  1.00  0.00    -0.164 F 
ENDBRANCH  17  31
ENDBRANCH   9  14
ENDBRANCH   6   8
ENDBRANCH   5   6
ENDBRANCH   4   5
ENDBRANCH   3   4
ENDBRANCH   2   3
ENDBRANCH   1   2
BRANCH   1  35
ATOM     35  C   UNL A   1      31.789  29.627  26.501  1.00  0.00     0.188 C 
BRANCH  35  36
ATOM     36  O   UNL A   1      32.141  30.924  26.930  1.00  0.00    -0.376 OA
BRANCH  36  37
ATOM     37  C   UNL A   1      33.423  31.224  27.458  1.00  0.00     0.202 C 
BRANCH  37  38
ATOM     38  C   UNL A   1      34.604  30.253  27.530  1.00  0.00     0.261 C 
BRANCH  38  39
ATOM     39  O   UNL A   1      35.867  30.800  27.839  1.00  0.00    -0.460 OA
BRANCH  39  40
ATOM     40  C   UNL A   1      36.363  30.369  29.017  1.00  0.00     0.338 C 
ATOM     41  O   UNL A   1      35.991  30.697  30.132  1.00  0.00    -0.246 OA
BRANCH  40  42
ATOM     42  C   UNL A   1      37.492  29.481  28.750  1.00  0.00     0.060 A 
ATOM     43  C   UNL A   1      37.892  28.640  29.790  1.00  0.00     0.016 A 
ATOM     44  C   UNL A   1      38.286  29.714  27.618  1.00  0.00     0.016 A 
ATOM     45  C   UNL A   1      39.190  28.188  29.789  1.00  0.00     0.010 A 
ATOM     46  C   UNL A   1      39.586  29.272  27.627  1.00  0.00     0.010 A 
ATOM     47  C   UNL A   1      40.040  28.592  28.755  1.00  0.00    -0.014 A 
BRANCH  47  48
ATOM     48  C   UNL A   1      41.445  28.286  28.893  1.00  0.00     0.031 A 
ATOM     49  C   UNL A   1      41.902  27.166  28.049  1.00  0.00     0.074 A 
ATOM     50  C   UNL A   1      42.254  29.033  29.666  1.00  0.00     0.049 A 
ATOM     51  N   UNL A   1      42.346  26.017  28.436  1.00  0.00    -0.248 NA
ATOM     52  C   UNL A   1      41.698  27.285  26.598  1.00  0.00     0.031 C 
ATOM     53  C   UNL A   1      41.945  30.327  30.285  1.00  0.00     0.029 A 
ATOM     54  N   UNL A   1      43.579  28.867  29.928  1.00  0.00    -0.354 N 
ATOM     55  C   UNL A   1      42.715  25.364  27.264  1.00  0.00     0.074 A 
ATOM     56  C   UNL A   1      42.106  26.089  26.180  1.00  0.00     0.031 C 
ATOM     57  C   UNL A   1      43.104  30.940  30.613  1.00  0.00     0.029 A 
ATOM     58  C   UNL A   1      44.207  30.035  30.337  1.00  0.00     0.049 A 
ATOM     59  H   UNL A   1      44.044  28.004  29.837  1.00  0.00     0.167 HD
ATOM     60  C   UNL A   1      43.721  24.452  27.256  1.00  0.00     0.034 A 
ATOM     61  C   UNL A   1      45.542  30.269  30.335  1.00  0.00     0.034 A 
ATOM     62  C   UNL A   1      44.025  23.973  28.580  1.00  0.00     0.049 A 
ATOM     63  C   UNL A   1      46.227  28.957  30.267  1.00  0.00     0.074 A 
ATOM     64  C   UNL A   1      43.310  23.362  29.589  1.00  0.00     0.029 A 
ATOM     65  N   UNL A   1      45.189  24.424  29.154  1.00  0.00    -0.354 N 
ATOM     66  N   UNL A   1      46.245  28.089  31.240  1.00  0.00    -0.248 NA
ATOM     67  C   UNL A   1      46.591  28.436  28.959  1.00  0.00     0.031 C 
ATOM     68  C   UNL A   1      43.876  23.857  30.799  1.00  0.00     0.029 A 
ATOM     69  C   UNL A   1      44.922  24.718  30.463  1.00  0.00     0.049 A 
ATOM     70  H   UNL A   1      46.059  24.520  28.704  1.00  0.00     0.167 HD
ATOM     71  C   UNL A   1      46.182  26.854  30.604  1.00  0.00     0.074 A 
ATOM     72  C   UNL A   1      46.532  27.127  29.214  1.00  0.00     0.031 C 
ATOM     73  C   UNL A   1      45.563  25.790  31.195  1.00  0.00     0.034 A 
BRANCH  60  74
ATOM     74  C   UNL A   1      44.691  24.279  26.112  1.00  0.00     0.023 A 
ATOM     75  C   UNL A   1      44.893  22.966  25.634  1.00  0.00     0.012 A 
ATOM     76  C   UNL A   1      45.607  25.267  25.680  1.00  0.00     0.148 A 
ATOM     77  C   UNL A   1      45.984  22.643  24.820  1.00  0.00     0.002 A 
ATOM     78  C   UNL A   1      46.632  24.960  24.796  1.00  0.00     0.091 A 
ATOM     79  F   UNL A   1      45.593  26.487  26.226  1.00  0.00    -0.205 F 
ATOM     80  C   UNL A   1      46.848  23.642  24.391  1.00  0.00     0.022 A 
BRANCH  78  81
ATOM     81  S   UNL A   1      47.724  26.237  24.162  1.00  0.00     0.127 S 
ATOM     82  O   UNL A   1      46.784  27.320  23.893  1.00  0.00    -0.237 OA
ATOM     83  O   UNL A   1      48.620  26.458  25.298  1.00  0.00    -0.237 OA
ATOM     84  O   UNL A   1      48.376  25.641  23.002  1.00  0.00    -0.744 OA
ENDBRANCH  78  81
ENDBRANCH  60  74
BRANCH  61  85
ATOM     85  C   UNL A   1      46.274  31.542  30.142  1.00  0.00     0.023 A 
ATOM     86  C   UNL A   1      47.345  31.854  31.003  1.00  0.00     0.012 A 
ATOM     87  C   UNL A   1      46.108  32.323  28.976  1.00  0.00     0.148 A 
ATOM     88  C   UNL A   1      48.239  32.886  30.697  1.00  0.00     0.002 A 
ATOM     89  C   UNL A   1      46.988  33.361  28.686  1.00  0.00     0.091 A 
ATOM     90  F   UNL A   1      45.150  31.990  28.101  1.00  0.00    -0.205 F 
ATOM     91  C   UNL A   1      48.064  33.638  29.538  1.00  0.00     0.022 A 
BRANCH  89  92
ATOM     92  S   UNL A   1      46.816  34.366  27.205  1.00  0.00     0.127 S 
ATOM     93  O   UNL A   1      46.959  33.371  26.140  1.00  0.00    -0.237 OA
ATOM     94  O   UNL A   1      45.470  34.908  27.360  1.00  0.00    -0.237 OA
ATOM     95  O   UNL A   1      47.904  35.336  27.260  1.00  0.00    -0.744 OA
ENDBRANCH  89  92
ENDBRANCH  61  85
BRANCH  73  96
ATOM     96  C   UNL A   1      45.255  25.863  32.668  1.00  0.00     0.023 A 
ATOM     97  C   UNL A   1      46.182  25.456  33.650  1.00  0.00     0.012 A 
ATOM     98  C   UNL A   1      44.079  26.518  33.075  1.00  0.00     0.148 A 
ATOM     99  C   UNL A   1      45.926  25.669  35.007  1.00  0.00     0.002 A 
ATOM    100  C   UNL A   1      43.852  26.773  34.422  1.00  0.00     0.091 A 
ATOM    101  F   UNL A   1      43.206  26.904  32.132  1.00  0.00    -0.205 F 
ATOM    102  C   UNL A   1      44.768  26.341  35.393  1.00  0.00     0.022 A 
BRANCH 100 103
ATOM    103  S   UNL A   1      42.446  27.752  34.956  1.00  0.00     0.127 S 
ATOM    104  O   UNL A   1      41.326  26.851  34.694  1.00  0.00    -0.237 OA
ATOM    105  O   UNL A   1      42.731  27.976  36.376  1.00  0.00    -0.237 OA
ATOM    106  O   UNL A   1      42.484  28.966  34.149  1.00  0.00    -0.744 OA
ENDBRANCH 100 103
ENDBRANCH  73  96
ENDBRANCH  47  48
ENDBRANCH  40  42
ENDBRANCH  39  40
ENDBRANCH  38  39
ENDBRANCH  37  38
ENDBRANCH  36  37
ENDBRANCH  35  36
ENDBRANCH   1  35
TORSDOF 25
ENDMDL
MODEL 2
REMARK VINA RESULT:      -9.5      2.289      6.804
REMARK SMILES NS(=O)(=O)c1ccc(-n2nc(C(F)(F)F)cc2-c2ccc(C(=O)OCCOCCOCCOC(=O)c3ccc(-c4c5nc(c(-c6cccc(S(=O)(=O)[O-])c6F)c6ccc([nH]6)c(-c6cccc(S(=O)(=O)[O-])c6F)c6nc(c(-c7cccc(S(=O)(=O)[O-])c7F)c7ccc4[nH]7)C=C6)C=C5)cc3)cc2)cc1
REMARK SMILES IDX 28 1 27 2 26 3 25 4 24 5 22 6 23 7 21 8 18 9 19 10 100 11
REMARK SMILES IDX 20 12 99 13 17 14 9 15 10 16 11 17 16 18 8 19 5 20 6 21
REMARK SMILES IDX 102 22 7 23 101 24 2 25 3 26 4 27 1 28 12 31 13 32 14 33
REMARK SMILES IDX 15 34 29 35 30 36 31 37 32 38 33 39 34 40 35 41 36 42 37 43
REMARK SMILES IDX 98 44 38 45 97 46 39 47 40 48 41 49 91 50 42 51 96 52 90 53
REMARK SMILES IDX 92 54 43 55 95 56 89 57 88 58 44 60 76 61 56 62 75 63 57 64
REMARK SMILES IDX 60 65 74 66 93 67 58 68 59 69 73 71 94 72 61 73 45 74 46 75
REMARK SMILES IDX 54 76 47 77 49 78 55 79 48 80 50 81 51 82 52 83 53 84 77 85
REMARK SMILES IDX 78 86 86 87 79 88 81 89 87 90 80 91 82 92 83 93 84 94 85 95
REMARK SMILES IDX 62 96 63 97 71 98 64 99 66 100 72 101 65 102 67 103 68 104
REMARK SMILES IDX 69 105 70 106
REMARK H PARENT 1 29 1 30 92 59 60 70
REMARK Flexibility Score: inf
ROOT
ATOM      1  C   UNL A   1      31.426  30.428  25.418  1.00  0.00     0.188 C 
ENDROOT
BRANCH   1   2
ATOM      2  O   UNL A   1      31.632  29.475  24.389  1.00  0.00    -0.376 OA
BRANCH   2   3
ATOM      3  C   UNL A   1      30.575  28.636  23.952  1.00  0.00     0.202 C 
BRANCH   3   4
ATOM      4  C   UNL A   1      30.648  27.097  24.027  1.00  0.00     0.261 C 
BRANCH   4   5
ATOM      5  O   UNL A   1      30.806  26.536  25.336  1.00  0.00    -0.460 OA
BRANCH   5   6
ATOM      6  C   UNL A   1      32.080  26.356  25.750  1.00  0.00     0.338 C 
ATOM      7  O   UNL A   1      32.771  27.151  26.366  1.00  0.00    -0.246 OA
BRANCH   6   8
ATOM      8  C   UNL A   1      32.505  24.960  25.502  1.00  0.00     0.060 A 
ATOM      9  C   UNL A   1      33.375  22.307  25.217  1.00  0.00     0.000 A 
ATOM     10  C   UNL A   1      32.701  22.712  26.378  1.00  0.00     0.011 A 
ATOM     11  C   UNL A   1      33.565  23.231  24.179  1.00  0.00     0.011 A 
ATOM     12  C   UNL A   1      32.275  24.032  26.523  1.00  0.00     0.016 A 
ATOM     13  C   UNL A   1      33.120  24.554  24.314  1.00  0.00     0.016 A 
BRANCH   9  14
ATOM     14  C   UNL A   1      33.991  20.979  25.171  1.00  0.00     0.075 A 
ATOM     15  N   UNL A   1      35.354  20.702  25.145  1.00  0.00    -0.233 N 
ATOM     16  N   UNL A   1      35.603  19.457  24.653  1.00  0.00    -0.163 NA
ATOM     17  C   UNL A   1      34.398  18.862  24.577  1.00  0.00     0.167 A 
ATOM     18  C   UNL A   1      33.367  19.777  24.895  1.00  0.00     0.064 A 
BRANCH  15  19
ATOM     19  C   UNL A   1      36.432  21.534  25.552  1.00  0.00     0.065 A 
ATOM     20  C   UNL A   1      38.557  23.158  26.328  1.00  0.00     0.082 A 
ATOM     21  C   UNL A   1      37.249  23.645  26.414  1.00  0.00     0.024 A 
ATOM     22  C   UNL A   1      38.810  21.858  25.879  1.00  0.00     0.024 A 
ATOM     23  C   UNL A   1      36.186  22.836  26.010  1.00  0.00     0.030 A 
ATOM     24  C   UNL A   1      37.742  21.035  25.512  1.00  0.00     0.030 A 
BRANCH  20  25
ATOM     25  S   UNL A   1      39.906  24.185  26.845  1.00  0.00     0.238 S 
ATOM     26  O   UNL A   1      40.012  25.282  25.900  1.00  0.00    -0.207 OA
ATOM     27  O   UNL A   1      41.013  23.351  27.212  1.00  0.00    -0.207 OA
BRANCH  25  28
ATOM     28  N   UNL A   1      39.332  24.850  28.279  1.00  0.00    -0.225 NA
ATOM     29  H   UNL A   1      39.643  25.819  28.353  1.00  0.00     0.137 HD
ATOM     30  H   UNL A   1      39.693  24.316  29.070  1.00  0.00     0.137 HD
ENDBRANCH  25  28
ENDBRANCH  20  25
ENDBRANCH  15  19
BRANCH  17  31
ATOM     31  C   UNL A   1      34.210  17.432  24.150  1.00  0.00     0.435 C 
ATOM     32  F   UNL A   1      33.048  16.885  24.596  1.00  0.00    -0.164 F 
ATOM     33  F   UNL A   1      34.224  17.292  22.797  1.00  0.00    -0.164 F 
ATOM     34  F   UNL A   1      35.211  16.633  24.621  1.00  0.00    -0.164 F 
ENDBRANCH  17  31
ENDBRANCH   9  14
ENDBRANCH   6   8
ENDBRANCH   5   6
ENDBRANCH   4   5
ENDBRANCH   3   4
ENDBRANCH   2   3
ENDBRANCH   1   2
BRANCH   1  35
ATOM     35  C   UNL A   1      32.337  30.457  26.665  1.00  0.00     0.188 C 
BRANCH  35  36
ATOM     36  O   UNL A   1      32.549  31.725  27.246  1.00  0.00    -0.376 OA
BRANCH  36  37
ATOM     37  C   UNL A   1      33.644  31.988  28.108  1.00  0.00     0.202 C 
BRANCH  37  38
ATOM     38  C   UNL A   1      35.057  32.371  27.659  1.00  0.00     0.261 C 
BRANCH  38  39
ATOM     39  O   UNL A   1      36.132  31.813  28.380  1.00  0.00    -0.460 OA
BRANCH  39  40
ATOM     40  C   UNL A   1      36.541  30.623  27.895  1.00  0.00     0.338 C 
ATOM     41  O   UNL A   1      36.038  29.994  26.979  1.00  0.00    -0.246 OA
BRANCH  40  42
ATOM     42  C   UNL A   1      37.664  30.151  28.702  1.00  0.00     0.060 A 
ATOM     43  C   UNL A   1      38.475  31.126  29.285  1.00  0.00     0.016 A 
ATOM     44  C   UNL A   1      38.046  28.805  28.613  1.00  0.00     0.016 A 
ATOM     45  C   UNL A   1      39.770  30.785  29.598  1.00  0.00     0.010 A 
ATOM     46  C   UNL A   1      39.343  28.470  28.914  1.00  0.00     0.010 A 
ATOM     47  C   UNL A   1      40.206  29.486  29.318  1.00  0.00    -0.014 A 
BRANCH  47  48
ATOM     48  C   UNL A   1      41.619  29.219  29.451  1.00  0.00     0.031 A 
ATOM     49  C   UNL A   1      42.079  29.104  30.848  1.00  0.00     0.074 A 
ATOM     50  C   UNL A   1      42.400  29.011  28.375  1.00  0.00     0.049 A 
ATOM     51  N   UNL A   1      42.896  29.882  31.476  1.00  0.00    -0.248 NA
ATOM     52  C   UNL A   1      41.437  28.085  31.691  1.00  0.00     0.031 C 
ATOM     53  C   UNL A   1      41.966  28.806  26.989  1.00  0.00     0.029 A 
ATOM     54  N   UNL A   1      43.740  28.780  28.323  1.00  0.00    -0.354 N 
ATOM     55  C   UNL A   1      43.059  29.294  32.726  1.00  0.00     0.074 A 
ATOM     56  C   UNL A   1      41.996  28.336  32.873  1.00  0.00     0.031 C 
ATOM     57  C   UNL A   1      42.973  28.227  26.299  1.00  0.00     0.029 A 
ATOM     58  C   UNL A   1      44.140  28.136  27.160  1.00  0.00     0.049 A 
ATOM     59  H   UNL A   1      44.363  29.043  29.039  1.00  0.00     0.167 HD
ATOM     60  C   UNL A   1      44.217  29.435  33.422  1.00  0.00     0.034 A 
ATOM     61  C   UNL A   1      45.309  27.479  26.971  1.00  0.00     0.034 A 
ATOM     62  C   UNL A   1      45.007  30.537  32.935  1.00  0.00     0.049 A 
ATOM     63  C   UNL A   1      46.256  27.938  28.014  1.00  0.00     0.074 A 
ATOM     64  C   UNL A   1      44.800  31.890  32.760  1.00  0.00     0.029 A 
ATOM     65  N   UNL A   1      46.132  30.225  32.211  1.00  0.00    -0.354 N 
ATOM     66  N   UNL A   1      46.779  29.132  28.054  1.00  0.00    -0.248 NA
ATOM     67  C   UNL A   1      46.342  27.177  29.251  1.00  0.00     0.031 C 
ATOM     68  C   UNL A   1      45.549  32.235  31.599  1.00  0.00     0.029 A 
ATOM     69  C   UNL A   1      46.195  31.083  31.147  1.00  0.00     0.049 A 
ATOM     70  H   UNL A   1      46.778  29.513  32.419  1.00  0.00     0.167 HD
ATOM     71  C   UNL A   1      46.850  29.434  29.409  1.00  0.00     0.074 A 
ATOM     72  C   UNL A   1      46.697  28.153  30.090  1.00  0.00     0.031 C 
ATOM     73  C   UNL A   1      46.725  30.720  29.850  1.00  0.00     0.034 A 
BRANCH  60  74
ATOM     74  C   UNL A   1      44.820  28.351  34.281  1.00  0.00     0.023 A 
ATOM     75  C   UNL A   1      45.409  27.255  33.615  1.00  0.00     0.012 A 
ATOM     76  C   UNL A   1      44.594  28.210  35.671  1.00  0.00     0.148 A 
ATOM     77  C   UNL A   1      45.700  26.061  34.284  1.00  0.00     0.002 A 
ATOM     78  C   UNL A   1      44.972  27.059  36.348  1.00  0.00     0.091 A 
ATOM     79  F   UNL A   1      43.880  29.123  36.336  1.00  0.00    -0.205 F 
ATOM     80  C   UNL A   1      45.492  25.966  35.654  1.00  0.00     0.022 A 
BRANCH  78  81
ATOM     81  S   UNL A   1      44.786  26.927  38.130  1.00  0.00     0.127 S 
ATOM     82  O   UNL A   1      45.903  26.055  38.477  1.00  0.00    -0.237 OA
ATOM     83  O   UNL A   1      44.930  28.321  38.552  1.00  0.00    -0.237 OA
ATOM     84  O   UNL A   1      43.450  26.382  38.335  1.00  0.00    -0.744 OA
ENDBRANCH  78  81
ENDBRANCH  60  74
BRANCH  61  85
ATOM     85  C   UNL A   1      45.602  26.307  26.114  1.00  0.00     0.023 A 
ATOM     86  C   UNL A   1      46.770  26.309  25.325  1.00  0.00     0.012 A 
ATOM     87  C   UNL A   1      44.897  25.091  26.255  1.00  0.00     0.148 A 
ATOM     88  C   UNL A   1      47.237  25.135  24.725  1.00  0.00     0.002 A 
ATOM     89  C   UNL A   1      45.355  23.929  25.640  1.00  0.00     0.091 A 
ATOM     90  F   UNL A   1      43.835  25.045  27.069  1.00  0.00    -0.205 F 
ATOM     91  C   UNL A   1      46.533  23.944  24.885  1.00  0.00     0.022 A 
BRANCH  89  92
ATOM     92  S   UNL A   1      44.492  22.361  25.811  1.00  0.00     0.127 S 
ATOM     93  O   UNL A   1      43.446  22.473  24.794  1.00  0.00    -0.237 OA
ATOM     94  O   UNL A   1      45.546  21.399  25.502  1.00  0.00    -0.237 OA
ATOM     95  O   UNL A   1      43.989  22.337  27.180  1.00  0.00    -0.744 OA
ENDBRANCH  89  92
ENDBRANCH  61  85
BRANCH  73  96
ATOM     96  C   UNL A   1      46.855  31.840  28.849  1.00  0.00     0.023 A 
ATOM     97  C   UNL A   1      48.098  32.428  28.537  1.00  0.00     0.012 A 
ATOM     98  C   UNL A   1      45.728  32.185  28.083  1.00  0.00     0.148 A 
ATOM     99  C   UNL A   1      48.206  33.362  27.504  1.00  0.00     0.002 A 
ATOM    100  C   UNL A   1      45.851  33.077  27.023  1.00  0.00     0.091 A 
ATOM    101  F   UNL A   1      44.551  31.616  28.386  1.00  0.00    -0.205 F 
ATOM    102  C   UNL A   1      47.087  33.676  26.738  1.00  0.00     0.022 A 
BRANCH 100 103
ATOM    103  S   UNL A   1      44.471  33.408  25.924  1.00  0.00     0.127 S 
ATOM    104  O   UNL A   1      43.566  34.165  26.786  1.00  0.00    -0.237 OA
ATOM    105  O   UNL A   1      45.093  34.190  24.854  1.00  0.00    -0.237 OA
ATOM    106  O   UNL A   1      43.990  32.099  25.495  1.00  0.00    -0.744 OA
ENDBRANCH 100 103
ENDBRANCH  73  96
ENDBRANCH  47  48
ENDBRANCH  40  42
ENDBRANCH  39  40
ENDBRANCH  38  39
ENDBRANCH  37  38
ENDBRANCH  36  37
ENDBRANCH  35  36
ENDBRANCH   1  35
TORSDOF 25
ENDMDL
MODEL 3
REMARK VINA RESULT:      -9.4      6.643     10.582
REMARK SMILES NS(=O)(=O)c1ccc(-n2nc(C(F)(F)F)cc2-c2ccc(C(=O)OCCOCCOCCOC(=O)c3ccc(-c4c5nc(c(-c6cccc(S(=O)(=O)[O-])c6F)c6ccc([nH]6)c(-c6cccc(S(=O)(=O)[O-])c6F)c6nc(c(-c7cccc(S(=O)(=O)[O-])c7F)c7ccc4[nH]7)C=C6)C=C5)cc3)cc2)cc1
REMARK SMILES IDX 28 1 27 2 26 3 25 4 24 5 22 6 23 7 21 8 18 9 19 10 100 11
REMARK SMILES IDX 20 12 99 13 17 14 9 15 10 16 11 17 16 18 8 19 5 20 6 21
REMARK SMILES IDX 102 22 7 23 101 24 2 25 3 26 4 27 1 28 12 31 13 32 14 33
REMARK SMILES IDX 15 34 29 35 30 36 31 37 32 38 33 39 34 40 35 41 36 42 37 43
REMARK SMILES IDX 98 44 38 45 97 46 39 47 40 48 41 49 91 50 42 51 96 52 90 53
REMARK SMILES IDX 92 54 43 55 95 56 89 57 88 58 44 60 76 61 56 62 75 63 57 64
REMARK SMILES IDX 60 65 74 66 93 67 58 68 59 69 73 71 94 72 61 73 45 74 46 75
REMARK SMILES IDX 54 76 47 77 49 78 55 79 48 80 50 81 51 82 52 83 53 84 77 85
REMARK SMILES IDX 78 86 86 87 79 88 81 89 87 90 80 91 82 92 83 93 84 94 85 95
REMARK SMILES IDX 62 96 63 97 71 98 64 99 66 100 72 101 65 102 67 103 68 104
REMARK SMILES IDX 69 105 70 106
REMARK H PARENT 1 29 1 30 92 59 60 70
REMARK Flexibility Score: inf
ROOT
ATOM      1  C   UNL A   1      35.044  32.252  29.765  1.00  0.00     0.188 C 
ENDROOT
BRANCH   1   2
ATOM      2  O   UNL A   1      36.060  31.751  28.914  1.00  0.00    -0.376 OA
BRANCH   2   3
ATOM      3  C   UNL A   1      36.643  30.478  29.146  1.00  0.00     0.202 C 
BRANCH   3   4
ATOM      4  C   UNL A   1      38.046  30.098  28.633  1.00  0.00     0.261 C 
BRANCH   4   5
ATOM      5  O   UNL A   1      38.597  28.879  29.147  1.00  0.00    -0.460 OA
BRANCH   5   6
ATOM      6  C   UNL A   1      39.844  28.571  28.726  1.00  0.00     0.338 C 
ATOM      7  O   UNL A   1      40.871  29.186  28.958  1.00  0.00    -0.246 OA
BRANCH   6   8
ATOM      8  C   UNL A   1      39.843  27.252  28.054  1.00  0.00     0.060 A 
ATOM      9  C   UNL A   1      39.882  24.669  26.955  1.00  0.00     0.000 A 
ATOM     10  C   UNL A   1      39.250  24.909  28.184  1.00  0.00     0.011 A 
ATOM     11  C   UNL A   1      40.451  25.745  26.257  1.00  0.00     0.011 A 
ATOM     12  C   UNL A   1      39.238  26.190  28.734  1.00  0.00     0.016 A 
ATOM     13  C   UNL A   1      40.421  27.039  26.798  1.00  0.00     0.016 A 
BRANCH   9  14
ATOM     14  C   UNL A   1      40.062  23.290  26.496  1.00  0.00     0.075 A 
ATOM     15  N   UNL A   1      39.072  22.452  25.994  1.00  0.00    -0.233 N 
ATOM     16  N   UNL A   1      39.431  21.142  26.086  1.00  0.00    -0.163 NA
ATOM     17  C   UNL A   1      40.730  21.157  26.437  1.00  0.00     0.167 A 
ATOM     18  C   UNL A   1      41.163  22.478  26.699  1.00  0.00     0.064 A 
BRANCH  15  19
ATOM     19  C   UNL A   1      37.814  22.806  25.436  1.00  0.00     0.065 A 
ATOM     20  C   UNL A   1      35.343  23.476  24.340  1.00  0.00     0.082 A 
ATOM     21  C   UNL A   1      35.775  24.113  25.508  1.00  0.00     0.024 A 
ATOM     22  C   UNL A   1      36.146  22.525  23.703  1.00  0.00     0.024 A 
ATOM     23  C   UNL A   1      37.008  23.765  26.065  1.00  0.00     0.030 A 
ATOM     24  C   UNL A   1      37.395  22.206  24.240  1.00  0.00     0.030 A 
BRANCH  20  25
ATOM     25  S   UNL A   1      33.781  23.923  23.631  1.00  0.00     0.238 S 
ATOM     26  O   UNL A   1      32.743  23.510  24.558  1.00  0.00    -0.207 OA
ATOM     27  O   UNL A   1      33.782  23.570  22.241  1.00  0.00    -0.207 OA
BRANCH  25  28
ATOM     28  N   UNL A   1      33.821  25.603  23.683  1.00  0.00    -0.225 NA
ATOM     29  H   UNL A   1      34.780  25.914  23.838  1.00  0.00     0.137 HD
ATOM     30  H   UNL A   1      33.229  25.933  24.445  1.00  0.00     0.137 HD
ENDBRANCH  25  28
ENDBRANCH  20  25
ENDBRANCH  15  19
BRANCH  17  31
ATOM     31  C   UNL A   1      41.562  19.911  26.578  1.00  0.00     0.435 C 
ATOM     32  F   UNL A   1      42.809  20.034  26.055  1.00  0.00    -0.164 F 
ATOM     33  F   UNL A   1      41.708  19.534  27.877  1.00  0.00    -0.164 F 
ATOM     34  F   UNL A   1      40.985  18.850  25.941  1.00  0.00    -0.164 F 
ENDBRANCH  17  31
ENDBRANCH   9  14
ENDBRANCH   6   8
ENDBRANCH   5   6
ENDBRANCH   4   5
ENDBRANCH   3   4
ENDBRANCH   2   3
ENDBRANCH   1   2
BRANCH   1  35
ATOM     35  C   UNL A   1      35.307  32.472  31.270  1.00  0.00     0.188 C 
BRANCH  35  36
ATOM     36  O   UNL A   1      36.233  33.485  31.594  1.00  0.00    -0.376 OA
BRANCH  36  37
ATOM     37  C   UNL A   1      37.565  33.195  31.986  1.00  0.00     0.202 C 
BRANCH  37  38
ATOM     38  C   UNL A   1      38.741  34.174  31.934  1.00  0.00     0.261 C 
BRANCH  38  39
ATOM     39  O   UNL A   1      39.703  33.969  30.924  1.00  0.00    -0.460 OA
BRANCH  39  40
ATOM     40  C   UNL A   1      39.448  34.659  29.794  1.00  0.00     0.338 C 
ATOM     41  O   UNL A   1      38.350  34.943  29.342  1.00  0.00    -0.246 OA
BRANCH  40  42
ATOM     42  C   UNL A   1      40.716  34.963  29.136  1.00  0.00     0.060 A 
ATOM     43  C   UNL A   1      41.867  34.896  29.923  1.00  0.00     0.016 A 
ATOM     44  C   UNL A   1      40.697  35.577  27.875  1.00  0.00     0.016 A 
ATOM     45  C   UNL A   1      42.959  35.632  29.530  1.00  0.00     0.010 A 
ATOM     46  C   UNL A   1      41.785  36.323  27.492  1.00  0.00     0.010 A 
ATOM     47  C   UNL A   1      42.863  36.407  28.370  1.00  0.00    -0.014 A 
BRANCH  47  48
ATOM     48  C   UNL A   1      43.938  37.334  28.102  1.00  0.00     0.031 A 
ATOM     49  C   UNL A   1      45.231  36.687  27.811  1.00  0.00     0.074 A 
ATOM     50  C   UNL A   1      43.723  38.661  28.043  1.00  0.00     0.049 A 
ATOM     51  N   UNL A   1      46.316  36.743  28.509  1.00  0.00    -0.248 NA
ATOM     52  C   UNL A   1      45.277  35.743  26.685  1.00  0.00     0.031 C 
ATOM     53  C   UNL A   1      42.429  39.352  28.015  1.00  0.00     0.029 A 
ATOM     54  N   UNL A   1      44.619  39.664  27.834  1.00  0.00    -0.354 N 
ATOM     55  C   UNL A   1      47.255  36.037  27.766  1.00  0.00     0.074 A 
ATOM     56  C   UNL A   1      46.521  35.280  26.786  1.00  0.00     0.031 C 
ATOM     57  C   UNL A   1      42.613  40.603  27.541  1.00  0.00     0.029 A 
ATOM     58  C   UNL A   1      44.036  40.828  27.351  1.00  0.00     0.049 A 
ATOM     59  H   UNL A   1      45.584  39.573  28.008  1.00  0.00     0.167 HD
ATOM     60  C   UNL A   1      48.576  36.348  27.827  1.00  0.00     0.034 A 
ATOM     61  C   UNL A   1      44.679  41.848  26.735  1.00  0.00     0.034 A 
ATOM     62  C   UNL A   1      48.890  37.137  28.990  1.00  0.00     0.049 A 
ATOM     63  C   UNL A   1      46.120  41.736  27.064  1.00  0.00     0.074 A 
ATOM     64  C   UNL A   1      48.735  36.980  30.352  1.00  0.00     0.029 A 
ATOM     65  N   UNL A   1      49.157  38.469  28.786  1.00  0.00    -0.354 N 
ATOM     66  N   UNL A   1      46.620  41.957  28.247  1.00  0.00    -0.248 NA
ATOM     67  C   UNL A   1      46.981  41.001  26.150  1.00  0.00     0.031 C 
ATOM     68  C   UNL A   1      48.485  38.290  30.852  1.00  0.00     0.029 A 
ATOM     69  C   UNL A   1      48.530  39.177  29.775  1.00  0.00     0.049 A 
ATOM     70  H   UNL A   1      49.701  38.848  28.058  1.00  0.00     0.167 HD
ATOM     71  C   UNL A   1      47.642  41.024  28.372  1.00  0.00     0.074 A 
ATOM     72  C   UNL A   1      47.901  40.564  27.012  1.00  0.00     0.031 C 
ATOM     73  C   UNL A   1      47.971  40.498  29.589  1.00  0.00     0.034 A 
BRANCH  60  74
ATOM     74  C   UNL A   1      49.513  36.275  26.646  1.00  0.00     0.023 A 
ATOM     75  C   UNL A   1      49.347  37.242  25.631  1.00  0.00     0.012 A 
ATOM     76  C   UNL A   1      50.340  35.167  26.345  1.00  0.00     0.148 A 
ATOM     77  C   UNL A   1      49.922  37.084  24.367  1.00  0.00     0.002 A 
ATOM     78  C   UNL A   1      50.985  35.062  25.120  1.00  0.00     0.091 A 
ATOM     79  F   UNL A   1      50.403  34.124  27.179  1.00  0.00    -0.205 F 
ATOM     80  C   UNL A   1      50.751  35.999  24.113  1.00  0.00     0.022 A 
BRANCH  78  81
ATOM     81  S   UNL A   1      52.121  33.712  24.783  1.00  0.00     0.127 S 
ATOM     82  O   UNL A   1      52.851  33.622  26.043  1.00  0.00    -0.237 OA
ATOM     83  O   UNL A   1      51.203  32.605  24.514  1.00  0.00    -0.237 OA
ATOM     84  O   UNL A   1      52.888  34.140  23.619  1.00  0.00    -0.744 OA
ENDBRANCH  78  81
ENDBRANCH  60  74
BRANCH  61  85
ATOM     85  C   UNL A   1      44.190  42.774  25.687  1.00  0.00     0.023 A 
ATOM     86  C   UNL A   1      44.788  44.043  25.559  1.00  0.00     0.012 A 
ATOM     87  C   UNL A   1      43.330  42.336  24.654  1.00  0.00     0.148 A 
ATOM     88  C   UNL A   1      44.566  44.833  24.426  1.00  0.00     0.002 A 
ATOM     89  C   UNL A   1      43.096  43.135  23.539  1.00  0.00     0.091 A 
ATOM     90  F   UNL A   1      42.819  41.100  24.714  1.00  0.00    -0.205 F 
ATOM     91  C   UNL A   1      43.724  44.380  23.415  1.00  0.00     0.022 A 
BRANCH  89  92
ATOM     92  S   UNL A   1      42.021  42.604  22.199  1.00  0.00     0.127 S 
ATOM     93  O   UNL A   1      40.693  42.722  22.804  1.00  0.00    -0.237 OA
ATOM     94  O   UNL A   1      42.314  43.592  21.165  1.00  0.00    -0.237 OA
ATOM     95  O   UNL A   1      42.416  41.232  21.899  1.00  0.00    -0.744 OA
ENDBRANCH  89  92
ENDBRANCH  61  85
BRANCH  73  96
ATOM     96  C   UNL A   1      47.458  41.183  30.830  1.00  0.00     0.023 A 
ATOM     97  C   UNL A   1      48.170  42.222  31.463  1.00  0.00     0.012 A 
ATOM     98  C   UNL A   1      46.152  40.892  31.263  1.00  0.00     0.148 A 
ATOM     99  C   UNL A   1      47.604  42.932  32.525  1.00  0.00     0.002 A 
ATOM    100  C   UNL A   1      45.574  41.635  32.286  1.00  0.00     0.091 A 
ATOM    101  F   UNL A   1      45.482  39.904  30.651  1.00  0.00    -0.205 F 
ATOM    102  C   UNL A   1      46.301  42.649  32.927  1.00  0.00     0.022 A 
BRANCH 100 103
ATOM    103  S   UNL A   1      43.855  41.400  32.746  1.00  0.00     0.127 S 
ATOM    104  O   UNL A   1      43.734  42.248  33.929  1.00  0.00    -0.237 OA
ATOM    105  O   UNL A   1      43.137  41.889  31.567  1.00  0.00    -0.237 OA
ATOM    106  O   UNL A   1      43.704  39.967  32.975  1.00  0.00    -0.744 OA
ENDBRANCH 100 103
ENDBRANCH  73  96
ENDBRANCH  47  48
ENDBRANCH  40  42
ENDBRANCH  39  40
ENDBRANCH  38  39
ENDBRANCH  37  38
ENDBRANCH  36  37
ENDBRANCH  35  36
ENDBRANCH   1  35
TORSDOF 25
ENDMDL
