MODEL 1
REMARK VINA RESULT:     -11.1      0.000      0.000
REMARK SMILES O=C(OCCOCCOCCOC(=O)c1nnn(-c2ccccc2C(F)(F)F)c1-c1cccc(Cl)c1)c1ccc(-c2c3nc(c(-c4cccc(S(=O)(=O)[O-])c4F)c4ccc([nH]4)c(-c4cccc(S(=O)(=O)[O-])c4F)c4nc(c(-c5cccc(S(=O)(=O)[O-])c5F)c5ccc2[nH]5)C=C4)C=C3)cc1
REMARK SMILES IDX 7 1 6 2 5 3 4 4 3 5 2 6 1 7 37 8 38 9 99 10 39 11 98 12
REMARK SMILES IDX 40 13 41 14 42 15 92 16 43 17 97 18 91 19 93 20 44 21 96 22
REMARK SMILES IDX 90 23 89 24 45 26 77 27 57 28 76 29 58 30 61 31 75 32 94 33
REMARK SMILES IDX 59 34 60 35 74 37 95 38 62 39 46 40 47 41 55 42 48 43 50 44
REMARK SMILES IDX 56 45 49 46 51 47 52 48 53 49 54 50 78 51 79 52 87 53 80 54
REMARK SMILES IDX 82 55 88 56 81 57 83 58 84 59 85 60 86 61 63 62 64 63 72 64
REMARK SMILES IDX 65 65 67 66 73 67 66 68 68 69 69 70 70 71 71 72 8 73 9 74
REMARK SMILES IDX 10 75 11 76 12 77 13 78 14 79 15 80 16 81 29 82 17 83 18 84
REMARK SMILES IDX 30 85 31 86 36 87 32 88 34 89 33 90 35 91 19 92 20 93 24 94
REMARK SMILES IDX 21 95 23 96 22 97 25 98 26 99 27 100 28 101
REMARK H PARENT 93 25 61 36
REMARK Flexibility Score: inf
ROOT
ATOM      1  C   UNL A   1      31.246  29.671  24.260  1.00  0.00     0.188 C 
ENDROOT
BRANCH   1   2
ATOM      2  O   UNL A   1      32.028  29.181  25.346  1.00  0.00    -0.376 OA
BRANCH   2   3
ATOM      3  C   UNL A   1      31.839  29.862  26.575  1.00  0.00     0.202 C 
BRANCH   3   4
ATOM      4  C   UNL A   1      32.883  30.954  26.809  1.00  0.00     0.261 C 
BRANCH   4   5
ATOM      5  O   UNL A   1      33.649  30.858  28.025  1.00  0.00    -0.460 OA
BRANCH   5   6
ATOM      6  C   UNL A   1      34.757  31.483  28.465  1.00  0.00     0.338 C 
ATOM      7  O   UNL A   1      34.671  32.656  28.826  1.00  0.00    -0.246 OA
BRANCH   6   8
ATOM      8  C   UNL A   1      36.104  30.868  28.424  1.00  0.00     0.060 A 
ATOM      9  C   UNL A   1      36.344  29.518  28.175  1.00  0.00     0.016 A 
ATOM     10  C   UNL A   1      37.184  31.711  28.762  1.00  0.00     0.016 A 
ATOM     11  C   UNL A   1      37.616  28.996  28.342  1.00  0.00     0.010 A 
ATOM     12  C   UNL A   1      38.456  31.190  28.947  1.00  0.00     0.010 A 
ATOM     13  C   UNL A   1      38.643  29.817  28.807  1.00  0.00    -0.014 A 
BRANCH  13  14
ATOM     14  C   UNL A   1      39.848  29.146  29.273  1.00  0.00     0.031 A 
ATOM     15  C   UNL A   1      40.228  29.344  30.694  1.00  0.00     0.074 A 
ATOM     16  C   UNL A   1      40.574  28.382  28.430  1.00  0.00     0.049 A 
ATOM     17  N   UNL A   1      41.320  29.855  31.168  1.00  0.00    -0.248 NA
ATOM     18  C   UNL A   1      39.230  29.000  31.715  1.00  0.00     0.031 C 
ATOM     19  C   UNL A   1      40.178  27.911  27.098  1.00  0.00     0.029 A 
ATOM     20  N   UNL A   1      41.761  27.747  28.647  1.00  0.00    -0.354 N 
ATOM     21  C   UNL A   1      41.240  29.690  32.552  1.00  0.00     0.074 A 
ATOM     22  C   UNL A   1      39.884  29.303  32.836  1.00  0.00     0.031 C 
ATOM     23  C   UNL A   1      40.959  26.868  26.752  1.00  0.00     0.029 A 
ATOM     24  C   UNL A   1      41.982  26.697  27.766  1.00  0.00     0.049 A 
ATOM     25  H   UNL A   1      42.395  28.006  29.354  1.00  0.00     0.167 HD
ATOM     26  C   UNL A   1      42.352  29.660  33.338  1.00  0.00     0.034 A 
ATOM     27  C   UNL A   1      42.872  25.690  27.914  1.00  0.00     0.034 A 
ATOM     28  C   UNL A   1      43.486  30.271  32.698  1.00  0.00     0.049 A 
ATOM     29  C   UNL A   1      43.905  26.132  28.875  1.00  0.00     0.074 A 
ATOM     30  C   UNL A   1      43.781  31.521  32.193  1.00  0.00     0.029 A 
ATOM     31  N   UNL A   1      44.477  29.440  32.240  1.00  0.00    -0.354 N 
ATOM     32  N   UNL A   1      44.774  27.073  28.630  1.00  0.00    -0.248 NA
ATOM     33  C   UNL A   1      43.747  25.773  30.274  1.00  0.00     0.031 C 
ATOM     34  C   UNL A   1      44.667  31.284  31.103  1.00  0.00     0.029 A 
ATOM     35  C   UNL A   1      44.872  29.905  31.016  1.00  0.00     0.049 A 
ATOM     36  H   UNL A   1      44.839  28.652  32.707  1.00  0.00     0.167 HD
ATOM     37  C   UNL A   1      44.947  27.713  29.850  1.00  0.00     0.074 A 
ATOM     38  C   UNL A   1      44.405  26.788  30.840  1.00  0.00     0.031 C 
ATOM     39  C   UNL A   1      45.242  29.047  29.912  1.00  0.00     0.034 A 
BRANCH  26  40
ATOM     40  C   UNL A   1      42.526  28.759  34.548  1.00  0.00     0.023 A 
ATOM     41  C   UNL A   1      43.009  29.354  35.738  1.00  0.00     0.012 A 
ATOM     42  C   UNL A   1      42.532  27.347  34.499  1.00  0.00     0.148 A 
ATOM     43  C   UNL A   1      43.545  28.591  36.781  1.00  0.00     0.002 A 
ATOM     44  C   UNL A   1      42.994  26.590  35.571  1.00  0.00     0.091 A 
ATOM     45  F   UNL A   1      42.216  26.708  33.370  1.00  0.00    -0.205 F 
ATOM     46  C   UNL A   1      43.537  27.205  36.700  1.00  0.00     0.022 A 
BRANCH  44  47
ATOM     47  S   UNL A   1      42.938  24.794  35.524  1.00  0.00     0.127 S 
ATOM     48  O   UNL A   1      43.700  24.511  34.313  1.00  0.00    -0.237 OA
ATOM     49  O   UNL A   1      43.606  24.434  36.776  1.00  0.00    -0.237 OA
ATOM     50  O   UNL A   1      41.519  24.463  35.496  1.00  0.00    -0.744 OA
ENDBRANCH  44  47
ENDBRANCH  26  40
BRANCH  27  51
ATOM     51  C   UNL A   1      42.732  24.285  27.474  1.00  0.00     0.023 A 
ATOM     52  C   UNL A   1      41.562  23.567  27.783  1.00  0.00     0.012 A 
ATOM     53  C   UNL A   1      43.641  23.718  26.551  1.00  0.00     0.148 A 
ATOM     54  C   UNL A   1      41.303  22.329  27.184  1.00  0.00     0.002 A 
ATOM     55  C   UNL A   1      43.390  22.479  25.975  1.00  0.00     0.091 A 
ATOM     56  F   UNL A   1      44.707  24.435  26.166  1.00  0.00    -0.205 F 
ATOM     57  C   UNL A   1      42.215  21.784  26.281  1.00  0.00     0.022 A 
BRANCH  55  58
ATOM     58  S   UNL A   1      44.532  21.721  24.812  1.00  0.00     0.127 S 
ATOM     59  O   UNL A   1      43.975  20.374  24.670  1.00  0.00    -0.237 OA
ATOM     60  O   UNL A   1      44.378  22.573  23.637  1.00  0.00    -0.237 OA
ATOM     61  O   UNL A   1      45.837  21.757  25.461  1.00  0.00    -0.744 OA
ENDBRANCH  55  58
ENDBRANCH  27  51
BRANCH  39  62
ATOM     62  C   UNL A   1      45.665  29.747  28.644  1.00  0.00     0.023 A 
ATOM     63  C   UNL A   1      44.718  30.289  27.750  1.00  0.00     0.012 A 
ATOM     64  C   UNL A   1      47.027  30.035  28.445  1.00  0.00     0.148 A 
ATOM     65  C   UNL A   1      45.119  31.075  26.668  1.00  0.00     0.002 A 
ATOM     66  C   UNL A   1      47.419  30.858  27.394  1.00  0.00     0.091 A 
ATOM     67  F   UNL A   1      47.919  29.526  29.309  1.00  0.00    -0.205 F 
ATOM     68  C   UNL A   1      46.469  31.370  26.497  1.00  0.00     0.022 A 
BRANCH  66  69
ATOM     69  S   UNL A   1      49.122  31.394  27.205  1.00  0.00     0.127 S 
ATOM     70  O   UNL A   1      49.551  31.556  28.592  1.00  0.00    -0.237 OA
ATOM     71  O   UNL A   1      49.736  30.265  26.503  1.00  0.00    -0.237 OA
ATOM     72  O   UNL A   1      49.066  32.619  26.414  1.00  0.00    -0.744 OA
ENDBRANCH  66  69
ENDBRANCH  39  62
ENDBRANCH  13  14
ENDBRANCH   6   8
ENDBRANCH   5   6
ENDBRANCH   4   5
ENDBRANCH   3   4
ENDBRANCH   2   3
ENDBRANCH   1   2
BRANCH   1  73
ATOM     73  C   UNL A   1      30.049  28.766  23.895  1.00  0.00     0.188 C 
BRANCH  73  74
ATOM     74  O   UNL A   1      30.130  27.771  22.872  1.00  0.00    -0.376 OA
BRANCH  74  75
ATOM     75  C   UNL A   1      29.890  26.416  23.199  1.00  0.00     0.202 C 
BRANCH  75  76
ATOM     76  C   UNL A   1      29.309  26.282  24.609  1.00  0.00     0.261 C 
BRANCH  76  77
ATOM     77  O   UNL A   1      29.881  25.203  25.363  1.00  0.00    -0.458 OA
BRANCH  77  78
ATOM     78  C   UNL A   1      30.825  25.556  26.285  1.00  0.00     0.361 C 
ATOM     79  O   UNL A   1      30.875  26.637  26.874  1.00  0.00    -0.244 OA
BRANCH  78  80
ATOM     80  C   UNL A   1      31.861  24.557  26.403  1.00  0.00     0.198 A 
ATOM     81  N   UNL A   1      31.995  23.681  27.448  1.00  0.00    -0.122 NA
ATOM     82  C   UNL A   1      32.838  24.301  25.456  1.00  0.00     0.109 A 
ATOM     83  N   UNL A   1      33.035  22.895  27.192  1.00  0.00    -0.061 NA
ATOM     84  N   UNL A   1      33.657  23.386  26.099  1.00  0.00    -0.211 N 
BRANCH  82  85
ATOM     85  C   UNL A   1      33.013  24.854  24.120  1.00  0.00     0.004 A 
ATOM     86  C   UNL A   1      32.730  24.084  22.985  1.00  0.00     0.010 A 
ATOM     87  C   UNL A   1      33.413  26.187  23.964  1.00  0.00     0.031 A 
ATOM     88  C   UNL A   1      32.870  24.634  21.709  1.00  0.00     0.002 A 
ATOM     89  C   UNL A   1      33.550  26.730  22.691  1.00  0.00     0.041 A 
ATOM     90  C   UNL A   1      33.284  25.959  21.562  1.00  0.00     0.020 A 
ATOM     91  Cl  UNL A   1      34.052  28.366  22.514  1.00  0.00    -0.084 Cl
ENDBRANCH  82  85
BRANCH  84  92
ATOM     92  C   UNL A   1      34.957  22.976  25.729  1.00  0.00     0.079 A 
ATOM     93  C   UNL A   1      35.995  23.914  25.829  1.00  0.00     0.029 A 
ATOM     94  C   UNL A   1      35.221  21.647  25.336  1.00  0.00     0.081 A 
ATOM     95  C   UNL A   1      37.317  23.498  25.661  1.00  0.00     0.002 A 
ATOM     96  C   UNL A   1      36.564  21.252  25.198  1.00  0.00     0.015 A 
ATOM     97  C   UNL A   1      37.603  22.165  25.376  1.00  0.00     0.001 A 
BRANCH  94  98
ATOM     98  C   UNL A   1      34.161  20.642  24.941  1.00  0.00     0.418 C 
ATOM     99  F   UNL A   1      33.268  20.416  25.948  1.00  0.00    -0.166 F 
ATOM    100  F   UNL A   1      33.410  21.067  23.889  1.00  0.00    -0.166 F 
ATOM    101  F   UNL A   1      34.627  19.411  24.602  1.00  0.00    -0.166 F 
ENDBRANCH  94  98
ENDBRANCH  84  92
ENDBRANCH  78  80
ENDBRANCH  77  78
ENDBRANCH  76  77
ENDBRANCH  75  76
ENDBRANCH  74  75
ENDBRANCH  73  74
ENDBRANCH   1  73
TORSDOF 23
ENDMDL
MODEL 2
REMARK VINA RESULT:     -11.1      3.234      7.551
REMARK SMILES O=C(OCCOCCOCCOC(=O)c1nnn(-c2ccccc2C(F)(F)F)c1-c1cccc(Cl)c1)c1ccc(-c2c3nc(c(-c4cccc(S(=O)(=O)[O-])c4F)c4ccc([nH]4)c(-c4cccc(S(=O)(=O)[O-])c4F)c4nc(c(-c5cccc(S(=O)(=O)[O-])c5F)c5ccc2[nH]5)C=C4)C=C3)cc1
REMARK SMILES IDX 7 1 6 2 5 3 4 4 3 5 2 6 1 7 37 8 38 9 99 10 39 11 98 12
REMARK SMILES IDX 40 13 41 14 42 15 92 16 43 17 97 18 91 19 93 20 44 21 96 22
REMARK SMILES IDX 90 23 89 24 45 26 77 27 57 28 76 29 58 30 61 31 75 32 94 33
REMARK SMILES IDX 59 34 60 35 74 37 95 38 62 39 46 40 47 41 55 42 48 43 50 44
REMARK SMILES IDX 56 45 49 46 51 47 52 48 53 49 54 50 78 51 79 52 87 53 80 54
REMARK SMILES IDX 82 55 88 56 81 57 83 58 84 59 85 60 86 61 63 62 64 63 72 64
REMARK SMILES IDX 65 65 67 66 73 67 66 68 68 69 69 70 70 71 71 72 8 73 9 74
REMARK SMILES IDX 10 75 11 76 12 77 13 78 14 79 15 80 16 81 29 82 17 83 18 84
REMARK SMILES IDX 30 85 31 86 36 87 32 88 34 89 33 90 35 91 19 92 20 93 24 94
REMARK SMILES IDX 21 95 23 96 22 97 25 98 26 99 27 100 28 101
REMARK H PARENT 93 25 61 36
REMARK Flexibility Score: inf
ROOT
ATOM      1  C   UNL A   1      35.433  20.073  24.926  1.00  0.00     0.188 C 
ENDROOT
BRANCH   1   2
ATOM      2  O   UNL A   1      36.613  19.278  24.980  1.00  0.00    -0.376 OA
BRANCH   2   3
ATOM      3  C   UNL A   1      37.807  19.953  24.621  1.00  0.00     0.202 C 
BRANCH   3   4
ATOM      4  C   UNL A   1      38.839  19.964  25.749  1.00  0.00     0.261 C 
BRANCH   4   5
ATOM      5  O   UNL A   1      40.027  19.176  25.538  1.00  0.00    -0.460 OA
BRANCH   5   6
ATOM      6  C   UNL A   1      41.326  19.378  25.826  1.00  0.00     0.338 C 
ATOM      7  O   UNL A   1      42.143  18.514  25.513  1.00  0.00    -0.246 OA
BRANCH   6   8
ATOM      8  C   UNL A   1      41.810  20.537  26.611  1.00  0.00     0.060 A 
ATOM      9  C   UNL A   1      41.708  20.645  27.997  1.00  0.00     0.016 A 
ATOM     10  C   UNL A   1      42.311  21.627  25.868  1.00  0.00     0.016 A 
ATOM     11  C   UNL A   1      42.015  21.842  28.624  1.00  0.00     0.010 A 
ATOM     12  C   UNL A   1      42.604  22.832  26.489  1.00  0.00     0.010 A 
ATOM     13  C   UNL A   1      42.380  22.948  27.859  1.00  0.00    -0.014 A 
BRANCH  13  14
ATOM     14  C   UNL A   1      42.362  24.238  28.536  1.00  0.00     0.031 A 
ATOM     15  C   UNL A   1      41.256  25.167  28.196  1.00  0.00     0.074 A 
ATOM     16  C   UNL A   1      43.323  24.553  29.429  1.00  0.00     0.049 A 
ATOM     17  N   UNL A   1      41.336  26.359  27.693  1.00  0.00    -0.248 NA
ATOM     18  C   UNL A   1      39.883  24.676  28.365  1.00  0.00     0.031 C 
ATOM     19  C   UNL A   1      44.307  23.645  30.029  1.00  0.00     0.029 A 
ATOM     20  N   UNL A   1      43.528  25.724  30.098  1.00  0.00    -0.354 N 
ATOM     21  C   UNL A   1      40.031  26.853  27.693  1.00  0.00     0.074 A 
ATOM     22  C   UNL A   1      39.173  25.732  27.971  1.00  0.00     0.031 C 
ATOM     23  C   UNL A   1      44.805  24.214  31.146  1.00  0.00     0.029 A 
ATOM     24  C   UNL A   1      44.281  25.562  31.254  1.00  0.00     0.049 A 
ATOM     25  H   UNL A   1      43.179  26.592  29.794  1.00  0.00     0.167 HD
ATOM     26  C   UNL A   1      39.768  28.189  27.690  1.00  0.00     0.034 A 
ATOM     27  C   UNL A   1      44.381  26.433  32.283  1.00  0.00     0.034 A 
ATOM     28  C   UNL A   1      40.886  28.962  27.219  1.00  0.00     0.049 A 
ATOM     29  C   UNL A   1      43.988  27.770  31.789  1.00  0.00     0.074 A 
ATOM     30  C   UNL A   1      41.622  29.026  26.054  1.00  0.00     0.029 A 
ATOM     31  N   UNL A   1      41.598  29.677  28.150  1.00  0.00    -0.354 N 
ATOM     32  N   UNL A   1      44.682  28.464  30.931  1.00  0.00    -0.248 NA
ATOM     33  C   UNL A   1      42.612  28.199  31.975  1.00  0.00     0.031 C 
ATOM     34  C   UNL A   1      42.939  29.387  26.462  1.00  0.00     0.029 A 
ATOM     35  C   UNL A   1      42.924  29.537  27.851  1.00  0.00     0.049 A 
ATOM     36  H   UNL A   1      41.221  30.198  28.897  1.00  0.00     0.167 HD
ATOM     37  C   UNL A   1      43.731  29.122  30.164  1.00  0.00     0.074 A 
ATOM     38  C   UNL A   1      42.496  29.033  30.938  1.00  0.00     0.031 C 
ATOM     39  C   UNL A   1      43.965  29.419  28.850  1.00  0.00     0.034 A 
BRANCH  26  40
ATOM     40  C   UNL A   1      38.630  28.843  28.454  1.00  0.00     0.023 A 
ATOM     41  C   UNL A   1      37.762  29.692  27.727  1.00  0.00     0.012 A 
ATOM     42  C   UNL A   1      38.545  28.909  29.863  1.00  0.00     0.148 A 
ATOM     43  C   UNL A   1      36.924  30.614  28.365  1.00  0.00     0.002 A 
ATOM     44  C   UNL A   1      37.654  29.772  30.493  1.00  0.00     0.091 A 
ATOM     45  F   UNL A   1      39.415  28.240  30.625  1.00  0.00    -0.205 F 
ATOM     46  C   UNL A   1      36.867  30.654  29.751  1.00  0.00     0.022 A 
BRANCH  44  47
ATOM     47  S   UNL A   1      37.510  29.803  32.284  1.00  0.00     0.127 S 
ATOM     48  O   UNL A   1      38.798  30.370  32.670  1.00  0.00    -0.237 OA
ATOM     49  O   UNL A   1      36.359  30.685  32.483  1.00  0.00    -0.237 OA
ATOM     50  O   UNL A   1      37.266  28.418  32.665  1.00  0.00    -0.744 OA
ENDBRANCH  44  47
ENDBRANCH  26  40
BRANCH  27  51
ATOM     51  C   UNL A   1      44.543  26.122  33.719  1.00  0.00     0.023 A 
ATOM     52  C   UNL A   1      43.582  25.335  34.379  1.00  0.00     0.012 A 
ATOM     53  C   UNL A   1      45.757  26.400  34.391  1.00  0.00     0.148 A 
ATOM     54  C   UNL A   1      43.828  24.832  35.662  1.00  0.00     0.002 A 
ATOM     55  C   UNL A   1      45.986  25.917  35.673  1.00  0.00     0.091 A 
ATOM     56  F   UNL A   1      46.723  27.060  33.737  1.00  0.00    -0.205 F 
ATOM     57  C   UNL A   1      45.027  25.122  36.310  1.00  0.00     0.022 A 
BRANCH  55  58
ATOM     58  S   UNL A   1      47.509  26.266  36.563  1.00  0.00     0.127 S 
ATOM     59  O   UNL A   1      48.519  25.677  35.681  1.00  0.00    -0.237 OA
ATOM     60  O   UNL A   1      47.509  27.725  36.603  1.00  0.00    -0.237 OA
ATOM     61  O   UNL A   1      47.378  25.592  37.848  1.00  0.00    -0.744 OA
ENDBRANCH  55  58
ENDBRANCH  27  51
BRANCH  39  62
ATOM     62  C   UNL A   1      45.373  29.287  28.325  1.00  0.00     0.023 A 
ATOM     63  C   UNL A   1      46.302  30.342  28.434  1.00  0.00     0.012 A 
ATOM     64  C   UNL A   1      45.826  28.027  27.894  1.00  0.00     0.148 A 
ATOM     65  C   UNL A   1      47.644  30.155  28.095  1.00  0.00     0.002 A 
ATOM     66  C   UNL A   1      47.172  27.832  27.605  1.00  0.00     0.091 A 
ATOM     67  F   UNL A   1      44.936  27.026  27.807  1.00  0.00    -0.205 F 
ATOM     68  C   UNL A   1      48.082  28.896  27.693  1.00  0.00     0.022 A 
BRANCH  66  69
ATOM     69  S   UNL A   1      47.825  26.203  27.223  1.00  0.00     0.127 S 
ATOM     70  O   UNL A   1      47.138  25.880  25.975  1.00  0.00    -0.237 OA
ATOM     71  O   UNL A   1      49.260  26.459  27.083  1.00  0.00    -0.237 OA
ATOM     72  O   UNL A   1      47.486  25.363  28.367  1.00  0.00    -0.744 OA
ENDBRANCH  66  69
ENDBRANCH  39  62
ENDBRANCH  13  14
ENDBRANCH   6   8
ENDBRANCH   5   6
ENDBRANCH   4   5
ENDBRANCH   3   4
ENDBRANCH   2   3
ENDBRANCH   1   2
BRANCH   1  73
ATOM     73  C   UNL A   1      34.131  19.251  24.803  1.00  0.00     0.188 C 
BRANCH  73  74
ATOM     74  O   UNL A   1      33.144  19.529  23.807  1.00  0.00    -0.376 OA
BRANCH  74  75
ATOM     75  C   UNL A   1      32.293  20.648  23.963  1.00  0.00     0.202 C 
BRANCH  75  76
ATOM     76  C   UNL A   1      32.040  20.947  25.442  1.00  0.00     0.261 C 
BRANCH  76  77
ATOM     77  O   UNL A   1      31.150  22.052  25.659  1.00  0.00    -0.458 OA
BRANCH  77  78
ATOM     78  C   UNL A   1      31.430  22.840  26.738  1.00  0.00     0.361 C 
ATOM     79  O   UNL A   1      31.538  22.444  27.900  1.00  0.00    -0.244 OA
BRANCH  78  80
ATOM     80  C   UNL A   1      31.455  24.241  26.388  1.00  0.00     0.198 A 
ATOM     81  N   UNL A   1      30.587  25.188  26.866  1.00  0.00    -0.122 NA
ATOM     82  C   UNL A   1      32.389  24.844  25.562  1.00  0.00     0.109 A 
ATOM     83  N   UNL A   1      30.939  26.362  26.353  1.00  0.00    -0.061 NA
ATOM     84  N   UNL A   1      31.892  26.131  25.425  1.00  0.00    -0.211 N 
BRANCH  82  85
ATOM     85  C   UNL A   1      33.589  24.292  24.950  1.00  0.00     0.004 A 
ATOM     86  C   UNL A   1      33.589  23.892  23.608  1.00  0.00     0.010 A 
ATOM     87  C   UNL A   1      34.776  24.210  25.691  1.00  0.00     0.031 A 
ATOM     88  C   UNL A   1      34.754  23.394  23.022  1.00  0.00     0.002 A 
ATOM     89  C   UNL A   1      35.933  23.714  25.101  1.00  0.00     0.041 A 
ATOM     90  C   UNL A   1      35.928  23.301  23.772  1.00  0.00     0.020 A 
ATOM     91  Cl  UNL A   1      37.381  23.610  26.027  1.00  0.00    -0.084 Cl
ENDBRANCH  82  85
BRANCH  84  92
ATOM     92  C   UNL A   1      32.275  27.111  24.484  1.00  0.00     0.079 A 
ATOM     93  C   UNL A   1      31.860  26.943  23.155  1.00  0.00     0.029 A 
ATOM     94  C   UNL A   1      32.993  28.262  24.875  1.00  0.00     0.081 A 
ATOM     95  C   UNL A   1      32.048  27.979  22.238  1.00  0.00     0.002 A 
ATOM     96  C   UNL A   1      33.145  29.298  23.936  1.00  0.00     0.015 A 
ATOM     97  C   UNL A   1      32.662  29.165  22.635  1.00  0.00     0.001 A 
BRANCH  94  98
ATOM     98  C   UNL A   1      33.710  28.416  26.198  1.00  0.00     0.418 C 
ATOM     99  F   UNL A   1      34.841  29.171  26.083  1.00  0.00    -0.166 F 
ATOM    100  F   UNL A   1      32.949  29.054  27.129  1.00  0.00    -0.166 F 
ATOM    101  F   UNL A   1      34.119  27.255  26.774  1.00  0.00    -0.166 F 
ENDBRANCH  94  98
ENDBRANCH  84  92
ENDBRANCH  78  80
ENDBRANCH  77  78
ENDBRANCH  76  77
ENDBRANCH  75  76
ENDBRANCH  74  75
ENDBRANCH  73  74
ENDBRANCH   1  73
TORSDOF 23
ENDMDL
MODEL 3
REMARK VINA RESULT:     -10.8      2.226      3.078
REMARK SMILES O=C(OCCOCCOCCOC(=O)c1nnn(-c2ccccc2C(F)(F)F)c1-c1cccc(Cl)c1)c1ccc(-c2c3nc(c(-c4cccc(S(=O)(=O)[O-])c4F)c4ccc([nH]4)c(-c4cccc(S(=O)(=O)[O-])c4F)c4nc(c(-c5cccc(S(=O)(=O)[O-])c5F)c5ccc2[nH]5)C=C4)C=C3)cc1
REMARK SMILES IDX 7 1 6 2 5 3 4 4 3 5 2 6 1 7 37 8 38 9 99 10 39 11 98 12
REMARK SMILES IDX 40 13 41 14 42 15 92 16 43 17 97 18 91 19 93 20 44 21 96 22
REMARK SMILES IDX 90 23 89 24 45 26 77 27 57 28 76 29 58 30 61 31 75 32 94 33
REMARK SMILES IDX 59 34 60 35 74 37 95 38 62 39 46 40 47 41 55 42 48 43 50 44
REMARK SMILES IDX 56 45 49 46 51 47 52 48 53 49 54 50 78 51 79 52 87 53 80 54
REMARK SMILES IDX 82 55 88 56 81 57 83 58 84 59 85 60 86 61 63 62 64 63 72 64
REMARK SMILES IDX 65 65 67 66 73 67 66 68 68 69 69 70 70 71 71 72 8 73 9 74
REMARK SMILES IDX 10 75 11 76 12 77 13 78 14 79 15 80 16 81 29 82 17 83 18 84
REMARK SMILES IDX 30 85 31 86 36 87 32 88 34 89 33 90 35 91 19 92 20 93 24 94
REMARK SMILES IDX 21 95 23 96 22 97 25 98 26 99 27 100 28 101
REMARK H PARENT 93 25 61 36
REMARK Flexibility Score: inf
ROOT
ATOM      1  C   UNL A   1      32.202  29.745  25.327  1.00  0.00     0.188 C 
ENDROOT
BRANCH   1   2
ATOM      2  O   UNL A   1      31.869  30.180  26.642  1.00  0.00    -0.376 OA
BRANCH   2   3
ATOM      3  C   UNL A   1      32.543  31.349  27.075  1.00  0.00     0.202 C 
BRANCH   3   4
ATOM      4  C   UNL A   1      33.968  31.066  27.552  1.00  0.00     0.261 C 
BRANCH   4   5
ATOM      5  O   UNL A   1      34.483  31.934  28.580  1.00  0.00    -0.460 OA
BRANCH   5   6
ATOM      6  C   UNL A   1      35.435  31.781  29.519  1.00  0.00     0.338 C 
ATOM      7  O   UNL A   1      35.289  32.334  30.607  1.00  0.00    -0.246 OA
BRANCH   6   8
ATOM      8  C   UNL A   1      36.714  31.076  29.267  1.00  0.00     0.060 A 
ATOM      9  C   UNL A   1      36.815  29.725  28.940  1.00  0.00     0.016 A 
ATOM     10  C   UNL A   1      37.890  31.826  29.478  1.00  0.00     0.016 A 
ATOM     11  C   UNL A   1      38.056  29.110  28.908  1.00  0.00     0.010 A 
ATOM     12  C   UNL A   1      39.133  31.211  29.464  1.00  0.00     0.010 A 
ATOM     13  C   UNL A   1      39.195  29.836  29.251  1.00  0.00    -0.014 A 
BRANCH  13  14
ATOM     14  C   UNL A   1      40.399  29.062  29.519  1.00  0.00     0.031 A 
ATOM     15  C   UNL A   1      40.748  28.822  30.942  1.00  0.00     0.074 A 
ATOM     16  C   UNL A   1      41.151  28.595  28.501  1.00  0.00     0.049 A 
ATOM     17  N   UNL A   1      41.825  29.172  31.573  1.00  0.00    -0.248 NA
ATOM     18  C   UNL A   1      39.736  28.179  31.788  1.00  0.00     0.031 C 
ATOM     19  C   UNL A   1      40.788  28.547  27.080  1.00  0.00     0.029 A 
ATOM     20  N   UNL A   1      42.342  27.931  28.542  1.00  0.00    -0.354 N 
ATOM     21  C   UNL A   1      41.720  28.594  32.839  1.00  0.00     0.074 A 
ATOM     22  C   UNL A   1      40.363  28.131  32.963  1.00  0.00     0.031 C 
ATOM     23  C   UNL A   1      41.589  27.663  26.452  1.00  0.00     0.029 A 
ATOM     24  C   UNL A   1      42.594  27.199  27.390  1.00  0.00     0.049 A 
ATOM     25  H   UNL A   1      42.959  27.967  29.309  1.00  0.00     0.167 HD
ATOM     26  C   UNL A   1      42.815  28.335  33.605  1.00  0.00     0.034 A 
ATOM     27  C   UNL A   1      43.494  26.200  27.246  1.00  0.00     0.034 A 
ATOM     28  C   UNL A   1      43.954  29.118  33.206  1.00  0.00     0.049 A 
ATOM     29  C   UNL A   1      44.502  26.336  28.318  1.00  0.00     0.074 A 
ATOM     30  C   UNL A   1      44.243  30.464  33.111  1.00  0.00     0.029 A 
ATOM     31  N   UNL A   1      44.965  28.471  32.540  1.00  0.00    -0.354 N 
ATOM     32  N   UNL A   1      45.363  27.313  28.391  1.00  0.00    -0.248 NA
ATOM     33  C   UNL A   1      44.321  25.569  29.539  1.00  0.00     0.031 C 
ATOM     34  C   UNL A   1      45.154  30.575  32.020  1.00  0.00     0.029 A 
ATOM     35  C   UNL A   1      45.378  29.288  31.525  1.00  0.00     0.049 A 
ATOM     36  H   UNL A   1      45.328  27.581  32.755  1.00  0.00     0.167 HD
ATOM     37  C   UNL A   1      45.504  27.554  29.751  1.00  0.00     0.074 A 
ATOM     38  C   UNL A   1      44.954  26.368  30.401  1.00  0.00     0.031 C 
ATOM     39  C   UNL A   1      45.780  28.808  30.220  1.00  0.00     0.034 A 
BRANCH  26  40
ATOM     40  C   UNL A   1      42.978  27.110  34.488  1.00  0.00     0.023 A 
ATOM     41  C   UNL A   1      42.909  27.304  35.888  1.00  0.00     0.012 A 
ATOM     42  C   UNL A   1      43.481  25.865  34.046  1.00  0.00     0.148 A 
ATOM     43  C   UNL A   1      43.393  26.351  36.792  1.00  0.00     0.002 A 
ATOM     44  C   UNL A   1      43.888  24.890  34.950  1.00  0.00     0.091 A 
ATOM     45  F   UNL A   1      43.701  25.648  32.747  1.00  0.00    -0.205 F 
ATOM     46  C   UNL A   1      43.883  25.140  36.323  1.00  0.00     0.022 A 
BRANCH  44  47
ATOM     47  S   UNL A   1      44.467  23.287  34.379  1.00  0.00     0.127 S 
ATOM     48  O   UNL A   1      44.654  22.578  35.640  1.00  0.00    -0.237 OA
ATOM     49  O   UNL A   1      43.340  22.826  33.567  1.00  0.00    -0.237 OA
ATOM     50  O   UNL A   1      45.670  23.576  33.608  1.00  0.00    -0.744 OA
ENDBRANCH  44  47
ENDBRANCH  26  40
BRANCH  27  51
ATOM     51  C   UNL A   1      43.381  24.994  26.397  1.00  0.00     0.023 A 
ATOM     52  C   UNL A   1      44.321  24.765  25.377  1.00  0.00     0.012 A 
ATOM     53  C   UNL A   1      42.490  23.949  26.734  1.00  0.00     0.148 A 
ATOM     54  C   UNL A   1      44.379  23.529  24.721  1.00  0.00     0.002 A 
ATOM     55  C   UNL A   1      42.537  22.732  26.065  1.00  0.00     0.091 A 
ATOM     56  F   UNL A   1      41.659  24.114  27.773  1.00  0.00    -0.205 F 
ATOM     57  C   UNL A   1      43.488  22.514  25.063  1.00  0.00     0.022 A 
BRANCH  55  58
ATOM     58  S   UNL A   1      41.408  21.388  26.456  1.00  0.00     0.127 S 
ATOM     59  O   UNL A   1      41.681  21.163  27.876  1.00  0.00    -0.237 OA
ATOM     60  O   UNL A   1      40.109  21.990  26.171  1.00  0.00    -0.237 OA
ATOM     61  O   UNL A   1      41.801  20.281  25.594  1.00  0.00    -0.744 OA
ENDBRANCH  55  58
ENDBRANCH  27  51
BRANCH  39  62
ATOM     62  C   UNL A   1      46.220  29.862  29.235  1.00  0.00     0.023 A 
ATOM     63  C   UNL A   1      47.573  30.006  28.864  1.00  0.00     0.012 A 
ATOM     64  C   UNL A   1      45.243  30.585  28.527  1.00  0.00     0.148 A 
ATOM     65  C   UNL A   1      47.948  30.871  27.833  1.00  0.00     0.002 A 
ATOM     66  C   UNL A   1      45.615  31.408  27.469  1.00  0.00     0.091 A 
ATOM     67  F   UNL A   1      43.957  30.430  28.878  1.00  0.00    -0.205 F 
ATOM     68  C   UNL A   1      46.967  31.562  27.127  1.00  0.00     0.022 A 
BRANCH  66  69
ATOM     69  S   UNL A   1      44.392  32.211  26.427  1.00  0.00     0.127 S 
ATOM     70  O   UNL A   1      43.872  33.253  27.310  1.00  0.00    -0.237 OA
ATOM     71  O   UNL A   1      45.199  32.703  25.309  1.00  0.00    -0.237 OA
ATOM     72  O   UNL A   1      43.444  31.166  26.055  1.00  0.00    -0.744 OA
ENDBRANCH  66  69
ENDBRANCH  39  62
ENDBRANCH  13  14
ENDBRANCH   6   8
ENDBRANCH   5   6
ENDBRANCH   4   5
ENDBRANCH   3   4
ENDBRANCH   2   3
ENDBRANCH   1   2
BRANCH   1  73
ATOM     73  C   UNL A   1      31.054  29.007  24.604  1.00  0.00     0.188 C 
BRANCH  73  74
ATOM     74  O   UNL A   1      30.391  29.560  23.464  1.00  0.00    -0.376 OA
BRANCH  74  75
ATOM     75  C   UNL A   1      29.783  28.694  22.525  1.00  0.00     0.202 C 
BRANCH  75  76
ATOM     76  C   UNL A   1      30.205  27.241  22.758  1.00  0.00     0.261 C 
BRANCH  76  77
ATOM     77  O   UNL A   1      30.966  26.686  21.676  1.00  0.00    -0.458 OA
BRANCH  77  78
ATOM     78  C   UNL A   1      32.323  26.699  21.833  1.00  0.00     0.361 C 
ATOM     79  O   UNL A   1      33.039  27.699  21.761  1.00  0.00    -0.244 OA
BRANCH  78  80
ATOM     80  C   UNL A   1      32.861  25.365  21.965  1.00  0.00     0.198 A 
ATOM     81  N   UNL A   1      33.484  24.665  20.964  1.00  0.00    -0.122 NA
ATOM     82  C   UNL A   1      32.876  24.618  23.130  1.00  0.00     0.109 A 
ATOM     83  N   UNL A   1      33.874  23.497  21.463  1.00  0.00    -0.061 NA
ATOM     84  N   UNL A   1      33.344  23.386  22.700  1.00  0.00    -0.211 N 
BRANCH  82  85
ATOM     85  C   UNL A   1      32.482  24.989  24.482  1.00  0.00     0.004 A 
ATOM     86  C   UNL A   1      33.193  25.964  25.193  1.00  0.00     0.010 A 
ATOM     87  C   UNL A   1      31.347  24.406  25.062  1.00  0.00     0.031 A 
ATOM     88  C   UNL A   1      32.787  26.334  26.477  1.00  0.00     0.002 A 
ATOM     89  C   UNL A   1      30.948  24.780  26.341  1.00  0.00     0.041 A 
ATOM     90  C   UNL A   1      31.664  25.738  27.053  1.00  0.00     0.020 A 
ATOM     91  Cl  UNL A   1      29.558  24.049  27.044  1.00  0.00    -0.084 Cl
ENDBRANCH  82  85
BRANCH  84  92
ATOM     92  C   UNL A   1      33.309  22.156  23.393  1.00  0.00     0.079 A 
ATOM     93  C   UNL A   1      32.237  21.289  23.138  1.00  0.00     0.029 A 
ATOM     94  C   UNL A   1      34.354  21.776  24.262  1.00  0.00     0.081 A 
ATOM     95  C   UNL A   1      32.265  19.990  23.649  1.00  0.00     0.002 A 
ATOM     96  C   UNL A   1      34.367  20.453  24.742  1.00  0.00     0.015 A 
ATOM     97  C   UNL A   1      33.341  19.564  24.425  1.00  0.00     0.001 A 
BRANCH  94  98
ATOM     98  C   UNL A   1      35.402  22.720  24.809  1.00  0.00     0.418 C 
ATOM     99  F   UNL A   1      36.503  22.056  25.264  1.00  0.00    -0.166 F 
ATOM    100  F   UNL A   1      35.869  23.579  23.863  1.00  0.00    -0.166 F 
ATOM    101  F   UNL A   1      34.998  23.491  25.854  1.00  0.00    -0.166 F 
ENDBRANCH  94  98
ENDBRANCH  84  92
ENDBRANCH  78  80
ENDBRANCH  77  78
ENDBRANCH  76  77
ENDBRANCH  75  76
ENDBRANCH  74  75
ENDBRANCH  73  74
ENDBRANCH   1  73
TORSDOF 23
ENDMDL
