MODEL 1
REMARK VINA RESULT:     -11.2      0.000      0.000
REMARK SMILES CC(C)=C1[C@H]2CC[C@@H]1[C@@H](C(=O)Nc1cc(C)cc(C)c1)[C@@H]2C(=O)OCCOCCOCCOC(=O)c1ccc(-c2c3nc(c(-c4cccc(S(=O)(=O)[O-])c4F)c4ccc([nH]4)c(-c4cccc(S(=O)(=O)[O-])c4F)c4nc(c(-c5cccc(S(=O)(=O)[O-])c5F)c5ccc2[nH]5)C=C4)C=C3)cc1
REMARK SMILES IDX 29 1 28 2 27 3 26 4 25 5 24 6 22 7 23 8 21 9 1 10 2 11 3 12
REMARK SMILES IDX 4 13 5 14 8 15 6 16 7 17 9 18 10 19 11 20 12 21 13 23 14 24
REMARK SMILES IDX 20 25 15 26 18 27 16 28 17 29 19 30 30 31 31 32 32 33 33 34
REMARK SMILES IDX 34 35 35 36 36 37 37 38 98 39 38 40 97 41 39 42 40 43 41 44
REMARK SMILES IDX 91 45 42 46 96 47 90 48 92 49 43 50 95 51 89 52 88 53 44 55
REMARK SMILES IDX 76 56 56 57 75 58 57 59 60 60 74 61 93 62 58 63 59 64 73 66
REMARK SMILES IDX 94 67 61 68 45 69 46 70 54 71 47 72 49 73 55 74 48 75 50 76
REMARK SMILES IDX 51 77 52 78 53 79 77 80 78 81 86 82 79 83 81 84 87 85 80 86
REMARK SMILES IDX 82 87 83 88 84 89 85 90 62 91 63 92 71 93 64 94 66 95 72 96
REMARK SMILES IDX 65 97 67 98 68 99 69 100 70 101
REMARK H PARENT 12 22 92 54 60 65
REMARK Flexibility Score: inf
ROOT
ATOM      1  C   UNL A   1      35.002  32.741  27.875  1.00  0.00     0.188 C 
ENDROOT
BRANCH   1   2
ATOM      2  C   UNL A   1      33.559  32.228  27.882  1.00  0.00     0.188 C 
BRANCH   2   3
ATOM      3  O   UNL A   1      33.333  30.875  27.515  1.00  0.00    -0.376 OA
BRANCH   3   4
ATOM      4  C   UNL A   1      32.241  30.562  26.656  1.00  0.00     0.202 C 
BRANCH   4   5
ATOM      5  C   UNL A   1      32.445  29.585  25.485  1.00  0.00     0.261 C 
BRANCH   5   6
ATOM      6  O   UNL A   1      31.784  28.301  25.605  1.00  0.00    -0.463 OA
BRANCH   6   7
ATOM      7  C   UNL A   1      32.544  27.288  26.086  1.00  0.00     0.310 C 
ATOM      8  O   UNL A   1      33.481  27.446  26.866  1.00  0.00    -0.252 OA
BRANCH   7   9
ATOM      9  C   UNL A   1      32.232  25.901  25.547  1.00  0.00     0.119 C 
ATOM     10  C   UNL A   1      31.865  22.305  22.550  1.00  0.00     0.039 C 
ATOM     11  C   UNL A   1      32.653  23.509  22.978  1.00  0.00    -0.077 C 
ATOM     12  C   UNL A   1      34.085  23.578  22.527  1.00  0.00     0.039 C 
ATOM     13  C   UNL A   1      32.092  24.518  23.662  1.00  0.00    -0.064 C 
ATOM     14  C   UNL A   1      32.664  25.843  24.072  1.00  0.00     0.030 C 
ATOM     15  C   UNL A   1      30.673  24.762  24.087  1.00  0.00     0.029 C 
ATOM     16  C   UNL A   1      31.766  26.729  23.194  1.00  0.00     0.009 C 
ATOM     17  C   UNL A   1      30.409  25.993  23.198  1.00  0.00     0.009 C 
ATOM     18  C   UNL A   1      30.832  25.255  25.545  1.00  0.00     0.101 C 
BRANCH  18  19
ATOM     19  C   UNL A   1      30.389  24.146  26.540  1.00  0.00     0.228 C 
ATOM     20  O   UNL A   1      29.295  24.295  27.108  1.00  0.00    -0.274 OA
ATOM     21  N   UNL A   1      30.966  22.926  26.732  1.00  0.00    -0.326 N 
ATOM     22  H   UNL A   1      30.372  22.263  27.150  1.00  0.00     0.169 HD
BRANCH  21  23
ATOM     23  C   UNL A   1      32.242  22.444  26.446  1.00  0.00     0.041 A 
ATOM     24  C   UNL A   1      33.376  23.194  26.714  1.00  0.00     0.029 A 
ATOM     25  C   UNL A   1      32.379  21.167  25.902  1.00  0.00     0.029 A 
ATOM     26  C   UNL A   1      34.609  22.836  26.171  1.00  0.00    -0.049 A 
ATOM     27  C   UNL A   1      33.624  20.746  25.413  1.00  0.00    -0.049 A 
ATOM     28  C   UNL A   1      35.720  23.845  26.153  1.00  0.00     0.044 C 
ATOM     29  C   UNL A   1      34.724  21.611  25.509  1.00  0.00     0.007 A 
ATOM     30  C   UNL A   1      33.758  19.450  24.673  1.00  0.00     0.044 C 
ENDBRANCH  21  23
ENDBRANCH  18  19
ENDBRANCH   7   9
ENDBRANCH   6   7
ENDBRANCH   5   6
ENDBRANCH   4   5
ENDBRANCH   3   4
ENDBRANCH   2   3
ENDBRANCH   1   2
BRANCH   1  31
ATOM     31  O   UNL A   1      35.258  33.812  28.759  1.00  0.00    -0.376 OA
BRANCH  31  32
ATOM     32  C   UNL A   1      34.193  34.216  29.605  1.00  0.00     0.202 C 
BRANCH  32  33
ATOM     33  C   UNL A   1      34.317  33.982  31.121  1.00  0.00     0.261 C 
BRANCH  33  34
ATOM     34  O   UNL A   1      34.579  32.634  31.547  1.00  0.00    -0.460 OA
BRANCH  34  35
ATOM     35  C   UNL A   1      35.461  32.439  32.557  1.00  0.00     0.338 C 
ATOM     36  O   UNL A   1      35.267  32.634  33.745  1.00  0.00    -0.246 OA
BRANCH  35  37
ATOM     37  C   UNL A   1      36.633  31.740  31.972  1.00  0.00     0.060 A 
ATOM     38  C   UNL A   1      37.693  31.343  32.803  1.00  0.00     0.016 A 
ATOM     39  C   UNL A   1      36.649  31.411  30.616  1.00  0.00     0.016 A 
ATOM     40  C   UNL A   1      38.767  30.613  32.279  1.00  0.00     0.010 A 
ATOM     41  C   UNL A   1      37.737  30.708  30.088  1.00  0.00     0.010 A 
ATOM     42  C   UNL A   1      38.810  30.318  30.910  1.00  0.00    -0.014 A 
BRANCH  42  43
ATOM     43  C   UNL A   1      40.034  29.752  30.288  1.00  0.00     0.031 A 
ATOM     44  C   UNL A   1      41.261  30.620  30.210  1.00  0.00     0.074 A 
ATOM     45  C   UNL A   1      40.051  28.520  29.748  1.00  0.00     0.049 A 
ATOM     46  N   UNL A   1      42.399  30.399  29.607  1.00  0.00    -0.248 NA
ATOM     47  C   UNL A   1      41.186  31.917  30.903  1.00  0.00     0.031 C 
ATOM     48  C   UNL A   1      38.939  27.572  29.765  1.00  0.00     0.029 A 
ATOM     49  N   UNL A   1      41.037  27.871  29.041  1.00  0.00    -0.354 N 
ATOM     50  C   UNL A   1      43.163  31.541  29.812  1.00  0.00     0.074 A 
ATOM     51  C   UNL A   1      42.358  32.454  30.595  1.00  0.00     0.031 C 
ATOM     52  C   UNL A   1      39.289  26.478  29.064  1.00  0.00     0.029 A 
ATOM     53  C   UNL A   1      40.634  26.664  28.518  1.00  0.00     0.049 A 
ATOM     54  H   UNL A   1      41.942  28.237  28.920  1.00  0.00     0.167 HD
ATOM     55  C   UNL A   1      44.423  31.808  29.394  1.00  0.00     0.034 A 
ATOM     56  C   UNL A   1      41.262  25.826  27.669  1.00  0.00     0.034 A 
ATOM     57  C   UNL A   1      45.228  30.899  28.624  1.00  0.00     0.049 A 
ATOM     58  C   UNL A   1      42.649  26.165  27.178  1.00  0.00     0.074 A 
ATOM     59  C   UNL A   1      46.534  31.062  28.196  1.00  0.00     0.029 A 
ATOM     60  N   UNL A   1      44.802  29.670  28.148  1.00  0.00    -0.354 N 
ATOM     61  N   UNL A   1      43.404  27.196  27.474  1.00  0.00    -0.248 NA
ATOM     62  C   UNL A   1      43.280  25.211  26.251  1.00  0.00     0.031 C 
ATOM     63  C   UNL A   1      46.885  29.947  27.428  1.00  0.00     0.029 A 
ATOM     64  C   UNL A   1      45.811  29.071  27.412  1.00  0.00     0.049 A 
ATOM     65  H   UNL A   1      43.912  29.280  28.310  1.00  0.00     0.167 HD
ATOM     66  C   UNL A   1      44.608  26.997  26.801  1.00  0.00     0.074 A 
ATOM     67  C   UNL A   1      44.489  25.736  26.099  1.00  0.00     0.031 C 
ATOM     68  C   UNL A   1      45.705  27.793  26.757  1.00  0.00     0.034 A 
BRANCH  55  69
ATOM     69  C   UNL A   1      45.014  33.141  29.771  1.00  0.00     0.023 A 
ATOM     70  C   UNL A   1      45.779  33.259  30.949  1.00  0.00     0.012 A 
ATOM     71  C   UNL A   1      44.855  34.261  28.932  1.00  0.00     0.148 A 
ATOM     72  C   UNL A   1      46.348  34.483  31.304  1.00  0.00     0.002 A 
ATOM     73  C   UNL A   1      45.464  35.463  29.268  1.00  0.00     0.091 A 
ATOM     74  F   UNL A   1      44.106  34.132  27.829  1.00  0.00    -0.205 F 
ATOM     75  C   UNL A   1      46.200  35.580  30.460  1.00  0.00     0.022 A 
BRANCH  73  76
ATOM     76  S   UNL A   1      45.400  36.912  28.209  1.00  0.00     0.127 S 
ATOM     77  O   UNL A   1      44.058  37.422  28.488  1.00  0.00    -0.237 OA
ATOM     78  O   UNL A   1      46.488  37.730  28.744  1.00  0.00    -0.237 OA
ATOM     79  O   UNL A   1      45.614  36.429  26.852  1.00  0.00    -0.744 OA
ENDBRANCH  73  76
ENDBRANCH  55  69
BRANCH  56  80
ATOM     80  C   UNL A   1      40.595  24.567  27.224  1.00  0.00     0.023 A 
ATOM     81  C   UNL A   1      39.377  24.639  26.517  1.00  0.00     0.012 A 
ATOM     82  C   UNL A   1      41.152  23.304  27.503  1.00  0.00     0.148 A 
ATOM     83  C   UNL A   1      38.712  23.476  26.125  1.00  0.00     0.002 A 
ATOM     84  C   UNL A   1      40.512  22.151  27.061  1.00  0.00     0.091 A 
ATOM     85  F   UNL A   1      42.298  23.255  28.194  1.00  0.00    -0.205 F 
ATOM     86  C   UNL A   1      39.283  22.234  26.389  1.00  0.00     0.022 A 
BRANCH  84  87
ATOM     87  S   UNL A   1      41.227  20.514  27.250  1.00  0.00     0.127 S 
ATOM     88  O   UNL A   1      40.805  20.158  28.602  1.00  0.00    -0.237 OA
ATOM     89  O   UNL A   1      40.559  19.772  26.181  1.00  0.00    -0.237 OA
ATOM     90  O   UNL A   1      42.660  20.685  27.062  1.00  0.00    -0.744 OA
ENDBRANCH  84  87
ENDBRANCH  56  80
BRANCH  68  91
ATOM     91  C   UNL A   1      46.891  27.318  25.955  1.00  0.00     0.023 A 
ATOM     92  C   UNL A   1      46.947  27.559  24.569  1.00  0.00     0.012 A 
ATOM     93  C   UNL A   1      47.990  26.705  26.593  1.00  0.00     0.148 A 
ATOM     94  C   UNL A   1      48.060  27.170  23.823  1.00  0.00     0.002 A 
ATOM     95  C   UNL A   1      49.117  26.365  25.852  1.00  0.00     0.091 A 
ATOM     96  F   UNL A   1      47.915  26.470  27.910  1.00  0.00    -0.205 F 
ATOM     97  C   UNL A   1      49.148  26.583  24.466  1.00  0.00     0.022 A 
BRANCH  95  98
ATOM     98  S   UNL A   1      50.604  25.695  26.607  1.00  0.00     0.127 S 
ATOM     99  O   UNL A   1      50.103  24.458  27.205  1.00  0.00    -0.237 OA
ATOM    100  O   UNL A   1      51.479  25.503  25.450  1.00  0.00    -0.237 OA
ATOM    101  O   UNL A   1      51.065  26.701  27.554  1.00  0.00    -0.744 OA
ENDBRANCH  95  98
ENDBRANCH  68  91
ENDBRANCH  42  43
ENDBRANCH  35  37
ENDBRANCH  34  35
ENDBRANCH  33  34
ENDBRANCH  32  33
ENDBRANCH  31  32
ENDBRANCH   1  31
TORSDOF 22
ENDMDL
MODEL 2
REMARK VINA RESULT:     -11.1      5.340      7.521
REMARK SMILES CC(C)=C1[C@H]2CC[C@@H]1[C@@H](C(=O)Nc1cc(C)cc(C)c1)[C@@H]2C(=O)OCCOCCOCCOC(=O)c1ccc(-c2c3nc(c(-c4cccc(S(=O)(=O)[O-])c4F)c4ccc([nH]4)c(-c4cccc(S(=O)(=O)[O-])c4F)c4nc(c(-c5cccc(S(=O)(=O)[O-])c5F)c5ccc2[nH]5)C=C4)C=C3)cc1
REMARK SMILES IDX 29 1 28 2 27 3 26 4 25 5 24 6 22 7 23 8 21 9 1 10 2 11 3 12
REMARK SMILES IDX 4 13 5 14 8 15 6 16 7 17 9 18 10 19 11 20 12 21 13 23 14 24
REMARK SMILES IDX 20 25 15 26 18 27 16 28 17 29 19 30 30 31 31 32 32 33 33 34
REMARK SMILES IDX 34 35 35 36 36 37 37 38 98 39 38 40 97 41 39 42 40 43 41 44
REMARK SMILES IDX 91 45 42 46 96 47 90 48 92 49 43 50 95 51 89 52 88 53 44 55
REMARK SMILES IDX 76 56 56 57 75 58 57 59 60 60 74 61 93 62 58 63 59 64 73 66
REMARK SMILES IDX 94 67 61 68 45 69 46 70 54 71 47 72 49 73 55 74 48 75 50 76
REMARK SMILES IDX 51 77 52 78 53 79 77 80 78 81 86 82 79 83 81 84 87 85 80 86
REMARK SMILES IDX 82 87 83 88 84 89 85 90 62 91 63 92 71 93 64 94 66 95 72 96
REMARK SMILES IDX 65 97 67 98 68 99 69 100 70 101
REMARK H PARENT 12 22 92 54 60 65
REMARK Flexibility Score: inf
ROOT
ATOM      1  C   UNL A   1      35.175  33.360  28.251  1.00  0.00     0.188 C 
ENDROOT
BRANCH   1   2
ATOM      2  C   UNL A   1      35.061  31.853  28.001  1.00  0.00     0.188 C 
BRANCH   2   3
ATOM      3  O   UNL A   1      33.763  31.280  27.979  1.00  0.00    -0.376 OA
BRANCH   3   4
ATOM      4  C   UNL A   1      33.437  30.339  26.960  1.00  0.00     0.202 C 
BRANCH   4   5
ATOM      5  C   UNL A   1      34.361  29.134  26.709  1.00  0.00     0.261 C 
BRANCH   5   6
ATOM      6  O   UNL A   1      34.391  28.628  25.351  1.00  0.00    -0.463 OA
BRANCH   6   7
ATOM      7  C   UNL A   1      33.794  27.428  25.155  1.00  0.00     0.310 C 
ATOM      8  O   UNL A   1      34.217  26.370  25.614  1.00  0.00    -0.252 OA
BRANCH   7   9
ATOM      9  C   UNL A   1      32.573  27.428  24.247  1.00  0.00     0.119 C 
ATOM     10  C   UNL A   1      28.246  28.323  22.661  1.00  0.00     0.039 C 
ATOM     11  C   UNL A   1      29.430  28.826  23.435  1.00  0.00    -0.077 C 
ATOM     12  C   UNL A   1      29.534  30.313  23.623  1.00  0.00     0.039 C 
ATOM     13  C   UNL A   1      30.314  27.991  24.003  1.00  0.00    -0.064 C 
ATOM     14  C   UNL A   1      31.476  28.283  24.904  1.00  0.00     0.030 C 
ATOM     15  C   UNL A   1      30.346  26.493  24.097  1.00  0.00     0.029 C 
ATOM     16  C   UNL A   1      30.925  27.604  26.168  1.00  0.00     0.009 C 
ATOM     17  C   UNL A   1      30.150  26.386  25.622  1.00  0.00     0.009 C 
ATOM     18  C   UNL A   1      31.825  26.162  23.784  1.00  0.00     0.101 C 
BRANCH  18  19
ATOM     19  C   UNL A   1      31.951  25.554  22.359  1.00  0.00     0.228 C 
ATOM     20  O   UNL A   1      31.399  26.165  21.429  1.00  0.00    -0.274 OA
ATOM     21  N   UNL A   1      32.755  24.528  21.964  1.00  0.00    -0.326 N 
ATOM     22  H   UNL A   1      32.932  24.506  20.996  1.00  0.00     0.169 HD
BRANCH  21  23
ATOM     23  C   UNL A   1      33.375  23.502  22.677  1.00  0.00     0.041 A 
ATOM     24  C   UNL A   1      32.752  22.280  22.872  1.00  0.00     0.029 A 
ATOM     25  C   UNL A   1      34.659  23.705  23.180  1.00  0.00     0.029 A 
ATOM     26  C   UNL A   1      33.243  21.375  23.813  1.00  0.00    -0.049 A 
ATOM     27  C   UNL A   1      35.214  22.776  24.071  1.00  0.00    -0.049 A 
ATOM     28  C   UNL A   1      32.362  20.253  24.278  1.00  0.00     0.044 C 
ATOM     29  C   UNL A   1      34.475  21.637  24.420  1.00  0.00     0.007 A 
ATOM     30  C   UNL A   1      36.519  23.055  24.755  1.00  0.00     0.044 C 
ENDBRANCH  21  23
ENDBRANCH  18  19
ENDBRANCH   7   9
ENDBRANCH   6   7
ENDBRANCH   5   6
ENDBRANCH   4   5
ENDBRANCH   3   4
ENDBRANCH   2   3
ENDBRANCH   1   2
BRANCH   1  31
ATOM     31  O   UNL A   1      33.985  34.090  28.042  1.00  0.00    -0.376 OA
BRANCH  31  32
ATOM     32  C   UNL A   1      34.014  35.473  28.361  1.00  0.00     0.202 C 
BRANCH  32  33
ATOM     33  C   UNL A   1      32.838  36.081  29.146  1.00  0.00     0.261 C 
BRANCH  33  34
ATOM     34  O   UNL A   1      32.397  35.360  30.310  1.00  0.00    -0.460 OA
BRANCH  34  35
ATOM     35  C   UNL A   1      32.846  35.764  31.523  1.00  0.00     0.338 C 
ATOM     36  O   UNL A   1      32.319  36.575  32.265  1.00  0.00    -0.246 OA
BRANCH  35  37
ATOM     37  C   UNL A   1      33.982  34.875  31.876  1.00  0.00     0.060 A 
ATOM     38  C   UNL A   1      33.732  33.636  32.488  1.00  0.00     0.016 A 
ATOM     39  C   UNL A   1      35.286  35.234  31.534  1.00  0.00     0.016 A 
ATOM     40  C   UNL A   1      34.786  32.754  32.754  1.00  0.00     0.010 A 
ATOM     41  C   UNL A   1      36.342  34.364  31.829  1.00  0.00     0.010 A 
ATOM     42  C   UNL A   1      36.102  33.126  32.453  1.00  0.00    -0.014 A 
BRANCH  42  43
ATOM     43  C   UNL A   1      37.253  32.318  32.929  1.00  0.00     0.031 A 
ATOM     44  C   UNL A   1      37.932  32.727  34.208  1.00  0.00     0.074 A 
ATOM     45  C   UNL A   1      37.732  31.278  32.221  1.00  0.00     0.049 A 
ATOM     46  N   UNL A   1      39.024  32.262  34.756  1.00  0.00    -0.248 NA
ATOM     47  C   UNL A   1      37.293  33.817  34.965  1.00  0.00     0.031 C 
ATOM     48  C   UNL A   1      37.163  30.768  30.975  1.00  0.00     0.029 A 
ATOM     49  N   UNL A   1      38.837  30.489  32.435  1.00  0.00    -0.354 N 
ATOM     50  C   UNL A   1      39.226  33.024  35.901  1.00  0.00     0.074 A 
ATOM     51  C   UNL A   1      38.144  33.983  35.967  1.00  0.00     0.031 C 
ATOM     52  C   UNL A   1      37.947  29.777  30.513  1.00  0.00     0.029 A 
ATOM     53  C   UNL A   1      39.091  29.609  31.409  1.00  0.00     0.049 A 
ATOM     54  H   UNL A   1      39.394  30.550  33.244  1.00  0.00     0.167 HD
ATOM     55  C   UNL A   1      40.217  32.933  36.818  1.00  0.00     0.034 A 
ATOM     56  C   UNL A   1      40.142  28.789  31.199  1.00  0.00     0.034 A 
ATOM     57  C   UNL A   1      41.288  31.975  36.759  1.00  0.00     0.049 A 
ATOM     58  C   UNL A   1      41.260  28.737  32.213  1.00  0.00     0.074 A 
ATOM     59  C   UNL A   1      42.311  31.775  37.670  1.00  0.00     0.029 A 
ATOM     60  N   UNL A   1      41.489  31.073  35.727  1.00  0.00    -0.354 N 
ATOM     61  N   UNL A   1      41.379  29.382  33.349  1.00  0.00    -0.248 NA
ATOM     62  C   UNL A   1      42.379  27.826  31.925  1.00  0.00     0.031 C 
ATOM     63  C   UNL A   1      43.153  30.777  37.169  1.00  0.00     0.029 A 
ATOM     64  C   UNL A   1      42.631  30.327  35.966  1.00  0.00     0.049 A 
ATOM     65  H   UNL A   1      40.905  30.977  34.940  1.00  0.00     0.167 HD
ATOM     66  C   UNL A   1      42.562  28.929  33.926  1.00  0.00     0.074 A 
ATOM     67  C   UNL A   1      43.114  27.939  33.024  1.00  0.00     0.031 C 
ATOM     68  C   UNL A   1      43.148  29.309  35.089  1.00  0.00     0.034 A 
BRANCH  55  69
ATOM     69  C   UNL A   1      40.184  33.895  37.976  1.00  0.00     0.023 A 
ATOM     70  C   UNL A   1      40.865  35.126  37.884  1.00  0.00     0.012 A 
ATOM     71  C   UNL A   1      39.439  33.601  39.134  1.00  0.00     0.148 A 
ATOM     72  C   UNL A   1      40.831  36.036  38.941  1.00  0.00     0.002 A 
ATOM     73  C   UNL A   1      39.371  34.533  40.163  1.00  0.00     0.091 A 
ATOM     74  F   UNL A   1      38.818  32.416  39.211  1.00  0.00    -0.205 F 
ATOM     75  C   UNL A   1      40.076  35.744  40.074  1.00  0.00     0.022 A 
BRANCH  73  76
ATOM     76  S   UNL A   1      38.363  34.286  41.629  1.00  0.00     0.127 S 
ATOM     77  O   UNL A   1      38.510  35.572  42.308  1.00  0.00    -0.237 OA
ATOM     78  O   UNL A   1      37.039  34.048  41.052  1.00  0.00    -0.237 OA
ATOM     79  O   UNL A   1      38.937  33.143  42.325  1.00  0.00    -0.744 OA
ENDBRANCH  73  76
ENDBRANCH  55  69
BRANCH  56  80
ATOM     80  C   UNL A   1      40.196  27.934  29.977  1.00  0.00     0.023 A 
ATOM     81  C   UNL A   1      39.422  26.757  29.918  1.00  0.00     0.012 A 
ATOM     82  C   UNL A   1      41.012  28.273  28.880  1.00  0.00     0.148 A 
ATOM     83  C   UNL A   1      39.486  25.918  28.804  1.00  0.00     0.002 A 
ATOM     84  C   UNL A   1      41.029  27.462  27.751  1.00  0.00     0.091 A 
ATOM     85  F   UNL A   1      41.756  29.384  28.963  1.00  0.00    -0.205 F 
ATOM     86  C   UNL A   1      40.280  26.275  27.718  1.00  0.00     0.022 A 
BRANCH  84  87
ATOM     87  S   UNL A   1      41.929  27.898  26.258  1.00  0.00     0.127 S 
ATOM     88  O   UNL A   1      41.261  29.134  25.858  1.00  0.00    -0.237 OA
ATOM     89  O   UNL A   1      43.288  28.071  26.769  1.00  0.00    -0.237 OA
ATOM     90  O   UNL A   1      41.762  26.770  25.353  1.00  0.00    -0.744 OA
ENDBRANCH  84  87
ENDBRANCH  56  80
BRANCH  68  91
ATOM     91  C   UNL A   1      44.436  28.631  35.487  1.00  0.00     0.023 A 
ATOM     92  C   UNL A   1      45.672  29.222  35.164  1.00  0.00     0.012 A 
ATOM     93  C   UNL A   1      44.417  27.448  36.255  1.00  0.00     0.148 A 
ATOM     94  C   UNL A   1      46.870  28.632  35.568  1.00  0.00     0.002 A 
ATOM     95  C   UNL A   1      45.614  26.893  36.698  1.00  0.00     0.091 A 
ATOM     96  F   UNL A   1      43.233  26.891  36.542  1.00  0.00    -0.205 F 
ATOM     97  C   UNL A   1      46.841  27.475  36.343  1.00  0.00     0.022 A 
BRANCH  95  98
ATOM     98  S   UNL A   1      45.672  25.461  37.781  1.00  0.00     0.127 S 
ATOM     99  O   UNL A   1      44.935  25.941  38.949  1.00  0.00    -0.237 OA
ATOM    100  O   UNL A   1      44.971  24.447  36.992  1.00  0.00    -0.237 OA
ATOM    101  O   UNL A   1      47.083  25.183  38.008  1.00  0.00    -0.744 OA
ENDBRANCH  95  98
ENDBRANCH  68  91
ENDBRANCH  42  43
ENDBRANCH  35  37
ENDBRANCH  34  35
ENDBRANCH  33  34
ENDBRANCH  32  33
ENDBRANCH  31  32
ENDBRANCH   1  31
TORSDOF 22
ENDMDL
MODEL 3
REMARK VINA RESULT:     -11.0      4.713      6.790
REMARK SMILES CC(C)=C1[C@H]2CC[C@@H]1[C@@H](C(=O)Nc1cc(C)cc(C)c1)[C@@H]2C(=O)OCCOCCOCCOC(=O)c1ccc(-c2c3nc(c(-c4cccc(S(=O)(=O)[O-])c4F)c4ccc([nH]4)c(-c4cccc(S(=O)(=O)[O-])c4F)c4nc(c(-c5cccc(S(=O)(=O)[O-])c5F)c5ccc2[nH]5)C=C4)C=C3)cc1
REMARK SMILES IDX 29 1 28 2 27 3 26 4 25 5 24 6 22 7 23 8 21 9 1 10 2 11 3 12
REMARK SMILES IDX 4 13 5 14 8 15 6 16 7 17 9 18 10 19 11 20 12 21 13 23 14 24
REMARK SMILES IDX 20 25 15 26 18 27 16 28 17 29 19 30 30 31 31 32 32 33 33 34
REMARK SMILES IDX 34 35 35 36 36 37 37 38 98 39 38 40 97 41 39 42 40 43 41 44
REMARK SMILES IDX 91 45 42 46 96 47 90 48 92 49 43 50 95 51 89 52 88 53 44 55
REMARK SMILES IDX 76 56 56 57 75 58 57 59 60 60 74 61 93 62 58 63 59 64 73 66
REMARK SMILES IDX 94 67 61 68 45 69 46 70 54 71 47 72 49 73 55 74 48 75 50 76
REMARK SMILES IDX 51 77 52 78 53 79 77 80 78 81 86 82 79 83 81 84 87 85 80 86
REMARK SMILES IDX 82 87 83 88 84 89 85 90 62 91 63 92 71 93 64 94 66 95 72 96
REMARK SMILES IDX 65 97 67 98 68 99 69 100 70 101
REMARK H PARENT 12 22 92 54 60 65
REMARK Flexibility Score: inf
ROOT
ATOM      1  C   UNL A   1      34.818  32.344  28.263  1.00  0.00     0.188 C 
ENDROOT
BRANCH   1   2
ATOM      2  C   UNL A   1      34.302  31.098  27.538  1.00  0.00     0.188 C 
BRANCH   2   3
ATOM      3  O   UNL A   1      34.731  29.830  28.011  1.00  0.00    -0.376 OA
BRANCH   3   4
ATOM      4  C   UNL A   1      34.367  28.660  27.285  1.00  0.00     0.202 C 
BRANCH   4   5
ATOM      5  C   UNL A   1      33.501  28.784  26.018  1.00  0.00     0.261 C 
BRANCH   5   6
ATOM      6  O   UNL A   1      33.164  27.542  25.354  1.00  0.00    -0.463 OA
BRANCH   6   7
ATOM      7  C   UNL A   1      32.211  26.789  25.956  1.00  0.00     0.310 C 
ATOM      8  O   UNL A   1      31.480  27.201  26.853  1.00  0.00    -0.252 OA
BRANCH   7   9
ATOM      9  C   UNL A   1      32.128  25.336  25.516  1.00  0.00     0.119 C 
ATOM     10  C   UNL A   1      32.140  21.554  22.733  1.00  0.00     0.039 C 
ATOM     11  C   UNL A   1      32.708  22.917  23.005  1.00  0.00    -0.077 C 
ATOM     12  C   UNL A   1      34.026  23.242  22.359  1.00  0.00     0.039 C 
ATOM     13  C   UNL A   1      32.041  23.835  23.721  1.00  0.00    -0.064 C 
ATOM     14  C   UNL A   1      32.373  25.271  23.999  1.00  0.00     0.030 C 
ATOM     15  C   UNL A   1      30.667  23.816  24.326  1.00  0.00     0.029 C 
ATOM     16  C   UNL A   1      31.208  25.901  23.220  1.00  0.00     0.009 C 
ATOM     17  C   UNL A   1      30.044  24.909  23.437  1.00  0.00     0.009 C 
ATOM     18  C   UNL A   1      30.903  24.423  25.729  1.00  0.00     0.101 C 
BRANCH  18  19
ATOM     19  C   UNL A   1      30.830  23.314  26.816  1.00  0.00     0.228 C 
ATOM     20  O   UNL A   1      29.810  23.279  27.525  1.00  0.00    -0.274 OA
ATOM     21  N   UNL A   1      31.665  22.249  26.970  1.00  0.00    -0.326 N 
ATOM     22  H   UNL A   1      31.278  21.508  27.491  1.00  0.00     0.169 HD
BRANCH  21  23
ATOM     23  C   UNL A   1      32.965  22.012  26.528  1.00  0.00     0.041 A 
ATOM     24  C   UNL A   1      33.951  22.980  26.631  1.00  0.00     0.029 A 
ATOM     25  C   UNL A   1      33.284  20.764  25.995  1.00  0.00     0.029 A 
ATOM     26  C   UNL A   1      35.153  22.845  25.937  1.00  0.00    -0.049 A 
ATOM     27  C   UNL A   1      34.516  20.572  25.355  1.00  0.00    -0.049 A 
ATOM     28  C   UNL A   1      36.030  24.050  25.754  1.00  0.00     0.044 C 
ATOM     29  C   UNL A   1      35.425  21.638  25.289  1.00  0.00     0.007 A 
ATOM     30  C   UNL A   1      34.812  19.295  24.627  1.00  0.00     0.044 C 
ENDBRANCH  21  23
ENDBRANCH  18  19
ENDBRANCH   7   9
ENDBRANCH   6   7
ENDBRANCH   5   6
ENDBRANCH   4   5
ENDBRANCH   3   4
ENDBRANCH   2   3
ENDBRANCH   1   2
BRANCH   1  31
ATOM     31  O   UNL A   1      34.507  33.570  27.636  1.00  0.00    -0.376 OA
BRANCH  31  32
ATOM     32  C   UNL A   1      33.174  34.039  27.764  1.00  0.00     0.202 C 
BRANCH  32  33
ATOM     33  C   UNL A   1      32.903  35.287  28.625  1.00  0.00     0.261 C 
BRANCH  33  34
ATOM     34  O   UNL A   1      32.371  35.059  29.941  1.00  0.00    -0.460 OA
BRANCH  34  35
ATOM     35  C   UNL A   1      33.016  35.611  30.998  1.00  0.00     0.338 C 
ATOM     36  O   UNL A   1      32.634  36.545  31.681  1.00  0.00    -0.246 OA
BRANCH  35  37
ATOM     37  C   UNL A   1      34.169  34.725  31.303  1.00  0.00     0.060 A 
ATOM     38  C   UNL A   1      33.953  33.504  31.962  1.00  0.00     0.016 A 
ATOM     39  C   UNL A   1      35.450  35.070  30.873  1.00  0.00     0.016 A 
ATOM     40  C   UNL A   1      35.018  32.624  32.185  1.00  0.00     0.010 A 
ATOM     41  C   UNL A   1      36.520  34.203  31.124  1.00  0.00     0.010 A 
ATOM     42  C   UNL A   1      36.315  32.982  31.794  1.00  0.00    -0.014 A 
BRANCH  42  43
ATOM     43  C   UNL A   1      37.491  32.181  32.219  1.00  0.00     0.031 A 
ATOM     44  C   UNL A   1      38.060  32.422  33.592  1.00  0.00     0.074 A 
ATOM     45  C   UNL A   1      38.085  31.300  31.394  1.00  0.00     0.049 A 
ATOM     46  N   UNL A   1      39.147  31.944  34.137  1.00  0.00    -0.248 NA
ATOM     47  C   UNL A   1      37.299  33.335  34.461  1.00  0.00     0.031 C 
ATOM     48  C   UNL A   1      37.632  30.961  30.047  1.00  0.00     0.029 A 
ATOM     49  N   UNL A   1      39.230  30.557  31.561  1.00  0.00    -0.354 N 
ATOM     50  C   UNL A   1      39.224  32.524  35.397  1.00  0.00     0.074 A 
ATOM     51  C   UNL A   1      38.073  33.391  35.535  1.00  0.00     0.031 C 
ATOM     52  C   UNL A   1      38.511  30.108  29.493  1.00  0.00     0.029 A 
ATOM     53  C   UNL A   1      39.609  29.869  30.431  1.00  0.00     0.049 A 
ATOM     54  H   UNL A   1      39.731  30.522  32.408  1.00  0.00     0.167 HD
ATOM     55  C   UNL A   1      40.162  32.349  36.358  1.00  0.00     0.034 A 
ATOM     56  C   UNL A   1      40.727  29.161  30.172  1.00  0.00     0.034 A 
ATOM     57  C   UNL A   1      41.301  31.482  36.227  1.00  0.00     0.049 A 
ATOM     58  C   UNL A   1      41.782  29.016  31.242  1.00  0.00     0.074 A 
ATOM     59  C   UNL A   1      42.278  31.202  37.166  1.00  0.00     0.029 A 
ATOM     60  N   UNL A   1      41.628  30.770  35.084  1.00  0.00    -0.354 N 
ATOM     61  N   UNL A   1      41.785  29.477  32.470  1.00  0.00    -0.248 NA
ATOM     62  C   UNL A   1      42.980  28.234  30.897  1.00  0.00     0.031 C 
ATOM     63  C   UNL A   1      43.219  30.351  36.577  1.00  0.00     0.029 A 
ATOM     64  C   UNL A   1      42.805  30.068  35.285  1.00  0.00     0.049 A 
ATOM     65  H   UNL A   1      41.102  30.765  34.252  1.00  0.00     0.167 HD
ATOM     66  C   UNL A   1      42.962  29.012  33.053  1.00  0.00     0.074 A 
ATOM     67  C   UNL A   1      43.637  28.216  32.049  1.00  0.00     0.031 C 
ATOM     68  C   UNL A   1      43.446  29.237  34.299  1.00  0.00     0.034 A 
BRANCH  55  69
ATOM     69  C   UNL A   1      39.989  33.110  37.646  1.00  0.00     0.023 A 
ATOM     70  C   UNL A   1      40.752  34.271  37.881  1.00  0.00     0.012 A 
ATOM     71  C   UNL A   1      39.036  32.703  38.599  1.00  0.00     0.148 A 
ATOM     72  C   UNL A   1      40.593  34.997  39.062  1.00  0.00     0.002 A 
ATOM     73  C   UNL A   1      38.850  33.457  39.751  1.00  0.00     0.091 A 
ATOM     74  F   UNL A   1      38.337  31.583  38.366  1.00  0.00    -0.205 F 
ATOM     75  C   UNL A   1      39.636  34.596  39.990  1.00  0.00     0.022 A 
BRANCH  73  76
ATOM     76  S   UNL A   1      37.589  33.070  40.970  1.00  0.00     0.127 S 
ATOM     77  O   UNL A   1      36.377  33.074  40.151  1.00  0.00    -0.237 OA
ATOM     78  O   UNL A   1      38.008  31.747  41.433  1.00  0.00    -0.237 OA
ATOM     79  O   UNL A   1      37.665  34.119  41.977  1.00  0.00    -0.744 OA
ENDBRANCH  73  76
ENDBRANCH  55  69
BRANCH  56  80
ATOM     80  C   UNL A   1      40.916  28.517  28.839  1.00  0.00     0.023 A 
ATOM     81  C   UNL A   1      41.389  29.287  27.756  1.00  0.00     0.012 A 
ATOM     82  C   UNL A   1      40.624  27.154  28.634  1.00  0.00     0.148 A 
ATOM     83  C   UNL A   1      41.535  28.719  26.489  1.00  0.00     0.002 A 
ATOM     84  C   UNL A   1      40.826  26.582  27.383  1.00  0.00     0.091 A 
ATOM     85  F   UNL A   1      40.157  26.444  29.670  1.00  0.00    -0.205 F 
ATOM     86  C   UNL A   1      41.264  27.367  26.306  1.00  0.00     0.022 A 
BRANCH  84  87
ATOM     87  S   UNL A   1      40.615  24.824  27.078  1.00  0.00     0.127 S 
ATOM     88  O   UNL A   1      39.284  24.783  26.479  1.00  0.00    -0.237 OA
ATOM     89  O   UNL A   1      41.715  24.548  26.153  1.00  0.00    -0.237 OA
ATOM     90  O   UNL A   1      40.742  24.179  28.377  1.00  0.00    -0.744 OA
ENDBRANCH  84  87
ENDBRANCH  56  80
BRANCH  68  91
ATOM     91  C   UNL A   1      44.753  28.586  34.678  1.00  0.00     0.023 A 
ATOM     92  C   UNL A   1      45.960  29.299  34.546  1.00  0.00     0.012 A 
ATOM     93  C   UNL A   1      44.775  27.293  35.242  1.00  0.00     0.148 A 
ATOM     94  C   UNL A   1      47.171  28.727  34.938  1.00  0.00     0.002 A 
ATOM     95  C   UNL A   1      45.979  26.749  35.677  1.00  0.00     0.091 A 
ATOM     96  F   UNL A   1      43.620  26.622  35.348  1.00  0.00    -0.205 F 
ATOM     97  C   UNL A   1      47.179  27.458  35.513  1.00  0.00     0.022 A 
BRANCH  95  98
ATOM     98  S   UNL A   1      46.076  25.164  36.518  1.00  0.00     0.127 S 
ATOM     99  O   UNL A   1      47.507  25.063  36.800  1.00  0.00    -0.237 OA
ATOM    100  O   UNL A   1      45.236  25.387  37.695  1.00  0.00    -0.237 OA
ATOM    101  O   UNL A   1      45.556  24.177  35.582  1.00  0.00    -0.744 OA
ENDBRANCH  95  98
ENDBRANCH  68  91
ENDBRANCH  42  43
ENDBRANCH  35  37
ENDBRANCH  34  35
ENDBRANCH  33  34
ENDBRANCH  32  33
ENDBRANCH  31  32
ENDBRANCH   1  31
TORSDOF 22
ENDMDL
