MODEL 1
REMARK VINA RESULT:      -9.9      0.000      0.000
REMARK SMILES O=C(Cc1ccn[nH]1)Nc1cc(C(=O)OCCOCCOCCOC(=O)c2ccc(-c3c4nc(c(-c5cccc(S(=O)(=O)[O-])c5F)c5ccc([nH]5)c(-c5cccc(S(=O)(=O)[O-])c5F)c5nc(c(-c6cccc(S(=O)(=O)[O-])c6F)c6ccc3[nH]6)C=C5)C=C4)cc2)c(F)cc1F
REMARK SMILES IDX 19 1 18 2 17 3 16 4 15 5 13 6 14 7 12 8 10 9 11 10 93 11
REMARK SMILES IDX 92 12 94 13 90 14 91 15 9 16 1 17 2 18 3 20 4 21 5 22 8 23
REMARK SMILES IDX 6 24 7 25 20 27 21 28 22 29 23 30 24 31 25 32 26 33 27 34
REMARK SMILES IDX 28 35 89 36 29 37 88 38 30 39 31 40 32 41 82 42 33 43 87 44
REMARK SMILES IDX 81 45 83 46 34 47 86 48 80 49 79 50 35 52 67 53 47 54 66 55
REMARK SMILES IDX 48 56 51 57 65 58 84 59 49 60 50 61 64 63 85 64 52 65 36 66
REMARK SMILES IDX 37 67 45 68 38 69 40 70 46 71 39 72 41 73 42 74 43 75 44 76
REMARK SMILES IDX 68 77 69 78 77 79 70 80 72 81 78 82 71 83 73 84 74 85 75 86
REMARK SMILES IDX 76 87 53 88 54 89 62 90 55 91 57 92 63 93 56 94 58 95 59 96
REMARK SMILES IDX 60 97 61 98
REMARK H PARENT 9 19 8 26 83 51 51 62
REMARK Flexibility Score: inf
ROOT
ATOM      1  C   UNL A   1      39.587  22.087  26.489  1.00  0.00     0.188 C 
ENDROOT
BRANCH   1   2
ATOM      2  O   UNL A   1      38.993  21.161  25.599  1.00  0.00    -0.376 OA
BRANCH   2   3
ATOM      3  C   UNL A   1      37.700  21.401  25.070  1.00  0.00     0.202 C 
BRANCH   3   4
ATOM      4  C   UNL A   1      36.878  22.667  25.371  1.00  0.00     0.261 C 
BRANCH   4   5
ATOM      5  O   UNL A   1      35.541  22.683  24.860  1.00  0.00    -0.460 OA
BRANCH   5   6
ATOM      6  C   UNL A   1      34.564  22.856  25.788  1.00  0.00     0.341 C 
ATOM      7  O   UNL A   1      34.656  22.718  26.989  1.00  0.00    -0.246 OA
BRANCH   6   8
ATOM      8  C   UNL A   1      33.356  23.402  25.146  1.00  0.00     0.098 A 
ATOM      9  C   UNL A   1      32.273  25.252  24.009  1.00  0.00     0.078 A 
ATOM     10  C   UNL A   1      33.419  24.684  24.576  1.00  0.00     0.048 A 
ATOM     11  C   UNL A   1      31.073  24.532  24.058  1.00  0.00     0.149 A 
ATOM     12  C   UNL A   1      31.015  23.245  24.586  1.00  0.00     0.081 A 
ATOM     13  F   UNL A   1      29.956  25.072  23.546  1.00  0.00    -0.205 F 
ATOM     14  C   UNL A   1      32.166  22.681  25.127  1.00  0.00     0.140 A 
ATOM     15  F   UNL A   1      32.093  21.450  25.649  1.00  0.00    -0.206 F 
BRANCH   9  16
ATOM     16  N   UNL A   1      32.258  26.525  23.398  1.00  0.00    -0.323 N 
ATOM     17  O   UNL A   1      31.892  27.819  25.269  1.00  0.00    -0.274 OA
ATOM     18  C   UNL A   1      32.028  27.726  24.049  1.00  0.00     0.230 C 
ATOM     19  H   UNL A   1      32.427  26.563  22.429  1.00  0.00     0.170 HD
BRANCH  18  20
ATOM     20  C   UNL A   1      31.897  28.956  23.153  1.00  0.00     0.155 C 
BRANCH  20  21
ATOM     21  C   UNL A   1      30.509  29.235  22.672  1.00  0.00     0.044 A 
ATOM     22  C   UNL A   1      29.268  28.738  23.017  1.00  0.00     0.045 A 
ATOM     23  N   UNL A   1      30.278  30.080  21.617  1.00  0.00    -0.282 N 
ATOM     24  C   UNL A   1      28.362  29.412  22.178  1.00  0.00     0.135 A 
ATOM     25  N   UNL A   1      28.973  30.275  21.365  1.00  0.00    -0.184 NA
ATOM     26  H   UNL A   1      30.997  30.503  21.095  1.00  0.00     0.190 HD
ENDBRANCH  20  21
ENDBRANCH  18  20
ENDBRANCH   9  16
ENDBRANCH   6   8
ENDBRANCH   5   6
ENDBRANCH   4   5
ENDBRANCH   3   4
ENDBRANCH   2   3
ENDBRANCH   1   2
BRANCH   1  27
ATOM     27  C   UNL A   1      40.782  21.639  27.353  1.00  0.00     0.188 C 
BRANCH  27  28
ATOM     28  O   UNL A   1      40.874  20.279  27.708  1.00  0.00    -0.376 OA
BRANCH  28  29
ATOM     29  C   UNL A   1      42.059  19.542  27.461  1.00  0.00     0.202 C 
BRANCH  29  30
ATOM     30  C   UNL A   1      42.476  18.882  26.130  1.00  0.00     0.261 C 
BRANCH  30  31
ATOM     31  O   UNL A   1      42.774  19.721  25.016  1.00  0.00    -0.460 OA
BRANCH  31  32
ATOM     32  C   UNL A   1      44.087  19.809  24.693  1.00  0.00     0.338 C 
ATOM     33  O   UNL A   1      44.768  18.958  24.147  1.00  0.00    -0.246 OA
BRANCH  32  34
ATOM     34  C   UNL A   1      44.546  21.190  24.924  1.00  0.00     0.060 A 
ATOM     35  C   UNL A   1      45.216  21.469  26.121  1.00  0.00     0.016 A 
ATOM     36  C   UNL A   1      44.280  22.204  24.002  1.00  0.00     0.016 A 
ATOM     37  C   UNL A   1      45.584  22.776  26.423  1.00  0.00     0.010 A 
ATOM     38  C   UNL A   1      44.631  23.519  24.317  1.00  0.00     0.010 A 
ATOM     39  C   UNL A   1      45.245  23.815  25.548  1.00  0.00    -0.014 A 
BRANCH  39  40
ATOM     40  C   UNL A   1      45.359  25.213  26.026  1.00  0.00     0.031 A 
ATOM     41  C   UNL A   1      46.720  25.853  26.057  1.00  0.00     0.074 A 
ATOM     42  C   UNL A   1      44.274  25.917  26.391  1.00  0.00     0.049 A 
ATOM     43  N   UNL A   1      47.059  27.067  26.404  1.00  0.00    -0.248 NA
ATOM     44  C   UNL A   1      47.852  25.010  25.636  1.00  0.00     0.031 C 
ATOM     45  C   UNL A   1      42.903  25.413  26.401  1.00  0.00     0.029 A 
ATOM     46  N   UNL A   1      44.165  27.207  26.851  1.00  0.00    -0.354 N 
ATOM     47  C   UNL A   1      48.442  27.125  26.278  1.00  0.00     0.074 A 
ATOM     48  C   UNL A   1      48.880  25.822  25.828  1.00  0.00     0.031 C 
ATOM     49  C   UNL A   1      42.092  26.370  26.886  1.00  0.00     0.029 A 
ATOM     50  C   UNL A   1      42.889  27.547  27.231  1.00  0.00     0.049 A 
ATOM     51  H   UNL A   1      44.927  27.828  26.902  1.00  0.00     0.167 HD
ATOM     52  C   UNL A   1      49.271  28.169  26.504  1.00  0.00     0.034 A 
ATOM     53  C   UNL A   1      42.425  28.670  27.813  1.00  0.00     0.034 A 
ATOM     54  C   UNL A   1      48.834  29.467  26.938  1.00  0.00     0.049 A 
ATOM     55  C   UNL A   1      43.369  29.818  28.068  1.00  0.00     0.074 A 
ATOM     56  C   UNL A   1      49.590  30.609  27.136  1.00  0.00     0.029 A 
ATOM     57  N   UNL A   1      47.527  29.792  27.271  1.00  0.00    -0.354 N 
ATOM     58  N   UNL A   1      44.652  29.906  27.808  1.00  0.00    -0.248 NA
ATOM     59  C   UNL A   1      42.793  31.036  28.655  1.00  0.00     0.031 C 
ATOM     60  C   UNL A   1      48.747  31.611  27.627  1.00  0.00     0.029 A 
ATOM     61  C   UNL A   1      47.458  31.108  27.692  1.00  0.00     0.049 A 
ATOM     62  H   UNL A   1      46.762  29.176  27.214  1.00  0.00     0.167 HD
ATOM     63  C   UNL A   1      45.028  31.196  28.168  1.00  0.00     0.074 A 
ATOM     64  C   UNL A   1      43.831  31.861  28.642  1.00  0.00     0.031 C 
ATOM     65  C   UNL A   1      46.254  31.776  28.118  1.00  0.00     0.034 A 
BRANCH  52  66
ATOM     66  C   UNL A   1      50.744  27.945  26.284  1.00  0.00     0.023 A 
ATOM     67  C   UNL A   1      51.321  28.216  25.026  1.00  0.00     0.012 A 
ATOM     68  C   UNL A   1      51.563  27.496  27.338  1.00  0.00     0.148 A 
ATOM     69  C   UNL A   1      52.683  28.003  24.810  1.00  0.00     0.002 A 
ATOM     70  C   UNL A   1      52.928  27.332  27.128  1.00  0.00     0.091 A 
ATOM     71  F   UNL A   1      50.992  27.219  28.519  1.00  0.00    -0.205 F 
ATOM     72  C   UNL A   1      53.486  27.571  25.861  1.00  0.00     0.022 A 
BRANCH  70  73
ATOM     73  S   UNL A   1      54.055  26.858  28.442  1.00  0.00     0.127 S 
ATOM     74  O   UNL A   1      54.904  25.879  27.764  1.00  0.00    -0.237 OA
ATOM     75  O   UNL A   1      54.717  28.127  28.751  1.00  0.00    -0.237 OA
ATOM     76  O   UNL A   1      53.224  26.331  29.515  1.00  0.00    -0.744 OA
ENDBRANCH  70  73
ENDBRANCH  52  66
BRANCH  53  77
ATOM     77  C   UNL A   1      40.983  28.773  28.172  1.00  0.00     0.023 A 
ATOM     78  C   UNL A   1      40.032  29.086  27.182  1.00  0.00     0.012 A 
ATOM     79  C   UNL A   1      40.552  28.542  29.493  1.00  0.00     0.148 A 
ATOM     80  C   UNL A   1      38.679  29.192  27.507  1.00  0.00     0.002 A 
ATOM     81  C   UNL A   1      39.198  28.595  29.798  1.00  0.00     0.091 A 
ATOM     82  F   UNL A   1      41.477  28.262  30.421  1.00  0.00    -0.205 F 
ATOM     83  C   UNL A   1      38.261  28.935  28.811  1.00  0.00     0.022 A 
BRANCH  81  84
ATOM     84  S   UNL A   1      38.555  28.165  31.418  1.00  0.00     0.127 S 
ATOM     85  O   UNL A   1      37.241  28.804  31.396  1.00  0.00    -0.237 OA
ATOM     86  O   UNL A   1      38.529  26.704  31.349  1.00  0.00    -0.237 OA
ATOM     87  O   UNL A   1      39.503  28.710  32.379  1.00  0.00    -0.744 OA
ENDBRANCH  81  84
ENDBRANCH  53  77
BRANCH  65  88
ATOM     88  C   UNL A   1      46.368  33.219  28.544  1.00  0.00     0.023 A 
ATOM     89  C   UNL A   1      46.824  33.542  29.837  1.00  0.00     0.012 A 
ATOM     90  C   UNL A   1      46.088  34.257  27.632  1.00  0.00     0.148 A 
ATOM     91  C   UNL A   1      46.962  34.874  30.229  1.00  0.00     0.002 A 
ATOM     92  C   UNL A   1      46.279  35.581  28.012  1.00  0.00     0.091 A 
ATOM     93  F   UNL A   1      45.639  33.933  26.412  1.00  0.00    -0.205 F 
ATOM     94  C   UNL A   1      46.701  35.891  29.314  1.00  0.00     0.022 A 
BRANCH  92  95
ATOM     95  S   UNL A   1      46.065  36.948  26.867  1.00  0.00     0.127 S 
ATOM     96  O   UNL A   1      46.519  38.082  27.671  1.00  0.00    -0.237 OA
ATOM     97  O   UNL A   1      46.962  36.581  25.772  1.00  0.00    -0.237 OA
ATOM     98  O   UNL A   1      44.653  36.958  26.513  1.00  0.00    -0.744 OA
ENDBRANCH  92  95
ENDBRANCH  65  88
ENDBRANCH  39  40
ENDBRANCH  32  34
ENDBRANCH  31  32
ENDBRANCH  30  31
ENDBRANCH  29  30
ENDBRANCH  28  29
ENDBRANCH  27  28
ENDBRANCH   1  27
TORSDOF 23
ENDMDL
MODEL 2
REMARK VINA RESULT:      -9.7      1.963      2.448
REMARK SMILES O=C(Cc1ccn[nH]1)Nc1cc(C(=O)OCCOCCOCCOC(=O)c2ccc(-c3c4nc(c(-c5cccc(S(=O)(=O)[O-])c5F)c5ccc([nH]5)c(-c5cccc(S(=O)(=O)[O-])c5F)c5nc(c(-c6cccc(S(=O)(=O)[O-])c6F)c6ccc3[nH]6)C=C5)C=C4)cc2)c(F)cc1F
REMARK SMILES IDX 19 1 18 2 17 3 16 4 15 5 13 6 14 7 12 8 10 9 11 10 93 11
REMARK SMILES IDX 92 12 94 13 90 14 91 15 9 16 1 17 2 18 3 20 4 21 5 22 8 23
REMARK SMILES IDX 6 24 7 25 20 27 21 28 22 29 23 30 24 31 25 32 26 33 27 34
REMARK SMILES IDX 28 35 89 36 29 37 88 38 30 39 31 40 32 41 82 42 33 43 87 44
REMARK SMILES IDX 81 45 83 46 34 47 86 48 80 49 79 50 35 52 67 53 47 54 66 55
REMARK SMILES IDX 48 56 51 57 65 58 84 59 49 60 50 61 64 63 85 64 52 65 36 66
REMARK SMILES IDX 37 67 45 68 38 69 40 70 46 71 39 72 41 73 42 74 43 75 44 76
REMARK SMILES IDX 68 77 69 78 77 79 70 80 72 81 78 82 71 83 73 84 74 85 75 86
REMARK SMILES IDX 76 87 53 88 54 89 62 90 55 91 57 92 63 93 56 94 58 95 59 96
REMARK SMILES IDX 60 97 61 98
REMARK H PARENT 9 19 8 26 83 51 51 62
REMARK Flexibility Score: inf
ROOT
ATOM      1  C   UNL A   1      39.122  21.943  26.072  1.00  0.00     0.188 C 
ENDROOT
BRANCH   1   2
ATOM      2  O   UNL A   1      38.455  20.938  25.332  1.00  0.00    -0.376 OA
BRANCH   2   3
ATOM      3  C   UNL A   1      37.176  21.187  24.773  1.00  0.00     0.202 C 
BRANCH   3   4
ATOM      4  C   UNL A   1      36.433  22.528  24.911  1.00  0.00     0.261 C 
BRANCH   4   5
ATOM      5  O   UNL A   1      35.005  22.464  24.834  1.00  0.00    -0.460 OA
BRANCH   5   6
ATOM      6  C   UNL A   1      34.359  22.417  26.028  1.00  0.00     0.341 C 
ATOM      7  O   UNL A   1      34.779  21.979  27.076  1.00  0.00    -0.246 OA
BRANCH   6   8
ATOM      8  C   UNL A   1      33.076  23.135  25.929  1.00  0.00     0.098 A 
ATOM      9  C   UNL A   1      31.775  25.126  26.412  1.00  0.00     0.078 A 
ATOM     10  C   UNL A   1      32.994  24.440  26.441  1.00  0.00     0.048 A 
ATOM     11  C   UNL A   1      30.649  24.471  25.900  1.00  0.00     0.149 A 
ATOM     12  C   UNL A   1      30.734  23.192  25.356  1.00  0.00     0.081 A 
ATOM     13  F   UNL A   1      29.464  25.101  25.891  1.00  0.00    -0.205 F 
ATOM     14  C   UNL A   1      31.956  22.528  25.369  1.00  0.00     0.140 A 
ATOM     15  F   UNL A   1      32.020  21.291  24.860  1.00  0.00    -0.206 F 
BRANCH   9  16
ATOM     16  N   UNL A   1      31.616  26.447  26.887  1.00  0.00    -0.323 N 
ATOM     17  O   UNL A   1      32.081  27.590  24.942  1.00  0.00    -0.274 OA
ATOM     18  C   UNL A   1      31.817  27.598  26.144  1.00  0.00     0.230 C 
ATOM     19  H   UNL A   1      31.337  26.558  27.825  1.00  0.00     0.170 HD
BRANCH  18  20
ATOM     20  C   UNL A   1      31.745  28.913  26.918  1.00  0.00     0.155 C 
BRANCH  20  21
ATOM     21  C   UNL A   1      33.066  29.567  27.166  1.00  0.00     0.044 A 
ATOM     22  C   UNL A   1      33.441  30.856  27.489  1.00  0.00     0.045 A 
ATOM     23  N   UNL A   1      34.242  28.882  26.994  1.00  0.00    -0.282 N 
ATOM     24  C   UNL A   1      34.844  30.815  27.574  1.00  0.00     0.135 A 
ATOM     25  N   UNL A   1      35.329  29.596  27.331  1.00  0.00    -0.184 NA
ATOM     26  H   UNL A   1      34.286  27.959  26.657  1.00  0.00     0.190 HD
ENDBRANCH  20  21
ENDBRANCH  18  20
ENDBRANCH   9  16
ENDBRANCH   6   8
ENDBRANCH   5   6
ENDBRANCH   4   5
ENDBRANCH   3   4
ENDBRANCH   2   3
ENDBRANCH   1   2
BRANCH   1  27
ATOM     27  C   UNL A   1      40.435  21.593  26.800  1.00  0.00     0.188 C 
BRANCH  27  28
ATOM     28  O   UNL A   1      40.642  20.257  27.196  1.00  0.00    -0.376 OA
BRANCH  28  29
ATOM     29  C   UNL A   1      41.936  19.680  27.156  1.00  0.00     0.202 C 
BRANCH  29  30
ATOM     30  C   UNL A   1      42.573  18.921  25.973  1.00  0.00     0.261 C 
BRANCH  30  31
ATOM     31  O   UNL A   1      42.946  19.658  24.810  1.00  0.00    -0.460 OA
BRANCH  31  32
ATOM     32  C   UNL A   1      44.275  19.688  24.546  1.00  0.00     0.338 C 
ATOM     33  O   UNL A   1      44.940  18.812  24.021  1.00  0.00    -0.246 OA
BRANCH  32  34
ATOM     34  C   UNL A   1      44.784  21.044  24.814  1.00  0.00     0.060 A 
ATOM     35  C   UNL A   1      45.280  21.321  26.093  1.00  0.00     0.016 A 
ATOM     36  C   UNL A   1      44.732  22.042  23.839  1.00  0.00     0.016 A 
ATOM     37  C   UNL A   1      45.684  22.611  26.418  1.00  0.00     0.010 A 
ATOM     38  C   UNL A   1      45.119  23.342  24.174  1.00  0.00     0.010 A 
ATOM     39  C   UNL A   1      45.555  23.639  25.478  1.00  0.00    -0.014 A 
BRANCH  39  40
ATOM     40  C   UNL A   1      45.687  25.043  25.935  1.00  0.00     0.031 A 
ATOM     41  C   UNL A   1      47.063  25.647  26.008  1.00  0.00     0.074 A 
ATOM     42  C   UNL A   1      44.609  25.782  26.245  1.00  0.00     0.049 A 
ATOM     43  N   UNL A   1      47.421  26.858  26.346  1.00  0.00    -0.248 NA
ATOM     44  C   UNL A   1      48.188  24.767  25.646  1.00  0.00     0.031 C 
ATOM     45  C   UNL A   1      43.225  25.315  26.211  1.00  0.00     0.029 A 
ATOM     46  N   UNL A   1      44.518  27.083  26.677  1.00  0.00    -0.354 N 
ATOM     47  C   UNL A   1      48.809  26.877  26.273  1.00  0.00     0.074 A 
ATOM     48  C   UNL A   1      49.229  25.555  25.864  1.00  0.00     0.031 C 
ATOM     49  C   UNL A   1      42.423  26.301  26.646  1.00  0.00     0.029 A 
ATOM     50  C   UNL A   1      43.238  27.463  27.002  1.00  0.00     0.049 A 
ATOM     51  H   UNL A   1      45.294  27.684  26.747  1.00  0.00     0.167 HD
ATOM     52  C   UNL A   1      49.657  27.903  26.512  1.00  0.00     0.034 A 
ATOM     53  C   UNL A   1      42.782  28.609  27.544  1.00  0.00     0.034 A 
ATOM     54  C   UNL A   1      49.239  29.220  26.906  1.00  0.00     0.049 A 
ATOM     55  C   UNL A   1      43.746  29.736  27.816  1.00  0.00     0.074 A 
ATOM     56  C   UNL A   1      50.017  30.345  27.113  1.00  0.00     0.029 A 
ATOM     57  N   UNL A   1      47.929  29.585  27.182  1.00  0.00    -0.354 N 
ATOM     58  N   UNL A   1      45.040  29.785  27.605  1.00  0.00    -0.248 NA
ATOM     59  C   UNL A   1      43.181  30.979  28.359  1.00  0.00     0.031 C 
ATOM     60  C   UNL A   1      49.183  31.378  27.553  1.00  0.00     0.029 A 
ATOM     61  C   UNL A   1      47.879  30.910  27.577  1.00  0.00     0.049 A 
ATOM     62  H   UNL A   1      47.150  28.989  27.107  1.00  0.00     0.167 HD
ATOM     63  C   UNL A   1      45.436  31.072  27.956  1.00  0.00     0.074 A 
ATOM     64  C   UNL A   1      44.240  31.776  28.372  1.00  0.00     0.031 C 
ATOM     65  C   UNL A   1      46.679  31.618  27.944  1.00  0.00     0.034 A 
BRANCH  52  66
ATOM     66  C   UNL A   1      51.131  27.637  26.354  1.00  0.00     0.023 A 
ATOM     67  C   UNL A   1      51.921  27.339  27.484  1.00  0.00     0.012 A 
ATOM     68  C   UNL A   1      51.727  27.649  25.079  1.00  0.00     0.148 A 
ATOM     69  C   UNL A   1      53.289  27.100  27.350  1.00  0.00     0.002 A 
ATOM     70  C   UNL A   1      53.081  27.363  24.948  1.00  0.00     0.091 A 
ATOM     71  F   UNL A   1      50.965  27.959  24.020  1.00  0.00    -0.205 F 
ATOM     72  C   UNL A   1      53.865  27.102  26.083  1.00  0.00     0.022 A 
BRANCH  70  73
ATOM     73  S   UNL A   1      53.894  27.261  23.351  1.00  0.00     0.127 S 
ATOM     74  O   UNL A   1      55.304  27.233  23.740  1.00  0.00    -0.237 OA
ATOM     75  O   UNL A   1      53.383  25.994  22.826  1.00  0.00    -0.237 OA
ATOM     76  O   UNL A   1      53.472  28.440  22.609  1.00  0.00    -0.744 OA
ENDBRANCH  70  73
ENDBRANCH  52  66
BRANCH  53  77
ATOM     77  C   UNL A   1      41.331  28.756  27.846  1.00  0.00     0.023 A 
ATOM     78  C   UNL A   1      40.429  29.087  26.816  1.00  0.00     0.012 A 
ATOM     79  C   UNL A   1      40.841  28.550  29.150  1.00  0.00     0.148 A 
ATOM     80  C   UNL A   1      39.067  29.234  27.086  1.00  0.00     0.002 A 
ATOM     81  C   UNL A   1      39.479  28.644  29.401  1.00  0.00     0.091 A 
ATOM     82  F   UNL A   1      41.721  28.253  30.117  1.00  0.00    -0.205 F 
ATOM     83  C   UNL A   1      38.591  29.002  28.375  1.00  0.00     0.022 A 
BRANCH  81  84
ATOM     84  S   UNL A   1      38.760  28.249  30.998  1.00  0.00     0.127 S 
ATOM     85  O   UNL A   1      38.850  26.791  31.013  1.00  0.00    -0.237 OA
ATOM     86  O   UNL A   1      39.676  28.932  31.912  1.00  0.00    -0.237 OA
ATOM     87  O   UNL A   1      37.411  28.796  30.972  1.00  0.00    -0.744 OA
ENDBRANCH  81  84
ENDBRANCH  53  77
BRANCH  65  88
ATOM     88  C   UNL A   1      46.816  33.065  28.348  1.00  0.00     0.023 A 
ATOM     89  C   UNL A   1      47.036  33.406  29.697  1.00  0.00     0.012 A 
ATOM     90  C   UNL A   1      46.795  34.084  27.374  1.00  0.00     0.148 A 
ATOM     91  C   UNL A   1      47.194  34.740  30.076  1.00  0.00     0.002 A 
ATOM     92  C   UNL A   1      47.006  35.405  27.750  1.00  0.00     0.091 A 
ATOM     93  F   UNL A   1      46.567  33.744  26.097  1.00  0.00    -0.205 F 
ATOM     94  C   UNL A   1      47.191  35.736  29.102  1.00  0.00     0.022 A 
BRANCH  92  95
ATOM     95  S   UNL A   1      47.120  36.739  26.553  1.00  0.00     0.127 S 
ATOM     96  O   UNL A   1      47.397  36.007  25.318  1.00  0.00    -0.237 OA
ATOM     97  O   UNL A   1      45.786  37.335  26.622  1.00  0.00    -0.237 OA
ATOM     98  O   UNL A   1      48.193  37.607  27.020  1.00  0.00    -0.744 OA
ENDBRANCH  92  95
ENDBRANCH  65  88
ENDBRANCH  39  40
ENDBRANCH  32  34
ENDBRANCH  31  32
ENDBRANCH  30  31
ENDBRANCH  29  30
ENDBRANCH  28  29
ENDBRANCH  27  28
ENDBRANCH   1  27
TORSDOF 23
ENDMDL
MODEL 3
REMARK VINA RESULT:      -9.6      1.859      2.137
REMARK SMILES O=C(Cc1ccn[nH]1)Nc1cc(C(=O)OCCOCCOCCOC(=O)c2ccc(-c3c4nc(c(-c5cccc(S(=O)(=O)[O-])c5F)c5ccc([nH]5)c(-c5cccc(S(=O)(=O)[O-])c5F)c5nc(c(-c6cccc(S(=O)(=O)[O-])c6F)c6ccc3[nH]6)C=C5)C=C4)cc2)c(F)cc1F
REMARK SMILES IDX 19 1 18 2 17 3 16 4 15 5 13 6 14 7 12 8 10 9 11 10 93 11
REMARK SMILES IDX 92 12 94 13 90 14 91 15 9 16 1 17 2 18 3 20 4 21 5 22 8 23
REMARK SMILES IDX 6 24 7 25 20 27 21 28 22 29 23 30 24 31 25 32 26 33 27 34
REMARK SMILES IDX 28 35 89 36 29 37 88 38 30 39 31 40 32 41 82 42 33 43 87 44
REMARK SMILES IDX 81 45 83 46 34 47 86 48 80 49 79 50 35 52 67 53 47 54 66 55
REMARK SMILES IDX 48 56 51 57 65 58 84 59 49 60 50 61 64 63 85 64 52 65 36 66
REMARK SMILES IDX 37 67 45 68 38 69 40 70 46 71 39 72 41 73 42 74 43 75 44 76
REMARK SMILES IDX 68 77 69 78 77 79 70 80 72 81 78 82 71 83 73 84 74 85 75 86
REMARK SMILES IDX 76 87 53 88 54 89 62 90 55 91 57 92 63 93 56 94 58 95 59 96
REMARK SMILES IDX 60 97 61 98
REMARK H PARENT 9 19 8 26 83 51 51 62
REMARK Flexibility Score: inf
ROOT
ATOM      1  C   UNL A   1      39.464  22.224  26.300  1.00  0.00     0.188 C 
ENDROOT
BRANCH   1   2
ATOM      2  O   UNL A   1      38.634  21.236  25.719  1.00  0.00    -0.376 OA
BRANCH   2   3
ATOM      3  C   UNL A   1      37.342  21.572  25.244  1.00  0.00     0.202 C 
BRANCH   3   4
ATOM      4  C   UNL A   1      36.834  23.018  25.108  1.00  0.00     0.261 C 
BRANCH   4   5
ATOM      5  O   UNL A   1      35.423  23.172  24.920  1.00  0.00    -0.460 OA
BRANCH   5   6
ATOM      6  C   UNL A   1      34.705  23.390  26.053  1.00  0.00     0.341 C 
ATOM      7  O   UNL A   1      35.071  23.236  27.197  1.00  0.00    -0.246 OA
BRANCH   6   8
ATOM      8  C   UNL A   1      33.412  24.008  25.712  1.00  0.00     0.098 A 
ATOM      9  C   UNL A   1      32.186  25.687  24.461  1.00  0.00     0.078 A 
ATOM     10  C   UNL A   1      33.390  25.043  24.763  1.00  0.00     0.048 A 
ATOM     11  C   UNL A   1      31.028  25.302  25.148  1.00  0.00     0.149 A 
ATOM     12  C   UNL A   1      31.037  24.251  26.061  1.00  0.00     0.081 A 
ATOM     13  F   UNL A   1      29.869  25.928  24.894  1.00  0.00    -0.205 F 
ATOM     14  C   UNL A   1      32.236  23.602  26.337  1.00  0.00     0.140 A 
ATOM     15  F   UNL A   1      32.236  22.605  27.231  1.00  0.00    -0.206 F 
BRANCH   9  16
ATOM     16  N   UNL A   1      32.077  26.721  23.504  1.00  0.00    -0.323 N 
ATOM     17  O   UNL A   1      32.334  28.535  24.901  1.00  0.00    -0.274 OA
ATOM     18  C   UNL A   1      32.114  28.077  23.780  1.00  0.00     0.230 C 
ATOM     19  H   UNL A   1      31.966  26.455  22.563  1.00  0.00     0.170 HD
BRANCH  18  20
ATOM     20  C   UNL A   1      31.809  29.005  22.605  1.00  0.00     0.155 C 
BRANCH  20  21
ATOM     21  C   UNL A   1      30.357  29.292  22.393  1.00  0.00     0.044 A 
ATOM     22  C   UNL A   1      29.198  28.624  22.736  1.00  0.00     0.045 A 
ATOM     23  N   UNL A   1      29.945  30.368  21.649  1.00  0.00    -0.282 N 
ATOM     24  C   UNL A   1      28.157  29.424  22.234  1.00  0.00     0.135 A 
ATOM     25  N   UNL A   1      28.611  30.519  21.623  1.00  0.00    -0.184 NA
ATOM     26  H   UNL A   1      30.566  30.971  21.180  1.00  0.00     0.190 HD
ENDBRANCH  20  21
ENDBRANCH  18  20
ENDBRANCH   9  16
ENDBRANCH   6   8
ENDBRANCH   5   6
ENDBRANCH   4   5
ENDBRANCH   3   4
ENDBRANCH   2   3
ENDBRANCH   1   2
BRANCH   1  27
ATOM     27  C   UNL A   1      40.749  21.791  27.033  1.00  0.00     0.188 C 
BRANCH  27  28
ATOM     28  O   UNL A   1      40.775  20.518  27.637  1.00  0.00    -0.376 OA
BRANCH  28  29
ATOM     29  C   UNL A   1      41.921  19.691  27.542  1.00  0.00     0.202 C 
BRANCH  29  30
ATOM     30  C   UNL A   1      42.321  18.799  26.349  1.00  0.00     0.261 C 
BRANCH  30  31
ATOM     31  O   UNL A   1      42.602  19.420  25.096  1.00  0.00    -0.460 OA
BRANCH  31  32
ATOM     32  C   UNL A   1      43.918  19.546  24.796  1.00  0.00     0.338 C 
ATOM     33  O   UNL A   1      44.637  18.710  24.278  1.00  0.00    -0.246 OA
BRANCH  32  34
ATOM     34  C   UNL A   1      44.325  20.946  25.010  1.00  0.00     0.060 A 
ATOM     35  C   UNL A   1      45.150  21.231  26.105  1.00  0.00     0.016 A 
ATOM     36  C   UNL A   1      43.865  21.969  24.179  1.00  0.00     0.016 A 
ATOM     37  C   UNL A   1      45.483  22.549  26.400  1.00  0.00     0.010 A 
ATOM     38  C   UNL A   1      44.182  23.293  24.490  1.00  0.00     0.010 A 
ATOM     39  C   UNL A   1      44.957  23.590  25.627  1.00  0.00    -0.014 A 
BRANCH  39  40
ATOM     40  C   UNL A   1      45.059  24.978  26.137  1.00  0.00     0.031 A 
ATOM     41  C   UNL A   1      46.376  25.694  26.008  1.00  0.00     0.074 A 
ATOM     42  C   UNL A   1      43.999  25.607  26.671  1.00  0.00     0.049 A 
ATOM     43  N   UNL A   1      46.694  26.915  26.352  1.00  0.00    -0.248 NA
ATOM     44  C   UNL A   1      47.484  24.932  25.407  1.00  0.00     0.031 C 
ATOM     45  C   UNL A   1      42.671  25.024  26.847  1.00  0.00     0.029 A 
ATOM     46  N   UNL A   1      43.885  26.874  27.189  1.00  0.00    -0.354 N 
ATOM     47  C   UNL A   1      48.041  27.057  26.042  1.00  0.00     0.074 A 
ATOM     48  C   UNL A   1      48.484  25.795  25.489  1.00  0.00     0.031 C 
ATOM     49  C   UNL A   1      41.885  25.917  27.472  1.00  0.00     0.029 A 
ATOM     50  C   UNL A   1      42.657  27.127  27.751  1.00  0.00     0.049 A 
ATOM     51  H   UNL A   1      44.613  27.535  27.161  1.00  0.00     0.167 HD
ATOM     52  C   UNL A   1      48.837  28.140  26.193  1.00  0.00     0.034 A 
ATOM     53  C   UNL A   1      42.217  28.204  28.431  1.00  0.00     0.034 A 
ATOM     54  C   UNL A   1      48.394  29.397  26.731  1.00  0.00     0.049 A 
ATOM     55  C   UNL A   1      43.125  29.396  28.599  1.00  0.00     0.074 A 
ATOM     56  C   UNL A   1      49.109  30.575  26.868  1.00  0.00     0.029 A 
ATOM     57  N   UNL A   1      47.130  29.635  27.249  1.00  0.00    -0.354 N 
ATOM     58  N   UNL A   1      44.353  29.566  28.173  1.00  0.00    -0.248 NA
ATOM     59  C   UNL A   1      42.570  30.560  29.305  1.00  0.00     0.031 C 
ATOM     60  C   UNL A   1      48.288  31.511  27.505  1.00  0.00     0.029 A 
ATOM     61  C   UNL A   1      47.049  30.932  27.725  1.00  0.00     0.049 A 
ATOM     62  H   UNL A   1      46.398  28.978  27.273  1.00  0.00     0.167 HD
ATOM     63  C   UNL A   1      44.705  30.865  28.527  1.00  0.00     0.074 A 
ATOM     64  C   UNL A   1      43.551  31.444  29.183  1.00  0.00     0.031 C 
ATOM     65  C   UNL A   1      45.881  31.516  28.334  1.00  0.00     0.034 A 
BRANCH  52  66
ATOM     66  C   UNL A   1      50.276  28.009  25.769  1.00  0.00     0.023 A 
ATOM     67  C   UNL A   1      51.296  27.932  26.741  1.00  0.00     0.012 A 
ATOM     68  C   UNL A   1      50.614  27.928  24.404  1.00  0.00     0.148 A 
ATOM     69  C   UNL A   1      52.633  27.821  26.358  1.00  0.00     0.002 A 
ATOM     70  C   UNL A   1      51.944  27.768  24.033  1.00  0.00     0.091 A 
ATOM     71  F   UNL A   1      49.634  28.028  23.495  1.00  0.00    -0.205 F 
ATOM     72  C   UNL A   1      52.955  27.729  25.007  1.00  0.00     0.022 A 
BRANCH  70  73
ATOM     73  S   UNL A   1      52.448  27.558  22.323  1.00  0.00     0.127 S 
ATOM     74  O   UNL A   1      51.156  27.464  21.644  1.00  0.00    -0.237 OA
ATOM     75  O   UNL A   1      53.181  28.799  22.064  1.00  0.00    -0.237 OA
ATOM     76  O   UNL A   1      53.264  26.353  22.288  1.00  0.00    -0.744 OA
ENDBRANCH  70  73
ENDBRANCH  52  66
BRANCH  53  77
ATOM     77  C   UNL A   1      40.835  28.212  28.985  1.00  0.00     0.023 A 
ATOM     78  C   UNL A   1      40.537  27.469  30.144  1.00  0.00     0.012 A 
ATOM     79  C   UNL A   1      39.818  28.971  28.374  1.00  0.00     0.148 A 
ATOM     80  C   UNL A   1      39.245  27.462  30.670  1.00  0.00     0.002 A 
ATOM     81  C   UNL A   1      38.548  29.004  28.934  1.00  0.00     0.091 A 
ATOM     82  F   UNL A   1      40.120  29.656  27.263  1.00  0.00    -0.205 F 
ATOM     83  C   UNL A   1      38.254  28.238  30.072  1.00  0.00     0.022 A 
BRANCH  81  84
ATOM     84  S   UNL A   1      37.241  30.062  28.305  1.00  0.00     0.127 S 
ATOM     85  O   UNL A   1      37.768  31.393  28.599  1.00  0.00    -0.237 OA
ATOM     86  O   UNL A   1      37.228  29.705  26.886  1.00  0.00    -0.237 OA
ATOM     87  O   UNL A   1      36.039  29.686  29.035  1.00  0.00    -0.744 OA
ENDBRANCH  81  84
ENDBRANCH  53  77
BRANCH  65  88
ATOM     88  C   UNL A   1      45.975  32.950  28.794  1.00  0.00     0.023 A 
ATOM     89  C   UNL A   1      46.464  33.250  30.081  1.00  0.00     0.012 A 
ATOM     90  C   UNL A   1      45.642  34.004  27.919  1.00  0.00     0.148 A 
ATOM     91  C   UNL A   1      46.583  34.575  30.504  1.00  0.00     0.002 A 
ATOM     92  C   UNL A   1      45.813  35.322  28.328  1.00  0.00     0.091 A 
ATOM     93  F   UNL A   1      45.161  33.701  26.705  1.00  0.00    -0.205 F 
ATOM     94  C   UNL A   1      46.269  35.609  29.624  1.00  0.00     0.022 A 
BRANCH  92  95
ATOM     95  S   UNL A   1      45.532  36.713  27.228  1.00  0.00     0.127 S 
ATOM     96  O   UNL A   1      46.469  36.428  26.142  1.00  0.00    -0.237 OA
ATOM     97  O   UNL A   1      44.122  36.550  26.873  1.00  0.00    -0.237 OA
ATOM     98  O   UNL A   1      45.823  37.907  28.008  1.00  0.00    -0.744 OA
ENDBRANCH  92  95
ENDBRANCH  65  88
ENDBRANCH  39  40
ENDBRANCH  32  34
ENDBRANCH  31  32
ENDBRANCH  30  31
ENDBRANCH  29  30
ENDBRANCH  28  29
ENDBRANCH  27  28
ENDBRANCH   1  27
TORSDOF 23
ENDMDL
