MODEL 1
REMARK VINA RESULT:     -10.3      0.000      0.000
REMARK SMILES O=C(OCCOCCOCCOC(=O)[C@@H]1[C@@H](C(=O)Nc2cccc(C(F)(F)F)c2)[C@@H]2C=C[C@H]1O2)c1ccc(-c2c3nc(c(-c4cccc(S(=O)(=O)[O-])c4F)c4ccc([nH]4)c(-c4cccc(S(=O)(=O)[O-])c4F)c4nc(c(-c5cccc(S(=O)(=O)[O-])c5F)c5ccc2[nH]5)C=C4)C=C3)cc1
REMARK SMILES IDX 7 1 6 2 5 3 4 4 3 5 2 6 1 7 35 8 36 9 97 10 37 11 96 12
REMARK SMILES IDX 38 13 39 14 40 15 90 16 41 17 95 18 89 19 91 20 42 21 94 22
REMARK SMILES IDX 88 23 87 24 43 26 75 27 55 28 74 29 56 30 59 31 73 32 92 33
REMARK SMILES IDX 57 34 58 35 72 37 93 38 60 39 44 40 45 41 53 42 46 43 48 44
REMARK SMILES IDX 54 45 47 46 49 47 50 48 51 49 52 50 76 51 77 52 85 53 78 54
REMARK SMILES IDX 80 55 86 56 79 57 81 58 82 59 83 60 84 61 61 62 62 63 70 64
REMARK SMILES IDX 63 65 65 66 71 67 64 68 66 69 67 70 68 71 69 72 8 73 9 74
REMARK SMILES IDX 10 75 11 76 12 77 13 78 14 79 15 80 16 81 33 82 30 83 32 84
REMARK SMILES IDX 34 85 31 86 17 87 18 88 19 89 20 91 21 92 29 93 22 94 24 95
REMARK SMILES IDX 23 96 25 97 26 98 27 99 28 100
REMARK H PARENT 91 25 59 36 19 90
REMARK Flexibility Score: inf
ROOT
ATOM      1  C   UNL A   1      37.225  21.953  25.084  1.00  0.00     0.188 C 
ENDROOT
BRANCH   1   2
ATOM      2  O   UNL A   1      37.184  20.716  24.359  1.00  0.00    -0.376 OA
BRANCH   2   3
ATOM      3  C   UNL A   1      37.948  19.669  24.970  1.00  0.00     0.202 C 
BRANCH   3   4
ATOM      4  C   UNL A   1      39.224  20.089  25.723  1.00  0.00     0.261 C 
BRANCH   4   5
ATOM      5  O   UNL A   1      40.284  19.127  25.661  1.00  0.00    -0.460 OA
BRANCH   5   6
ATOM      6  C   UNL A   1      41.597  19.269  25.966  1.00  0.00     0.338 C 
ATOM      7  O   UNL A   1      42.293  18.254  25.951  1.00  0.00    -0.246 OA
BRANCH   6   8
ATOM      8  C   UNL A   1      42.257  20.566  26.339  1.00  0.00     0.060 A 
ATOM      9  C   UNL A   1      42.494  21.036  27.635  1.00  0.00     0.016 A 
ATOM     10  C   UNL A   1      42.691  21.372  25.268  1.00  0.00     0.016 A 
ATOM     11  C   UNL A   1      43.032  22.299  27.864  1.00  0.00     0.010 A 
ATOM     12  C   UNL A   1      43.256  22.631  25.487  1.00  0.00     0.010 A 
ATOM     13  C   UNL A   1      43.371  23.116  26.791  1.00  0.00    -0.014 A 
BRANCH  13  14
ATOM     14  C   UNL A   1      43.643  24.543  27.047  1.00  0.00     0.031 A 
ATOM     15  C   UNL A   1      44.972  25.071  26.642  1.00  0.00     0.074 A 
ATOM     16  C   UNL A   1      42.715  25.336  27.602  1.00  0.00     0.049 A 
ATOM     17  N   UNL A   1      45.440  26.277  26.770  1.00  0.00    -0.248 NA
ATOM     18  C   UNL A   1      45.897  24.113  26.015  1.00  0.00     0.031 C 
ATOM     19  C   UNL A   1      41.407  24.861  27.998  1.00  0.00     0.029 A 
ATOM     20  N   UNL A   1      42.700  26.659  27.938  1.00  0.00    -0.354 N 
ATOM     21  C   UNL A   1      46.748  26.207  26.319  1.00  0.00     0.074 A 
ATOM     22  C   UNL A   1      46.978  24.856  25.861  1.00  0.00     0.031 C 
ATOM     23  C   UNL A   1      40.701  25.863  28.537  1.00  0.00     0.029 A 
ATOM     24  C   UNL A   1      41.524  27.059  28.538  1.00  0.00     0.049 A 
ATOM     25  H   UNL A   1      43.456  27.268  27.771  1.00  0.00     0.167 HD
ATOM     26  C   UNL A   1      47.678  27.184  26.339  1.00  0.00     0.034 A 
ATOM     27  C   UNL A   1      41.161  28.254  29.040  1.00  0.00     0.034 A 
ATOM     28  C   UNL A   1      47.418  28.496  26.859  1.00  0.00     0.049 A 
ATOM     29  C   UNL A   1      42.191  29.343  28.994  1.00  0.00     0.074 A 
ATOM     30  C   UNL A   1      48.282  29.566  26.969  1.00  0.00     0.029 A 
ATOM     31  N   UNL A   1      46.199  28.901  27.393  1.00  0.00    -0.354 N 
ATOM     32  N   UNL A   1      43.410  29.284  28.509  1.00  0.00    -0.248 NA
ATOM     33  C   UNL A   1      41.822  30.647  29.553  1.00  0.00     0.031 C 
ATOM     34  C   UNL A   1      47.596  30.606  27.604  1.00  0.00     0.029 A 
ATOM     35  C   UNL A   1      46.287  30.204  27.844  1.00  0.00     0.049 A 
ATOM     36  H   UNL A   1      45.391  28.341  27.442  1.00  0.00     0.167 HD
ATOM     37  C   UNL A   1      43.962  30.537  28.707  1.00  0.00     0.074 A 
ATOM     38  C   UNL A   1      42.926  31.349  29.324  1.00  0.00     0.031 C 
ATOM     39  C   UNL A   1      45.214  30.974  28.428  1.00  0.00     0.034 A 
BRANCH  26  40
ATOM     40  C   UNL A   1      49.054  26.796  25.882  1.00  0.00     0.023 A 
ATOM     41  C   UNL A   1      49.931  26.118  26.756  1.00  0.00     0.012 A 
ATOM     42  C   UNL A   1      49.514  27.201  24.616  1.00  0.00     0.148 A 
ATOM     43  C   UNL A   1      51.263  25.907  26.398  1.00  0.00     0.002 A 
ATOM     44  C   UNL A   1      50.828  26.945  24.248  1.00  0.00     0.091 A 
ATOM     45  F   UNL A   1      48.678  27.882  23.820  1.00  0.00    -0.205 F 
ATOM     46  C   UNL A   1      51.709  26.317  25.143  1.00  0.00     0.022 A 
BRANCH  44  47
ATOM     47  S   UNL A   1      51.477  27.386  22.635  1.00  0.00     0.127 S 
ATOM     48  O   UNL A   1      51.292  28.835  22.628  1.00  0.00    -0.237 OA
ATOM     49  O   UNL A   1      52.870  26.947  22.737  1.00  0.00    -0.237 OA
ATOM     50  O   UNL A   1      50.679  26.646  21.666  1.00  0.00    -0.744 OA
ENDBRANCH  44  47
ENDBRANCH  26  40
BRANCH  27  51
ATOM     51  C   UNL A   1      39.781  28.461  29.572  1.00  0.00     0.023 A 
ATOM     52  C   UNL A   1      39.470  28.045  30.882  1.00  0.00     0.012 A 
ATOM     53  C   UNL A   1      38.801  29.155  28.831  1.00  0.00     0.148 A 
ATOM     54  C   UNL A   1      38.218  28.317  31.441  1.00  0.00     0.002 A 
ATOM     55  C   UNL A   1      37.575  29.468  29.411  1.00  0.00     0.091 A 
ATOM     56  F   UNL A   1      39.101  29.521  27.576  1.00  0.00    -0.205 F 
ATOM     57  C   UNL A   1      37.279  29.043  30.714  1.00  0.00     0.022 A 
BRANCH  55  58
ATOM     58  S   UNL A   1      36.345  30.487  28.583  1.00  0.00     0.127 S 
ATOM     59  O   UNL A   1      35.359  30.677  29.645  1.00  0.00    -0.237 OA
ATOM     60  O   UNL A   1      37.113  31.685  28.244  1.00  0.00    -0.237 OA
ATOM     61  O   UNL A   1      35.896  29.706  27.439  1.00  0.00    -0.744 OA
ENDBRANCH  55  58
ENDBRANCH  27  51
BRANCH  39  62
ATOM     62  C   UNL A   1      45.528  32.401  28.763  1.00  0.00     0.023 A 
ATOM     63  C   UNL A   1      46.140  32.719  29.989  1.00  0.00     0.012 A 
ATOM     64  C   UNL A   1      45.328  33.402  27.794  1.00  0.00     0.148 A 
ATOM     65  C   UNL A   1      46.544  34.026  30.250  1.00  0.00     0.002 A 
ATOM     66  C   UNL A   1      45.780  34.688  28.040  1.00  0.00     0.091 A 
ATOM     67  F   UNL A   1      44.722  33.065  26.646  1.00  0.00    -0.205 F 
ATOM     68  C   UNL A   1      46.380  35.006  29.271  1.00  0.00     0.022 A 
BRANCH  66  69
ATOM     69  S   UNL A   1      45.714  35.978  26.796  1.00  0.00     0.127 S 
ATOM     70  O   UNL A   1      44.272  36.176  26.650  1.00  0.00    -0.237 OA
ATOM     71  O   UNL A   1      46.420  37.077  27.456  1.00  0.00    -0.237 OA
ATOM     72  O   UNL A   1      46.386  35.442  25.620  1.00  0.00    -0.744 OA
ENDBRANCH  66  69
ENDBRANCH  39  62
ENDBRANCH  13  14
ENDBRANCH   6   8
ENDBRANCH   5   6
ENDBRANCH   4   5
ENDBRANCH   3   4
ENDBRANCH   2   3
ENDBRANCH   1   2
BRANCH   1  73
ATOM     73  C   UNL A   1      36.135  22.122  26.142  1.00  0.00     0.188 C 
BRANCH  73  74
ATOM     74  O   UNL A   1      35.102  21.147  26.172  1.00  0.00    -0.376 OA
BRANCH  74  75
ATOM     75  C   UNL A   1      33.884  21.540  26.780  1.00  0.00     0.202 C 
BRANCH  75  76
ATOM     76  C   UNL A   1      33.616  23.027  27.029  1.00  0.00     0.261 C 
BRANCH  76  77
ATOM     77  O   UNL A   1      33.000  23.787  25.975  1.00  0.00    -0.463 OA
BRANCH  77  78
ATOM     78  C   UNL A   1      33.839  24.597  25.275  1.00  0.00     0.312 C 
ATOM     79  O   UNL A   1      34.781  25.207  25.779  1.00  0.00    -0.252 OA
BRANCH  78  80
ATOM     80  C   UNL A   1      33.504  24.729  23.817  1.00  0.00     0.147 C 
ATOM     81  C   UNL A   1      32.043  24.555  23.340  1.00  0.00     0.129 C 
ATOM     82  C   UNL A   1      34.242  23.650  23.008  1.00  0.00     0.157 C 
ATOM     83  C   UNL A   1      32.244  23.535  22.186  1.00  0.00     0.155 C 
ATOM     84  C   UNL A   1      33.753  22.250  23.272  1.00  0.00     0.004 C 
ATOM     85  O   UNL A   1      33.591  23.843  21.738  1.00  0.00    -0.365 OA
ATOM     86  C   UNL A   1      32.513  22.180  22.772  1.00  0.00     0.004 C 
BRANCH  81  87
ATOM     87  C   UNL A   1      31.476  25.843  22.750  1.00  0.00     0.231 C 
ATOM     88  O   UNL A   1      31.555  26.124  21.558  1.00  0.00    -0.274 OA
ATOM     89  N   UNL A   1      30.721  26.639  23.576  1.00  0.00    -0.326 N 
ATOM     90  H   UNL A   1      29.832  26.896  23.239  1.00  0.00     0.169 HD
BRANCH  89  91
ATOM     91  C   UNL A   1      31.067  27.126  24.838  1.00  0.00     0.041 A 
ATOM     92  C   UNL A   1      30.692  26.400  25.968  1.00  0.00     0.026 A 
ATOM     93  C   UNL A   1      31.623  28.396  24.982  1.00  0.00     0.039 A 
ATOM     94  C   UNL A   1      30.962  26.904  27.242  1.00  0.00     0.003 A 
ATOM     95  C   UNL A   1      31.836  28.942  26.255  1.00  0.00     0.058 A 
ATOM     96  C   UNL A   1      31.534  28.170  27.385  1.00  0.00     0.013 A 
BRANCH  95  97
ATOM     97  C   UNL A   1      32.323  30.360  26.405  1.00  0.00     0.416 C 
ATOM     98  F   UNL A   1      32.704  30.657  27.677  1.00  0.00    -0.166 F 
ATOM     99  F   UNL A   1      33.408  30.625  25.621  1.00  0.00    -0.166 F 
ATOM    100  F   UNL A   1      31.392  31.296  26.065  1.00  0.00    -0.166 F 
ENDBRANCH  95  97
ENDBRANCH  89  91
ENDBRANCH  81  87
ENDBRANCH  78  80
ENDBRANCH  77  78
ENDBRANCH  76  77
ENDBRANCH  75  76
ENDBRANCH  74  75
ENDBRANCH  73  74
ENDBRANCH   1  73
TORSDOF 23
ENDMDL
MODEL 2
REMARK VINA RESULT:      -9.8      3.140      8.228
REMARK SMILES O=C(OCCOCCOCCOC(=O)[C@@H]1[C@@H](C(=O)Nc2cccc(C(F)(F)F)c2)[C@@H]2C=C[C@H]1O2)c1ccc(-c2c3nc(c(-c4cccc(S(=O)(=O)[O-])c4F)c4ccc([nH]4)c(-c4cccc(S(=O)(=O)[O-])c4F)c4nc(c(-c5cccc(S(=O)(=O)[O-])c5F)c5ccc2[nH]5)C=C4)C=C3)cc1
REMARK SMILES IDX 7 1 6 2 5 3 4 4 3 5 2 6 1 7 35 8 36 9 97 10 37 11 96 12
REMARK SMILES IDX 38 13 39 14 40 15 90 16 41 17 95 18 89 19 91 20 42 21 94 22
REMARK SMILES IDX 88 23 87 24 43 26 75 27 55 28 74 29 56 30 59 31 73 32 92 33
REMARK SMILES IDX 57 34 58 35 72 37 93 38 60 39 44 40 45 41 53 42 46 43 48 44
REMARK SMILES IDX 54 45 47 46 49 47 50 48 51 49 52 50 76 51 77 52 85 53 78 54
REMARK SMILES IDX 80 55 86 56 79 57 81 58 82 59 83 60 84 61 61 62 62 63 70 64
REMARK SMILES IDX 63 65 65 66 71 67 64 68 66 69 67 70 68 71 69 72 8 73 9 74
REMARK SMILES IDX 10 75 11 76 12 77 13 78 14 79 15 80 16 81 33 82 30 83 32 84
REMARK SMILES IDX 34 85 31 86 17 87 18 88 19 89 20 91 21 92 29 93 22 94 24 95
REMARK SMILES IDX 23 96 25 97 26 98 27 99 28 100
REMARK H PARENT 91 25 59 36 19 90
REMARK Flexibility Score: inf
ROOT
ATOM      1  C   UNL A   1      34.949  21.494  26.656  1.00  0.00     0.188 C 
ENDROOT
BRANCH   1   2
ATOM      2  O   UNL A   1      35.312  21.188  25.303  1.00  0.00    -0.376 OA
BRANCH   2   3
ATOM      3  C   UNL A   1      36.645  20.677  25.170  1.00  0.00     0.202 C 
BRANCH   3   4
ATOM      4  C   UNL A   1      37.712  21.650  24.635  1.00  0.00     0.261 C 
BRANCH   4   5
ATOM      5  O   UNL A   1      38.321  22.463  25.646  1.00  0.00    -0.460 OA
BRANCH   5   6
ATOM      6  C   UNL A   1      37.988  23.707  26.069  1.00  0.00     0.338 C 
ATOM      7  O   UNL A   1      36.853  24.106  25.810  1.00  0.00    -0.246 OA
BRANCH   6   8
ATOM      8  C   UNL A   1      38.905  24.637  26.811  1.00  0.00     0.060 A 
ATOM      9  C   UNL A   1      38.981  24.799  28.198  1.00  0.00     0.016 A 
ATOM     10  C   UNL A   1      39.783  25.404  26.020  1.00  0.00     0.016 A 
ATOM     11  C   UNL A   1      39.807  25.759  28.775  1.00  0.00     0.010 A 
ATOM     12  C   UNL A   1      40.634  26.354  26.589  1.00  0.00     0.010 A 
ATOM     13  C   UNL A   1      40.600  26.569  27.968  1.00  0.00    -0.014 A 
BRANCH  13  14
ATOM     14  C   UNL A   1      41.221  27.768  28.563  1.00  0.00     0.031 A 
ATOM     15  C   UNL A   1      40.325  28.733  29.252  1.00  0.00     0.074 A 
ATOM     16  C   UNL A   1      42.546  27.963  28.506  1.00  0.00     0.049 A 
ATOM     17  N   UNL A   1      40.634  29.852  29.839  1.00  0.00    -0.248 NA
ATOM     18  C   UNL A   1      38.892  28.397  29.278  1.00  0.00     0.031 C 
ATOM     19  C   UNL A   1      43.451  27.040  27.855  1.00  0.00     0.029 A 
ATOM     20  N   UNL A   1      43.363  28.956  28.965  1.00  0.00    -0.354 N 
ATOM     21  C   UNL A   1      39.424  30.400  30.231  1.00  0.00     0.074 A 
ATOM     22  C   UNL A   1      38.384  29.465  29.867  1.00  0.00     0.031 C 
ATOM     23  C   UNL A   1      44.707  27.497  27.936  1.00  0.00     0.029 A 
ATOM     24  C   UNL A   1      44.691  28.768  28.640  1.00  0.00     0.049 A 
ATOM     25  H   UNL A   1      43.037  29.732  29.475  1.00  0.00     0.167 HD
ATOM     26  C   UNL A   1      39.213  31.605  30.800  1.00  0.00     0.034 A 
ATOM     27  C   UNL A   1      45.766  29.542  28.873  1.00  0.00     0.034 A 
ATOM     28  C   UNL A   1      40.275  32.526  31.089  1.00  0.00     0.049 A 
ATOM     29  C   UNL A   1      45.516  30.849  29.565  1.00  0.00     0.074 A 
ATOM     30  C   UNL A   1      40.194  33.791  31.632  1.00  0.00     0.029 A 
ATOM     31  N   UNL A   1      41.619  32.284  30.820  1.00  0.00    -0.354 N 
ATOM     32  N   UNL A   1      44.371  31.335  29.986  1.00  0.00    -0.248 NA
ATOM     33  C   UNL A   1      46.671  31.716  29.813  1.00  0.00     0.031 C 
ATOM     34  C   UNL A   1      41.485  34.330  31.657  1.00  0.00     0.029 A 
ATOM     35  C   UNL A   1      42.379  33.381  31.177  1.00  0.00     0.049 A 
ATOM     36  H   UNL A   1      41.975  31.453  30.432  1.00  0.00     0.167 HD
ATOM     37  C   UNL A   1      44.661  32.567  30.545  1.00  0.00     0.074 A 
ATOM     38  C   UNL A   1      46.100  32.737  30.442  1.00  0.00     0.031 C 
ATOM     39  C   UNL A   1      43.816  33.485  31.075  1.00  0.00     0.034 A 
BRANCH  26  40
ATOM     40  C   UNL A   1      37.779  31.989  31.022  1.00  0.00     0.023 A 
ATOM     41  C   UNL A   1      37.093  31.550  32.175  1.00  0.00     0.012 A 
ATOM     42  C   UNL A   1      37.081  32.699  30.028  1.00  0.00     0.148 A 
ATOM     43  C   UNL A   1      35.720  31.759  32.302  1.00  0.00     0.002 A 
ATOM     44  C   UNL A   1      35.723  32.945  30.185  1.00  0.00     0.091 A 
ATOM     45  F   UNL A   1      37.742  33.067  28.922  1.00  0.00    -0.205 F 
ATOM     46  C   UNL A   1      35.037  32.460  31.310  1.00  0.00     0.022 A 
BRANCH  44  47
ATOM     47  S   UNL A   1      34.773  33.883  28.988  1.00  0.00     0.127 S 
ATOM     48  O   UNL A   1      35.643  35.035  28.758  1.00  0.00    -0.237 OA
ATOM     49  O   UNL A   1      34.688  32.947  27.866  1.00  0.00    -0.237 OA
ATOM     50  O   UNL A   1      33.498  34.177  29.629  1.00  0.00    -0.744 OA
ENDBRANCH  44  47
ENDBRANCH  26  40
BRANCH  27  51
ATOM     51  C   UNL A   1      47.132  29.074  28.488  1.00  0.00     0.023 A 
ATOM     52  C   UNL A   1      47.684  29.481  27.257  1.00  0.00     0.012 A 
ATOM     53  C   UNL A   1      47.927  28.314  29.371  1.00  0.00     0.148 A 
ATOM     54  C   UNL A   1      48.997  29.142  26.916  1.00  0.00     0.002 A 
ATOM     55  C   UNL A   1      49.250  28.023  29.048  1.00  0.00     0.091 A 
ATOM     56  F   UNL A   1      47.379  27.911  30.527  1.00  0.00    -0.205 F 
ATOM     57  C   UNL A   1      49.784  28.430  27.817  1.00  0.00     0.022 A 
BRANCH  55  58
ATOM     58  S   UNL A   1      50.366  27.199  30.192  1.00  0.00     0.127 S 
ATOM     59  O   UNL A   1      50.326  28.102  31.341  1.00  0.00    -0.237 OA
ATOM     60  O   UNL A   1      49.700  25.914  30.404  1.00  0.00    -0.237 OA
ATOM     61  O   UNL A   1      51.645  27.117  29.501  1.00  0.00    -0.744 OA
ENDBRANCH  55  58
ENDBRANCH  27  51
BRANCH  39  62
ATOM     62  C   UNL A   1      44.428  34.746  31.607  1.00  0.00     0.023 A 
ATOM     63  C   UNL A   1      44.929  34.785  32.922  1.00  0.00     0.012 A 
ATOM     64  C   UNL A   1      44.618  35.843  30.747  1.00  0.00     0.148 A 
ATOM     65  C   UNL A   1      45.608  35.913  33.377  1.00  0.00     0.002 A 
ATOM     66  C   UNL A   1      45.340  36.939  31.190  1.00  0.00     0.091 A 
ATOM     67  F   UNL A   1      44.108  35.778  29.509  1.00  0.00    -0.205 F 
ATOM     68  C   UNL A   1      45.828  36.982  32.508  1.00  0.00     0.022 A 
BRANCH  66  69
ATOM     69  S   UNL A   1      45.767  38.304  30.108  1.00  0.00     0.127 S 
ATOM     70  O   UNL A   1      44.452  38.871  29.812  1.00  0.00    -0.237 OA
ATOM     71  O   UNL A   1      46.610  39.129  30.972  1.00  0.00    -0.237 OA
ATOM     72  O   UNL A   1      46.457  37.715  28.967  1.00  0.00    -0.744 OA
ENDBRANCH  66  69
ENDBRANCH  39  62
ENDBRANCH  13  14
ENDBRANCH   6   8
ENDBRANCH   5   6
ENDBRANCH   4   5
ENDBRANCH   3   4
ENDBRANCH   2   3
ENDBRANCH   1   2
BRANCH   1  73
ATOM     73  C   UNL A   1      33.458  21.380  26.970  1.00  0.00     0.188 C 
BRANCH  73  74
ATOM     74  O   UNL A   1      32.550  21.588  25.897  1.00  0.00    -0.376 OA
BRANCH  74  75
ATOM     75  C   UNL A   1      31.684  22.704  26.013  1.00  0.00     0.202 C 
BRANCH  75  76
ATOM     76  C   UNL A   1      32.199  23.986  26.674  1.00  0.00     0.261 C 
BRANCH  76  77
ATOM     77  O   UNL A   1      33.208  24.742  25.985  1.00  0.00    -0.463 OA
BRANCH  77  78
ATOM     78  C   UNL A   1      32.757  25.834  25.310  1.00  0.00     0.312 C 
ATOM     79  O   UNL A   1      31.850  26.560  25.711  1.00  0.00    -0.252 OA
BRANCH  78  80
ATOM     80  C   UNL A   1      33.433  26.072  23.990  1.00  0.00     0.147 C 
ATOM     81  C   UNL A   1      32.745  26.946  22.914  1.00  0.00     0.129 C 
ATOM     82  C   UNL A   1      33.629  24.738  23.250  1.00  0.00     0.157 C 
ATOM     83  C   UNL A   1      32.856  26.009  21.680  1.00  0.00     0.155 C 
ATOM     84  C   UNL A   1      32.344  24.105  22.785  1.00  0.00     0.004 C 
ATOM     85  O   UNL A   1      34.060  25.254  21.976  1.00  0.00    -0.365 OA
ATOM     86  C   UNL A   1      31.859  24.896  21.819  1.00  0.00     0.004 C 
BRANCH  81  87
ATOM     87  C   UNL A   1      33.531  28.221  22.623  1.00  0.00     0.231 C 
ATOM     88  O   UNL A   1      34.330  28.316  21.696  1.00  0.00    -0.274 OA
ATOM     89  N   UNL A   1      33.210  29.342  23.348  1.00  0.00    -0.326 N 
ATOM     90  H   UNL A   1      33.014  30.154  22.827  1.00  0.00     0.169 HD
BRANCH  89  91
ATOM     91  C   UNL A   1      33.128  29.464  24.737  1.00  0.00     0.041 A 
ATOM     92  C   UNL A   1      31.929  29.889  25.308  1.00  0.00     0.026 A 
ATOM     93  C   UNL A   1      34.267  29.332  25.530  1.00  0.00     0.039 A 
ATOM     94  C   UNL A   1      31.846  30.088  26.687  1.00  0.00     0.003 A 
ATOM     95  C   UNL A   1      34.213  29.596  26.905  1.00  0.00     0.058 A 
ATOM     96  C   UNL A   1      32.983  29.941  27.483  1.00  0.00     0.013 A 
BRANCH  95  97
ATOM     97  C   UNL A   1      35.470  29.573  27.736  1.00  0.00     0.416 C 
ATOM     98  F   UNL A   1      36.339  30.566  27.408  1.00  0.00    -0.166 F 
ATOM     99  F   UNL A   1      35.216  29.726  29.069  1.00  0.00    -0.166 F 
ATOM    100  F   UNL A   1      36.172  28.410  27.632  1.00  0.00    -0.166 F 
ENDBRANCH  95  97
ENDBRANCH  89  91
ENDBRANCH  81  87
ENDBRANCH  78  80
ENDBRANCH  77  78
ENDBRANCH  76  77
ENDBRANCH  75  76
ENDBRANCH  74  75
ENDBRANCH  73  74
ENDBRANCH   1  73
TORSDOF 23
ENDMDL
MODEL 3
REMARK VINA RESULT:      -9.8      3.922      5.296
REMARK SMILES O=C(OCCOCCOCCOC(=O)[C@@H]1[C@@H](C(=O)Nc2cccc(C(F)(F)F)c2)[C@@H]2C=C[C@H]1O2)c1ccc(-c2c3nc(c(-c4cccc(S(=O)(=O)[O-])c4F)c4ccc([nH]4)c(-c4cccc(S(=O)(=O)[O-])c4F)c4nc(c(-c5cccc(S(=O)(=O)[O-])c5F)c5ccc2[nH]5)C=C4)C=C3)cc1
REMARK SMILES IDX 7 1 6 2 5 3 4 4 3 5 2 6 1 7 35 8 36 9 97 10 37 11 96 12
REMARK SMILES IDX 38 13 39 14 40 15 90 16 41 17 95 18 89 19 91 20 42 21 94 22
REMARK SMILES IDX 88 23 87 24 43 26 75 27 55 28 74 29 56 30 59 31 73 32 92 33
REMARK SMILES IDX 57 34 58 35 72 37 93 38 60 39 44 40 45 41 53 42 46 43 48 44
REMARK SMILES IDX 54 45 47 46 49 47 50 48 51 49 52 50 76 51 77 52 85 53 78 54
REMARK SMILES IDX 80 55 86 56 79 57 81 58 82 59 83 60 84 61 61 62 62 63 70 64
REMARK SMILES IDX 63 65 65 66 71 67 64 68 66 69 67 70 68 71 69 72 8 73 9 74
REMARK SMILES IDX 10 75 11 76 12 77 13 78 14 79 15 80 16 81 33 82 30 83 32 84
REMARK SMILES IDX 34 85 31 86 17 87 18 88 19 89 20 91 21 92 29 93 22 94 24 95
REMARK SMILES IDX 23 96 25 97 26 98 27 99 28 100
REMARK H PARENT 91 25 59 36 19 90
REMARK Flexibility Score: inf
ROOT
ATOM      1  C   UNL A   1      34.994  21.309  26.281  1.00  0.00     0.188 C 
ENDROOT
BRANCH   1   2
ATOM      2  O   UNL A   1      35.716  20.996  25.082  1.00  0.00    -0.376 OA
BRANCH   2   3
ATOM      3  C   UNL A   1      36.953  20.313  25.321  1.00  0.00     0.202 C 
BRANCH   3   4
ATOM      4  C   UNL A   1      38.246  21.098  25.032  1.00  0.00     0.261 C 
BRANCH   4   5
ATOM      5  O   UNL A   1      38.537  22.121  25.993  1.00  0.00    -0.460 OA
BRANCH   5   6
ATOM      6  C   UNL A   1      38.195  23.432  25.987  1.00  0.00     0.338 C 
ATOM      7  O   UNL A   1      37.220  23.758  25.311  1.00  0.00    -0.246 OA
BRANCH   6   8
ATOM      8  C   UNL A   1      38.929  24.515  26.726  1.00  0.00     0.060 A 
ATOM      9  C   UNL A   1      38.850  24.787  28.095  1.00  0.00     0.016 A 
ATOM     10  C   UNL A   1      39.792  25.317  25.955  1.00  0.00     0.016 A 
ATOM     11  C   UNL A   1      39.506  25.877  28.660  1.00  0.00     0.010 A 
ATOM     12  C   UNL A   1      40.475  26.400  26.515  1.00  0.00     0.010 A 
ATOM     13  C   UNL A   1      40.283  26.711  27.862  1.00  0.00    -0.014 A 
BRANCH  13  14
ATOM     14  C   UNL A   1      40.708  28.015  28.407  1.00  0.00     0.031 A 
ATOM     15  C   UNL A   1      42.160  28.329  28.375  1.00  0.00     0.074 A 
ATOM     16  C   UNL A   1      39.814  28.890  28.887  1.00  0.00     0.049 A 
ATOM     17  N   UNL A   1      42.770  29.397  28.798  1.00  0.00    -0.248 NA
ATOM     18  C   UNL A   1      43.043  27.303  27.796  1.00  0.00     0.031 C 
ATOM     19  C   UNL A   1      38.392  28.625  28.923  1.00  0.00     0.029 A 
ATOM     20  N   UNL A   1      39.930  30.137  29.433  1.00  0.00    -0.354 N 
ATOM     21  C   UNL A   1      44.118  29.139  28.617  1.00  0.00     0.074 A 
ATOM     22  C   UNL A   1      44.234  27.841  27.993  1.00  0.00     0.031 C 
ATOM     23  C   UNL A   1      37.747  29.663  29.470  1.00  0.00     0.029 A 
ATOM     24  C   UNL A   1      38.724  30.671  29.840  1.00  0.00     0.049 A 
ATOM     25  H   UNL A   1      40.789  30.607  29.529  1.00  0.00     0.167 HD
ATOM     26  C   UNL A   1      45.161  29.910  28.991  1.00  0.00     0.034 A 
ATOM     27  C   UNL A   1      38.448  31.836  30.453  1.00  0.00     0.034 A 
ATOM     28  C   UNL A   1      44.997  31.168  29.663  1.00  0.00     0.049 A 
ATOM     29  C   UNL A   1      39.618  32.706  30.802  1.00  0.00     0.074 A 
ATOM     30  C   UNL A   1      45.969  32.030  30.126  1.00  0.00     0.029 A 
ATOM     31  N   UNL A   1      43.767  31.724  29.998  1.00  0.00    -0.354 N 
ATOM     32  N   UNL A   1      40.891  32.480  30.573  1.00  0.00    -0.248 NA
ATOM     33  C   UNL A   1      39.340  33.972  31.488  1.00  0.00     0.031 C 
ATOM     34  C   UNL A   1      45.327  33.090  30.775  1.00  0.00     0.029 A 
ATOM     35  C   UNL A   1      43.952  32.916  30.672  1.00  0.00     0.049 A 
ATOM     36  H   UNL A   1      42.891  31.327  29.786  1.00  0.00     0.167 HD
ATOM     37  C   UNL A   1      41.572  33.569  31.089  1.00  0.00     0.074 A 
ATOM     38  C   UNL A   1      40.563  34.475  31.611  1.00  0.00     0.031 C 
ATOM     39  C   UNL A   1      42.908  33.792  31.148  1.00  0.00     0.034 A 
BRANCH  26  40
ATOM     40  C   UNL A   1      46.527  29.330  28.764  1.00  0.00     0.023 A 
ATOM     41  C   UNL A   1      47.201  29.550  27.545  1.00  0.00     0.012 A 
ATOM     42  C   UNL A   1      47.094  28.475  29.726  1.00  0.00     0.148 A 
ATOM     43  C   UNL A   1      48.390  28.876  27.263  1.00  0.00     0.002 A 
ATOM     44  C   UNL A   1      48.302  27.845  29.458  1.00  0.00     0.091 A 
ATOM     45  F   UNL A   1      46.415  28.246  30.859  1.00  0.00    -0.205 F 
ATOM     46  C   UNL A   1      48.941  28.028  28.221  1.00  0.00     0.022 A 
BRANCH  44  47
ATOM     47  S   UNL A   1      49.115  26.779  30.650  1.00  0.00     0.127 S 
ATOM     48  O   UNL A   1      49.286  27.683  31.785  1.00  0.00    -0.237 OA
ATOM     49  O   UNL A   1      48.115  25.728  30.849  1.00  0.00    -0.237 OA
ATOM     50  O   UNL A   1      50.346  26.330  30.013  1.00  0.00    -0.744 OA
ENDBRANCH  44  47
ENDBRANCH  26  40
BRANCH  27  51
ATOM     51  C   UNL A   1      37.032  32.231  30.721  1.00  0.00     0.023 A 
ATOM     52  C   UNL A   1      36.507  32.099  32.023  1.00  0.00     0.012 A 
ATOM     53  C   UNL A   1      36.232  32.828  29.725  1.00  0.00     0.148 A 
ATOM     54  C   UNL A   1      35.221  32.553  32.324  1.00  0.00     0.002 A 
ATOM     55  C   UNL A   1      34.971  33.325  30.043  1.00  0.00     0.091 A 
ATOM     56  F   UNL A   1      36.733  32.922  28.484  1.00  0.00    -0.205 F 
ATOM     57  C   UNL A   1      34.461  33.182  31.342  1.00  0.00     0.022 A 
BRANCH  55  58
ATOM     58  S   UNL A   1      33.966  34.239  28.865  1.00  0.00     0.127 S 
ATOM     59  O   UNL A   1      32.866  34.698  29.711  1.00  0.00    -0.237 OA
ATOM     60  O   UNL A   1      34.881  35.295  28.430  1.00  0.00    -0.237 OA
ATOM     61  O   UNL A   1      33.605  33.280  27.831  1.00  0.00    -0.744 OA
ENDBRANCH  55  58
ENDBRANCH  27  51
BRANCH  39  62
ATOM     62  C   UNL A   1      43.356  35.078  31.777  1.00  0.00     0.023 A 
ATOM     63  C   UNL A   1      43.633  36.197  30.970  1.00  0.00     0.012 A 
ATOM     64  C   UNL A   1      43.371  35.197  33.178  1.00  0.00     0.148 A 
ATOM     65  C   UNL A   1      43.929  37.425  31.558  1.00  0.00     0.002 A 
ATOM     66  C   UNL A   1      43.614  36.433  33.754  1.00  0.00     0.091 A 
ATOM     67  F   UNL A   1      43.123  34.103  33.914  1.00  0.00    -0.205 F 
ATOM     68  C   UNL A   1      43.903  37.547  32.947  1.00  0.00     0.022 A 
BRANCH  66  69
ATOM     69  S   UNL A   1      43.489  36.705  35.522  1.00  0.00     0.127 S 
ATOM     70  O   UNL A   1      42.093  36.354  35.779  1.00  0.00    -0.237 OA
ATOM     71  O   UNL A   1      44.468  35.754  36.049  1.00  0.00    -0.237 OA
ATOM     72  O   UNL A   1      43.824  38.106  35.741  1.00  0.00    -0.744 OA
ENDBRANCH  66  69
ENDBRANCH  39  62
ENDBRANCH  13  14
ENDBRANCH   6   8
ENDBRANCH   5   6
ENDBRANCH   4   5
ENDBRANCH   3   4
ENDBRANCH   2   3
ENDBRANCH   1   2
BRANCH   1  73
ATOM     73  C   UNL A   1      33.476  21.391  26.124  1.00  0.00     0.188 C 
BRANCH  73  74
ATOM     74  O   UNL A   1      32.977  22.108  25.004  1.00  0.00    -0.376 OA
BRANCH  74  75
ATOM     75  C   UNL A   1      32.011  23.108  25.277  1.00  0.00     0.202 C 
BRANCH  75  76
ATOM     76  C   UNL A   1      32.272  24.113  26.403  1.00  0.00     0.261 C 
BRANCH  76  77
ATOM     77  O   UNL A   1      32.583  25.469  26.039  1.00  0.00    -0.463 OA
BRANCH  77  78
ATOM     78  C   UNL A   1      31.510  26.295  25.906  1.00  0.00     0.312 C 
ATOM     79  O   UNL A   1      30.373  26.006  26.273  1.00  0.00    -0.252 OA
BRANCH  78  80
ATOM     80  C   UNL A   1      31.812  27.601  25.227  1.00  0.00     0.147 C 
ATOM     81  C   UNL A   1      33.190  27.826  24.561  1.00  0.00     0.129 C 
ATOM     82  C   UNL A   1      31.749  28.751  26.245  1.00  0.00     0.157 C 
ATOM     83  C   UNL A   1      33.581  29.195  25.185  1.00  0.00     0.155 C 
ATOM     84  C   UNL A   1      32.853  28.717  27.270  1.00  0.00     0.004 C 
ATOM     85  O   UNL A   1      32.285  29.804  25.422  1.00  0.00    -0.365 OA
ATOM     86  C   UNL A   1      33.989  28.983  26.613  1.00  0.00     0.004 C 
BRANCH  81  87
ATOM     87  C   UNL A   1      33.075  28.002  23.050  1.00  0.00     0.231 C 
ATOM     88  O   UNL A   1      34.033  28.273  22.333  1.00  0.00    -0.274 OA
ATOM     89  N   UNL A   1      31.869  27.697  22.468  1.00  0.00    -0.326 N 
ATOM     90  H   UNL A   1      31.899  27.070  21.709  1.00  0.00     0.169 HD
BRANCH  89  91
ATOM     91  C   UNL A   1      30.605  28.171  22.828  1.00  0.00     0.041 A 
ATOM     92  C   UNL A   1      29.589  27.253  23.088  1.00  0.00     0.026 A 
ATOM     93  C   UNL A   1      30.312  29.532  22.761  1.00  0.00     0.039 A 
ATOM     94  C   UNL A   1      28.300  27.703  23.377  1.00  0.00     0.003 A 
ATOM     95  C   UNL A   1      29.007  29.992  22.982  1.00  0.00     0.058 A 
ATOM     96  C   UNL A   1      28.009  29.068  23.326  1.00  0.00     0.013 A 
BRANCH  95  97
ATOM     97  C   UNL A   1      28.668  31.447  22.790  1.00  0.00     0.416 C 
ATOM     98  F   UNL A   1      27.391  31.641  22.364  1.00  0.00    -0.166 F 
ATOM     99  F   UNL A   1      28.788  32.168  23.943  1.00  0.00    -0.166 F 
ATOM    100  F   UNL A   1      29.465  32.079  21.883  1.00  0.00    -0.166 F 
ENDBRANCH  95  97
ENDBRANCH  89  91
ENDBRANCH  81  87
ENDBRANCH  78  80
ENDBRANCH  77  78
ENDBRANCH  76  77
ENDBRANCH  75  76
ENDBRANCH  74  75
ENDBRANCH  73  74
ENDBRANCH   1  73
TORSDOF 23
ENDMDL
