MODEL 1
REMARK VINA RESULT:     -10.3      0.000      0.000
REMARK SMILES CCOc1ccc(-n2nnc(-c3nc(C)c(C(=O)OCCOCCOCCOC(=O)c4ccc(-c5c6nc(c(-c7cccc(S(=O)(=O)[O-])c7F)c7ccc([nH]7)c(-c7cccc(S(=O)(=O)[O-])c7F)c7nc(c(-c8cccc(S(=O)(=O)[O-])c8F)c8ccc5[nH]8)C=C7)C=C6)cc4)s3)c2C)cc1
REMARK SMILES IDX 23 1 22 2 21 3 20 4 19 5 17 6 18 7 16 8 12 9 13 10 94 11
REMARK SMILES IDX 14 12 15 13 11 14 8 15 9 16 95 17 10 18 96 19 7 20 4 21 5 22
REMARK SMILES IDX 98 23 6 24 97 25 3 26 2 27 1 28 24 29 25 30 26 31 27 32
REMARK SMILES IDX 28 33 29 34 30 35 31 36 32 37 93 38 33 39 92 40 34 41 35 42
REMARK SMILES IDX 36 43 86 44 37 45 91 46 85 47 87 48 38 49 90 50 84 51 83 52
REMARK SMILES IDX 39 54 71 55 51 56 70 57 52 58 55 59 69 60 88 61 53 62 54 63
REMARK SMILES IDX 68 65 89 66 56 67 40 68 41 69 49 70 42 71 44 72 50 73 43 74
REMARK SMILES IDX 45 75 46 76 47 77 48 78 72 79 73 80 81 81 74 82 76 83 82 84
REMARK SMILES IDX 75 85 77 86 78 87 79 88 80 89 57 90 58 91 66 92 59 93 61 94
REMARK SMILES IDX 67 95 60 96 62 97 63 98 64 99 65 100
REMARK H PARENT 87 53 55 64
REMARK Flexibility Score: inf
ROOT
ATOM      1  C   UNL A   1      40.427  22.285  27.085  1.00  0.00     0.188 C 
ENDROOT
BRANCH   1   2
ATOM      2  O   UNL A   1      39.195  22.777  26.567  1.00  0.00    -0.376 OA
BRANCH   2   3
ATOM      3  C   UNL A   1      38.376  21.959  25.741  1.00  0.00     0.202 C 
BRANCH   3   4
ATOM      4  C   UNL A   1      37.046  22.518  25.208  1.00  0.00     0.261 C 
BRANCH   4   5
ATOM      5  O   UNL A   1      36.369  21.635  24.306  1.00  0.00    -0.459 OA
BRANCH   5   6
ATOM      6  C   UNL A   1      35.545  20.688  24.851  1.00  0.00     0.350 C 
ATOM      7  O   UNL A   1      35.884  19.581  25.195  1.00  0.00    -0.245 OA
BRANCH   6   8
ATOM      8  C   UNL A   1      34.228  21.261  25.050  1.00  0.00     0.135 A 
ATOM      9  C   UNL A   1      32.365  22.735  25.493  1.00  0.00     0.146 A 
ATOM     10  N   UNL A   1      31.903  21.592  25.037  1.00  0.00    -0.239 NA
ATOM     11  S   UNL A   1      34.047  22.758  25.838  1.00  0.00    -0.105 S 
ATOM     12  C   UNL A   1      32.976  20.743  24.745  1.00  0.00     0.064 A 
ATOM     13  C   UNL A   1      32.672  19.399  24.182  1.00  0.00     0.068 C 
BRANCH   9  14
ATOM     14  C   UNL A   1      31.590  24.008  25.558  1.00  0.00     0.145 A 
ATOM     15  N   UNL A   1      30.955  26.029  25.104  1.00  0.00    -0.217 N 
ATOM     16  N   UNL A   1      30.432  25.691  26.303  1.00  0.00    -0.061 NA
ATOM     17  C   UNL A   1      31.740  25.007  24.615  1.00  0.00     0.072 A 
ATOM     18  N   UNL A   1      30.721  24.409  26.529  1.00  0.00    -0.127 NA
ATOM     19  C   UNL A   1      32.600  25.048  23.400  1.00  0.00     0.069 C 
BRANCH  15  20
ATOM     20  C   UNL A   1      30.772  27.293  24.511  1.00  0.00     0.067 A 
ATOM     21  C   UNL A   1      30.030  29.870  23.802  1.00  0.00     0.119 A 
ATOM     22  C   UNL A   1      29.427  28.775  23.176  1.00  0.00     0.048 A 
ATOM     23  C   UNL A   1      31.021  29.676  24.759  1.00  0.00     0.048 A 
ATOM     24  C   UNL A   1      29.811  27.470  23.513  1.00  0.00     0.032 A 
ATOM     25  C   UNL A   1      31.421  28.390  25.085  1.00  0.00     0.032 A 
BRANCH  21  26
ATOM     26  O   UNL A   1      29.533  31.120  23.559  1.00  0.00    -0.494 OA
BRANCH  26  27
ATOM     27  C   UNL A   1      28.102  31.178  23.589  1.00  0.00     0.226 C 
ATOM     28  C   UNL A   1      27.490  31.499  22.233  1.00  0.00     0.049 C 
ENDBRANCH  26  27
ENDBRANCH  21  26
ENDBRANCH  15  20
ENDBRANCH   9  14
ENDBRANCH   6   8
ENDBRANCH   5   6
ENDBRANCH   4   5
ENDBRANCH   3   4
ENDBRANCH   2   3
ENDBRANCH   1   2
BRANCH   1  29
ATOM     29  C   UNL A   1      41.726  23.110  26.962  1.00  0.00     0.188 C 
BRANCH  29  30
ATOM     30  O   UNL A   1      42.897  22.337  26.779  1.00  0.00    -0.376 OA
BRANCH  30  31
ATOM     31  C   UNL A   1      43.390  22.205  25.452  1.00  0.00     0.202 C 
BRANCH  31  32
ATOM     32  C   UNL A   1      44.218  23.347  24.860  1.00  0.00     0.261 C 
BRANCH  32  33
ATOM     33  O   UNL A   1      43.564  24.602  24.795  1.00  0.00    -0.460 OA
BRANCH  33  34
ATOM     34  C   UNL A   1      44.303  25.661  25.178  1.00  0.00     0.338 C 
ATOM     35  O   UNL A   1      45.457  25.902  24.868  1.00  0.00    -0.246 OA
BRANCH  34  36
ATOM     36  C   UNL A   1      43.500  26.459  26.106  1.00  0.00     0.060 A 
ATOM     37  C   UNL A   1      42.647  27.417  25.557  1.00  0.00     0.016 A 
ATOM     38  C   UNL A   1      43.827  26.434  27.471  1.00  0.00     0.016 A 
ATOM     39  C   UNL A   1      42.298  28.491  26.341  1.00  0.00     0.010 A 
ATOM     40  C   UNL A   1      43.496  27.516  28.245  1.00  0.00     0.010 A 
ATOM     41  C   UNL A   1      42.814  28.568  27.639  1.00  0.00    -0.014 A 
BRANCH  41  42
ATOM     42  C   UNL A   1      42.600  29.791  28.374  1.00  0.00     0.031 A 
ATOM     43  C   UNL A   1      43.671  30.785  28.183  1.00  0.00     0.074 A 
ATOM     44  C   UNL A   1      41.475  30.003  29.081  1.00  0.00     0.049 A 
ATOM     45  N   UNL A   1      44.510  31.211  29.066  1.00  0.00    -0.248 NA
ATOM     46  C   UNL A   1      43.950  31.232  26.811  1.00  0.00     0.031 C 
ATOM     47  C   UNL A   1      40.253  29.193  29.077  1.00  0.00     0.029 A 
ATOM     48  N   UNL A   1      41.131  31.085  29.831  1.00  0.00    -0.354 N 
ATOM     49  C   UNL A   1      45.254  32.183  28.409  1.00  0.00     0.074 A 
ATOM     50  C   UNL A   1      45.029  31.990  27.002  1.00  0.00     0.031 C 
ATOM     51  C   UNL A   1      39.236  29.937  29.564  1.00  0.00     0.029 A 
ATOM     52  C   UNL A   1      39.758  31.218  30.007  1.00  0.00     0.049 A 
ATOM     53  H   UNL A   1      41.788  31.712  30.211  1.00  0.00     0.167 HD
ATOM     54  C   UNL A   1      45.741  33.257  29.083  1.00  0.00     0.034 A 
ATOM     55  C   UNL A   1      39.104  32.345  30.379  1.00  0.00     0.034 A 
ATOM     56  C   UNL A   1      45.783  33.022  30.505  1.00  0.00     0.049 A 
ATOM     57  C   UNL A   1      40.096  33.253  31.006  1.00  0.00     0.074 A 
ATOM     58  C   UNL A   1      46.322  32.040  31.315  1.00  0.00     0.029 A 
ATOM     59  N   UNL A   1      44.874  33.696  31.284  1.00  0.00    -0.354 N 
ATOM     60  N   UNL A   1      40.657  33.030  32.162  1.00  0.00    -0.248 NA
ATOM     61  C   UNL A   1      40.780  34.215  30.155  1.00  0.00     0.031 C 
ATOM     62  C   UNL A   1      45.382  31.876  32.373  1.00  0.00     0.029 A 
ATOM     63  C   UNL A   1      44.355  32.801  32.179  1.00  0.00     0.049 A 
ATOM     64  H   UNL A   1      44.638  34.649  31.212  1.00  0.00     0.167 HD
ATOM     65  C   UNL A   1      41.969  33.456  31.996  1.00  0.00     0.074 A 
ATOM     66  C   UNL A   1      41.951  34.283  30.794  1.00  0.00     0.031 C 
ATOM     67  C   UNL A   1      42.995  32.855  32.668  1.00  0.00     0.034 A 
BRANCH  54  68
ATOM     68  C   UNL A   1      45.784  34.656  28.510  1.00  0.00     0.023 A 
ATOM     69  C   UNL A   1      44.551  35.331  28.382  1.00  0.00     0.012 A 
ATOM     70  C   UNL A   1      46.892  35.212  27.829  1.00  0.00     0.148 A 
ATOM     71  C   UNL A   1      44.413  36.452  27.558  1.00  0.00     0.002 A 
ATOM     72  C   UNL A   1      46.770  36.378  27.086  1.00  0.00     0.091 A 
ATOM     73  F   UNL A   1      48.051  34.551  27.764  1.00  0.00    -0.205 F 
ATOM     74  C   UNL A   1      45.524  36.981  26.914  1.00  0.00     0.022 A 
BRANCH  72  75
ATOM     75  S   UNL A   1      48.196  37.126  26.290  1.00  0.00     0.127 S 
ATOM     76  O   UNL A   1      48.580  36.085  25.342  1.00  0.00    -0.237 OA
ATOM     77  O   UNL A   1      47.609  38.327  25.692  1.00  0.00    -0.237 OA
ATOM     78  O   UNL A   1      49.142  37.402  27.365  1.00  0.00    -0.744 OA
ENDBRANCH  72  75
ENDBRANCH  54  68
BRANCH  55  79
ATOM     79  C   UNL A   1      37.740  32.805  30.028  1.00  0.00     0.023 A 
ATOM     80  C   UNL A   1      37.202  32.465  28.771  1.00  0.00     0.012 A 
ATOM     81  C   UNL A   1      36.865  33.345  30.999  1.00  0.00     0.148 A 
ATOM     82  C   UNL A   1      35.838  32.626  28.501  1.00  0.00     0.002 A 
ATOM     83  C   UNL A   1      35.513  33.522  30.719  1.00  0.00     0.091 A 
ATOM     84  F   UNL A   1      37.332  33.595  32.230  1.00  0.00    -0.205 F 
ATOM     85  C   UNL A   1      34.992  33.150  29.475  1.00  0.00     0.022 A 
BRANCH  83  86
ATOM     86  S   UNL A   1      34.372  34.193  31.936  1.00  0.00     0.127 S 
ATOM     87  O   UNL A   1      34.168  33.051  32.829  1.00  0.00    -0.237 OA
ATOM     88  O   UNL A   1      35.148  35.288  32.510  1.00  0.00    -0.237 OA
ATOM     89  O   UNL A   1      33.182  34.580  31.188  1.00  0.00    -0.744 OA
ENDBRANCH  83  86
ENDBRANCH  55  79
BRANCH  67  90
ATOM     90  C   UNL A   1      42.671  31.947  33.826  1.00  0.00     0.023 A 
ATOM     91  C   UNL A   1      42.472  32.431  35.135  1.00  0.00     0.012 A 
ATOM     92  C   UNL A   1      42.386  30.597  33.551  1.00  0.00     0.148 A 
ATOM     93  C   UNL A   1      42.028  31.582  36.151  1.00  0.00     0.002 A 
ATOM     94  C   UNL A   1      41.893  29.770  34.553  1.00  0.00     0.091 A 
ATOM     95  F   UNL A   1      42.578  30.146  32.302  1.00  0.00    -0.205 F 
ATOM     96  C   UNL A   1      41.724  30.255  35.858  1.00  0.00     0.022 A 
BRANCH  94  97
ATOM     97  S   UNL A   1      41.359  28.095  34.192  1.00  0.00     0.127 S 
ATOM     98  O   UNL A   1      42.558  27.511  33.594  1.00  0.00    -0.237 OA
ATOM     99  O   UNL A   1      41.022  27.574  35.519  1.00  0.00    -0.237 OA
ATOM    100  O   UNL A   1      40.211  28.232  33.304  1.00  0.00    -0.744 OA
ENDBRANCH  94  97
ENDBRANCH  67  90
ENDBRANCH  41  42
ENDBRANCH  34  36
ENDBRANCH  33  34
ENDBRANCH  32  33
ENDBRANCH  31  32
ENDBRANCH  30  31
ENDBRANCH  29  30
ENDBRANCH   1  29
TORSDOF 24
ENDMDL
MODEL 2
REMARK VINA RESULT:     -10.2      1.640      2.044
REMARK SMILES CCOc1ccc(-n2nnc(-c3nc(C)c(C(=O)OCCOCCOCCOC(=O)c4ccc(-c5c6nc(c(-c7cccc(S(=O)(=O)[O-])c7F)c7ccc([nH]7)c(-c7cccc(S(=O)(=O)[O-])c7F)c7nc(c(-c8cccc(S(=O)(=O)[O-])c8F)c8ccc5[nH]8)C=C7)C=C6)cc4)s3)c2C)cc1
REMARK SMILES IDX 23 1 22 2 21 3 20 4 19 5 17 6 18 7 16 8 12 9 13 10 94 11
REMARK SMILES IDX 14 12 15 13 11 14 8 15 9 16 95 17 10 18 96 19 7 20 4 21 5 22
REMARK SMILES IDX 98 23 6 24 97 25 3 26 2 27 1 28 24 29 25 30 26 31 27 32
REMARK SMILES IDX 28 33 29 34 30 35 31 36 32 37 93 38 33 39 92 40 34 41 35 42
REMARK SMILES IDX 36 43 86 44 37 45 91 46 85 47 87 48 38 49 90 50 84 51 83 52
REMARK SMILES IDX 39 54 71 55 51 56 70 57 52 58 55 59 69 60 88 61 53 62 54 63
REMARK SMILES IDX 68 65 89 66 56 67 40 68 41 69 49 70 42 71 44 72 50 73 43 74
REMARK SMILES IDX 45 75 46 76 47 77 48 78 72 79 73 80 81 81 74 82 76 83 82 84
REMARK SMILES IDX 75 85 77 86 78 87 79 88 80 89 57 90 58 91 66 92 59 93 61 94
REMARK SMILES IDX 67 95 60 96 62 97 63 98 64 99 65 100
REMARK H PARENT 87 53 55 64
REMARK Flexibility Score: inf
ROOT
ATOM      1  C   UNL A   1      39.473  21.271  26.145  1.00  0.00     0.188 C 
ENDROOT
BRANCH   1   2
ATOM      2  O   UNL A   1      38.518  21.377  25.094  1.00  0.00    -0.376 OA
BRANCH   2   3
ATOM      3  C   UNL A   1      37.150  21.635  25.380  1.00  0.00     0.202 C 
BRANCH   3   4
ATOM      4  C   UNL A   1      36.121  20.501  25.239  1.00  0.00     0.261 C 
BRANCH   4   5
ATOM      5  O   UNL A   1      35.004  20.834  24.408  1.00  0.00    -0.459 OA
BRANCH   5   6
ATOM      6  C   UNL A   1      33.756  20.756  24.966  1.00  0.00     0.350 C 
ATOM      7  O   UNL A   1      33.204  19.735  25.300  1.00  0.00    -0.245 OA
BRANCH   6   8
ATOM      8  C   UNL A   1      33.253  22.096  25.193  1.00  0.00     0.135 A 
ATOM      9  C   UNL A   1      32.074  24.201  25.063  1.00  0.00     0.146 A 
ATOM     10  N   UNL A   1      32.738  24.156  26.196  1.00  0.00    -0.239 NA
ATOM     11  S   UNL A   1      32.408  22.921  23.968  1.00  0.00    -0.105 S 
ATOM     12  C   UNL A   1      33.397  22.926  26.297  1.00  0.00     0.064 A 
ATOM     13  C   UNL A   1      34.188  22.655  27.529  1.00  0.00     0.068 C 
BRANCH   9  14
ATOM     14  C   UNL A   1      30.967  25.153  24.755  1.00  0.00     0.145 A 
ATOM     15  N   UNL A   1      29.891  26.795  23.836  1.00  0.00    -0.217 N 
ATOM     16  N   UNL A   1      29.231  26.445  24.962  1.00  0.00    -0.061 NA
ATOM     17  C   UNL A   1      31.031  26.033  23.691  1.00  0.00     0.072 A 
ATOM     18  N   UNL A   1      29.822  25.360  25.464  1.00  0.00    -0.127 NA
ATOM     19  C   UNL A   1      32.095  26.210  22.664  1.00  0.00     0.069 C 
BRANCH  15  20
ATOM     20  C   UNL A   1      29.488  27.855  23.002  1.00  0.00     0.067 A 
ATOM     21  C   UNL A   1      28.827  30.283  21.837  1.00  0.00     0.119 A 
ATOM     22  C   UNL A   1      27.823  29.474  22.376  1.00  0.00     0.048 A 
ATOM     23  C   UNL A   1      30.154  29.866  21.856  1.00  0.00     0.048 A 
ATOM     24  C   UNL A   1      28.145  28.236  22.947  1.00  0.00     0.032 A 
ATOM     25  C   UNL A   1      30.480  28.635  22.401  1.00  0.00     0.032 A 
BRANCH  21  26
ATOM     26  O   UNL A   1      28.500  31.544  21.421  1.00  0.00    -0.494 OA
BRANCH  26  27
ATOM     27  C   UNL A   1      28.823  32.560  22.378  1.00  0.00     0.226 C 
ATOM     28  C   UNL A   1      28.880  32.036  23.806  1.00  0.00     0.049 C 
ENDBRANCH  26  27
ENDBRANCH  21  26
ENDBRANCH  15  20
ENDBRANCH   9  14
ENDBRANCH   6   8
ENDBRANCH   5   6
ENDBRANCH   4   5
ENDBRANCH   3   4
ENDBRANCH   2   3
ENDBRANCH   1   2
BRANCH   1  29
ATOM     29  C   UNL A   1      40.424  20.058  26.233  1.00  0.00     0.188 C 
BRANCH  29  30
ATOM     30  O   UNL A   1      41.718  20.362  26.719  1.00  0.00    -0.376 OA
BRANCH  30  31
ATOM     31  C   UNL A   1      41.826  21.412  27.673  1.00  0.00     0.202 C 
BRANCH  31  32
ATOM     32  C   UNL A   1      43.034  22.348  27.599  1.00  0.00     0.261 C 
BRANCH  32  33
ATOM     33  O   UNL A   1      42.841  23.635  28.161  1.00  0.00    -0.460 OA
BRANCH  33  34
ATOM     34  C   UNL A   1      42.262  24.540  27.349  1.00  0.00     0.338 C 
ATOM     35  O   UNL A   1      42.210  24.508  26.132  1.00  0.00    -0.246 OA
BRANCH  34  36
ATOM     36  C   UNL A   1      41.751  25.630  28.182  1.00  0.00     0.060 A 
ATOM     37  C   UNL A   1      40.720  26.411  27.657  1.00  0.00     0.016 A 
ATOM     38  C   UNL A   1      42.493  26.019  29.308  1.00  0.00     0.016 A 
ATOM     39  C   UNL A   1      40.581  27.694  28.132  1.00  0.00     0.010 A 
ATOM     40  C   UNL A   1      42.367  27.305  29.765  1.00  0.00     0.010 A 
ATOM     41  C   UNL A   1      41.475  28.147  29.107  1.00  0.00    -0.014 A 
BRANCH  41  42
ATOM     42  C   UNL A   1      41.440  29.549  29.447  1.00  0.00     0.031 A 
ATOM     43  C   UNL A   1      42.650  30.284  29.035  1.00  0.00     0.074 A 
ATOM     44  C   UNL A   1      40.353  30.115  30.004  1.00  0.00     0.049 A 
ATOM     45  N   UNL A   1      43.535  30.826  29.801  1.00  0.00    -0.248 NA
ATOM     46  C   UNL A   1      43.005  30.267  27.609  1.00  0.00     0.031 C 
ATOM     47  C   UNL A   1      39.024  29.519  30.169  1.00  0.00     0.029 A 
ATOM     48  N   UNL A   1      40.168  31.406  30.392  1.00  0.00    -0.354 N 
ATOM     49  C   UNL A   1      44.422  31.448  28.933  1.00  0.00     0.074 A 
ATOM     50  C   UNL A   1      44.184  30.888  27.630  1.00  0.00     0.031 C 
ATOM     51  C   UNL A   1      38.125  30.508  30.367  1.00  0.00     0.029 A 
ATOM     52  C   UNL A   1      38.829  31.775  30.450  1.00  0.00     0.049 A 
ATOM     53  H   UNL A   1      40.908  32.017  30.610  1.00  0.00     0.167 HD
ATOM     54  C   UNL A   1      45.059  32.593  29.294  1.00  0.00     0.034 A 
ATOM     55  C   UNL A   1      38.348  33.043  30.448  1.00  0.00     0.034 A 
ATOM     56  C   UNL A   1      45.051  32.780  30.724  1.00  0.00     0.049 A 
ATOM     57  C   UNL A   1      39.460  33.945  30.839  1.00  0.00     0.074 A 
ATOM     58  C   UNL A   1      45.430  32.011  31.809  1.00  0.00     0.029 A 
ATOM     59  N   UNL A   1      44.247  33.773  31.228  1.00  0.00    -0.354 N 
ATOM     60  N   UNL A   1      39.970  33.993  32.038  1.00  0.00    -0.248 NA
ATOM     61  C   UNL A   1      40.288  34.510  29.784  1.00  0.00     0.031 C 
ATOM     62  C   UNL A   1      44.467  32.297  32.818  1.00  0.00     0.029 A 
ATOM     63  C   UNL A   1      43.591  33.260  32.313  1.00  0.00     0.049 A 
ATOM     64  H   UNL A   1      44.157  34.686  30.872  1.00  0.00     0.167 HD
ATOM     65  C   UNL A   1      41.332  34.162  31.826  1.00  0.00     0.074 A 
ATOM     66  C   UNL A   1      41.449  34.597  30.437  1.00  0.00     0.031 C 
ATOM     67  C   UNL A   1      42.251  33.645  32.695  1.00  0.00     0.034 A 
BRANCH  54  68
ATOM     68  C   UNL A   1      45.315  33.744  28.346  1.00  0.00     0.023 A 
ATOM     69  C   UNL A   1      44.237  34.153  27.533  1.00  0.00     0.012 A 
ATOM     70  C   UNL A   1      46.599  34.229  28.002  1.00  0.00     0.148 A 
ATOM     71  C   UNL A   1      44.438  34.939  26.394  1.00  0.00     0.002 A 
ATOM     72  C   UNL A   1      46.779  35.084  26.924  1.00  0.00     0.091 A 
ATOM     73  F   UNL A   1      47.689  33.763  28.617  1.00  0.00    -0.205 F 
ATOM     74  C   UNL A   1      45.709  35.411  26.092  1.00  0.00     0.022 A 
BRANCH  72  75
ATOM     75  S   UNL A   1      48.397  35.765  26.538  1.00  0.00     0.127 S 
ATOM     76  O   UNL A   1      49.278  34.688  26.977  1.00  0.00    -0.237 OA
ATOM     77  O   UNL A   1      48.308  35.944  25.087  1.00  0.00    -0.237 OA
ATOM     78  O   UNL A   1      48.482  37.014  27.285  1.00  0.00    -0.744 OA
ENDBRANCH  72  75
ENDBRANCH  54  68
BRANCH  55  79
ATOM     79  C   UNL A   1      37.071  33.567  29.909  1.00  0.00     0.023 A 
ATOM     80  C   UNL A   1      36.711  33.267  28.581  1.00  0.00     0.012 A 
ATOM     81  C   UNL A   1      36.086  34.134  30.751  1.00  0.00     0.148 A 
ATOM     82  C   UNL A   1      35.410  33.493  28.115  1.00  0.00     0.002 A 
ATOM     83  C   UNL A   1      34.800  34.375  30.278  1.00  0.00     0.091 A 
ATOM     84  F   UNL A   1      36.377  34.348  32.041  1.00  0.00    -0.205 F 
ATOM     85  C   UNL A   1      34.453  34.042  28.964  1.00  0.00     0.022 A 
BRANCH  83  86
ATOM     86  S   UNL A   1      33.521  35.082  31.327  1.00  0.00     0.127 S 
ATOM     87  O   UNL A   1      32.404  35.229  30.392  1.00  0.00    -0.237 OA
ATOM     88  O   UNL A   1      33.343  34.041  32.334  1.00  0.00    -0.237 OA
ATOM     89  O   UNL A   1      34.062  36.347  31.808  1.00  0.00    -0.744 OA
ENDBRANCH  83  86
ENDBRANCH  55  79
BRANCH  67  90
ATOM     90  C   UNL A   1      41.784  33.170  34.046  1.00  0.00     0.023 A 
ATOM     91  C   UNL A   1      41.713  34.024  35.166  1.00  0.00     0.012 A 
ATOM     92  C   UNL A   1      41.236  31.877  34.142  1.00  0.00     0.148 A 
ATOM     93  C   UNL A   1      41.136  33.588  36.361  1.00  0.00     0.002 A 
ATOM     94  C   UNL A   1      40.616  31.468  35.316  1.00  0.00     0.091 A 
ATOM     95  F   UNL A   1      41.308  31.074  33.070  1.00  0.00    -0.205 F 
ATOM     96  C   UNL A   1      40.574  32.316  36.432  1.00  0.00     0.022 A 
BRANCH  94  97
ATOM     97  S   UNL A   1      39.759  29.894  35.410  1.00  0.00     0.127 S 
ATOM     98  O   UNL A   1      40.816  28.994  35.866  1.00  0.00    -0.237 OA
ATOM     99  O   UNL A   1      38.713  30.158  36.400  1.00  0.00    -0.237 OA
ATOM    100  O   UNL A   1      39.250  29.643  34.067  1.00  0.00    -0.744 OA
ENDBRANCH  94  97
ENDBRANCH  67  90
ENDBRANCH  41  42
ENDBRANCH  34  36
ENDBRANCH  33  34
ENDBRANCH  32  33
ENDBRANCH  31  32
ENDBRANCH  30  31
ENDBRANCH  29  30
ENDBRANCH   1  29
TORSDOF 24
ENDMDL
MODEL 3
REMARK VINA RESULT:     -10.0      2.555      6.534
REMARK SMILES CCOc1ccc(-n2nnc(-c3nc(C)c(C(=O)OCCOCCOCCOC(=O)c4ccc(-c5c6nc(c(-c7cccc(S(=O)(=O)[O-])c7F)c7ccc([nH]7)c(-c7cccc(S(=O)(=O)[O-])c7F)c7nc(c(-c8cccc(S(=O)(=O)[O-])c8F)c8ccc5[nH]8)C=C7)C=C6)cc4)s3)c2C)cc1
REMARK SMILES IDX 23 1 22 2 21 3 20 4 19 5 17 6 18 7 16 8 12 9 13 10 94 11
REMARK SMILES IDX 14 12 15 13 11 14 8 15 9 16 95 17 10 18 96 19 7 20 4 21 5 22
REMARK SMILES IDX 98 23 6 24 97 25 3 26 2 27 1 28 24 29 25 30 26 31 27 32
REMARK SMILES IDX 28 33 29 34 30 35 31 36 32 37 93 38 33 39 92 40 34 41 35 42
REMARK SMILES IDX 36 43 86 44 37 45 91 46 85 47 87 48 38 49 90 50 84 51 83 52
REMARK SMILES IDX 39 54 71 55 51 56 70 57 52 58 55 59 69 60 88 61 53 62 54 63
REMARK SMILES IDX 68 65 89 66 56 67 40 68 41 69 49 70 42 71 44 72 50 73 43 74
REMARK SMILES IDX 45 75 46 76 47 77 48 78 72 79 73 80 81 81 74 82 76 83 82 84
REMARK SMILES IDX 75 85 77 86 78 87 79 88 80 89 57 90 58 91 66 92 59 93 61 94
REMARK SMILES IDX 67 95 60 96 62 97 63 98 64 99 65 100
REMARK H PARENT 87 53 55 64
REMARK Flexibility Score: inf
ROOT
ATOM      1  C   UNL A   1      38.719  24.201  26.339  1.00  0.00     0.188 C 
ENDROOT
BRANCH   1   2
ATOM      2  O   UNL A   1      37.654  23.284  26.112  1.00  0.00    -0.376 OA
BRANCH   2   3
ATOM      3  C   UNL A   1      37.134  23.084  24.804  1.00  0.00     0.202 C 
BRANCH   3   4
ATOM      4  C   UNL A   1      36.835  21.655  24.320  1.00  0.00     0.261 C 
BRANCH   4   5
ATOM      5  O   UNL A   1      36.297  20.802  25.336  1.00  0.00    -0.459 OA
BRANCH   5   6
ATOM      6  C   UNL A   1      35.323  19.914  24.964  1.00  0.00     0.350 C 
ATOM      7  O   UNL A   1      35.512  18.767  24.637  1.00  0.00    -0.245 OA
BRANCH   6   8
ATOM      8  C   UNL A   1      34.025  20.537  25.130  1.00  0.00     0.135 A 
ATOM      9  C   UNL A   1      32.203  22.037  25.648  1.00  0.00     0.146 A 
ATOM     10  N   UNL A   1      31.737  21.032  24.939  1.00  0.00    -0.239 NA
ATOM     11  S   UNL A   1      33.833  21.875  26.162  1.00  0.00    -0.105 S 
ATOM     12  C   UNL A   1      32.790  20.175  24.606  1.00  0.00     0.064 A 
ATOM     13  C   UNL A   1      32.483  18.981  23.772  1.00  0.00     0.068 C 
BRANCH   9  14
ATOM     14  C   UNL A   1      31.492  23.330  25.870  1.00  0.00     0.145 A 
ATOM     15  N   UNL A   1      30.645  25.283  25.463  1.00  0.00    -0.217 N 
ATOM     16  N   UNL A   1      30.734  25.141  26.805  1.00  0.00    -0.061 NA
ATOM     17  C   UNL A   1      31.162  24.175  24.827  1.00  0.00     0.072 A 
ATOM     18  N   UNL A   1      31.143  23.898  27.059  1.00  0.00    -0.127 NA
ATOM     19  C   UNL A   1      31.377  24.009  23.363  1.00  0.00     0.069 C 
BRANCH  15  20
ATOM     20  C   UNL A   1      30.165  26.451  24.841  1.00  0.00     0.067 A 
ATOM     21  C   UNL A   1      29.350  28.456  23.107  1.00  0.00     0.119 A 
ATOM     22  C   UNL A   1      30.617  28.516  23.694  1.00  0.00     0.048 A 
ATOM     23  C   UNL A   1      28.483  27.411  23.409  1.00  0.00     0.048 A 
ATOM     24  C   UNL A   1      31.029  27.519  24.588  1.00  0.00     0.032 A 
ATOM     25  C   UNL A   1      28.874  26.430  24.306  1.00  0.00     0.032 A 
BRANCH  21  26
ATOM     26  O   UNL A   1      29.036  29.361  22.132  1.00  0.00    -0.494 OA
BRANCH  26  27
ATOM     27  C   UNL A   1      27.766  29.994  22.331  1.00  0.00     0.226 C 
ATOM     28  C   UNL A   1      27.880  31.367  22.979  1.00  0.00     0.049 C 
ENDBRANCH  26  27
ENDBRANCH  21  26
ENDBRANCH  15  20
ENDBRANCH   9  14
ENDBRANCH   6   8
ENDBRANCH   5   6
ENDBRANCH   4   5
ENDBRANCH   3   4
ENDBRANCH   2   3
ENDBRANCH   1   2
BRANCH   1  29
ATOM     29  C   UNL A   1      39.954  23.792  27.170  1.00  0.00     0.188 C 
BRANCH  29  30
ATOM     30  O   UNL A   1      40.036  22.409  27.456  1.00  0.00    -0.376 OA
BRANCH  30  31
ATOM     31  C   UNL A   1      40.442  21.547  26.400  1.00  0.00     0.202 C 
BRANCH  31  32
ATOM     32  C   UNL A   1      41.869  21.669  25.861  1.00  0.00     0.261 C 
BRANCH  32  33
ATOM     33  O   UNL A   1      42.895  21.593  26.835  1.00  0.00    -0.460 OA
BRANCH  33  34
ATOM     34  C   UNL A   1      44.041  22.228  26.519  1.00  0.00     0.338 C 
ATOM     35  O   UNL A   1      44.767  22.001  25.567  1.00  0.00    -0.246 OA
BRANCH  34  36
ATOM     36  C   UNL A   1      44.313  23.213  27.567  1.00  0.00     0.060 A 
ATOM     37  C   UNL A   1      43.347  23.380  28.559  1.00  0.00     0.016 A 
ATOM     38  C   UNL A   1      45.360  24.128  27.373  1.00  0.00     0.016 A 
ATOM     39  C   UNL A   1      43.302  24.587  29.215  1.00  0.00     0.010 A 
ATOM     40  C   UNL A   1      45.301  25.339  28.012  1.00  0.00     0.010 A 
ATOM     41  C   UNL A   1      44.219  25.579  28.855  1.00  0.00    -0.014 A 
BRANCH  41  42
ATOM     42  C   UNL A   1      44.032  26.898  29.410  1.00  0.00     0.031 A 
ATOM     43  C   UNL A   1      44.265  26.963  30.864  1.00  0.00     0.074 A 
ATOM     44  C   UNL A   1      43.762  27.961  28.630  1.00  0.00     0.049 A 
ATOM     45  N   UNL A   1      43.395  27.203  31.785  1.00  0.00    -0.248 NA
ATOM     46  C   UNL A   1      45.583  26.544  31.362  1.00  0.00     0.031 C 
ATOM     47  C   UNL A   1      43.808  28.027  27.165  1.00  0.00     0.029 A 
ATOM     48  N   UNL A   1      43.548  29.254  28.995  1.00  0.00    -0.354 N 
ATOM     49  C   UNL A   1      44.126  27.224  32.966  1.00  0.00     0.074 A 
ATOM     50  C   UNL A   1      45.388  26.598  32.679  1.00  0.00     0.031 C 
ATOM     51  C   UNL A   1      43.892  29.323  26.790  1.00  0.00     0.029 A 
ATOM     52  C   UNL A   1      43.795  30.162  27.972  1.00  0.00     0.049 A 
ATOM     53  H   UNL A   1      43.248  29.521  29.893  1.00  0.00     0.167 HD
ATOM     54  C   UNL A   1      43.759  28.033  33.994  1.00  0.00     0.034 A 
ATOM     55  C   UNL A   1      44.018  31.492  28.117  1.00  0.00     0.034 A 
ATOM     56  C   UNL A   1      42.385  28.455  33.878  1.00  0.00     0.049 A 
ATOM     57  C   UNL A   1      43.504  31.888  29.452  1.00  0.00     0.074 A 
ATOM     58  C   UNL A   1      41.176  27.803  33.720  1.00  0.00     0.029 A 
ATOM     59  N   UNL A   1      42.152  29.768  33.547  1.00  0.00    -0.354 N 
ATOM     60  N   UNL A   1      42.238  31.926  29.761  1.00  0.00    -0.248 NA
ATOM     61  C   UNL A   1      44.422  31.851  30.580  1.00  0.00     0.031 C 
ATOM     62  C   UNL A   1      40.412  28.646  32.862  1.00  0.00     0.029 A 
ATOM     63  C   UNL A   1      41.174  29.783  32.591  1.00  0.00     0.049 A 
ATOM     64  H   UNL A   1      42.607  30.554  33.927  1.00  0.00     0.167 HD
ATOM     65  C   UNL A   1      42.190  31.459  31.069  1.00  0.00     0.074 A 
ATOM     66  C   UNL A   1      43.563  31.549  31.556  1.00  0.00     0.031 C 
ATOM     67  C   UNL A   1      41.108  30.763  31.530  1.00  0.00     0.034 A 
BRANCH  54  68
ATOM     68  C   UNL A   1      44.745  28.777  34.867  1.00  0.00     0.023 A 
ATOM     69  C   UNL A   1      44.621  28.604  36.262  1.00  0.00     0.012 A 
ATOM     70  C   UNL A   1      45.566  29.841  34.424  1.00  0.00     0.148 A 
ATOM     71  C   UNL A   1      45.218  29.488  37.165  1.00  0.00     0.002 A 
ATOM     72  C   UNL A   1      46.230  30.661  35.326  1.00  0.00     0.091 A 
ATOM     73  F   UNL A   1      45.607  30.175  33.132  1.00  0.00    -0.205 F 
ATOM     74  C   UNL A   1      46.029  30.515  36.698  1.00  0.00     0.022 A 
BRANCH  72  75
ATOM     75  S   UNL A   1      47.336  31.960  34.761  1.00  0.00     0.127 S 
ATOM     76  O   UNL A   1      46.788  33.127  35.446  1.00  0.00    -0.237 OA
ATOM     77  O   UNL A   1      48.629  31.493  35.265  1.00  0.00    -0.237 OA
ATOM     78  O   UNL A   1      47.229  31.956  33.307  1.00  0.00    -0.744 OA
ENDBRANCH  72  75
ENDBRANCH  54  68
BRANCH  55  79
ATOM     79  C   UNL A   1      44.850  32.405  27.299  1.00  0.00     0.023 A 
ATOM     80  C   UNL A   1      44.220  33.392  26.515  1.00  0.00     0.012 A 
ATOM     81  C   UNL A   1      46.250  32.492  27.475  1.00  0.00     0.148 A 
ATOM     82  C   UNL A   1      44.951  34.445  25.954  1.00  0.00     0.002 A 
ATOM     83  C   UNL A   1      46.976  33.530  26.898  1.00  0.00     0.091 A 
ATOM     84  F   UNL A   1      46.861  31.618  28.286  1.00  0.00    -0.205 F 
ATOM     85  C   UNL A   1      46.328  34.518  26.148  1.00  0.00     0.022 A 
BRANCH  83  86
ATOM     86  S   UNL A   1      48.755  33.677  27.114  1.00  0.00     0.127 S 
ATOM     87  O   UNL A   1      49.262  32.646  26.205  1.00  0.00    -0.237 OA
ATOM     88  O   UNL A   1      49.003  35.048  26.681  1.00  0.00    -0.237 OA
ATOM     89  O   UNL A   1      49.005  33.399  28.523  1.00  0.00    -0.744 OA
ENDBRANCH  83  86
ENDBRANCH  55  79
BRANCH  67  90
ATOM     90  C   UNL A   1      39.837  30.778  30.721  1.00  0.00     0.023 A 
ATOM     91  C   UNL A   1      39.617  29.898  29.642  1.00  0.00     0.012 A 
ATOM     92  C   UNL A   1      38.771  31.578  31.173  1.00  0.00     0.148 A 
ATOM     93  C   UNL A   1      38.372  29.838  29.011  1.00  0.00     0.002 A 
ATOM     94  C   UNL A   1      37.521  31.477  30.576  1.00  0.00     0.091 A 
ATOM     95  F   UNL A   1      38.992  32.412  32.201  1.00  0.00    -0.205 F 
ATOM     96  C   UNL A   1      37.320  30.617  29.486  1.00  0.00     0.022 A 
BRANCH  94  97
ATOM     97  S   UNL A   1      36.104  32.355  31.241  1.00  0.00     0.127 S 
ATOM     98  O   UNL A   1      35.099  32.151  30.200  1.00  0.00    -0.237 OA
ATOM     99  O   UNL A   1      35.842  31.639  32.492  1.00  0.00    -0.237 OA
ATOM    100  O   UNL A   1      36.549  33.731  31.431  1.00  0.00    -0.744 OA
ENDBRANCH  94  97
ENDBRANCH  67  90
ENDBRANCH  41  42
ENDBRANCH  34  36
ENDBRANCH  33  34
ENDBRANCH  32  33
ENDBRANCH  31  32
ENDBRANCH  30  31
ENDBRANCH  29  30
ENDBRANCH   1  29
TORSDOF 24
ENDMDL
