MODEL 1
REMARK VINA RESULT:      -9.9      0.000      0.000
REMARK SMILES Cc1csc(CNC(=O)NC[C@H]2CC[C@@H](C(=O)OCCOCCOCCOC(=O)c3ccc(-c4c5nc(c(-c6cccc(S(=O)(=O)[O-])c6F)c6ccc([nH]6)c(-c6cccc(S(=O)(=O)[O-])c6F)c6nc(c(-c7cccc(S(=O)(=O)[O-])c7F)c7ccc4[nH]7)C=C6)C=C5)cc3)CC2)n1
REMARK SMILES IDX 22 1 21 2 20 3 19 4 18 5 16 6 17 7 15 8 12 9 13 10 94 11
REMARK SMILES IDX 14 12 93 13 11 14 10 15 7 16 8 17 9 19 6 21 5 22 1 23 2 24
REMARK SMILES IDX 3 25 95 26 4 27 23 28 24 29 25 30 26 31 27 32 28 33 29 34
REMARK SMILES IDX 30 35 31 36 92 37 32 38 91 39 33 40 34 41 35 42 85 43 36 44
REMARK SMILES IDX 90 45 84 46 86 47 37 48 89 49 83 50 82 51 38 53 70 54 50 55
REMARK SMILES IDX 69 56 51 57 54 58 68 59 87 60 52 61 53 62 67 64 88 65 55 66
REMARK SMILES IDX 39 67 40 68 48 69 41 70 43 71 49 72 42 73 44 74 45 75 46 76
REMARK SMILES IDX 47 77 71 78 72 79 80 80 73 81 75 82 81 83 74 84 76 85 77 86
REMARK SMILES IDX 78 87 79 88 56 89 57 90 65 91 58 92 60 93 66 94 59 95 61 96
REMARK SMILES IDX 62 97 63 98 64 99
REMARK H PARENT 7 18 10 20 86 52 54 63
REMARK Flexibility Score: inf
ROOT
ATOM      1  C   UNL A   1      34.142  31.033  28.155  1.00  0.00     0.188 C 
ENDROOT
BRANCH   1   2
ATOM      2  O   UNL A   1      34.948  30.303  27.247  1.00  0.00    -0.376 OA
BRANCH   2   3
ATOM      3  C   UNL A   1      34.514  29.002  26.871  1.00  0.00     0.202 C 
BRANCH   3   4
ATOM      4  C   UNL A   1      33.174  28.863  26.129  1.00  0.00     0.261 C 
BRANCH   4   5
ATOM      5  O   UNL A   1      32.766  27.517  25.774  1.00  0.00    -0.463 OA
BRANCH   5   6
ATOM      6  C   UNL A   1      31.910  26.903  26.633  1.00  0.00     0.309 C 
ATOM      7  O   UNL A   1      31.387  27.467  27.590  1.00  0.00    -0.252 OA
BRANCH   6   8
ATOM      8  C   UNL A   1      31.696  25.401  26.395  1.00  0.00     0.099 C 
ATOM      9  C   UNL A   1      32.078  25.064  23.452  1.00  0.00     0.008 C 
ATOM     10  C   UNL A   1      33.251  25.313  24.428  1.00  0.00     0.006 C 
ATOM     11  C   UNL A   1      30.685  25.310  24.053  1.00  0.00     0.006 C 
ATOM     12  C   UNL A   1      33.004  24.829  25.854  1.00  0.00     0.015 C 
ATOM     13  C   UNL A   1      30.571  24.869  25.504  1.00  0.00     0.015 C 
BRANCH   9  14
ATOM     14  C   UNL A   1      32.245  25.947  22.199  1.00  0.00     0.121 C 
BRANCH  14  15
ATOM     15  N   UNL A   1      33.198  27.011  22.421  1.00  0.00    -0.338 N 
ATOM     16  N   UNL A   1      31.971  29.024  22.548  1.00  0.00    -0.332 N 
ATOM     17  C   UNL A   1      33.112  28.334  22.561  1.00  0.00     0.315 C 
ATOM     18  H   UNL A   1      32.114  29.995  22.609  1.00  0.00     0.165 HD
ATOM     19  O   UNL A   1      34.163  28.967  22.695  1.00  0.00    -0.249 OA
ATOM     20  H   UNL A   1      34.124  26.683  22.483  1.00  0.00     0.165 HD
BRANCH  16  21
ATOM     21  C   UNL A   1      30.569  28.669  22.463  1.00  0.00     0.185 C 
BRANCH  21  22
ATOM     22  C   UNL A   1      29.722  29.901  22.297  1.00  0.00     0.112 A 
ATOM     23  C   UNL A   1      27.878  32.190  20.206  1.00  0.00     0.067 C 
ATOM     24  C   UNL A   1      28.498  31.513  21.374  1.00  0.00     0.049 A 
ATOM     25  C   UNL A   1      28.384  31.885  22.698  1.00  0.00     0.090 A 
ATOM     26  N   UNL A   1      29.276  30.387  21.155  1.00  0.00    -0.245 NA
ATOM     27  S   UNL A   1      29.261  30.805  23.694  1.00  0.00    -0.125 S 
ENDBRANCH  21  22
ENDBRANCH  16  21
ENDBRANCH  14  15
ENDBRANCH   9  14
ENDBRANCH   6   8
ENDBRANCH   5   6
ENDBRANCH   4   5
ENDBRANCH   3   4
ENDBRANCH   2   3
ENDBRANCH   1   2
BRANCH   1  28
ATOM     28  C   UNL A   1      33.759  32.470  27.778  1.00  0.00     0.188 C 
BRANCH  28  29
ATOM     29  O   UNL A   1      34.836  33.378  27.699  1.00  0.00    -0.376 OA
BRANCH  29  30
ATOM     30  C   UNL A   1      34.784  34.544  28.505  1.00  0.00     0.202 C 
BRANCH  30  31
ATOM     31  C   UNL A   1      33.368  35.007  28.904  1.00  0.00     0.261 C 
BRANCH  31  32
ATOM     32  O   UNL A   1      32.949  34.696  30.247  1.00  0.00    -0.460 OA
BRANCH  32  33
ATOM     33  C   UNL A   1      33.475  35.436  31.253  1.00  0.00     0.338 C 
ATOM     34  O   UNL A   1      32.997  36.457  31.723  1.00  0.00    -0.246 OA
BRANCH  33  35
ATOM     35  C   UNL A   1      34.556  34.636  31.898  1.00  0.00     0.060 A 
ATOM     36  C   UNL A   1      35.745  35.291  32.264  1.00  0.00     0.016 A 
ATOM     37  C   UNL A   1      34.382  33.287  32.211  1.00  0.00     0.016 A 
ATOM     38  C   UNL A   1      36.784  34.582  32.875  1.00  0.00     0.010 A 
ATOM     39  C   UNL A   1      35.429  32.574  32.810  1.00  0.00     0.010 A 
ATOM     40  C   UNL A   1      36.655  33.205  33.096  1.00  0.00    -0.014 A 
BRANCH  40  41
ATOM     41  C   UNL A   1      37.865  32.381  33.356  1.00  0.00     0.031 A 
ATOM     42  C   UNL A   1      38.637  32.657  34.623  1.00  0.00     0.074 A 
ATOM     43  C   UNL A   1      38.283  31.412  32.521  1.00  0.00     0.049 A 
ATOM     44  N   UNL A   1      39.737  32.108  35.069  1.00  0.00    -0.248 NA
ATOM     45  C   UNL A   1      38.090  33.703  35.503  1.00  0.00     0.031 C 
ATOM     46  C   UNL A   1      37.626  31.020  31.276  1.00  0.00     0.029 A 
ATOM     47  N   UNL A   1      39.383  30.591  32.595  1.00  0.00    -0.354 N 
ATOM     48  C   UNL A   1      40.030  32.765  36.259  1.00  0.00     0.074 A 
ATOM     49  C   UNL A   1      39.007  33.767  36.455  1.00  0.00     0.031 C 
ATOM     50  C   UNL A   1      38.346  30.043  30.694  1.00  0.00     0.029 A 
ATOM     51  C   UNL A   1      39.527  29.759  31.508  1.00  0.00     0.049 A 
ATOM     52  H   UNL A   1      40.009  30.598  33.354  1.00  0.00     0.167 HD
ATOM     53  C   UNL A   1      41.048  32.548  37.126  1.00  0.00     0.034 A 
ATOM     54  C   UNL A   1      40.508  28.883  31.204  1.00  0.00     0.034 A 
ATOM     55  C   UNL A   1      42.064  31.550  36.943  1.00  0.00     0.049 A 
ATOM     56  C   UNL A   1      41.662  28.694  32.160  1.00  0.00     0.074 A 
ATOM     57  C   UNL A   1      43.117  31.231  37.781  1.00  0.00     0.029 A 
ATOM     58  N   UNL A   1      42.165  30.719  35.839  1.00  0.00    -0.354 N 
ATOM     59  N   UNL A   1      41.871  29.249  33.329  1.00  0.00    -0.248 NA
ATOM     60  C   UNL A   1      42.700  27.728  31.765  1.00  0.00     0.031 C 
ATOM     61  C   UNL A   1      43.879  30.232  37.165  1.00  0.00     0.029 A 
ATOM     62  C   UNL A   1      43.271  29.895  35.966  1.00  0.00     0.049 A 
ATOM     63  H   UNL A   1      41.542  30.715  35.076  1.00  0.00     0.167 HD
ATOM     64  C   UNL A   1      43.031  28.664  33.831  1.00  0.00     0.074 A 
ATOM     65  C   UNL A   1      43.474  27.703  32.842  1.00  0.00     0.031 C 
ATOM     66  C   UNL A   1      43.673  28.902  35.002  1.00  0.00     0.034 A 
BRANCH  53  67
ATOM     67  C   UNL A   1      41.099  33.416  38.358  1.00  0.00     0.023 A 
ATOM     68  C   UNL A   1      40.327  33.076  39.490  1.00  0.00     0.012 A 
ATOM     69  C   UNL A   1      41.918  34.560  38.401  1.00  0.00     0.148 A 
ATOM     70  C   UNL A   1      40.330  33.890  40.622  1.00  0.00     0.002 A 
ATOM     71  C   UNL A   1      41.956  35.336  39.552  1.00  0.00     0.091 A 
ATOM     72  F   UNL A   1      42.626  34.881  37.308  1.00  0.00    -0.205 F 
ATOM     73  C   UNL A   1      41.152  35.013  40.657  1.00  0.00     0.022 A 
BRANCH  71  74
ATOM     74  S   UNL A   1      43.044  36.755  39.724  1.00  0.00     0.127 S 
ATOM     75  O   UNL A   1      42.758  37.180  41.093  1.00  0.00    -0.237 OA
ATOM     76  O   UNL A   1      44.365  36.155  39.535  1.00  0.00    -0.237 OA
ATOM     77  O   UNL A   1      42.649  37.691  38.681  1.00  0.00    -0.744 OA
ENDBRANCH  71  74
ENDBRANCH  53  67
BRANCH  54  78
ATOM     78  C   UNL A   1      40.429  28.068  29.956  1.00  0.00     0.023 A 
ATOM     79  C   UNL A   1      39.483  27.027  29.869  1.00  0.00     0.012 A 
ATOM     80  C   UNL A   1      41.288  28.307  28.866  1.00  0.00     0.148 A 
ATOM     81  C   UNL A   1      39.414  26.219  28.732  1.00  0.00     0.002 A 
ATOM     82  C   UNL A   1      41.178  27.532  27.716  1.00  0.00     0.091 A 
ATOM     83  F   UNL A   1      42.193  29.289  28.975  1.00  0.00    -0.205 F 
ATOM     84  C   UNL A   1      40.254  26.477  27.654  1.00  0.00     0.022 A 
BRANCH  82  85
ATOM     85  S   UNL A   1      42.143  27.852  26.234  1.00  0.00     0.127 S 
ATOM     86  O   UNL A   1      41.493  26.978  25.261  1.00  0.00    -0.237 OA
ATOM     87  O   UNL A   1      41.910  29.282  26.032  1.00  0.00    -0.237 OA
ATOM     88  O   UNL A   1      43.515  27.503  26.573  1.00  0.00    -0.744 OA
ENDBRANCH  82  85
ENDBRANCH  54  78
BRANCH  66  89
ATOM     89  C   UNL A   1      44.889  28.068  35.327  1.00  0.00     0.023 A 
ATOM     90  C   UNL A   1      46.180  28.536  35.008  1.00  0.00     0.012 A 
ATOM     91  C   UNL A   1      44.751  26.847  36.017  1.00  0.00     0.148 A 
ATOM     92  C   UNL A   1      47.307  27.781  35.334  1.00  0.00     0.002 A 
ATOM     93  C   UNL A   1      45.881  26.127  36.387  1.00  0.00     0.091 A 
ATOM     94  F   UNL A   1      43.515  26.408  36.300  1.00  0.00    -0.205 F 
ATOM     95  C   UNL A   1      47.159  26.585  36.033  1.00  0.00     0.022 A 
BRANCH  93  96
ATOM     96  S   UNL A   1      45.790  24.631  37.378  1.00  0.00     0.127 S 
ATOM     97  O   UNL A   1      47.203  24.295  37.541  1.00  0.00    -0.237 OA
ATOM     98  O   UNL A   1      45.132  25.106  38.595  1.00  0.00    -0.237 OA
ATOM     99  O   UNL A   1      45.007  23.681  36.600  1.00  0.00    -0.744 OA
ENDBRANCH  93  96
ENDBRANCH  66  89
ENDBRANCH  40  41
ENDBRANCH  33  35
ENDBRANCH  32  33
ENDBRANCH  31  32
ENDBRANCH  30  31
ENDBRANCH  29  30
ENDBRANCH  28  29
ENDBRANCH   1  28
TORSDOF 24
ENDMDL
MODEL 2
REMARK VINA RESULT:      -9.8      5.245      7.768
REMARK SMILES Cc1csc(CNC(=O)NC[C@H]2CC[C@@H](C(=O)OCCOCCOCCOC(=O)c3ccc(-c4c5nc(c(-c6cccc(S(=O)(=O)[O-])c6F)c6ccc([nH]6)c(-c6cccc(S(=O)(=O)[O-])c6F)c6nc(c(-c7cccc(S(=O)(=O)[O-])c7F)c7ccc4[nH]7)C=C6)C=C5)cc3)CC2)n1
REMARK SMILES IDX 22 1 21 2 20 3 19 4 18 5 16 6 17 7 15 8 12 9 13 10 94 11
REMARK SMILES IDX 14 12 93 13 11 14 10 15 7 16 8 17 9 19 6 21 5 22 1 23 2 24
REMARK SMILES IDX 3 25 95 26 4 27 23 28 24 29 25 30 26 31 27 32 28 33 29 34
REMARK SMILES IDX 30 35 31 36 92 37 32 38 91 39 33 40 34 41 35 42 85 43 36 44
REMARK SMILES IDX 90 45 84 46 86 47 37 48 89 49 83 50 82 51 38 53 70 54 50 55
REMARK SMILES IDX 69 56 51 57 54 58 68 59 87 60 52 61 53 62 67 64 88 65 55 66
REMARK SMILES IDX 39 67 40 68 48 69 41 70 43 71 49 72 42 73 44 74 45 75 46 76
REMARK SMILES IDX 47 77 71 78 72 79 80 80 73 81 75 82 81 83 74 84 76 85 77 86
REMARK SMILES IDX 78 87 79 88 56 89 57 90 65 91 58 92 60 93 66 94 59 95 61 96
REMARK SMILES IDX 62 97 63 98 64 99
REMARK H PARENT 7 18 10 20 86 52 54 63
REMARK Flexibility Score: inf
ROOT
ATOM      1  C   UNL A   1      34.016  32.521  28.877  1.00  0.00     0.188 C 
ENDROOT
BRANCH   1   2
ATOM      2  O   UNL A   1      34.399  31.165  28.722  1.00  0.00    -0.376 OA
BRANCH   2   3
ATOM      3  C   UNL A   1      35.324  30.850  27.689  1.00  0.00     0.202 C 
BRANCH   3   4
ATOM      4  C   UNL A   1      35.390  29.400  27.181  1.00  0.00     0.261 C 
BRANCH   4   5
ATOM      5  O   UNL A   1      34.122  28.725  26.982  1.00  0.00    -0.463 OA
BRANCH   5   6
ATOM      6  C   UNL A   1      33.933  28.148  25.765  1.00  0.00     0.309 C 
ATOM      7  O   UNL A   1      34.005  26.938  25.569  1.00  0.00    -0.252 OA
BRANCH   6   8
ATOM      8  C   UNL A   1      33.712  29.121  24.598  1.00  0.00     0.099 C 
ATOM      9  C   UNL A   1      31.676  27.763  22.887  1.00  0.00     0.008 C 
ATOM     10  C   UNL A   1      31.328  28.426  24.240  1.00  0.00     0.006 C 
ATOM     11  C   UNL A   1      33.180  27.581  22.633  1.00  0.00     0.006 C 
ATOM     12  C   UNL A   1      32.253  29.571  24.643  1.00  0.00     0.015 C 
ATOM     13  C   UNL A   1      34.020  28.740  23.149  1.00  0.00     0.015 C 
BRANCH   9  14
ATOM     14  C   UNL A   1      30.981  26.391  22.784  1.00  0.00     0.121 C 
BRANCH  14  15
ATOM     15  N   UNL A   1      29.602  26.459  23.214  1.00  0.00    -0.338 N 
ATOM     16  N   UNL A   1      29.539  25.718  25.455  1.00  0.00    -0.332 N 
ATOM     17  C   UNL A   1      28.956  26.167  24.343  1.00  0.00     0.315 C 
ATOM     18  H   UNL A   1      28.891  25.506  26.165  1.00  0.00     0.165 HD
ATOM     19  O   UNL A   1      27.729  26.304  24.355  1.00  0.00    -0.249 OA
ATOM     20  H   UNL A   1      29.002  26.800  22.512  1.00  0.00     0.165 HD
BRANCH  16  21
ATOM     21  C   UNL A   1      30.910  25.472  25.857  1.00  0.00     0.185 C 
BRANCH  21  22
ATOM     22  C   UNL A   1      31.299  24.049  25.561  1.00  0.00     0.112 A 
ATOM     23  C   UNL A   1      33.386  21.651  23.857  1.00  0.00     0.067 C 
ATOM     24  C   UNL A   1      32.355  22.281  24.721  1.00  0.00     0.049 A 
ATOM     25  C   UNL A   1      31.469  21.630  25.556  1.00  0.00     0.090 A 
ATOM     26  N   UNL A   1      32.240  23.662  24.721  1.00  0.00    -0.245 NA
ATOM     27  S   UNL A   1      30.474  22.763  26.363  1.00  0.00    -0.125 S 
ENDBRANCH  21  22
ENDBRANCH  16  21
ENDBRANCH  14  15
ENDBRANCH   9  14
ENDBRANCH   6   8
ENDBRANCH   5   6
ENDBRANCH   4   5
ENDBRANCH   3   4
ENDBRANCH   2   3
ENDBRANCH   1   2
BRANCH   1  28
ATOM     28  C   UNL A   1      35.056  33.601  28.553  1.00  0.00     0.188 C 
BRANCH  28  29
ATOM     29  O   UNL A   1      35.008  34.748  29.374  1.00  0.00    -0.376 OA
BRANCH  29  30
ATOM     30  C   UNL A   1      34.261  34.673  30.578  1.00  0.00     0.202 C 
BRANCH  30  31
ATOM     31  C   UNL A   1      35.076  34.328  31.840  1.00  0.00     0.261 C 
BRANCH  31  32
ATOM     32  O   UNL A   1      35.114  32.938  32.217  1.00  0.00    -0.460 OA
BRANCH  32  33
ATOM     33  C   UNL A   1      36.091  32.550  33.073  1.00  0.00     0.338 C 
ATOM     34  O   UNL A   1      36.068  32.661  34.289  1.00  0.00    -0.246 OA
BRANCH  33  35
ATOM     35  C   UNL A   1      37.048  31.688  32.322  1.00  0.00     0.060 A 
ATOM     36  C   UNL A   1      38.120  31.111  33.023  1.00  0.00     0.016 A 
ATOM     37  C   UNL A   1      36.858  31.385  30.972  1.00  0.00     0.016 A 
ATOM     38  C   UNL A   1      39.041  30.292  32.361  1.00  0.00     0.010 A 
ATOM     39  C   UNL A   1      37.789  30.578  30.306  1.00  0.00     0.010 A 
ATOM     40  C   UNL A   1      38.914  30.070  30.984  1.00  0.00    -0.014 A 
BRANCH  40  41
ATOM     41  C   UNL A   1      40.075  29.560  30.207  1.00  0.00     0.031 A 
ATOM     42  C   UNL A   1      41.239  30.498  29.997  1.00  0.00     0.074 A 
ATOM     43  C   UNL A   1      40.126  28.314  29.702  1.00  0.00     0.049 A 
ATOM     44  N   UNL A   1      42.351  30.315  29.335  1.00  0.00    -0.248 NA
ATOM     45  C   UNL A   1      41.123  31.828  30.619  1.00  0.00     0.031 C 
ATOM     46  C   UNL A   1      39.089  27.295  29.845  1.00  0.00     0.029 A 
ATOM     47  N   UNL A   1      41.096  27.704  28.943  1.00  0.00    -0.354 N 
ATOM     48  C   UNL A   1      43.049  31.514  29.431  1.00  0.00     0.074 A 
ATOM     49  C   UNL A   1      42.226  32.424  30.195  1.00  0.00     0.031 C 
ATOM     50  C   UNL A   1      39.473  26.189  29.181  1.00  0.00     0.029 A 
ATOM     51  C   UNL A   1      40.766  26.429  28.544  1.00  0.00     0.049 A 
ATOM     52  H   UNL A   1      41.947  28.138  28.708  1.00  0.00     0.167 HD
ATOM     53  C   UNL A   1      44.272  31.832  28.945  1.00  0.00     0.034 A 
ATOM     54  C   UNL A   1      41.428  25.566  27.744  1.00  0.00     0.034 A 
ATOM     55  C   UNL A   1      45.100  30.932  28.192  1.00  0.00     0.049 A 
ATOM     56  C   UNL A   1      42.768  25.961  27.169  1.00  0.00     0.074 A 
ATOM     57  C   UNL A   1      46.368  31.150  27.685  1.00  0.00     0.029 A 
ATOM     58  N   UNL A   1      44.736  29.647  27.823  1.00  0.00    -0.354 N 
ATOM     59  N   UNL A   1      43.459  27.060  27.353  1.00  0.00    -0.248 NA
ATOM     60  C   UNL A   1      43.434  24.977  26.301  1.00  0.00     0.031 C 
ATOM     61  C   UNL A   1      46.756  30.009  26.975  1.00  0.00     0.029 A 
ATOM     62  C   UNL A   1      45.750  29.062  27.083  1.00  0.00     0.049 A 
ATOM     63  H   UNL A   1      43.883  29.214  28.053  1.00  0.00     0.167 HD
ATOM     64  C   UNL A   1      44.659  26.878  26.669  1.00  0.00     0.074 A 
ATOM     65  C   UNL A   1      44.605  25.559  26.075  1.00  0.00     0.031 C 
ATOM     66  C   UNL A   1      45.710  27.727  26.542  1.00  0.00     0.034 A 
BRANCH  53  67
ATOM     67  C   UNL A   1      44.784  33.223  29.226  1.00  0.00     0.023 A 
ATOM     68  C   UNL A   1      44.545  34.260  28.299  1.00  0.00     0.012 A 
ATOM     69  C   UNL A   1      45.489  33.506  30.411  1.00  0.00     0.148 A 
ATOM     70  C   UNL A   1      45.046  35.542  28.523  1.00  0.00     0.002 A 
ATOM     71  C   UNL A   1      45.939  34.798  30.652  1.00  0.00     0.091 A 
ATOM     72  F   UNL A   1      45.728  32.503  31.269  1.00  0.00    -0.205 F 
ATOM     73  C   UNL A   1      45.733  35.813  29.703  1.00  0.00     0.022 A 
BRANCH  71  74
ATOM     74  S   UNL A   1      46.763  35.265  32.178  1.00  0.00     0.127 S 
ATOM     75  O   UNL A   1      47.836  34.276  32.247  1.00  0.00    -0.237 OA
ATOM     76  O   UNL A   1      47.208  36.628  31.882  1.00  0.00    -0.237 OA
ATOM     77  O   UNL A   1      45.753  35.170  33.223  1.00  0.00    -0.744 OA
ENDBRANCH  71  74
ENDBRANCH  53  67
BRANCH  54  78
ATOM     78  C   UNL A   1      40.866  24.211  27.469  1.00  0.00     0.023 A 
ATOM     79  C   UNL A   1      41.489  23.078  28.030  1.00  0.00     0.012 A 
ATOM     80  C   UNL A   1      39.733  24.037  26.652  1.00  0.00     0.148 A 
ATOM     81  C   UNL A   1      41.014  21.794  27.757  1.00  0.00     0.002 A 
ATOM     82  C   UNL A   1      39.233  22.759  26.426  1.00  0.00     0.091 A 
ATOM     83  F   UNL A   1      39.166  25.125  26.113  1.00  0.00    -0.205 F 
ATOM     84  C   UNL A   1      39.882  21.635  26.963  1.00  0.00     0.022 A 
BRANCH  82  85
ATOM     85  S   UNL A   1      37.720  22.457  25.506  1.00  0.00     0.127 S 
ATOM     86  O   UNL A   1      37.642  23.646  24.661  1.00  0.00    -0.237 OA
ATOM     87  O   UNL A   1      38.043  21.218  24.799  1.00  0.00    -0.237 OA
ATOM     88  O   UNL A   1      36.669  22.328  26.505  1.00  0.00    -0.744 OA
ENDBRANCH  82  85
ENDBRANCH  54  78
BRANCH  66  89
ATOM     89  C   UNL A   1      46.926  27.243  25.789  1.00  0.00     0.023 A 
ATOM     90  C   UNL A   1      47.814  26.325  26.385  1.00  0.00     0.012 A 
ATOM     91  C   UNL A   1      47.146  27.648  24.457  1.00  0.00     0.148 A 
ATOM     92  C   UNL A   1      48.922  25.852  25.682  1.00  0.00     0.002 A 
ATOM     93  C   UNL A   1      48.221  27.130  23.744  1.00  0.00     0.091 A 
ATOM     94  F   UNL A   1      46.301  28.534  23.910  1.00  0.00    -0.205 F 
ATOM     95  C   UNL A   1      49.118  26.244  24.359  1.00  0.00     0.022 A 
BRANCH  93  96
ATOM     96  S   UNL A   1      48.493  27.500  22.006  1.00  0.00     0.127 S 
ATOM     97  O   UNL A   1      49.675  28.357  22.066  1.00  0.00    -0.237 OA
ATOM     98  O   UNL A   1      48.730  26.171  21.441  1.00  0.00    -0.237 OA
ATOM     99  O   UNL A   1      47.275  28.147  21.538  1.00  0.00    -0.744 OA
ENDBRANCH  93  96
ENDBRANCH  66  89
ENDBRANCH  40  41
ENDBRANCH  33  35
ENDBRANCH  32  33
ENDBRANCH  31  32
ENDBRANCH  30  31
ENDBRANCH  29  30
ENDBRANCH  28  29
ENDBRANCH   1  28
TORSDOF 24
ENDMDL
MODEL 3
REMARK VINA RESULT:      -9.7      2.390      8.213
REMARK SMILES Cc1csc(CNC(=O)NC[C@H]2CC[C@@H](C(=O)OCCOCCOCCOC(=O)c3ccc(-c4c5nc(c(-c6cccc(S(=O)(=O)[O-])c6F)c6ccc([nH]6)c(-c6cccc(S(=O)(=O)[O-])c6F)c6nc(c(-c7cccc(S(=O)(=O)[O-])c7F)c7ccc4[nH]7)C=C6)C=C5)cc3)CC2)n1
REMARK SMILES IDX 22 1 21 2 20 3 19 4 18 5 16 6 17 7 15 8 12 9 13 10 94 11
REMARK SMILES IDX 14 12 93 13 11 14 10 15 7 16 8 17 9 19 6 21 5 22 1 23 2 24
REMARK SMILES IDX 3 25 95 26 4 27 23 28 24 29 25 30 26 31 27 32 28 33 29 34
REMARK SMILES IDX 30 35 31 36 92 37 32 38 91 39 33 40 34 41 35 42 85 43 36 44
REMARK SMILES IDX 90 45 84 46 86 47 37 48 89 49 83 50 82 51 38 53 70 54 50 55
REMARK SMILES IDX 69 56 51 57 54 58 68 59 87 60 52 61 53 62 67 64 88 65 55 66
REMARK SMILES IDX 39 67 40 68 48 69 41 70 43 71 49 72 42 73 44 74 45 75 46 76
REMARK SMILES IDX 47 77 71 78 72 79 80 80 73 81 75 82 81 83 74 84 76 85 77 86
REMARK SMILES IDX 78 87 79 88 56 89 57 90 65 91 58 92 60 93 66 94 59 95 61 96
REMARK SMILES IDX 62 97 63 98 64 99
REMARK H PARENT 7 18 10 20 86 52 54 63
REMARK Flexibility Score: inf
ROOT
ATOM      1  C   UNL A   1      33.540  33.928  28.059  1.00  0.00     0.188 C 
ENDROOT
BRANCH   1   2
ATOM      2  O   UNL A   1      33.777  32.644  28.612  1.00  0.00    -0.376 OA
BRANCH   2   3
ATOM      3  C   UNL A   1      35.065  32.071  28.430  1.00  0.00     0.202 C 
BRANCH   3   4
ATOM      4  C   UNL A   1      35.169  30.720  27.702  1.00  0.00     0.261 C 
BRANCH   4   5
ATOM      5  O   UNL A   1      34.037  29.824  27.831  1.00  0.00    -0.463 OA
BRANCH   5   6
ATOM      6  C   UNL A   1      33.627  29.206  26.690  1.00  0.00     0.309 C 
ATOM      7  O   UNL A   1      34.398  28.758  25.847  1.00  0.00    -0.252 OA
BRANCH   6   8
ATOM      8  C   UNL A   1      32.110  29.179  26.460  1.00  0.00     0.099 C 
ATOM      9  C   UNL A   1      31.589  26.470  25.317  1.00  0.00     0.008 C 
ATOM     10  C   UNL A   1      31.923  26.702  26.808  1.00  0.00     0.006 C 
ATOM     11  C   UNL A   1      31.847  27.682  24.409  1.00  0.00     0.006 C 
ATOM     12  C   UNL A   1      31.528  28.076  27.342  1.00  0.00     0.015 C 
ATOM     13  C   UNL A   1      31.499  29.009  25.067  1.00  0.00     0.015 C 
BRANCH   9  14
ATOM     14  C   UNL A   1      32.391  25.266  24.784  1.00  0.00     0.121 C 
BRANCH  14  15
ATOM     15  N   UNL A   1      32.897  25.512  23.452  1.00  0.00    -0.338 N 
ATOM     16  N   UNL A   1      32.631  23.509  22.230  1.00  0.00    -0.332 N 
ATOM     17  C   UNL A   1      33.024  24.778  22.346  1.00  0.00     0.315 C 
ATOM     18  H   UNL A   1      32.859  23.119  21.356  1.00  0.00     0.165 HD
ATOM     19  O   UNL A   1      33.558  25.304  21.365  1.00  0.00    -0.249 OA
ATOM     20  H   UNL A   1      33.223  26.433  23.334  1.00  0.00     0.165 HD
BRANCH  16  21
ATOM     21  C   UNL A   1      31.944  22.573  23.098  1.00  0.00     0.185 C 
BRANCH  21  22
ATOM     22  C   UNL A   1      32.928  21.641  23.751  1.00  0.00     0.112 A 
ATOM     23  C   UNL A   1      36.160  21.008  25.221  1.00  0.00     0.067 C 
ATOM     24  C   UNL A   1      34.771  20.856  24.716  1.00  0.00     0.049 A 
ATOM     25  C   UNL A   1      33.990  19.719  24.783  1.00  0.00     0.090 A 
ATOM     26  N   UNL A   1      34.160  21.943  24.113  1.00  0.00    -0.245 NA
ATOM     27  S   UNL A   1      32.458  20.014  24.082  1.00  0.00    -0.125 S 
ENDBRANCH  21  22
ENDBRANCH  16  21
ENDBRANCH  14  15
ENDBRANCH   9  14
ENDBRANCH   6   8
ENDBRANCH   5   6
ENDBRANCH   4   5
ENDBRANCH   3   4
ENDBRANCH   2   3
ENDBRANCH   1   2
BRANCH   1  28
ATOM     28  C   UNL A   1      34.716  34.910  28.000  1.00  0.00     0.188 C 
BRANCH  28  29
ATOM     29  O   UNL A   1      34.383  36.263  28.230  1.00  0.00    -0.376 OA
BRANCH  29  30
ATOM     30  C   UNL A   1      33.060  36.559  28.649  1.00  0.00     0.202 C 
BRANCH  30  31
ATOM     31  C   UNL A   1      32.875  36.745  30.168  1.00  0.00     0.261 C 
BRANCH  31  32
ATOM     32  O   UNL A   1      32.526  35.566  30.919  1.00  0.00    -0.460 OA
BRANCH  32  33
ATOM     33  C   UNL A   1      32.845  35.548  32.237  1.00  0.00     0.338 C 
ATOM     34  O   UNL A   1      32.113  35.876  33.158  1.00  0.00    -0.246 OA
BRANCH  33  35
ATOM     35  C   UNL A   1      34.108  34.773  32.396  1.00  0.00     0.060 A 
ATOM     36  C   UNL A   1      34.047  33.515  33.020  1.00  0.00     0.016 A 
ATOM     37  C   UNL A   1      35.320  35.230  31.875  1.00  0.00     0.016 A 
ATOM     38  C   UNL A   1      35.205  32.750  33.188  1.00  0.00     0.010 A 
ATOM     39  C   UNL A   1      36.482  34.470  32.057  1.00  0.00     0.010 A 
ATOM     40  C   UNL A   1      36.441  33.252  32.760  1.00  0.00    -0.014 A 
BRANCH  40  41
ATOM     41  C   UNL A   1      37.701  32.659  33.283  1.00  0.00     0.031 A 
ATOM     42  C   UNL A   1      38.336  31.551  32.478  1.00  0.00     0.074 A 
ATOM     43  C   UNL A   1      38.286  33.073  34.422  1.00  0.00     0.049 A 
ATOM     44  N   UNL A   1      39.410  30.849  32.726  1.00  0.00    -0.248 NA
ATOM     45  C   UNL A   1      37.656  31.187  31.224  1.00  0.00     0.031 C 
ATOM     46  C   UNL A   1      37.800  34.145  35.287  1.00  0.00     0.029 A 
ATOM     47  N   UNL A   1      39.418  32.617  35.054  1.00  0.00    -0.354 N 
ATOM     48  C   UNL A   1      39.514  29.939  31.679  1.00  0.00     0.074 A 
ATOM     49  C   UNL A   1      38.384  30.164  30.807  1.00  0.00     0.031 C 
ATOM     50  C   UNL A   1      38.622  34.254  36.348  1.00  0.00     0.029 A 
ATOM     51  C   UNL A   1      39.675  33.243  36.252  1.00  0.00     0.049 A 
ATOM     52  H   UNL A   1      39.992  31.908  34.683  1.00  0.00     0.167 HD
ATOM     53  C   UNL A   1      40.471  29.009  31.447  1.00  0.00     0.034 A 
ATOM     54  C   UNL A   1      40.640  33.015  37.168  1.00  0.00     0.034 A 
ATOM     55  C   UNL A   1      41.602  28.785  32.304  1.00  0.00     0.049 A 
ATOM     56  C   UNL A   1      41.667  31.936  36.914  1.00  0.00     0.074 A 
ATOM     57  C   UNL A   1      42.642  27.889  32.138  1.00  0.00     0.029 A 
ATOM     58  N   UNL A   1      41.832  29.450  33.498  1.00  0.00    -0.354 N 
ATOM     59  N   UNL A   1      41.810  31.154  35.872  1.00  0.00    -0.248 NA
ATOM     60  C   UNL A   1      42.688  31.735  37.955  1.00  0.00     0.031 C 
ATOM     61  C   UNL A   1      43.484  27.985  33.251  1.00  0.00     0.029 A 
ATOM     62  C   UNL A   1      42.993  28.977  34.087  1.00  0.00     0.049 A 
ATOM     63  H   UNL A   1      41.257  30.155  33.871  1.00  0.00     0.167 HD
ATOM     64  C   UNL A   1      42.962  30.408  36.107  1.00  0.00     0.074 A 
ATOM     65  C   UNL A   1      43.484  30.839  37.387  1.00  0.00     0.031 C 
ATOM     66  C   UNL A   1      43.535  29.450  35.335  1.00  0.00     0.034 A 
BRANCH  53  67
ATOM     67  C   UNL A   1      40.326  28.168  30.204  1.00  0.00     0.023 A 
ATOM     68  C   UNL A   1      39.325  27.176  30.140  1.00  0.00     0.012 A 
ATOM     69  C   UNL A   1      41.172  28.367  29.096  1.00  0.00     0.148 A 
ATOM     70  C   UNL A   1      39.203  26.361  29.014  1.00  0.00     0.002 A 
ATOM     71  C   UNL A   1      41.010  27.587  27.958  1.00  0.00     0.091 A 
ATOM     72  F   UNL A   1      42.134  29.297  29.184  1.00  0.00    -0.205 F 
ATOM     73  C   UNL A   1      40.039  26.574  27.921  1.00  0.00     0.022 A 
BRANCH  71  74
ATOM     74  S   UNL A   1      41.982  27.838  26.469  1.00  0.00     0.127 S 
ATOM     75  O   UNL A   1      41.923  29.290  26.320  1.00  0.00    -0.237 OA
ATOM     76  O   UNL A   1      43.292  27.319  26.866  1.00  0.00    -0.237 OA
ATOM     77  O   UNL A   1      41.318  27.072  25.424  1.00  0.00    -0.744 OA
ENDBRANCH  71  74
ENDBRANCH  53  67
BRANCH  54  78
ATOM     78  C   UNL A   1      40.724  33.854  38.399  1.00  0.00     0.023 A 
ATOM     79  C   UNL A   1      41.672  34.894  38.463  1.00  0.00     0.012 A 
ATOM     80  C   UNL A   1      39.884  33.622  39.506  1.00  0.00     0.148 A 
ATOM     81  C   UNL A   1      41.804  35.668  39.617  1.00  0.00     0.002 A 
ATOM     82  C   UNL A   1      39.986  34.431  40.632  1.00  0.00     0.091 A 
ATOM     83  F   UNL A   1      39.001  32.616  39.432  1.00  0.00    -0.205 F 
ATOM     84  C   UNL A   1      40.956  35.443  40.697  1.00  0.00     0.022 A 
BRANCH  82  85
ATOM     85  S   UNL A   1      38.869  34.289  42.033  1.00  0.00     0.127 S 
ATOM     86  O   UNL A   1      37.626  34.819  41.478  1.00  0.00    -0.237 OA
ATOM     87  O   UNL A   1      38.873  32.846  42.271  1.00  0.00    -0.237 OA
ATOM     88  O   UNL A   1      39.469  35.081  43.098  1.00  0.00    -0.744 OA
ENDBRANCH  82  85
ENDBRANCH  54  78
BRANCH  66  89
ATOM     89  C   UNL A   1      44.833  28.841  35.807  1.00  0.00     0.023 A 
ATOM     90  C   UNL A   1      46.067  29.398  35.413  1.00  0.00     0.012 A 
ATOM     91  C   UNL A   1      44.824  27.755  36.705  1.00  0.00     0.148 A 
ATOM     92  C   UNL A   1      47.268  28.856  35.872  1.00  0.00     0.002 A 
ATOM     93  C   UNL A   1      46.023  27.255  37.201  1.00  0.00     0.091 A 
ATOM     94  F   UNL A   1      43.643  27.227  37.058  1.00  0.00    -0.205 F 
ATOM     95  C   UNL A   1      47.246  27.795  36.774  1.00  0.00     0.022 A 
BRANCH  93  96
ATOM     96  S   UNL A   1      46.086  25.959  38.444  1.00  0.00     0.127 S 
ATOM     97  O   UNL A   1      45.724  26.691  39.656  1.00  0.00    -0.237 OA
ATOM     98  O   UNL A   1      45.066  25.025  37.968  1.00  0.00    -0.237 OA
ATOM     99  O   UNL A   1      47.445  25.437  38.412  1.00  0.00    -0.744 OA
ENDBRANCH  93  96
ENDBRANCH  66  89
ENDBRANCH  40  41
ENDBRANCH  33  35
ENDBRANCH  32  33
ENDBRANCH  31  32
ENDBRANCH  30  31
ENDBRANCH  29  30
ENDBRANCH  28  29
ENDBRANCH   1  28
TORSDOF 24
ENDMDL
