MODEL 1
REMARK VINA RESULT:     -12.1      0.000      0.000
REMARK SMILES Cc1cc(/C=C2\C(=O)N(Cc3ccco3)C(=O)N=C2OCCOCCOCCOC(=O)c2ccc(-c3c4nc(c(-c5cccc(S(=O)(=O)[O-])c5F)c5ccc([nH]5)c(-c5cccc(S(=O)(=O)[O-])c5F)c5nc(c(-c6cccc(S(=O)(=O)[O-])c6F)c6ccc3[nH]6)C=C5)C=C4)cc2)c(C)n1-c1ccc(Cl)c(C(=O)[O-])c1
REMARK SMILES IDX 25 1 24 2 23 3 22 4 21 5 20 6 19 7 5 8 6 9 7 10 8 11 9 12
REMARK SMILES IDX 18 13 16 14 17 15 4 16 1 17 2 18 3 19 97 20 95 21 96 22
REMARK SMILES IDX 98 23 99 24 107 25 100 26 103 27 101 28 102 29 104 30 105 31
REMARK SMILES IDX 106 32 10 33 11 34 12 35 15 36 13 37 14 38 26 39 27 40 28 41
REMARK SMILES IDX 29 42 30 43 31 44 32 45 33 46 94 47 34 48 93 49 35 50 36 51
REMARK SMILES IDX 37 52 87 53 38 54 92 55 86 56 88 57 39 58 91 59 85 60 84 61
REMARK SMILES IDX 40 63 72 64 52 65 71 66 53 67 56 68 70 69 89 70 54 71 55 72
REMARK SMILES IDX 69 74 90 75 57 76 41 77 42 78 50 79 43 80 45 81 51 82 44 83
REMARK SMILES IDX 46 84 47 85 48 86 49 87 73 88 74 89 82 90 75 91 77 92 83 93
REMARK SMILES IDX 76 94 78 95 79 96 80 97 81 98 58 99 59 100 67 101 60 102
REMARK SMILES IDX 62 103 68 104 61 105 63 106 64 107 65 108 66 109
REMARK H PARENT 88 62 56 73
REMARK Flexibility Score: inf
ROOT
ATOM      1  C   UNL A   1      33.377  34.022  27.969  1.00  0.00     0.188 C 
ENDROOT
BRANCH   1   2
ATOM      2  C   UNL A   1      33.037  32.566  27.631  1.00  0.00     0.188 C 
BRANCH   2   3
ATOM      3  O   UNL A   1      34.200  31.771  27.527  1.00  0.00    -0.376 OA
BRANCH   3   4
ATOM      4  C   UNL A   1      34.213  30.417  27.917  1.00  0.00     0.201 C 
BRANCH   4   5
ATOM      5  C   UNL A   1      34.654  29.357  26.866  1.00  0.00     0.260 C 
BRANCH   5   6
ATOM      6  O   UNL A   1      34.072  29.346  25.536  1.00  0.00    -0.475 OA
BRANCH   6   7
ATOM      7  C   UNL A   1      32.738  29.166  25.446  1.00  0.00     0.231 C 
ATOM      8  C   UNL A   1      32.921  26.698  25.638  1.00  0.00     0.029 C 
ATOM      9  C   UNL A   1      32.358  27.793  25.097  1.00  0.00     0.103 C 
ATOM     10  C   UNL A   1      31.269  27.794  24.108  1.00  0.00     0.267 C 
ATOM     11  O   UNL A   1      31.294  27.067  23.119  1.00  0.00    -0.268 OA
ATOM     12  N   UNL A   1      30.344  28.797  24.312  1.00  0.00    -0.250 N 
ATOM     13  N   UNL A   1      31.952  30.175  25.415  1.00  0.00    -0.156 NA
ATOM     14  C   UNL A   1      30.741  30.048  24.790  1.00  0.00     0.354 C 
ATOM     15  O   UNL A   1      30.134  31.074  24.515  1.00  0.00    -0.245 OA
BRANCH   8  16
ATOM     16  C   UNL A   1      32.572  25.307  25.492  1.00  0.00    -0.003 A 
ATOM     17  C   UNL A   1      30.473  22.306  26.261  1.00  0.00     0.065 C 
ATOM     18  C   UNL A   1      31.421  23.358  25.797  1.00  0.00     0.020 A 
ATOM     19  C   UNL A   1      31.574  24.651  26.268  1.00  0.00     0.031 A 
ATOM     20  N   UNL A   1      32.384  23.166  24.828  1.00  0.00    -0.318 N 
ATOM     21  C   UNL A   1      32.988  24.388  24.537  1.00  0.00     0.027 A 
ATOM     22  C   UNL A   1      33.860  24.510  23.325  1.00  0.00     0.065 C 
BRANCH  20  23
ATOM     23  C   UNL A   1      32.602  22.004  24.048  1.00  0.00     0.046 A 
ATOM     24  C   UNL A   1      32.046  21.938  22.769  1.00  0.00     0.028 A 
ATOM     25  C   UNL A   1      33.060  20.852  24.695  1.00  0.00     0.038 A 
ATOM     26  C   UNL A   1      31.947  20.701  22.136  1.00  0.00     0.023 A 
ATOM     27  C   UNL A   1      32.928  19.596  24.075  1.00  0.00     0.018 A 
ATOM     28  C   UNL A   1      32.369  19.529  22.786  1.00  0.00     0.050 A 
ATOM     29  Cl  UNL A   1      32.100  18.052  21.929  1.00  0.00    -0.084 Cl
BRANCH  27  30
ATOM     30  C   UNL A   1      33.311  18.366  24.836  1.00  0.00     0.073 C 
ATOM     31  O   UNL A   1      34.377  17.815  24.893  1.00  0.00    -0.545 OA
ATOM     32  O   UNL A   1      32.258  17.851  25.515  1.00  0.00    -0.545 OA
ENDBRANCH  27  30
ENDBRANCH  20  23
ENDBRANCH   8  16
BRANCH  12  33
ATOM     33  C   UNL A   1      29.120  28.698  23.529  1.00  0.00     0.206 C 
BRANCH  33  34
ATOM     34  C   UNL A   1      28.902  29.918  22.711  1.00  0.00     0.123 A 
ATOM     35  C   UNL A   1      28.080  31.012  22.883  1.00  0.00     0.047 A 
ATOM     36  O   UNL A   1      29.567  30.013  21.524  1.00  0.00    -0.467 OA
ATOM     37  C   UNL A   1      28.198  31.789  21.712  1.00  0.00     0.042 A 
ATOM     38  C   UNL A   1      29.135  31.157  20.929  1.00  0.00     0.195 A 
ENDBRANCH  33  34
ENDBRANCH  12  33
ENDBRANCH   6   7
ENDBRANCH   5   6
ENDBRANCH   4   5
ENDBRANCH   3   4
ENDBRANCH   2   3
ENDBRANCH   1   2
BRANCH   1  39
ATOM     39  O   UNL A   1      32.749  34.523  29.135  1.00  0.00    -0.376 OA
BRANCH  39  40
ATOM     40  C   UNL A   1      33.187  35.814  29.582  1.00  0.00     0.202 C 
BRANCH  40  41
ATOM     41  C   UNL A   1      33.336  36.076  31.119  1.00  0.00     0.261 C 
BRANCH  41  42
ATOM     42  O   UNL A   1      34.368  35.459  32.000  1.00  0.00    -0.460 OA
BRANCH  42  43
ATOM     43  C   UNL A   1      34.295  34.082  32.202  1.00  0.00     0.338 C 
ATOM     44  O   UNL A   1      33.381  33.606  32.870  1.00  0.00    -0.246 OA
BRANCH  43  45
ATOM     45  C   UNL A   1      35.327  33.130  31.473  1.00  0.00     0.060 A 
ATOM     46  C   UNL A   1      35.513  31.829  31.937  1.00  0.00     0.016 A 
ATOM     47  C   UNL A   1      36.344  33.505  30.560  1.00  0.00     0.016 A 
ATOM     48  C   UNL A   1      36.587  30.953  31.447  1.00  0.00     0.010 A 
ATOM     49  C   UNL A   1      37.497  32.617  30.118  1.00  0.00     0.010 A 
ATOM     50  C   UNL A   1      37.676  31.280  30.532  1.00  0.00    -0.014 A 
BRANCH  50  51
ATOM     51  C   UNL A   1      39.056  30.232  30.491  1.00  0.00     0.031 A 
ATOM     52  C   UNL A   1      39.828  30.796  31.633  1.00  0.00     0.074 A 
ATOM     53  C   UNL A   1      39.816  29.220  29.805  1.00  0.00     0.049 A 
ATOM     54  N   UNL A   1      40.072  32.079  31.643  1.00  0.00    -0.248 NA
ATOM     55  C   UNL A   1      39.988  30.160  32.942  1.00  0.00     0.031 C 
ATOM     56  C   UNL A   1      39.571  28.629  28.468  1.00  0.00     0.029 A 
ATOM     57  N   UNL A   1      41.047  28.451  30.119  1.00  0.00    -0.354 N 
ATOM     58  C   UNL A   1      40.811  32.320  32.757  1.00  0.00     0.074 A 
ATOM     59  C   UNL A   1      40.467  31.207  33.633  1.00  0.00     0.031 C 
ATOM     60  C   UNL A   1      40.412  27.584  28.165  1.00  0.00     0.029 A 
ATOM     61  C   UNL A   1      41.404  27.326  29.217  1.00  0.00     0.049 A 
ATOM     62  H   UNL A   1      41.607  28.679  30.895  1.00  0.00     0.167 HD
ATOM     63  C   UNL A   1      42.025  32.884  32.492  1.00  0.00     0.034 A 
ATOM     64  C   UNL A   1      42.443  26.348  29.220  1.00  0.00     0.034 A 
ATOM     65  C   UNL A   1      43.103  31.951  32.658  1.00  0.00     0.049 A 
ATOM     66  C   UNL A   1      43.568  26.979  29.919  1.00  0.00     0.074 A 
ATOM     67  C   UNL A   1      43.331  30.922  33.554  1.00  0.00     0.029 A 
ATOM     68  N   UNL A   1      43.877  31.692  31.550  1.00  0.00    -0.354 N 
ATOM     69  N   UNL A   1      44.356  27.803  29.294  1.00  0.00    -0.248 NA
ATOM     70  C   UNL A   1      44.006  26.591  31.255  1.00  0.00     0.031 C 
ATOM     71  C   UNL A   1      43.772  29.850  32.755  1.00  0.00     0.029 A 
ATOM     72  C   UNL A   1      44.230  30.359  31.551  1.00  0.00     0.049 A 
ATOM     73  H   UNL A   1      44.137  32.352  30.868  1.00  0.00     0.167 HD
ATOM     74  C   UNL A   1      44.962  28.455  30.321  1.00  0.00     0.074 A 
ATOM     75  C   UNL A   1      44.952  27.518  31.431  1.00  0.00     0.031 C 
ATOM     76  C   UNL A   1      44.754  29.792  30.338  1.00  0.00     0.034 A 
BRANCH  63  77
ATOM     77  C   UNL A   1      41.970  33.984  31.441  1.00  0.00     0.023 A 
ATOM     78  C   UNL A   1      41.133  33.770  30.336  1.00  0.00     0.012 A 
ATOM     79  C   UNL A   1      42.871  35.087  31.409  1.00  0.00     0.148 A 
ATOM     80  C   UNL A   1      41.235  34.583  29.203  1.00  0.00     0.002 A 
ATOM     81  C   UNL A   1      43.053  35.810  30.234  1.00  0.00     0.091 A 
ATOM     82  F   UNL A   1      43.553  35.405  32.521  1.00  0.00    -0.205 F 
ATOM     83  C   UNL A   1      42.221  35.568  29.134  1.00  0.00     0.022 A 
BRANCH  81  84
ATOM     84  S   UNL A   1      44.483  36.885  29.978  1.00  0.00     0.127 S 
ATOM     85  O   UNL A   1      45.588  36.073  30.499  1.00  0.00    -0.237 OA
ATOM     86  O   UNL A   1      44.505  37.064  28.531  1.00  0.00    -0.237 OA
ATOM     87  O   UNL A   1      44.237  38.094  30.758  1.00  0.00    -0.744 OA
ENDBRANCH  81  84
ENDBRANCH  63  77
BRANCH  64  88
ATOM     88  C   UNL A   1      43.093  24.981  28.599  1.00  0.00     0.023 A 
ATOM     89  C   UNL A   1      42.660  23.693  29.121  1.00  0.00     0.012 A 
ATOM     90  C   UNL A   1      43.671  24.877  27.308  1.00  0.00     0.148 A 
ATOM     91  C   UNL A   1      42.685  22.466  28.409  1.00  0.00     0.002 A 
ATOM     92  C   UNL A   1      43.724  23.626  26.602  1.00  0.00     0.091 A 
ATOM     93  F   UNL A   1      44.091  26.000  26.717  1.00  0.00    -0.205 F 
ATOM     94  C   UNL A   1      43.208  22.436  27.138  1.00  0.00     0.022 A 
BRANCH  92  95
ATOM     95  S   UNL A   1      44.354  23.434  24.910  1.00  0.00     0.127 S 
ATOM     96  O   UNL A   1      45.344  22.365  25.053  1.00  0.00    -0.237 OA
ATOM     97  O   UNL A   1      43.148  23.041  24.180  1.00  0.00    -0.237 OA
ATOM     98  O   UNL A   1      44.909  24.731  24.556  1.00  0.00    -0.744 OA
ENDBRANCH  92  95
ENDBRANCH  64  88
BRANCH  76  99
ATOM     99  C   UNL A   1      44.841  30.534  29.022  1.00  0.00     0.023 A 
ATOM    100  C   UNL A   1      43.760  30.779  28.145  1.00  0.00     0.012 A 
ATOM    101  C   UNL A   1      46.105  31.016  28.654  1.00  0.00     0.148 A 
ATOM    102  C   UNL A   1      43.945  31.461  26.936  1.00  0.00     0.002 A 
ATOM    103  C   UNL A   1      46.277  31.743  27.484  1.00  0.00     0.091 A 
ATOM    104  F   UNL A   1      47.136  30.749  29.471  1.00  0.00    -0.205 F 
ATOM    105  C   UNL A   1      45.203  31.961  26.613  1.00  0.00     0.022 A 
BRANCH 103 106
ATOM    106  S   UNL A   1      47.876  32.451  27.097  1.00  0.00     0.127 S 
ATOM    107  O   UNL A   1      48.239  33.085  28.363  1.00  0.00    -0.237 OA
ATOM    108  O   UNL A   1      48.684  31.287  26.743  1.00  0.00    -0.237 OA
ATOM    109  O   UNL A   1      47.632  33.368  25.987  1.00  0.00    -0.744 OA
ENDBRANCH 103 106
ENDBRANCH  76  99
ENDBRANCH  50  51
ENDBRANCH  43  45
ENDBRANCH  42  43
ENDBRANCH  41  42
ENDBRANCH  40  41
ENDBRANCH  39  40
ENDBRANCH   1  39
TORSDOF 24
ENDMDL
MODEL 2
REMARK VINA RESULT:     -11.6      1.456      2.005
REMARK SMILES Cc1cc(/C=C2\C(=O)N(Cc3ccco3)C(=O)N=C2OCCOCCOCCOC(=O)c2ccc(-c3c4nc(c(-c5cccc(S(=O)(=O)[O-])c5F)c5ccc([nH]5)c(-c5cccc(S(=O)(=O)[O-])c5F)c5nc(c(-c6cccc(S(=O)(=O)[O-])c6F)c6ccc3[nH]6)C=C5)C=C4)cc2)c(C)n1-c1ccc(Cl)c(C(=O)[O-])c1
REMARK SMILES IDX 25 1 24 2 23 3 22 4 21 5 20 6 19 7 5 8 6 9 7 10 8 11 9 12
REMARK SMILES IDX 18 13 16 14 17 15 4 16 1 17 2 18 3 19 97 20 95 21 96 22
REMARK SMILES IDX 98 23 99 24 107 25 100 26 103 27 101 28 102 29 104 30 105 31
REMARK SMILES IDX 106 32 10 33 11 34 12 35 15 36 13 37 14 38 26 39 27 40 28 41
REMARK SMILES IDX 29 42 30 43 31 44 32 45 33 46 94 47 34 48 93 49 35 50 36 51
REMARK SMILES IDX 37 52 87 53 38 54 92 55 86 56 88 57 39 58 91 59 85 60 84 61
REMARK SMILES IDX 40 63 72 64 52 65 71 66 53 67 56 68 70 69 89 70 54 71 55 72
REMARK SMILES IDX 69 74 90 75 57 76 41 77 42 78 50 79 43 80 45 81 51 82 44 83
REMARK SMILES IDX 46 84 47 85 48 86 49 87 73 88 74 89 82 90 75 91 77 92 83 93
REMARK SMILES IDX 76 94 78 95 79 96 80 97 81 98 58 99 59 100 67 101 60 102
REMARK SMILES IDX 62 103 68 104 61 105 63 106 64 107 65 108 66 109
REMARK H PARENT 88 62 56 73
REMARK Flexibility Score: inf
ROOT
ATOM      1  C   UNL A   1      33.176  33.845  27.831  1.00  0.00     0.188 C 
ENDROOT
BRANCH   1   2
ATOM      2  C   UNL A   1      32.900  32.371  27.518  1.00  0.00     0.188 C 
BRANCH   2   3
ATOM      3  O   UNL A   1      34.091  31.610  27.506  1.00  0.00    -0.376 OA
BRANCH   3   4
ATOM      4  C   UNL A   1      34.142  30.300  28.023  1.00  0.00     0.201 C 
BRANCH   4   5
ATOM      5  C   UNL A   1      35.049  29.263  27.300  1.00  0.00     0.260 C 
BRANCH   5   6
ATOM      6  O   UNL A   1      34.719  28.793  25.966  1.00  0.00    -0.475 OA
BRANCH   6   7
ATOM      7  C   UNL A   1      33.499  28.247  25.787  1.00  0.00     0.231 C 
ATOM      8  C   UNL A   1      34.398  25.935  25.680  1.00  0.00     0.029 C 
ATOM      9  C   UNL A   1      33.543  26.882  25.252  1.00  0.00     0.103 C 
ATOM     10  C   UNL A   1      32.515  26.699  24.217  1.00  0.00     0.267 C 
ATOM     11  O   UNL A   1      32.764  26.150  23.148  1.00  0.00    -0.268 OA
ATOM     12  N   UNL A   1      31.332  27.353  24.497  1.00  0.00    -0.250 N 
ATOM     13  N   UNL A   1      32.451  28.978  25.843  1.00  0.00    -0.156 NA
ATOM     14  C   UNL A   1      31.338  28.590  25.147  1.00  0.00     0.354 C 
ATOM     15  O   UNL A   1      30.459  29.422  24.972  1.00  0.00    -0.245 OA
BRANCH   8  16
ATOM     16  C   UNL A   1      34.476  24.535  25.344  1.00  0.00    -0.003 A 
ATOM     17  C   UNL A   1      36.320  21.486  24.204  1.00  0.00     0.065 C 
ATOM     18  C   UNL A   1      35.399  22.552  24.689  1.00  0.00     0.020 A 
ATOM     19  C   UNL A   1      35.628  23.914  24.784  1.00  0.00     0.031 A 
ATOM     20  N   UNL A   1      34.089  22.337  25.067  1.00  0.00    -0.318 N 
ATOM     21  C   UNL A   1      33.571  23.514  25.604  1.00  0.00     0.027 A 
ATOM     22  C   UNL A   1      32.272  23.476  26.349  1.00  0.00     0.065 C 
BRANCH  20  23
ATOM     23  C   UNL A   1      33.409  21.098  25.151  1.00  0.00     0.046 A 
ATOM     24  C   UNL A   1      33.258  20.495  26.401  1.00  0.00     0.028 A 
ATOM     25  C   UNL A   1      33.218  20.369  23.972  1.00  0.00     0.038 A 
ATOM     26  C   UNL A   1      32.917  19.146  26.467  1.00  0.00     0.023 A 
ATOM     27  C   UNL A   1      32.911  18.998  24.034  1.00  0.00     0.018 A 
ATOM     28  C   UNL A   1      32.759  18.390  25.293  1.00  0.00     0.050 A 
ATOM     29  Cl  UNL A   1      32.432  16.708  25.518  1.00  0.00    -0.084 Cl
BRANCH  27  30
ATOM     30  C   UNL A   1      32.835  18.213  22.763  1.00  0.00     0.073 C 
ATOM     31  O   UNL A   1      31.938  18.155  21.964  1.00  0.00    -0.545 OA
ATOM     32  O   UNL A   1      33.955  17.480  22.560  1.00  0.00    -0.545 OA
ENDBRANCH  27  30
ENDBRANCH  20  23
ENDBRANCH   8  16
BRANCH  12  33
ATOM     33  C   UNL A   1      30.201  27.008  23.647  1.00  0.00     0.206 C 
BRANCH  33  34
ATOM     34  C   UNL A   1      29.767  28.169  22.830  1.00  0.00     0.123 A 
ATOM     35  C   UNL A   1      30.461  29.038  22.014  1.00  0.00     0.047 A 
ATOM     36  O   UNL A   1      28.454  28.537  22.898  1.00  0.00    -0.467 OA
ATOM     37  C   UNL A   1      29.541  30.028  21.610  1.00  0.00     0.042 A 
ATOM     38  C   UNL A   1      28.329  29.664  22.146  1.00  0.00     0.195 A 
ENDBRANCH  33  34
ENDBRANCH  12  33
ENDBRANCH   6   7
ENDBRANCH   5   6
ENDBRANCH   4   5
ENDBRANCH   3   4
ENDBRANCH   2   3
ENDBRANCH   1   2
BRANCH   1  39
ATOM     39  O   UNL A   1      32.840  34.246  29.147  1.00  0.00    -0.376 OA
BRANCH  39  40
ATOM     40  C   UNL A   1      33.134  35.608  29.487  1.00  0.00     0.202 C 
BRANCH  40  41
ATOM     41  C   UNL A   1      33.167  36.026  30.996  1.00  0.00     0.261 C 
BRANCH  41  42
ATOM     42  O   UNL A   1      34.214  35.621  31.977  1.00  0.00    -0.460 OA
BRANCH  42  43
ATOM     43  C   UNL A   1      34.339  34.260  32.252  1.00  0.00     0.338 C 
ATOM     44  O   UNL A   1      33.623  33.735  33.101  1.00  0.00    -0.246 OA
BRANCH  43  45
ATOM     45  C   UNL A   1      35.325  33.375  31.387  1.00  0.00     0.060 A 
ATOM     46  C   UNL A   1      35.389  32.000  31.603  1.00  0.00     0.016 A 
ATOM     47  C   UNL A   1      36.406  33.825  30.588  1.00  0.00     0.016 A 
ATOM     48  C   UNL A   1      36.412  31.142  30.988  1.00  0.00     0.010 A 
ATOM     49  C   UNL A   1      37.505  32.941  30.020  1.00  0.00     0.010 A 
ATOM     50  C   UNL A   1      37.561  31.540  30.181  1.00  0.00    -0.014 A 
BRANCH  50  51
ATOM     51  C   UNL A   1      38.857  30.405  29.982  1.00  0.00     0.031 A 
ATOM     52  C   UNL A   1      39.663  30.737  31.190  1.00  0.00     0.074 A 
ATOM     53  C   UNL A   1      39.540  29.448  29.154  1.00  0.00     0.049 A 
ATOM     54  N   UNL A   1      40.005  31.982  31.385  1.00  0.00    -0.248 NA
ATOM     55  C   UNL A   1      39.765  29.908  32.393  1.00  0.00     0.031 C 
ATOM     56  C   UNL A   1      39.260  29.077  27.746  1.00  0.00     0.029 A 
ATOM     57  N   UNL A   1      40.707  28.548  29.347  1.00  0.00    -0.354 N 
ATOM     58  C   UNL A   1      40.752  32.002  32.518  1.00  0.00     0.074 A 
ATOM     59  C   UNL A   1      40.318  30.804  33.226  1.00  0.00     0.031 C 
ATOM     60  C   UNL A   1      40.020  28.025  27.291  1.00  0.00     0.029 A 
ATOM     61  C   UNL A   1      40.982  27.541  28.291  1.00  0.00     0.049 A 
ATOM     62  H   UNL A   1      41.278  28.617  30.146  1.00  0.00     0.167 HD
ATOM     63  C   UNL A   1      42.008  32.502  32.331  1.00  0.00     0.034 A 
ATOM     64  C   UNL A   1      41.942  26.496  28.147  1.00  0.00     0.034 A 
ATOM     65  C   UNL A   1      43.010  31.475  32.356  1.00  0.00     0.049 A 
ATOM     66  C   UNL A   1      43.108  26.930  28.925  1.00  0.00     0.074 A 
ATOM     67  C   UNL A   1      43.152  30.313  33.093  1.00  0.00     0.029 A 
ATOM     68  N   UNL A   1      43.769  31.320  31.219  1.00  0.00    -0.354 N 
ATOM     69  N   UNL A   1      43.961  27.772  28.422  1.00  0.00    -0.248 NA
ATOM     70  C   UNL A   1      43.505  26.320  30.189  1.00  0.00     0.031 C 
ATOM     71  C   UNL A   1      43.514  29.336  32.145  1.00  0.00     0.029 A 
ATOM     72  C   UNL A   1      44.018  29.977  31.025  1.00  0.00     0.049 A 
ATOM     73  H   UNL A   1      44.084  32.049  30.638  1.00  0.00     0.167 HD
ATOM     74  C   UNL A   1      44.609  28.220  29.529  1.00  0.00     0.074 A 
ATOM     75  C   UNL A   1      44.519  27.137  30.492  1.00  0.00     0.031 C 
ATOM     76  C   UNL A   1      44.505  29.553  29.741  1.00  0.00     0.034 A 
BRANCH  63  77
ATOM     77  C   UNL A   1      42.046  33.743  31.451  1.00  0.00     0.023 A 
ATOM     78  C   UNL A   1      41.199  33.759  30.334  1.00  0.00     0.012 A 
ATOM     79  C   UNL A   1      43.032  34.765  31.572  1.00  0.00     0.148 A 
ATOM     80  C   UNL A   1      41.369  34.717  29.329  1.00  0.00     0.002 A 
ATOM     81  C   UNL A   1      43.276  35.633  30.512  1.00  0.00     0.091 A 
ATOM     82  F   UNL A   1      43.733  34.863  32.713  1.00  0.00    -0.205 F 
ATOM     83  C   UNL A   1      42.431  35.620  29.395  1.00  0.00     0.022 A 
BRANCH  81  84
ATOM     84  S   UNL A   1      44.787  36.617  30.403  1.00  0.00     0.127 S 
ATOM     85  O   UNL A   1      44.733  37.130  29.029  1.00  0.00    -0.237 OA
ATOM     86  O   UNL A   1      44.593  37.635  31.427  1.00  0.00    -0.237 OA
ATOM     87  O   UNL A   1      45.898  35.698  30.632  1.00  0.00    -0.744 OA
ENDBRANCH  81  84
ENDBRANCH  63  77
BRANCH  64  88
ATOM     88  C   UNL A   1      42.489  25.186  27.332  1.00  0.00     0.023 A 
ATOM     89  C   UNL A   1      43.918  25.049  27.094  1.00  0.00     0.012 A 
ATOM     90  C   UNL A   1      41.801  23.948  27.241  1.00  0.00     0.148 A 
ATOM     91  C   UNL A   1      44.606  23.823  26.905  1.00  0.00     0.002 A 
ATOM     92  C   UNL A   1      42.498  22.712  27.017  1.00  0.00     0.091 A 
ATOM     93  F   UNL A   1      40.482  23.947  27.459  1.00  0.00    -0.205 F 
ATOM     94  C   UNL A   1      43.894  22.647  26.880  1.00  0.00     0.022 A 
BRANCH  92  95
ATOM     95  S   UNL A   1      41.702  21.080  26.991  1.00  0.00     0.127 S 
ATOM     96  O   UNL A   1      40.421  21.335  27.654  1.00  0.00    -0.237 OA
ATOM     97  O   UNL A   1      41.592  20.818  25.556  1.00  0.00    -0.237 OA
ATOM     98  O   UNL A   1      42.600  20.202  27.724  1.00  0.00    -0.744 OA
ENDBRANCH  92  95
ENDBRANCH  64  88
BRANCH  76  99
ATOM     99  C   UNL A   1      44.658  30.468  28.545  1.00  0.00     0.023 A 
ATOM    100  C   UNL A   1      43.620  30.845  27.663  1.00  0.00     0.012 A 
ATOM    101  C   UNL A   1      45.940  30.980  28.306  1.00  0.00     0.148 A 
ATOM    102  C   UNL A   1      43.865  31.685  26.569  1.00  0.00     0.002 A 
ATOM    103  C   UNL A   1      46.171  31.860  27.256  1.00  0.00     0.091 A 
ATOM    104  F   UNL A   1      46.930  30.590  29.124  1.00  0.00    -0.205 F 
ATOM    105  C   UNL A   1      45.140  32.209  26.377  1.00  0.00     0.022 A 
BRANCH 103 106
ATOM    106  S   UNL A   1      47.791  32.594  27.044  1.00  0.00     0.127 S 
ATOM    107  O   UNL A   1      48.044  33.155  28.370  1.00  0.00    -0.237 OA
ATOM    108  O   UNL A   1      48.634  31.456  26.690  1.00  0.00    -0.237 OA
ATOM    109  O   UNL A   1      47.631  33.574  25.973  1.00  0.00    -0.744 OA
ENDBRANCH 103 106
ENDBRANCH  76  99
ENDBRANCH  50  51
ENDBRANCH  43  45
ENDBRANCH  42  43
ENDBRANCH  41  42
ENDBRANCH  40  41
ENDBRANCH  39  40
ENDBRANCH   1  39
TORSDOF 24
ENDMDL
MODEL 3
REMARK VINA RESULT:     -10.8      4.192      6.733
REMARK SMILES Cc1cc(/C=C2\C(=O)N(Cc3ccco3)C(=O)N=C2OCCOCCOCCOC(=O)c2ccc(-c3c4nc(c(-c5cccc(S(=O)(=O)[O-])c5F)c5ccc([nH]5)c(-c5cccc(S(=O)(=O)[O-])c5F)c5nc(c(-c6cccc(S(=O)(=O)[O-])c6F)c6ccc3[nH]6)C=C5)C=C4)cc2)c(C)n1-c1ccc(Cl)c(C(=O)[O-])c1
REMARK SMILES IDX 25 1 24 2 23 3 22 4 21 5 20 6 19 7 5 8 6 9 7 10 8 11 9 12
REMARK SMILES IDX 18 13 16 14 17 15 4 16 1 17 2 18 3 19 97 20 95 21 96 22
REMARK SMILES IDX 98 23 99 24 107 25 100 26 103 27 101 28 102 29 104 30 105 31
REMARK SMILES IDX 106 32 10 33 11 34 12 35 15 36 13 37 14 38 26 39 27 40 28 41
REMARK SMILES IDX 29 42 30 43 31 44 32 45 33 46 94 47 34 48 93 49 35 50 36 51
REMARK SMILES IDX 37 52 87 53 38 54 92 55 86 56 88 57 39 58 91 59 85 60 84 61
REMARK SMILES IDX 40 63 72 64 52 65 71 66 53 67 56 68 70 69 89 70 54 71 55 72
REMARK SMILES IDX 69 74 90 75 57 76 41 77 42 78 50 79 43 80 45 81 51 82 44 83
REMARK SMILES IDX 46 84 47 85 48 86 49 87 73 88 74 89 82 90 75 91 77 92 83 93
REMARK SMILES IDX 76 94 78 95 79 96 80 97 81 98 58 99 59 100 67 101 60 102
REMARK SMILES IDX 62 103 68 104 61 105 63 106 64 107 65 108 66 109
REMARK H PARENT 88 62 56 73
REMARK Flexibility Score: inf
ROOT
ATOM      1  C   UNL A   1      33.553  36.816  31.646  1.00  0.00     0.188 C 
ENDROOT
BRANCH   1   2
ATOM      2  C   UNL A   1      32.890  36.208  30.406  1.00  0.00     0.188 C 
BRANCH   2   3
ATOM      3  O   UNL A   1      33.441  36.730  29.214  1.00  0.00    -0.376 OA
BRANCH   3   4
ATOM      4  C   UNL A   1      34.137  35.917  28.297  1.00  0.00     0.201 C 
BRANCH   4   5
ATOM      5  C   UNL A   1      33.689  34.435  28.145  1.00  0.00     0.260 C 
BRANCH   5   6
ATOM      6  O   UNL A   1      34.667  33.363  28.117  1.00  0.00    -0.475 OA
BRANCH   6   7
ATOM      7  C   UNL A   1      34.200  32.098  28.154  1.00  0.00     0.231 C 
ATOM      8  C   UNL A   1      36.162  31.267  29.430  1.00  0.00     0.029 C 
ATOM      9  C   UNL A   1      35.232  31.105  28.471  1.00  0.00     0.103 C 
ATOM     10  C   UNL A   1      35.084  29.916  27.617  1.00  0.00     0.267 C 
ATOM     11  O   UNL A   1      36.046  29.397  27.060  1.00  0.00    -0.268 OA
ATOM     12  N   UNL A   1      33.768  29.576  27.375  1.00  0.00    -0.250 N 
ATOM     13  N   UNL A   1      33.037  31.827  27.696  1.00  0.00    -0.156 NA
ATOM     14  C   UNL A   1      32.792  30.563  27.229  1.00  0.00     0.354 C 
ATOM     15  O   UNL A   1      31.795  30.398  26.540  1.00  0.00    -0.245 OA
BRANCH   8  16
ATOM     16  C   UNL A   1      37.146  30.342  29.934  1.00  0.00    -0.003 A 
ATOM     17  C   UNL A   1      38.218  27.465  32.073  1.00  0.00     0.065 C 
ATOM     18  C   UNL A   1      38.016  28.606  31.136  1.00  0.00     0.020 A 
ATOM     19  C   UNL A   1      36.896  29.406  30.978  1.00  0.00     0.031 A 
ATOM     20  N   UNL A   1      38.989  29.106  30.296  1.00  0.00    -0.318 N 
ATOM     21  C   UNL A   1      38.421  30.065  29.460  1.00  0.00     0.027 A 
ATOM     22  C   UNL A   1      39.187  30.552  28.269  1.00  0.00     0.065 C 
BRANCH  20  23
ATOM     23  C   UNL A   1      40.298  28.601  30.098  1.00  0.00     0.046 A 
ATOM     24  C   UNL A   1      40.522  27.703  29.052  1.00  0.00     0.028 A 
ATOM     25  C   UNL A   1      41.224  28.744  31.135  1.00  0.00     0.038 A 
ATOM     26  C   UNL A   1      41.686  26.939  29.052  1.00  0.00     0.023 A 
ATOM     27  C   UNL A   1      42.384  27.948  31.159  1.00  0.00     0.018 A 
ATOM     28  C   UNL A   1      42.610  27.043  30.106  1.00  0.00     0.050 A 
ATOM     29  Cl  UNL A   1      43.962  25.970  30.033  1.00  0.00    -0.084 Cl
BRANCH  27  30
ATOM     30  C   UNL A   1      43.296  28.029  32.342  1.00  0.00     0.073 C 
ATOM     31  O   UNL A   1      43.558  27.181  33.153  1.00  0.00    -0.545 OA
ATOM     32  O   UNL A   1      43.853  29.258  32.461  1.00  0.00    -0.545 OA
ENDBRANCH  27  30
ENDBRANCH  20  23
ENDBRANCH   8  16
BRANCH  12  33
ATOM     33  C   UNL A   1      33.556  28.276  26.754  1.00  0.00     0.206 C 
BRANCH  33  34
ATOM     34  C   UNL A   1      33.404  28.399  25.282  1.00  0.00     0.123 A 
ATOM     35  C   UNL A   1      32.346  28.794  24.490  1.00  0.00     0.047 A 
ATOM     36  O   UNL A   1      34.454  28.011  24.502  1.00  0.00    -0.467 OA
ATOM     37  C   UNL A   1      32.743  28.577  23.155  1.00  0.00     0.042 A 
ATOM     38  C   UNL A   1      34.042  28.130  23.212  1.00  0.00     0.195 A 
ENDBRANCH  33  34
ENDBRANCH  12  33
ENDBRANCH   6   7
ENDBRANCH   5   6
ENDBRANCH   4   5
ENDBRANCH   3   4
ENDBRANCH   2   3
ENDBRANCH   1   2
BRANCH   1  39
ATOM     39  O   UNL A   1      33.191  36.205  32.872  1.00  0.00    -0.376 OA
BRANCH  39  40
ATOM     40  C   UNL A   1      33.242  34.772  32.902  1.00  0.00     0.202 C 
BRANCH  40  41
ATOM     41  C   UNL A   1      34.463  34.068  33.585  1.00  0.00     0.261 C 
BRANCH  41  42
ATOM     42  O   UNL A   1      35.428  33.163  32.899  1.00  0.00    -0.460 OA
BRANCH  42  43
ATOM     43  C   UNL A   1      36.188  33.706  31.864  1.00  0.00     0.338 C 
ATOM     44  O   UNL A   1      35.636  34.291  30.936  1.00  0.00    -0.246 OA
BRANCH  43  45
ATOM     45  C   UNL A   1      37.767  33.666  31.952  1.00  0.00     0.060 A 
ATOM     46  C   UNL A   1      38.528  33.890  30.806  1.00  0.00     0.016 A 
ATOM     47  C   UNL A   1      38.556  33.131  33.001  1.00  0.00     0.016 A 
ATOM     48  C   UNL A   1      39.981  33.675  30.758  1.00  0.00     0.010 A 
ATOM     49  C   UNL A   1      40.046  32.838  32.917  1.00  0.00     0.010 A 
ATOM     50  C   UNL A   1      40.847  33.106  31.787  1.00  0.00    -0.014 A 
BRANCH  50  51
ATOM     51  C   UNL A   1      42.411  32.527  31.315  1.00  0.00     0.031 A 
ATOM     52  C   UNL A   1      43.261  33.340  32.229  1.00  0.00     0.074 A 
ATOM     53  C   UNL A   1      43.220  31.772  30.395  1.00  0.00     0.049 A 
ATOM     54  N   UNL A   1      43.098  34.636  32.239  1.00  0.00    -0.248 NA
ATOM     55  C   UNL A   1      43.962  32.830  33.410  1.00  0.00     0.031 C 
ATOM     56  C   UNL A   1      42.806  31.088  29.147  1.00  0.00     0.029 A 
ATOM     57  N   UNL A   1      44.663  31.426  30.319  1.00  0.00    -0.354 N 
ATOM     58  C   UNL A   1      44.007  35.130  33.119  1.00  0.00     0.074 A 
ATOM     59  C   UNL A   1      44.273  33.996  33.996  1.00  0.00     0.031 C 
ATOM     60  C   UNL A   1      43.805  30.339  28.571  1.00  0.00     0.029 A 
ATOM     61  C   UNL A   1      45.079  30.432  29.296  1.00  0.00     0.049 A 
ATOM     62  H   UNL A   1      45.320  31.841  30.923  1.00  0.00     0.167 HD
ATOM     63  C   UNL A   1      44.871  36.027  32.561  1.00  0.00     0.034 A 
ATOM     64  C   UNL A   1      46.323  29.818  28.964  1.00  0.00     0.034 A 
ATOM     65  C   UNL A   1      46.183  35.473  32.376  1.00  0.00     0.049 A 
ATOM     66  C   UNL A   1      47.352  30.786  29.359  1.00  0.00     0.074 A 
ATOM     67  C   UNL A   1      46.949  34.595  33.121  1.00  0.00     0.029 A 
ATOM     68  N   UNL A   1      46.660  35.424  31.087  1.00  0.00    -0.354 N 
ATOM     69  N   UNL A   1      47.649  31.789  28.586  1.00  0.00    -0.248 NA
ATOM     70  C   UNL A   1      48.238  30.597  30.502  1.00  0.00     0.031 C 
ATOM     71  C   UNL A   1      47.454  33.681  32.177  1.00  0.00     0.029 A 
ATOM     72  C   UNL A   1      47.386  34.263  30.922  1.00  0.00     0.049 A 
ATOM     73  H   UNL A   1      46.510  36.107  30.395  1.00  0.00     0.167 HD
ATOM     74  C   UNL A   1      48.288  32.630  29.440  1.00  0.00     0.074 A 
ATOM     75  C   UNL A   1      48.870  31.775  30.460  1.00  0.00     0.031 C 
ATOM     76  C   UNL A   1      47.699  33.840  29.584  1.00  0.00     0.034 A 
BRANCH  63  77
ATOM     77  C   UNL A   1      44.198  37.020  31.624  1.00  0.00     0.023 A 
ATOM     78  C   UNL A   1      44.179  36.699  30.259  1.00  0.00     0.012 A 
ATOM     79  C   UNL A   1      43.799  38.329  32.020  1.00  0.00     0.148 A 
ATOM     80  C   UNL A   1      43.842  37.666  29.308  1.00  0.00     0.002 A 
ATOM     81  C   UNL A   1      43.588  39.318  31.064  1.00  0.00     0.091 A 
ATOM     82  F   UNL A   1      43.648  38.598  33.327  1.00  0.00    -0.205 F 
ATOM     83  C   UNL A   1      43.593  38.981  29.705  1.00  0.00     0.022 A 
BRANCH  81  84
ATOM     84  S   UNL A   1      43.548  41.074  31.488  1.00  0.00     0.127 S 
ATOM     85  O   UNL A   1      42.465  41.137  32.476  1.00  0.00    -0.237 OA
ATOM     86  O   UNL A   1      44.875  41.309  32.042  1.00  0.00    -0.237 OA
ATOM     87  O   UNL A   1      43.244  41.791  30.253  1.00  0.00    -0.744 OA
ENDBRANCH  81  84
ENDBRANCH  63  77
BRANCH  64  88
ATOM     88  C   UNL A   1      47.158  28.693  28.118  1.00  0.00     0.023 A 
ATOM     89  C   UNL A   1      47.409  27.395  28.727  1.00  0.00     0.012 A 
ATOM     90  C   UNL A   1      47.259  28.658  26.703  1.00  0.00     0.148 A 
ATOM     91  C   UNL A   1      47.618  26.182  28.021  1.00  0.00     0.002 A 
ATOM     92  C   UNL A   1      47.502  27.433  25.993  1.00  0.00     0.091 A 
ATOM     93  F   UNL A   1      47.030  29.791  26.031  1.00  0.00    -0.205 F 
ATOM     94  C   UNL A   1      47.652  26.200  26.647  1.00  0.00     0.022 A 
BRANCH  92  95
ATOM     95  S   UNL A   1      47.542  27.291  24.183  1.00  0.00     0.127 S 
ATOM     96  O   UNL A   1      48.845  27.867  23.842  1.00  0.00    -0.237 OA
ATOM     97  O   UNL A   1      47.457  25.844  23.989  1.00  0.00    -0.237 OA
ATOM     98  O   UNL A   1      46.399  28.059  23.712  1.00  0.00    -0.744 OA
ENDBRANCH  92  95
ENDBRANCH  64  88
BRANCH  76  99
ATOM     99  C   UNL A   1      47.191  34.526  28.334  1.00  0.00     0.023 A 
ATOM    100  C   UNL A   1      45.886  34.404  27.805  1.00  0.00     0.012 A 
ATOM    101  C   UNL A   1      48.098  35.352  27.657  1.00  0.00     0.148 A 
ATOM    102  C   UNL A   1      45.514  35.066  26.628  1.00  0.00     0.002 A 
ATOM    103  C   UNL A   1      47.712  36.055  26.523  1.00  0.00     0.091 A 
ATOM    104  F   UNL A   1      49.347  35.436  28.142  1.00  0.00    -0.205 F 
ATOM    105  C   UNL A   1      46.423  35.909  25.996  1.00  0.00     0.022 A 
BRANCH 103 106
ATOM    106  S   UNL A   1      48.853  37.195  25.745  1.00  0.00     0.127 S 
ATOM    107  O   UNL A   1      49.529  36.332  24.779  1.00  0.00    -0.237 OA
ATOM    108  O   UNL A   1      47.975  38.202  25.156  1.00  0.00    -0.237 OA
ATOM    109  O   UNL A   1      49.694  37.696  26.829  1.00  0.00    -0.744 OA
ENDBRANCH 103 106
ENDBRANCH  76  99
ENDBRANCH  50  51
ENDBRANCH  43  45
ENDBRANCH  42  43
ENDBRANCH  41  42
ENDBRANCH  40  41
ENDBRANCH  39  40
ENDBRANCH   1  39
TORSDOF 24
ENDMDL
