MODEL 1
REMARK VINA RESULT:     -11.9      0.000      0.000
REMARK SMILES O=C(OCCOCCOCCOC(=O)[C@H]1CC=CC[C@@H]1C(=O)N[C@@H]1CCCN(c2ccccc2F)C1=O)c1ccc(-c2c3nc(c(-c4cccc(S(=O)(=O)[O-])c4F)c4ccc([nH]4)c(-c4cccc(S(=O)(=O)[O-])c4F)c4nc(c(-c5cccc(S(=O)(=O)[O-])c5F)c5ccc2[nH]5)C=C4)C=C3)cc1
REMARK SMILES IDX 7 1 6 2 5 3 4 4 3 5 2 6 1 7 38 8 39 9 100 10 40 11 99 12
REMARK SMILES IDX 41 13 42 14 43 15 93 16 44 17 98 18 92 19 94 20 45 21 97 22
REMARK SMILES IDX 91 23 90 24 46 26 78 27 58 28 77 29 59 30 62 31 76 32 95 33
REMARK SMILES IDX 60 34 61 35 75 37 96 38 63 39 47 40 48 41 56 42 49 43 51 44
REMARK SMILES IDX 57 45 50 46 52 47 53 48 54 49 55 50 79 51 80 52 88 53 81 54
REMARK SMILES IDX 83 55 89 56 82 57 84 58 85 59 86 60 87 61 64 62 65 63 73 64
REMARK SMILES IDX 66 65 68 66 74 67 67 68 69 69 70 70 71 71 72 72 8 73 9 74
REMARK SMILES IDX 10 75 11 76 12 77 13 78 14 79 15 80 16 81 20 82 17 83 19 84
REMARK SMILES IDX 18 85 21 86 22 87 23 88 24 90 25 91 36 92 26 93 28 94 37 95
REMARK SMILES IDX 27 96 29 97 30 98 34 99 31 100 33 101 35 102 32 103
REMARK H PARENT 94 25 62 36 23 89
REMARK Flexibility Score: inf
ROOT
ATOM      1  C   UNL A   1      41.366  20.948  27.506  1.00  0.00     0.188 C 
ENDROOT
BRANCH   1   2
ATOM      2  O   UNL A   1      42.469  20.122  27.137  1.00  0.00    -0.376 OA
BRANCH   2   3
ATOM      3  C   UNL A   1      42.908  20.169  25.782  1.00  0.00     0.202 C 
BRANCH   3   4
ATOM      4  C   UNL A   1      43.993  21.183  25.365  1.00  0.00     0.261 C 
BRANCH   4   5
ATOM      5  O   UNL A   1      43.635  22.578  25.300  1.00  0.00    -0.460 OA
BRANCH   5   6
ATOM      6  C   UNL A   1      44.267  23.711  25.673  1.00  0.00     0.338 C 
ATOM      7  O   UNL A   1      45.411  23.900  25.262  1.00  0.00    -0.246 OA
BRANCH   6   8
ATOM      8  C   UNL A   1      43.667  24.733  26.574  1.00  0.00     0.060 A 
ATOM      9  C   UNL A   1      43.872  26.109  26.477  1.00  0.00     0.016 A 
ATOM     10  C   UNL A   1      42.775  24.271  27.550  1.00  0.00     0.016 A 
ATOM     11  C   UNL A   1      43.311  27.013  27.362  1.00  0.00     0.010 A 
ATOM     12  C   UNL A   1      42.182  25.168  28.434  1.00  0.00     0.010 A 
ATOM     13  C   UNL A   1      42.484  26.535  28.357  1.00  0.00    -0.014 A 
BRANCH  13  14
ATOM     14  C   UNL A   1      42.021  27.434  29.399  1.00  0.00     0.031 A 
ATOM     15  C   UNL A   1      42.755  27.531  30.664  1.00  0.00     0.074 A 
ATOM     16  C   UNL A   1      40.857  28.077  29.257  1.00  0.00     0.049 A 
ATOM     17  N   UNL A   1      42.420  28.254  31.687  1.00  0.00    -0.248 NA
ATOM     18  C   UNL A   1      44.017  26.786  30.787  1.00  0.00     0.031 C 
ATOM     19  C   UNL A   1      39.872  28.229  27.603  1.00  0.00     0.029 A 
ATOM     20  N   UNL A   1      39.814  28.854  30.466  1.00  0.00    -0.354 N 
ATOM     21  C   UNL A   1      43.397  28.013  32.617  1.00  0.00     0.074 A 
ATOM     22  C   UNL A   1      44.357  27.095  32.030  1.00  0.00     0.031 C 
ATOM     23  C   UNL A   1      38.309  29.056  28.015  1.00  0.00     0.029 A 
ATOM     24  C   UNL A   1      38.274  29.469  29.839  1.00  0.00     0.049 A 
ATOM     25  H   UNL A   1      40.072  28.937  31.414  1.00  0.00     0.167 HD
ATOM     26  C   UNL A   1      43.462  28.526  33.856  1.00  0.00     0.034 A 
ATOM     27  C   UNL A   1      37.323  30.302  30.280  1.00  0.00     0.034 A 
ATOM     28  C   UNL A   1      42.467  29.372  34.453  1.00  0.00     0.049 A 
ATOM     29  C   UNL A   1      37.658  30.868  31.580  1.00  0.00     0.074 A 
ATOM     30  C   UNL A   1      42.495  29.903  35.727  1.00  0.00     0.029 A 
ATOM     31  N   UNL A   1      41.260  29.772  33.881  1.00  0.00    -0.354 N 
ATOM     32  N   UNL A   1      38.751  30.650  32.261  1.00  0.00    -0.248 NA
ATOM     33  C   UNL A   1      36.705  31.805  32.155  1.00  0.00     0.031 C 
ATOM     34  C   UNL A   1      41.309  30.602  35.933  1.00  0.00     0.029 A 
ATOM     35  C   UNL A   1      40.561  30.581  34.766  1.00  0.00     0.049 A 
ATOM     36  H   UNL A   1      40.950  29.517  32.982  1.00  0.00     0.167 HD
ATOM     37  C   UNL A   1      38.587  31.360  33.414  1.00  0.00     0.074 A 
ATOM     38  C   UNL A   1      37.367  32.146  33.249  1.00  0.00     0.031 C 
ATOM     39  C   UNL A   1      39.324  31.290  34.539  1.00  0.00     0.034 A 
BRANCH  26  40
ATOM     40  C   UNL A   1      44.657  28.125  34.646  1.00  0.00     0.023 A 
ATOM     41  C   UNL A   1      45.844  28.881  34.566  1.00  0.00     0.012 A 
ATOM     42  C   UNL A   1      44.587  26.993  35.469  1.00  0.00     0.148 A 
ATOM     43  C   UNL A   1      46.958  28.503  35.308  1.00  0.00     0.002 A 
ATOM     44  C   UNL A   1      45.677  26.662  36.251  1.00  0.00     0.091 A 
ATOM     45  F   UNL A   1      43.459  26.268  35.458  1.00  0.00    -0.205 F 
ATOM     46  C   UNL A   1      46.866  27.408  36.165  1.00  0.00     0.022 A 
BRANCH  44  47
ATOM     47  S   UNL A   1      45.619  25.321  37.434  1.00  0.00     0.127 S 
ATOM     48  O   UNL A   1      47.030  25.191  37.799  1.00  0.00    -0.237 OA
ATOM     49  O   UNL A   1      44.763  25.885  38.476  1.00  0.00    -0.237 OA
ATOM     50  O   UNL A   1      45.064  24.177  36.725  1.00  0.00    -0.744 OA
ENDBRANCH  44  47
ENDBRANCH  26  40
BRANCH  27  51
ATOM     51  C   UNL A   1      36.226  30.756  29.381  1.00  0.00     0.023 A 
ATOM     52  C   UNL A   1      35.471  29.818  28.654  1.00  0.00     0.012 A 
ATOM     53  C   UNL A   1      35.826  32.108  29.341  1.00  0.00     0.148 A 
ATOM     54  C   UNL A   1      34.379  30.220  27.877  1.00  0.00     0.002 A 
ATOM     55  C   UNL A   1      34.685  32.488  28.638  1.00  0.00     0.091 A 
ATOM     56  F   UNL A   1      36.520  32.998  30.067  1.00  0.00    -0.205 F 
ATOM     57  C   UNL A   1      33.977  31.553  27.878  1.00  0.00     0.022 A 
BRANCH  55  58
ATOM     58  S   UNL A   1      34.000  34.139  28.835  1.00  0.00     0.127 S 
ATOM     59  O   UNL A   1      35.045  34.969  28.244  1.00  0.00    -0.237 OA
ATOM     60  O   UNL A   1      32.759  34.076  28.066  1.00  0.00    -0.237 OA
ATOM     61  O   UNL A   1      33.797  34.262  30.277  1.00  0.00    -0.744 OA
ENDBRANCH  55  58
ENDBRANCH  27  51
BRANCH  39  62
ATOM     62  C   UNL A   1      38.741  32.074  35.662  1.00  0.00     0.023 A 
ATOM     63  C   UNL A   1      38.861  33.479  35.673  1.00  0.00     0.012 A 
ATOM     64  C   UNL A   1      38.133  31.399  36.725  1.00  0.00     0.148 A 
ATOM     65  C   UNL A   1      38.433  34.201  36.777  1.00  0.00     0.002 A 
ATOM     66  C   UNL A   1      37.627  32.132  37.777  1.00  0.00     0.091 A 
ATOM     67  F   UNL A   1      38.090  30.059  36.692  1.00  0.00    -0.205 F 
ATOM     68  C   UNL A   1      37.800  33.528  37.821  1.00  0.00     0.022 A 
BRANCH  66  69
ATOM     69  S   UNL A   1      36.697  31.359  39.092  1.00  0.00     0.127 S 
ATOM     70  O   UNL A   1      37.707  31.248  40.143  1.00  0.00    -0.237 OA
ATOM     71  O   UNL A   1      35.652  32.351  39.341  1.00  0.00    -0.237 OA
ATOM     72  O   UNL A   1      36.218  30.091  38.557  1.00  0.00    -0.744 OA
ENDBRANCH  66  69
ENDBRANCH  39  62
ENDBRANCH  13  14
ENDBRANCH   6   8
ENDBRANCH   5   6
ENDBRANCH   4   5
ENDBRANCH   3   4
ENDBRANCH   2   3
ENDBRANCH   1   2
BRANCH   1  73
ATOM     73  C   UNL A   1      40.479  21.450  26.371  1.00  0.00     0.188 C 
BRANCH  73  74
ATOM     74  O   UNL A   1      39.078  21.206  26.462  1.00  0.00    -0.376 OA
BRANCH  74  75
ATOM     75  C   UNL A   1      38.265  21.610  25.368  1.00  0.00     0.202 C 
BRANCH  75  76
ATOM     76  C   UNL A   1      36.984  22.395  25.664  1.00  0.00     0.261 C 
BRANCH  76  77
ATOM     77  O   UNL A   1      35.890  22.025  24.839  1.00  0.00    -0.463 OA
BRANCH  77  78
ATOM     78  C   UNL A   1      34.858  22.898  24.669  1.00  0.00     0.310 C 
ATOM     79  O   UNL A   1      34.995  24.076  24.368  1.00  0.00    -0.252 OA
BRANCH  78  80
ATOM     80  C   UNL A   1      33.501  22.199  24.898  1.00  0.00     0.115 C 
ATOM     81  C   UNL A   1      33.723  20.975  25.810  1.00  0.00     0.043 C 
ATOM     82  C   UNL A   1      32.560  23.272  25.478  1.00  0.00     0.097 C 
ATOM     83  C   UNL A   1      33.926  21.380  27.247  1.00  0.00    -0.030 C 
ATOM     84  C   UNL A   1      33.084  23.730  26.845  1.00  0.00     0.041 C 
ATOM     85  C   UNL A   1      33.699  22.631  27.684  1.00  0.00    -0.030 C 
BRANCH  82  86
ATOM     86  C   UNL A   1      31.021  23.143  25.249  1.00  0.00     0.224 C 
ATOM     87  O   UNL A   1      30.387  22.395  26.006  1.00  0.00    -0.275 OA
ATOM     88  N   UNL A   1      30.307  23.816  24.303  1.00  0.00    -0.344 N 
ATOM     89  H   UNL A   1      29.374  23.532  24.174  1.00  0.00     0.164 HD
BRANCH  88  90
ATOM     90  C   UNL A   1      30.768  24.897  23.472  1.00  0.00     0.172 C 
ATOM     91  C   UNL A   1      32.157  24.377  22.355  1.00  0.00     0.037 C 
ATOM     92  C   UNL A   1      30.637  26.559  24.304  1.00  0.00     0.249 C 
ATOM     93  C   UNL A   1      33.214  25.838  21.608  1.00  0.00     0.025 C 
ATOM     94  N   UNL A   1      31.137  27.828  23.587  1.00  0.00    -0.308 N 
ATOM     95  O   UNL A   1      30.186  26.610  25.452  1.00  0.00    -0.272 OA
ATOM     96  C   UNL A   1      32.552  27.871  22.401  1.00  0.00     0.126 C 
BRANCH  94  97
ATOM     97  C   UNL A   1      30.788  29.143  24.058  1.00  0.00     0.080 A 
ATOM     98  C   UNL A   1      29.735  29.829  23.426  1.00  0.00     0.029 A 
ATOM     99  C   UNL A   1      31.424  29.781  25.128  1.00  0.00     0.146 A 
ATOM    100  C   UNL A   1      29.330  31.098  23.856  1.00  0.00     0.002 A 
ATOM    101  C   UNL A   1      31.013  31.041  25.569  1.00  0.00     0.041 A 
ATOM    102  F   UNL A   1      32.526  29.275  25.698  1.00  0.00    -0.205 F 
ATOM    103  C   UNL A   1      29.966  31.704  24.935  1.00  0.00     0.003 A 
ENDBRANCH  94  97
ENDBRANCH  88  90
ENDBRANCH  82  86
ENDBRANCH  78  80
ENDBRANCH  77  78
ENDBRANCH  76  77
ENDBRANCH  75  76
ENDBRANCH  74  75
ENDBRANCH  73  74
ENDBRANCH   1  73
TORSDOF 23
ENDMDL
MODEL 2
REMARK VINA RESULT:     -11.3      2.730      3.848
REMARK SMILES O=C(OCCOCCOCCOC(=O)[C@H]1CC=CC[C@@H]1C(=O)N[C@@H]1CCCN(c2ccccc2F)C1=O)c1ccc(-c2c3nc(c(-c4cccc(S(=O)(=O)[O-])c4F)c4ccc([nH]4)c(-c4cccc(S(=O)(=O)[O-])c4F)c4nc(c(-c5cccc(S(=O)(=O)[O-])c5F)c5ccc2[nH]5)C=C4)C=C3)cc1
REMARK SMILES IDX 7 1 6 2 5 3 4 4 3 5 2 6 1 7 38 8 39 9 100 10 40 11 99 12
REMARK SMILES IDX 41 13 42 14 43 15 93 16 44 17 98 18 92 19 94 20 45 21 97 22
REMARK SMILES IDX 91 23 90 24 46 26 78 27 58 28 77 29 59 30 62 31 76 32 95 33
REMARK SMILES IDX 60 34 61 35 75 37 96 38 63 39 47 40 48 41 56 42 49 43 51 44
REMARK SMILES IDX 57 45 50 46 52 47 53 48 54 49 55 50 79 51 80 52 88 53 81 54
REMARK SMILES IDX 83 55 89 56 82 57 84 58 85 59 86 60 87 61 64 62 65 63 73 64
REMARK SMILES IDX 66 65 68 66 74 67 67 68 69 69 70 70 71 71 72 72 8 73 9 74
REMARK SMILES IDX 10 75 11 76 12 77 13 78 14 79 15 80 16 81 20 82 17 83 19 84
REMARK SMILES IDX 18 85 21 86 22 87 23 88 24 90 25 91 36 92 26 93 28 94 37 95
REMARK SMILES IDX 27 96 29 97 30 98 34 99 31 100 33 101 35 102 32 103
REMARK H PARENT 94 25 62 36 23 89
REMARK Flexibility Score: inf
ROOT
ATOM      1  C   UNL A   1      39.745  22.139  26.486  1.00  0.00     0.188 C 
ENDROOT
BRANCH   1   2
ATOM      2  O   UNL A   1      40.414  21.265  27.395  1.00  0.00    -0.376 OA
BRANCH   2   3
ATOM      3  C   UNL A   1      40.796  19.977  26.917  1.00  0.00     0.202 C 
BRANCH   3   4
ATOM      4  C   UNL A   1      42.101  19.817  26.113  1.00  0.00     0.261 C 
BRANCH   4   5
ATOM      5  O   UNL A   1      42.650  20.980  25.462  1.00  0.00    -0.460 OA
BRANCH   5   6
ATOM      6  C   UNL A   1      43.721  21.762  25.718  1.00  0.00     0.338 C 
ATOM      7  O   UNL A   1      44.798  21.455  25.208  1.00  0.00    -0.246 OA
BRANCH   6   8
ATOM      8  C   UNL A   1      43.678  22.960  26.599  1.00  0.00     0.060 A 
ATOM      9  C   UNL A   1      43.850  24.276  26.175  1.00  0.00     0.016 A 
ATOM     10  C   UNL A   1      43.374  22.742  27.949  1.00  0.00     0.016 A 
ATOM     11  C   UNL A   1      43.829  25.352  27.045  1.00  0.00     0.010 A 
ATOM     12  C   UNL A   1      43.325  23.813  28.836  1.00  0.00     0.010 A 
ATOM     13  C   UNL A   1      43.590  25.114  28.383  1.00  0.00    -0.014 A 
BRANCH  13  14
ATOM     14  C   UNL A   1      43.733  26.194  29.341  1.00  0.00     0.031 A 
ATOM     15  C   UNL A   1      44.995  26.372  30.065  1.00  0.00     0.074 A 
ATOM     16  C   UNL A   1      42.675  26.949  29.659  1.00  0.00     0.049 A 
ATOM     17  N   UNL A   1      45.233  27.262  30.977  1.00  0.00    -0.248 NA
ATOM     18  C   UNL A   1      46.125  25.504  29.702  1.00  0.00     0.031 C 
ATOM     19  C   UNL A   1      41.013  26.993  28.676  1.00  0.00     0.029 A 
ATOM     20  N   UNL A   1      42.389  28.003  31.059  1.00  0.00    -0.354 N 
ATOM     21  C   UNL A   1      46.529  27.033  31.357  1.00  0.00     0.074 A 
ATOM     22  C   UNL A   1      47.042  25.935  30.557  1.00  0.00     0.031 C 
ATOM     23  C   UNL A   1      39.886  28.052  29.627  1.00  0.00     0.029 A 
ATOM     24  C   UNL A   1      40.765  28.709  31.143  1.00  0.00     0.049 A 
ATOM     25  H   UNL A   1      43.081  28.182  31.738  1.00  0.00     0.167 HD
ATOM     26  C   UNL A   1      47.213  27.697  32.302  1.00  0.00     0.034 A 
ATOM     27  C   UNL A   1      40.185  29.703  31.828  1.00  0.00     0.034 A 
ATOM     28  C   UNL A   1      46.671  28.731  33.141  1.00  0.00     0.049 A 
ATOM     29  C   UNL A   1      41.136  30.394  32.689  1.00  0.00     0.074 A 
ATOM     30  C   UNL A   1      47.341  29.421  34.131  1.00  0.00     0.029 A 
ATOM     31  N   UNL A   1      45.355  29.192  33.151  1.00  0.00    -0.354 N 
ATOM     32  N   UNL A   1      42.412  30.140  32.793  1.00  0.00    -0.248 NA
ATOM     33  C   UNL A   1      40.624  31.509  33.471  1.00  0.00     0.031 C 
ATOM     34  C   UNL A   1      46.436  30.280  34.749  1.00  0.00     0.029 A 
ATOM     35  C   UNL A   1      45.212  30.193  34.103  1.00  0.00     0.049 A 
ATOM     36  H   UNL A   1      44.635  28.857  32.569  1.00  0.00     0.167 HD
ATOM     37  C   UNL A   1      42.862  31.014  33.739  1.00  0.00     0.074 A 
ATOM     38  C   UNL A   1      41.749  31.913  34.038  1.00  0.00     0.031 C 
ATOM     39  C   UNL A   1      44.052  31.008  34.371  1.00  0.00     0.034 A 
BRANCH  26  40
ATOM     40  C   UNL A   1      48.624  27.266  32.486  1.00  0.00     0.023 A 
ATOM     41  C   UNL A   1      49.666  27.961  31.841  1.00  0.00     0.012 A 
ATOM     42  C   UNL A   1      48.904  26.165  33.306  1.00  0.00     0.148 A 
ATOM     43  C   UNL A   1      50.984  27.555  32.016  1.00  0.00     0.002 A 
ATOM     44  C   UNL A   1      50.220  25.808  33.527  1.00  0.00     0.091 A 
ATOM     45  F   UNL A   1      47.874  25.494  33.843  1.00  0.00    -0.205 F 
ATOM     46  C   UNL A   1      51.261  26.493  32.875  1.00  0.00     0.022 A 
BRANCH  44  47
ATOM     47  S   UNL A   1      50.669  24.509  34.673  1.00  0.00     0.127 S 
ATOM     48  O   UNL A   1      49.855  23.394  34.187  1.00  0.00    -0.237 OA
ATOM     49  O   UNL A   1      52.103  24.380  34.424  1.00  0.00    -0.237 OA
ATOM     50  O   UNL A   1      50.309  24.996  35.998  1.00  0.00    -0.744 OA
ENDBRANCH  44  47
ENDBRANCH  26  40
BRANCH  27  51
ATOM     51  C   UNL A   1      38.808  30.160  31.495  1.00  0.00     0.023 A 
ATOM     52  C   UNL A   1      37.690  29.506  32.045  1.00  0.00     0.012 A 
ATOM     53  C   UNL A   1      38.589  31.332  30.741  1.00  0.00     0.148 A 
ATOM     54  C   UNL A   1      36.394  29.980  31.816  1.00  0.00     0.002 A 
ATOM     55  C   UNL A   1      37.304  31.848  30.592  1.00  0.00     0.091 A 
ATOM     56  F   UNL A   1      39.657  31.981  30.250  1.00  0.00    -0.205 F 
ATOM     57  C   UNL A   1      36.200  31.158  31.100  1.00  0.00     0.022 A 
BRANCH  55  58
ATOM     58  S   UNL A   1      37.054  33.491  29.904  1.00  0.00     0.127 S 
ATOM     59  O   UNL A   1      37.954  34.297  30.723  1.00  0.00    -0.237 OA
ATOM     60  O   UNL A   1      37.467  33.333  28.512  1.00  0.00    -0.237 OA
ATOM     61  O   UNL A   1      35.621  33.725  30.074  1.00  0.00    -0.744 OA
ENDBRANCH  55  58
ENDBRANCH  27  51
BRANCH  39  62
ATOM     62  C   UNL A   1      44.124  32.002  35.476  1.00  0.00     0.023 A 
ATOM     63  C   UNL A   1      44.660  33.284  35.234  1.00  0.00     0.012 A 
ATOM     64  C   UNL A   1      43.714  31.628  36.760  1.00  0.00     0.148 A 
ATOM     65  C   UNL A   1      44.847  34.166  36.288  1.00  0.00     0.002 A 
ATOM     66  C   UNL A   1      43.819  32.544  37.785  1.00  0.00     0.091 A 
ATOM     67  F   UNL A   1      43.260  30.381  36.949  1.00  0.00    -0.205 F 
ATOM     68  C   UNL A   1      44.409  33.801  37.560  1.00  0.00     0.022 A 
BRANCH  66  69
ATOM     69  S   UNL A   1      43.170  32.199  39.414  1.00  0.00     0.127 S 
ATOM     70  O   UNL A   1      44.032  31.102  39.849  1.00  0.00    -0.237 OA
ATOM     71  O   UNL A   1      43.396  33.471  40.100  1.00  0.00    -0.237 OA
ATOM     72  O   UNL A   1      41.769  31.851  39.226  1.00  0.00    -0.744 OA
ENDBRANCH  66  69
ENDBRANCH  39  62
ENDBRANCH  13  14
ENDBRANCH   6   8
ENDBRANCH   5   6
ENDBRANCH   4   5
ENDBRANCH   3   4
ENDBRANCH   2   3
ENDBRANCH   1   2
BRANCH   1  73
ATOM     73  C   UNL A   1      38.428  21.637  25.903  1.00  0.00     0.188 C 
BRANCH  73  74
ATOM     74  O   UNL A   1      37.726  22.495  25.008  1.00  0.00    -0.376 OA
BRANCH  74  75
ATOM     75  C   UNL A   1      36.620  21.950  24.301  1.00  0.00     0.202 C 
BRANCH  75  76
ATOM     76  C   UNL A   1      35.838  22.864  23.354  1.00  0.00     0.261 C 
BRANCH  76  77
ATOM     77  O   UNL A   1      34.430  22.757  23.497  1.00  0.00    -0.463 OA
BRANCH  77  78
ATOM     78  C   UNL A   1      33.765  23.680  24.246  1.00  0.00     0.310 C 
ATOM     79  O   UNL A   1      34.197  24.793  24.511  1.00  0.00    -0.252 OA
BRANCH  78  80
ATOM     80  C   UNL A   1      32.394  23.135  24.702  1.00  0.00     0.115 C 
ATOM     81  C   UNL A   1      32.427  21.596  24.634  1.00  0.00     0.043 C 
ATOM     82  C   UNL A   1      32.153  23.713  26.110  1.00  0.00     0.097 C 
ATOM     83  C   UNL A   1      33.211  21.002  25.776  1.00  0.00    -0.030 C 
ATOM     84  C   UNL A   1      33.214  23.171  27.076  1.00  0.00     0.041 C 
ATOM     85  C   UNL A   1      33.613  21.732  26.831  1.00  0.00    -0.030 C 
BRANCH  82  86
ATOM     86  C   UNL A   1      30.688  23.914  26.612  1.00  0.00     0.224 C 
ATOM     87  O   UNL A   1      30.258  23.125  27.465  1.00  0.00    -0.275 OA
ATOM     88  N   UNL A   1      29.850  24.912  26.215  1.00  0.00    -0.344 N 
ATOM     89  H   UNL A   1      28.911  24.835  26.499  1.00  0.00     0.164 HD
BRANCH  88  90
ATOM     90  C   UNL A   1      30.187  26.066  25.424  1.00  0.00     0.172 C 
ATOM     91  C   UNL A   1      30.199  25.689  23.606  1.00  0.00     0.037 C 
ATOM     92  C   UNL A   1      31.383  27.209  26.281  1.00  0.00     0.249 C 
ATOM     93  C   UNL A   1      31.159  26.976  22.496  1.00  0.00     0.025 C 
ATOM     94  N   UNL A   1      31.903  28.470  25.563  1.00  0.00    -0.308 N 
ATOM     95  O   UNL A   1      31.779  26.909  27.411  1.00  0.00    -0.272 OA
ATOM     96  C   UNL A   1      32.162  28.604  23.740  1.00  0.00     0.126 C 
BRANCH  94  97
ATOM     97  C   UNL A   1      32.578  29.518  26.283  1.00  0.00     0.080 A 
ATOM     98  C   UNL A   1      31.886  30.715  26.540  1.00  0.00     0.029 A 
ATOM     99  C   UNL A   1      33.888  29.414  26.764  1.00  0.00     0.146 A 
ATOM    100  C   UNL A   1      32.479  31.760  27.259  1.00  0.00     0.002 A 
ATOM    101  C   UNL A   1      34.478  30.449  27.494  1.00  0.00     0.041 A 
ATOM    102  F   UNL A   1      34.676  28.377  26.447  1.00  0.00    -0.205 F 
ATOM    103  C   UNL A   1      33.776  31.624  27.743  1.00  0.00     0.003 A 
ENDBRANCH  94  97
ENDBRANCH  88  90
ENDBRANCH  82  86
ENDBRANCH  78  80
ENDBRANCH  77  78
ENDBRANCH  76  77
ENDBRANCH  75  76
ENDBRANCH  74  75
ENDBRANCH  73  74
ENDBRANCH   1  73
TORSDOF 23
ENDMDL
MODEL 3
REMARK VINA RESULT:     -10.6      5.487      9.536
REMARK SMILES O=C(OCCOCCOCCOC(=O)[C@H]1CC=CC[C@@H]1C(=O)N[C@@H]1CCCN(c2ccccc2F)C1=O)c1ccc(-c2c3nc(c(-c4cccc(S(=O)(=O)[O-])c4F)c4ccc([nH]4)c(-c4cccc(S(=O)(=O)[O-])c4F)c4nc(c(-c5cccc(S(=O)(=O)[O-])c5F)c5ccc2[nH]5)C=C4)C=C3)cc1
REMARK SMILES IDX 7 1 6 2 5 3 4 4 3 5 2 6 1 7 38 8 39 9 100 10 40 11 99 12
REMARK SMILES IDX 41 13 42 14 43 15 93 16 44 17 98 18 92 19 94 20 45 21 97 22
REMARK SMILES IDX 91 23 90 24 46 26 78 27 58 28 77 29 59 30 62 31 76 32 95 33
REMARK SMILES IDX 60 34 61 35 75 37 96 38 63 39 47 40 48 41 56 42 49 43 51 44
REMARK SMILES IDX 57 45 50 46 52 47 53 48 54 49 55 50 79 51 80 52 88 53 81 54
REMARK SMILES IDX 83 55 89 56 82 57 84 58 85 59 86 60 87 61 64 62 65 63 73 64
REMARK SMILES IDX 66 65 68 66 74 67 67 68 69 69 70 70 71 71 72 72 8 73 9 74
REMARK SMILES IDX 10 75 11 76 12 77 13 78 14 79 15 80 16 81 20 82 17 83 19 84
REMARK SMILES IDX 18 85 21 86 22 87 23 88 24 90 25 91 36 92 26 93 28 94 37 95
REMARK SMILES IDX 27 96 29 97 30 98 34 99 31 100 33 101 35 102 32 103
REMARK H PARENT 94 25 62 36 23 89
REMARK Flexibility Score: inf
ROOT
ATOM      1  C   UNL A   1      41.011  20.254  27.420  1.00  0.00     0.188 C 
ENDROOT
BRANCH   1   2
ATOM      2  O   UNL A   1      42.355  19.845  27.672  1.00  0.00    -0.376 OA
BRANCH   2   3
ATOM      3  C   UNL A   1      42.704  18.494  27.378  1.00  0.00     0.202 C 
BRANCH   3   4
ATOM      4  C   UNL A   1      43.374  18.154  26.031  1.00  0.00     0.261 C 
BRANCH   4   5
ATOM      5  O   UNL A   1      43.235  19.090  24.944  1.00  0.00    -0.460 OA
BRANCH   5   6
ATOM      6  C   UNL A   1      44.042  20.050  24.443  1.00  0.00     0.338 C 
ATOM      7  O   UNL A   1      44.763  19.762  23.489  1.00  0.00    -0.246 OA
BRANCH   6   8
ATOM      8  C   UNL A   1      44.126  21.430  24.995  1.00  0.00     0.060 A 
ATOM      9  C   UNL A   1      43.718  22.586  24.333  1.00  0.00     0.016 A 
ATOM     10  C   UNL A   1      44.592  21.557  26.310  1.00  0.00     0.016 A 
ATOM     11  C   UNL A   1      43.847  23.849  24.884  1.00  0.00     0.010 A 
ATOM     12  C   UNL A   1      44.706  22.817  26.890  1.00  0.00     0.010 A 
ATOM     13  C   UNL A   1      44.365  23.963  26.157  1.00  0.00    -0.014 A 
BRANCH  13  14
ATOM     14  C   UNL A   1      44.673  25.277  26.692  1.00  0.00     0.031 A 
ATOM     15  C   UNL A   1      43.601  26.121  27.227  1.00  0.00     0.074 A 
ATOM     16  C   UNL A   1      45.912  25.770  26.582  1.00  0.00     0.049 A 
ATOM     17  N   UNL A   1      43.735  27.327  27.685  1.00  0.00    -0.248 NA
ATOM     18  C   UNL A   1      42.248  25.550  27.307  1.00  0.00     0.031 C 
ATOM     19  C   UNL A   1      47.472  24.738  26.100  1.00  0.00     0.029 A 
ATOM     20  N   UNL A   1      46.504  27.439  26.703  1.00  0.00    -0.354 N 
ATOM     21  C   UNL A   1      42.471  27.700  28.059  1.00  0.00     0.074 A 
ATOM     22  C   UNL A   1      41.580  26.583  27.799  1.00  0.00     0.031 C 
ATOM     23  C   UNL A   1      48.839  25.925  25.945  1.00  0.00     0.029 A 
ATOM     24  C   UNL A   1      48.227  27.648  26.342  1.00  0.00     0.049 A 
ATOM     25  H   UNL A   1      45.919  28.192  26.951  1.00  0.00     0.167 HD
ATOM     26  C   UNL A   1      42.108  28.886  28.571  1.00  0.00     0.034 A 
ATOM     27  C   UNL A   1      49.136  28.613  26.530  1.00  0.00     0.034 A 
ATOM     28  C   UNL A   1      42.984  30.011  28.752  1.00  0.00     0.049 A 
ATOM     29  C   UNL A   1      48.575  29.757  27.236  1.00  0.00     0.074 A 
ATOM     30  C   UNL A   1      42.641  31.248  29.259  1.00  0.00     0.029 A 
ATOM     31  N   UNL A   1      44.331  30.084  28.397  1.00  0.00    -0.354 N 
ATOM     32  N   UNL A   1      47.353  29.866  27.684  1.00  0.00    -0.248 NA
ATOM     33  C   UNL A   1      49.476  30.864  27.515  1.00  0.00     0.031 C 
ATOM     34  C   UNL A   1      43.763  32.070  29.197  1.00  0.00     0.029 A 
ATOM     35  C   UNL A   1      44.838  31.335  28.722  1.00  0.00     0.049 A 
ATOM     36  H   UNL A   1      44.845  29.356  27.978  1.00  0.00     0.167 HD
ATOM     37  C   UNL A   1      47.296  31.114  28.231  1.00  0.00     0.074 A 
ATOM     38  C   UNL A   1      48.659  31.641  28.207  1.00  0.00     0.031 C 
ATOM     39  C   UNL A   1      46.202  31.797  28.622  1.00  0.00     0.034 A 
BRANCH  26  40
ATOM     40  C   UNL A   1      40.669  29.011  28.926  1.00  0.00     0.023 A 
ATOM     41  C   UNL A   1      39.704  29.187  27.916  1.00  0.00     0.012 A 
ATOM     42  C   UNL A   1      40.288  28.949  30.273  1.00  0.00     0.148 A 
ATOM     43  C   UNL A   1      38.359  29.302  28.253  1.00  0.00     0.002 A 
ATOM     44  C   UNL A   1      38.946  28.999  30.594  1.00  0.00     0.091 A 
ATOM     45  F   UNL A   1      41.250  28.850  31.202  1.00  0.00    -0.205 F 
ATOM     46  C   UNL A   1      37.980  29.186  29.589  1.00  0.00     0.022 A 
BRANCH  44  47
ATOM     47  S   UNL A   1      38.366  28.781  32.273  1.00  0.00     0.127 S 
ATOM     48  O   UNL A   1      38.803  27.414  32.559  1.00  0.00    -0.237 OA
ATOM     49  O   UNL A   1      39.106  29.825  32.978  1.00  0.00    -0.237 OA
ATOM     50  O   UNL A   1      36.921  28.963  32.230  1.00  0.00    -0.744 OA
ENDBRANCH  44  47
ENDBRANCH  26  40
BRANCH  27  51
ATOM     51  C   UNL A   1      50.581  28.365  26.268  1.00  0.00     0.023 A 
ATOM     52  C   UNL A   1      51.466  28.133  27.337  1.00  0.00     0.012 A 
ATOM     53  C   UNL A   1      51.071  28.217  24.954  1.00  0.00     0.148 A 
ATOM     54  C   UNL A   1      52.807  27.807  27.104  1.00  0.00     0.002 A 
ATOM     55  C   UNL A   1      52.383  27.805  24.730  1.00  0.00     0.091 A 
ATOM     56  F   UNL A   1      50.218  28.397  23.933  1.00  0.00    -0.205 F 
ATOM     57  C   UNL A   1      53.263  27.630  25.801  1.00  0.00     0.022 A 
BRANCH  55  58
ATOM     58  S   UNL A   1      52.917  27.319  23.083  1.00  0.00     0.127 S 
ATOM     59  O   UNL A   1      53.562  26.036  23.345  1.00  0.00    -0.237 OA
ATOM     60  O   UNL A   1      51.662  27.235  22.339  1.00  0.00    -0.237 OA
ATOM     61  O   UNL A   1      53.784  28.418  22.660  1.00  0.00    -0.744 OA
ENDBRANCH  55  58
ENDBRANCH  27  51
BRANCH  39  62
ATOM     62  C   UNL A   1      46.503  33.205  28.998  1.00  0.00     0.023 A 
ATOM     63  C   UNL A   1      46.966  33.500  30.297  1.00  0.00     0.012 A 
ATOM     64  C   UNL A   1      46.263  34.226  28.074  1.00  0.00     0.148 A 
ATOM     65  C   UNL A   1      47.124  34.821  30.691  1.00  0.00     0.002 A 
ATOM     66  C   UNL A   1      46.511  35.531  28.444  1.00  0.00     0.091 A 
ATOM     67  F   UNL A   1      45.774  33.898  26.869  1.00  0.00    -0.205 F 
ATOM     68  C   UNL A   1      46.914  35.835  29.758  1.00  0.00     0.022 A 
BRANCH  66  69
ATOM     69  S   UNL A   1      46.383  36.874  27.273  1.00  0.00     0.127 S 
ATOM     70  O   UNL A   1      46.681  38.030  28.115  1.00  0.00    -0.237 OA
ATOM     71  O   UNL A   1      47.426  36.527  26.307  1.00  0.00    -0.237 OA
ATOM     72  O   UNL A   1      45.026  36.823  26.746  1.00  0.00    -0.744 OA
ENDBRANCH  66  69
ENDBRANCH  39  62
ENDBRANCH  13  14
ENDBRANCH   6   8
ENDBRANCH   5   6
ENDBRANCH   4   5
ENDBRANCH   3   4
ENDBRANCH   2   3
ENDBRANCH   1   2
BRANCH   1  73
ATOM     73  C   UNL A   1      40.828  21.558  26.652  1.00  0.00     0.188 C 
BRANCH  73  74
ATOM     74  O   UNL A   1      39.546  21.828  26.093  1.00  0.00    -0.376 OA
BRANCH  74  75
ATOM     75  C   UNL A   1      38.885  20.769  25.413  1.00  0.00     0.202 C 
BRANCH  75  76
ATOM     76  C   UNL A   1      37.585  21.081  24.667  1.00  0.00     0.261 C 
BRANCH  76  77
ATOM     77  O   UNL A   1      36.432  21.036  25.494  1.00  0.00    -0.463 OA
BRANCH  77  78
ATOM     78  C   UNL A   1      35.894  22.201  25.950  1.00  0.00     0.310 C 
ATOM     79  O   UNL A   1      36.543  23.114  26.441  1.00  0.00    -0.252 OA
BRANCH  78  80
ATOM     80  C   UNL A   1      34.363  22.213  25.755  1.00  0.00     0.115 C 
ATOM     81  C   UNL A   1      33.811  23.561  26.262  1.00  0.00     0.043 C 
ATOM     82  C   UNL A   1      34.120  21.940  24.259  1.00  0.00     0.097 C 
ATOM     83  C   UNL A   1      34.093  24.680  25.292  1.00  0.00    -0.030 C 
ATOM     84  C   UNL A   1      34.703  23.087  23.426  1.00  0.00     0.041 C 
ATOM     85  C   UNL A   1      34.554  24.458  24.049  1.00  0.00    -0.030 C 
BRANCH  82  86
ATOM     86  C   UNL A   1      32.782  21.269  23.812  1.00  0.00     0.224 C 
ATOM     87  O   UNL A   1      32.849  20.163  23.257  1.00  0.00    -0.275 OA
ATOM     88  N   UNL A   1      31.537  21.785  24.015  1.00  0.00    -0.344 N 
ATOM     89  H   UNL A   1      30.794  21.331  23.556  1.00  0.00     0.164 HD
BRANCH  88  90
ATOM     90  C   UNL A   1      31.189  22.921  24.827  1.00  0.00     0.172 C 
ATOM     91  C   UNL A   1      30.256  22.431  26.355  1.00  0.00     0.037 C 
ATOM     92  C   UNL A   1      30.855  24.454  23.822  1.00  0.00     0.249 C 
ATOM     93  C   UNL A   1      29.267  23.871  27.224  1.00  0.00     0.025 C 
ATOM     94  N   UNL A   1      30.412  25.757  24.517  1.00  0.00    -0.308 N 
ATOM     95  O   UNL A   1      30.952  24.388  22.594  1.00  0.00    -0.272 OA
ATOM     96  C   UNL A   1      29.397  25.827  26.059  1.00  0.00     0.126 C 
BRANCH  94  97
ATOM     97  C   UNL A   1      30.433  27.020  23.827  1.00  0.00     0.080 A 
ATOM     98  C   UNL A   1      31.659  27.697  23.696  1.00  0.00     0.029 A 
ATOM     99  C   UNL A   1      29.303  27.615  23.256  1.00  0.00     0.146 A 
ATOM    100  C   UNL A   1      31.750  28.915  23.012  1.00  0.00     0.002 A 
ATOM    101  C   UNL A   1      29.392  28.823  22.560  1.00  0.00     0.041 A 
ATOM    102  F   UNL A   1      28.072  27.124  23.452  1.00  0.00    -0.205 F 
ATOM    103  C   UNL A   1      30.615  29.477  22.437  1.00  0.00     0.003 A 
ENDBRANCH  94  97
ENDBRANCH  88  90
ENDBRANCH  82  86
ENDBRANCH  78  80
ENDBRANCH  77  78
ENDBRANCH  76  77
ENDBRANCH  75  76
ENDBRANCH  74  75
ENDBRANCH  73  74
ENDBRANCH   1  73
TORSDOF 23
ENDMDL
