MODEL 1
REMARK VINA RESULT:      -8.1      0.000      0.000
REMARK SMILES O=C(OCCOCCOCCOC(=O)c1ccc(Cn2cc(Br)cc([N+](=O)[O-])c2=O)nc1)c1ccc(-c2c3nc(c(-c4cccc(S(=O)(=O)[O-])c4F)c4ccc([nH]4)c(-c4cccc(S(=O)(=O)[O-])c4F)c4nc(c(-c5cccc(S(=O)(=O)[O-])c5F)c5ccc2[nH]5)C=C4)C=C3)cc1
REMARK SMILES IDX 7 1 6 2 5 3 4 4 3 5 2 6 1 7 33 8 34 9 95 10 35 11 94 12
REMARK SMILES IDX 36 13 37 14 38 15 88 16 39 17 93 18 87 19 89 20 40 21 92 22
REMARK SMILES IDX 86 23 85 24 41 26 73 27 53 28 72 29 54 30 57 31 71 32 90 33
REMARK SMILES IDX 55 34 56 35 70 37 91 38 58 39 42 40 43 41 51 42 44 43 46 44
REMARK SMILES IDX 52 45 45 46 47 47 48 48 49 49 50 50 74 51 75 52 83 53 76 54
REMARK SMILES IDX 78 55 84 56 77 57 79 58 80 59 81 60 82 61 59 62 60 63 68 64
REMARK SMILES IDX 61 65 63 66 69 67 62 68 64 69 65 70 66 71 67 72 8 73 9 74
REMARK SMILES IDX 10 75 11 76 12 77 13 78 14 79 15 80 16 81 32 82 17 83 31 84
REMARK SMILES IDX 18 85 19 86 20 87 21 88 29 89 22 90 25 91 30 92 23 93 24 94
REMARK SMILES IDX 26 95 27 96 28 97
REMARK H PARENT 89 25 57 36
REMARK Flexibility Score: inf
ROOT
ATOM      1  C   UNL A   1      33.280  35.008  29.334  1.00  0.00     0.188 C 
ENDROOT
BRANCH   1   2
ATOM      2  O   UNL A   1      33.006  34.718  30.703  1.00  0.00    -0.376 OA
BRANCH   2   3
ATOM      3  C   UNL A   1      33.855  35.433  31.600  1.00  0.00     0.202 C 
BRANCH   3   4
ATOM      4  C   UNL A   1      35.114  34.649  31.961  1.00  0.00     0.261 C 
BRANCH   4   5
ATOM      5  O   UNL A   1      35.512  34.814  33.332  1.00  0.00    -0.460 OA
BRANCH   5   6
ATOM      6  C   UNL A   1      36.109  33.961  34.197  1.00  0.00     0.338 C 
ATOM      7  O   UNL A   1      35.559  33.794  35.287  1.00  0.00    -0.246 OA
BRANCH   6   8
ATOM      8  C   UNL A   1      37.419  33.259  33.976  1.00  0.00     0.060 A 
ATOM      9  C   UNL A   1      37.367  32.075  33.209  1.00  0.00     0.016 A 
ATOM     10  C   UNL A   1      38.680  33.695  34.395  1.00  0.00     0.016 A 
ATOM     11  C   UNL A   1      38.527  31.378  32.850  1.00  0.00     0.010 A 
ATOM     12  C   UNL A   1      39.843  32.998  34.045  1.00  0.00     0.010 A 
ATOM     13  C   UNL A   1      39.778  31.853  33.249  1.00  0.00    -0.014 A 
BRANCH  13  14
ATOM     14  C   UNL A   1      41.023  31.293  32.681  1.00  0.00     0.031 A 
ATOM     15  C   UNL A   1      41.682  31.885  31.477  1.00  0.00     0.074 A 
ATOM     16  C   UNL A   1      41.500  30.153  33.218  1.00  0.00     0.049 A 
ATOM     17  N   UNL A   1      42.834  31.573  30.945  1.00  0.00    -0.248 NA
ATOM     18  C   UNL A   1      40.958  32.948  30.764  1.00  0.00     0.031 C 
ATOM     19  C   UNL A   1      40.872  29.423  34.321  1.00  0.00     0.029 A 
ATOM     20  N   UNL A   1      42.592  29.393  32.892  1.00  0.00    -0.354 N 
ATOM     21  C   UNL A   1      42.987  32.405  29.847  1.00  0.00     0.074 A 
ATOM     22  C   UNL A   1      41.786  33.208  29.757  1.00  0.00     0.031 C 
ATOM     23  C   UNL A   1      41.580  28.311  34.570  1.00  0.00     0.029 A 
ATOM     24  C   UNL A   1      42.720  28.260  33.659  1.00  0.00     0.049 A 
ATOM     25  H   UNL A   1      43.224  29.635  32.177  1.00  0.00     0.167 HD
ATOM     26  C   UNL A   1      44.055  32.513  29.024  1.00  0.00     0.034 A 
ATOM     27  C   UNL A   1      43.662  27.299  33.651  1.00  0.00     0.034 A 
ATOM     28  C   UNL A   1      45.235  31.699  29.128  1.00  0.00     0.049 A 
ATOM     29  C   UNL A   1      44.833  27.431  32.722  1.00  0.00     0.074 A 
ATOM     30  C   UNL A   1      46.430  31.827  28.441  1.00  0.00     0.029 A 
ATOM     31  N   UNL A   1      45.354  30.582  29.938  1.00  0.00    -0.354 N 
ATOM     32  N   UNL A   1      45.094  28.394  31.871  1.00  0.00    -0.248 NA
ATOM     33  C   UNL A   1      45.857  26.379  32.775  1.00  0.00     0.031 C 
ATOM     34  C   UNL A   1      47.266  30.773  28.824  1.00  0.00     0.029 A 
ATOM     35  C   UNL A   1      46.588  29.991  29.746  1.00  0.00     0.049 A 
ATOM     36  H   UNL A   1      44.661  30.259  30.559  1.00  0.00     0.167 HD
ATOM     37  C   UNL A   1      46.324  28.082  31.309  1.00  0.00     0.074 A 
ATOM     38  C   UNL A   1      46.758  26.839  31.914  1.00  0.00     0.031 C 
ATOM     39  C   UNL A   1      47.024  28.770  30.374  1.00  0.00     0.034 A 
BRANCH  26  40
ATOM     40  C   UNL A   1      44.062  33.620  28.011  1.00  0.00     0.023 A 
ATOM     41  C   UNL A   1      43.777  33.290  26.670  1.00  0.00     0.012 A 
ATOM     42  C   UNL A   1      44.215  34.967  28.379  1.00  0.00     0.148 A 
ATOM     43  C   UNL A   1      43.662  34.285  25.701  1.00  0.00     0.002 A 
ATOM     44  C   UNL A   1      44.079  35.957  27.411  1.00  0.00     0.091 A 
ATOM     45  F   UNL A   1      44.491  35.253  29.658  1.00  0.00    -0.205 F 
ATOM     46  C   UNL A   1      43.808  35.618  26.074  1.00  0.00     0.022 A 
BRANCH  44  47
ATOM     47  S   UNL A   1      44.188  37.709  27.793  1.00  0.00     0.127 S 
ATOM     48  O   UNL A   1      43.761  38.304  26.528  1.00  0.00    -0.237 OA
ATOM     49  O   UNL A   1      43.227  37.847  28.888  1.00  0.00    -0.237 OA
ATOM     50  O   UNL A   1      45.575  37.951  28.163  1.00  0.00    -0.744 OA
ENDBRANCH  44  47
ENDBRANCH  26  40
BRANCH  27  51
ATOM     51  C   UNL A   1      43.574  26.212  34.659  1.00  0.00     0.023 A 
ATOM     52  C   UNL A   1      43.087  24.955  34.256  1.00  0.00     0.012 A 
ATOM     53  C   UNL A   1      44.096  26.370  35.957  1.00  0.00     0.148 A 
ATOM     54  C   UNL A   1      43.127  23.867  35.129  1.00  0.00     0.002 A 
ATOM     55  C   UNL A   1      44.165  25.274  36.811  1.00  0.00     0.091 A 
ATOM     56  F   UNL A   1      44.554  27.579  36.312  1.00  0.00    -0.205 F 
ATOM     57  C   UNL A   1      43.676  24.023  36.400  1.00  0.00     0.022 A 
BRANCH  55  58
ATOM     58  S   UNL A   1      44.949  25.347  38.425  1.00  0.00     0.127 S 
ATOM     59  O   UNL A   1      44.058  26.250  39.149  1.00  0.00    -0.237 OA
ATOM     60  O   UNL A   1      44.889  23.948  38.851  1.00  0.00    -0.237 OA
ATOM     61  O   UNL A   1      46.296  25.851  38.190  1.00  0.00    -0.744 OA
ENDBRANCH  55  58
ENDBRANCH  27  51
BRANCH  39  62
ATOM     62  C   UNL A   1      48.339  28.208  29.915  1.00  0.00     0.023 A 
ATOM     63  C   UNL A   1      49.485  28.426  30.703  1.00  0.00     0.012 A 
ATOM     64  C   UNL A   1      48.404  27.338  28.811  1.00  0.00     0.148 A 
ATOM     65  C   UNL A   1      50.682  27.780  30.399  1.00  0.00     0.002 A 
ATOM     66  C   UNL A   1      49.591  26.671  28.534  1.00  0.00     0.091 A 
ATOM     67  F   UNL A   1      47.295  27.151  28.082  1.00  0.00    -0.205 F 
ATOM     68  C   UNL A   1      50.731  26.894  29.325  1.00  0.00     0.022 A 
BRANCH  66  69
ATOM     69  S   UNL A   1      49.734  25.445  27.230  1.00  0.00     0.127 S 
ATOM     70  O   UNL A   1      49.709  26.281  26.030  1.00  0.00    -0.237 OA
ATOM     71  O   UNL A   1      51.031  24.836  27.523  1.00  0.00    -0.237 OA
ATOM     72  O   UNL A   1      48.591  24.554  27.384  1.00  0.00    -0.744 OA
ENDBRANCH  66  69
ENDBRANCH  39  62
ENDBRANCH  13  14
ENDBRANCH   6   8
ENDBRANCH   5   6
ENDBRANCH   4   5
ENDBRANCH   3   4
ENDBRANCH   2   3
ENDBRANCH   1   2
BRANCH   1  73
ATOM     73  C   UNL A   1      33.914  33.866  28.522  1.00  0.00     0.188 C 
BRANCH  73  74
ATOM     74  O   UNL A   1      34.035  32.597  29.154  1.00  0.00    -0.376 OA
BRANCH  74  75
ATOM     75  C   UNL A   1      34.356  31.483  28.310  1.00  0.00     0.202 C 
BRANCH  75  76
ATOM     76  C   UNL A   1      35.839  31.133  28.193  1.00  0.00     0.261 C 
BRANCH  76  77
ATOM     77  O   UNL A   1      36.083  29.757  28.546  1.00  0.00    -0.460 OA
BRANCH  77  78
ATOM     78  C   UNL A   1      36.607  29.581  29.778  1.00  0.00     0.339 C 
ATOM     79  O   UNL A   1      36.046  29.748  30.856  1.00  0.00    -0.246 OA
BRANCH  78  80
ATOM     80  C   UNL A   1      38.002  29.163  29.684  1.00  0.00     0.078 A 
ATOM     81  C   UNL A   1      38.857  29.787  28.782  1.00  0.00     0.019 A 
ATOM     82  C   UNL A   1      38.536  28.261  30.586  1.00  0.00     0.127 A 
ATOM     83  C   UNL A   1      40.218  29.489  28.823  1.00  0.00     0.026 A 
ATOM     84  N   UNL A   1      39.853  27.953  30.640  1.00  0.00    -0.258 NA
ATOM     85  C   UNL A   1      40.687  28.570  29.762  1.00  0.00     0.060 A 
BRANCH  85  86
ATOM     86  C   UNL A   1      42.177  28.324  29.926  1.00  0.00     0.181 C 
BRANCH  86  87
ATOM     87  N   UNL A   1      42.671  27.447  28.855  1.00  0.00    -0.303 N 
ATOM     88  C   UNL A   1      42.562  26.067  28.995  1.00  0.00     0.105 A 
ATOM     89  C   UNL A   1      43.163  28.049  27.681  1.00  0.00     0.329 A 
ATOM     90  C   UNL A   1      42.877  25.228  27.996  1.00  0.00     0.041 A 
ATOM     91  C   UNL A   1      43.386  27.098  26.567  1.00  0.00     0.335 A 
ATOM     92  O   UNL A   1      43.429  29.241  27.582  1.00  0.00    -0.261 OA
ATOM     93  Br  UNL A   1      42.757  23.377  28.164  1.00  0.00    -0.049 Br
ATOM     94  C   UNL A   1      43.274  25.768  26.715  1.00  0.00     0.109 A 
BRANCH  91  95
ATOM     95  N   UNL A   1      43.696  27.601  25.258  1.00  0.00     0.068 N 
ATOM     96  O   UNL A   1      42.756  27.958  24.537  1.00  0.00    -0.258 OA
ATOM     97  O   UNL A   1      44.883  27.558  24.898  1.00  0.00    -0.258 OA
ENDBRANCH  91  95
ENDBRANCH  86  87
ENDBRANCH  85  86
ENDBRANCH  78  80
ENDBRANCH  77  78
ENDBRANCH  76  77
ENDBRANCH  75  76
ENDBRANCH  74  75
ENDBRANCH  73  74
ENDBRANCH   1  73
TORSDOF 23
ENDMDL
MODEL 2
REMARK VINA RESULT:      -7.9      5.382     11.071
REMARK SMILES O=C(OCCOCCOCCOC(=O)c1ccc(Cn2cc(Br)cc([N+](=O)[O-])c2=O)nc1)c1ccc(-c2c3nc(c(-c4cccc(S(=O)(=O)[O-])c4F)c4ccc([nH]4)c(-c4cccc(S(=O)(=O)[O-])c4F)c4nc(c(-c5cccc(S(=O)(=O)[O-])c5F)c5ccc2[nH]5)C=C4)C=C3)cc1
REMARK SMILES IDX 7 1 6 2 5 3 4 4 3 5 2 6 1 7 33 8 34 9 95 10 35 11 94 12
REMARK SMILES IDX 36 13 37 14 38 15 88 16 39 17 93 18 87 19 89 20 40 21 92 22
REMARK SMILES IDX 86 23 85 24 41 26 73 27 53 28 72 29 54 30 57 31 71 32 90 33
REMARK SMILES IDX 55 34 56 35 70 37 91 38 58 39 42 40 43 41 51 42 44 43 46 44
REMARK SMILES IDX 52 45 45 46 47 47 48 48 49 49 50 50 74 51 75 52 83 53 76 54
REMARK SMILES IDX 78 55 84 56 77 57 79 58 80 59 81 60 82 61 59 62 60 63 68 64
REMARK SMILES IDX 61 65 63 66 69 67 62 68 64 69 65 70 66 71 67 72 8 73 9 74
REMARK SMILES IDX 10 75 11 76 12 77 13 78 14 79 15 80 16 81 32 82 17 83 31 84
REMARK SMILES IDX 18 85 19 86 20 87 21 88 29 89 22 90 25 91 30 92 23 93 24 94
REMARK SMILES IDX 26 95 27 96 28 97
REMARK H PARENT 89 25 57 36
REMARK Flexibility Score: inf
ROOT
ATOM      1  C   UNL A   1      37.100  21.365  24.836  1.00  0.00     0.188 C 
ENDROOT
BRANCH   1   2
ATOM      2  O   UNL A   1      36.992  19.946  24.900  1.00  0.00    -0.376 OA
BRANCH   2   3
ATOM      3  C   UNL A   1      38.260  19.298  25.000  1.00  0.00     0.202 C 
BRANCH   3   4
ATOM      4  C   UNL A   1      39.301  20.162  25.706  1.00  0.00     0.261 C 
BRANCH   4   5
ATOM      5  O   UNL A   1      40.454  19.421  26.140  1.00  0.00    -0.460 OA
BRANCH   5   6
ATOM      6  C   UNL A   1      41.778  19.675  26.014  1.00  0.00     0.338 C 
ATOM      7  O   UNL A   1      42.490  18.748  25.624  1.00  0.00    -0.246 OA
BRANCH   6   8
ATOM      8  C   UNL A   1      42.465  20.962  26.377  1.00  0.00     0.060 A 
ATOM      9  C   UNL A   1      42.873  21.773  25.296  1.00  0.00     0.016 A 
ATOM     10  C   UNL A   1      42.676  21.459  27.666  1.00  0.00     0.016 A 
ATOM     11  C   UNL A   1      43.438  23.039  25.497  1.00  0.00     0.010 A 
ATOM     12  C   UNL A   1      43.247  22.720  27.874  1.00  0.00     0.010 A 
ATOM     13  C   UNL A   1      43.605  23.529  26.794  1.00  0.00    -0.014 A 
BRANCH  13  14
ATOM     14  C   UNL A   1      43.957  24.946  27.034  1.00  0.00     0.031 A 
ATOM     15  C   UNL A   1      42.955  25.938  27.531  1.00  0.00     0.074 A 
ATOM     16  C   UNL A   1      45.193  25.352  26.687  1.00  0.00     0.049 A 
ATOM     17  N   UNL A   1      43.151  27.177  27.897  1.00  0.00    -0.248 NA
ATOM     18  C   UNL A   1      41.553  25.500  27.612  1.00  0.00     0.031 C 
ATOM     19  C   UNL A   1      46.216  24.495  26.084  1.00  0.00     0.029 A 
ATOM     20  N   UNL A   1      45.788  26.585  26.757  1.00  0.00    -0.354 N 
ATOM     21  C   UNL A   1      41.909  27.667  28.268  1.00  0.00     0.074 A 
ATOM     22  C   UNL A   1      40.952  26.606  28.039  1.00  0.00     0.031 C 
ATOM     23  C   UNL A   1      47.306  25.232  25.822  1.00  0.00     0.029 A 
ATOM     24  C   UNL A   1      47.067  26.605  26.257  1.00  0.00     0.049 A 
ATOM     25  H   UNL A   1      45.340  27.380  27.128  1.00  0.00     0.167 HD
ATOM     26  C   UNL A   1      41.613  28.878  28.794  1.00  0.00     0.034 A 
ATOM     27  C   UNL A   1      47.961  27.608  26.179  1.00  0.00     0.034 A 
ATOM     28  C   UNL A   1      42.580  29.920  29.006  1.00  0.00     0.049 A 
ATOM     29  C   UNL A   1      47.609  28.947  26.758  1.00  0.00     0.074 A 
ATOM     30  C   UNL A   1      42.413  31.125  29.667  1.00  0.00     0.029 A 
ATOM     31  N   UNL A   1      43.878  29.901  28.524  1.00  0.00    -0.354 N 
ATOM     32  N   UNL A   1      46.503  29.309  27.363  1.00  0.00    -0.248 NA
ATOM     33  C   UNL A   1      48.630  30.001  26.686  1.00  0.00     0.031 C 
ATOM     34  C   UNL A   1      43.609  31.843  29.568  1.00  0.00     0.029 A 
ATOM     35  C   UNL A   1      44.516  31.085  28.843  1.00  0.00     0.049 A 
ATOM     36  H   UNL A   1      44.285  29.154  28.028  1.00  0.00     0.167 HD
ATOM     37  C   UNL A   1      46.704  30.620  27.771  1.00  0.00     0.074 A 
ATOM     38  C   UNL A   1      48.037  30.993  27.342  1.00  0.00     0.031 C 
ATOM     39  C   UNL A   1      45.853  31.436  28.439  1.00  0.00     0.034 A 
BRANCH  26  40
ATOM     40  C   UNL A   1      40.217  29.114  29.291  1.00  0.00     0.023 A 
ATOM     41  C   UNL A   1      39.214  29.386  28.338  1.00  0.00     0.012 A 
ATOM     42  C   UNL A   1      39.868  28.949  30.642  1.00  0.00     0.148 A 
ATOM     43  C   UNL A   1      37.880  29.508  28.724  1.00  0.00     0.002 A 
ATOM     44  C   UNL A   1      38.533  29.052  31.017  1.00  0.00     0.091 A 
ATOM     45  F   UNL A   1      40.841  28.699  31.528  1.00  0.00    -0.205 F 
ATOM     46  C   UNL A   1      37.541  29.336  30.062  1.00  0.00     0.022 A 
BRANCH  44  47
ATOM     47  S   UNL A   1      37.976  28.790  32.705  1.00  0.00     0.127 S 
ATOM     48  O   UNL A   1      36.603  29.286  32.634  1.00  0.00    -0.237 OA
ATOM     49  O   UNL A   1      38.095  27.338  32.847  1.00  0.00    -0.237 OA
ATOM     50  O   UNL A   1      38.879  29.562  33.547  1.00  0.00    -0.744 OA
ENDBRANCH  44  47
ENDBRANCH  26  40
BRANCH  27  51
ATOM     51  C   UNL A   1      49.314  27.312  25.642  1.00  0.00     0.023 A 
ATOM     52  C   UNL A   1      49.507  27.332  24.248  1.00  0.00     0.012 A 
ATOM     53  C   UNL A   1      50.424  27.156  26.494  1.00  0.00     0.148 A 
ATOM     54  C   UNL A   1      50.788  27.209  23.709  1.00  0.00     0.002 A 
ATOM     55  C   UNL A   1      51.701  27.066  25.952  1.00  0.00     0.091 A 
ATOM     56  F   UNL A   1      50.209  27.141  27.818  1.00  0.00    -0.205 F 
ATOM     57  C   UNL A   1      51.884  27.088  24.560  1.00  0.00     0.022 A 
BRANCH  55  58
ATOM     58  S   UNL A   1      53.185  27.015  26.963  1.00  0.00     0.127 S 
ATOM     59  O   UNL A   1      54.227  27.290  25.978  1.00  0.00    -0.237 OA
ATOM     60  O   UNL A   1      52.937  28.097  27.916  1.00  0.00    -0.237 OA
ATOM     61  O   UNL A   1      53.217  25.684  27.555  1.00  0.00    -0.744 OA
ENDBRANCH  55  58
ENDBRANCH  27  51
BRANCH  39  62
ATOM     62  C   UNL A   1      46.307  32.832  28.754  1.00  0.00     0.023 A 
ATOM     63  C   UNL A   1      47.074  33.054  29.914  1.00  0.00     0.012 A 
ATOM     64  C   UNL A   1      46.120  33.876  27.829  1.00  0.00     0.148 A 
ATOM     65  C   UNL A   1      47.654  34.299  30.147  1.00  0.00     0.002 A 
ATOM     66  C   UNL A   1      46.730  35.105  28.052  1.00  0.00     0.091 A 
ATOM     67  F   UNL A   1      45.387  33.633  26.734  1.00  0.00    -0.205 F 
ATOM     68  C   UNL A   1      47.493  35.319  29.211  1.00  0.00     0.022 A 
BRANCH  66  69
ATOM     69  S   UNL A   1      46.657  36.452  26.866  1.00  0.00     0.127 S 
ATOM     70  O   UNL A   1      45.298  36.954  27.067  1.00  0.00    -0.237 OA
ATOM     71  O   UNL A   1      47.715  37.341  27.348  1.00  0.00    -0.237 OA
ATOM     72  O   UNL A   1      46.907  35.857  25.560  1.00  0.00    -0.744 OA
ENDBRANCH  66  69
ENDBRANCH  39  62
ENDBRANCH  13  14
ENDBRANCH   6   8
ENDBRANCH   5   6
ENDBRANCH   4   5
ENDBRANCH   3   4
ENDBRANCH   2   3
ENDBRANCH   1   2
BRANCH   1  73
ATOM     73  C   UNL A   1      36.211  22.150  25.816  1.00  0.00     0.188 C 
BRANCH  73  74
ATOM     74  O   UNL A   1      35.134  21.453  26.431  1.00  0.00    -0.376 OA
BRANCH  74  75
ATOM     75  C   UNL A   1      33.952  21.266  25.643  1.00  0.00     0.202 C 
BRANCH  75  76
ATOM     76  C   UNL A   1      32.632  21.659  26.306  1.00  0.00     0.261 C 
BRANCH  76  77
ATOM     77  O   UNL A   1      32.656  23.029  26.751  1.00  0.00    -0.460 OA
BRANCH  77  78
ATOM     78  C   UNL A   1      31.464  23.659  26.685  1.00  0.00     0.339 C 
ATOM     79  O   UNL A   1      30.489  23.485  27.410  1.00  0.00    -0.246 OA
BRANCH  78  80
ATOM     80  C   UNL A   1      31.451  24.615  25.581  1.00  0.00     0.078 A 
ATOM     81  C   UNL A   1      30.291  25.323  25.287  1.00  0.00     0.019 A 
ATOM     82  C   UNL A   1      32.616  24.947  24.916  1.00  0.00     0.127 A 
ATOM     83  C   UNL A   1      30.344  26.345  24.341  1.00  0.00     0.026 A 
ATOM     84  N   UNL A   1      32.689  25.932  23.990  1.00  0.00    -0.258 NA
ATOM     85  C   UNL A   1      31.555  26.627  23.709  1.00  0.00     0.060 A 
BRANCH  85  86
ATOM     86  C   UNL A   1      31.682  27.820  22.777  1.00  0.00     0.181 C 
BRANCH  86  87
ATOM     87  N   UNL A   1      31.189  29.037  23.437  1.00  0.00    -0.303 N 
ATOM     88  C   UNL A   1      29.972  29.585  23.043  1.00  0.00     0.105 A 
ATOM     89  C   UNL A   1      31.936  29.557  24.511  1.00  0.00     0.329 A 
ATOM     90  C   UNL A   1      29.416  30.617  23.697  1.00  0.00     0.041 A 
ATOM     91  C   UNL A   1      31.234  30.614  25.275  1.00  0.00     0.335 A 
ATOM     92  O   UNL A   1      33.081  29.212  24.780  1.00  0.00    -0.261 OA
ATOM     93  Br  UNL A   1      27.797  31.378  23.179  1.00  0.00    -0.049 Br
ATOM     94  C   UNL A   1      30.058  31.132  24.886  1.00  0.00     0.109 A 
BRANCH  91  95
ATOM     95  N   UNL A   1      31.797  31.090  26.509  1.00  0.00     0.068 N 
ATOM     96  O   UNL A   1      31.673  32.291  26.777  1.00  0.00    -0.258 OA
ATOM     97  O   UNL A   1      32.454  30.280  27.182  1.00  0.00    -0.258 OA
ENDBRANCH  91  95
ENDBRANCH  86  87
ENDBRANCH  85  86
ENDBRANCH  78  80
ENDBRANCH  77  78
ENDBRANCH  76  77
ENDBRANCH  75  76
ENDBRANCH  74  75
ENDBRANCH  73  74
ENDBRANCH   1  73
TORSDOF 23
ENDMDL
MODEL 3
REMARK VINA RESULT:      -7.8      5.174      8.280
REMARK SMILES O=C(OCCOCCOCCOC(=O)c1ccc(Cn2cc(Br)cc([N+](=O)[O-])c2=O)nc1)c1ccc(-c2c3nc(c(-c4cccc(S(=O)(=O)[O-])c4F)c4ccc([nH]4)c(-c4cccc(S(=O)(=O)[O-])c4F)c4nc(c(-c5cccc(S(=O)(=O)[O-])c5F)c5ccc2[nH]5)C=C4)C=C3)cc1
REMARK SMILES IDX 7 1 6 2 5 3 4 4 3 5 2 6 1 7 33 8 34 9 95 10 35 11 94 12
REMARK SMILES IDX 36 13 37 14 38 15 88 16 39 17 93 18 87 19 89 20 40 21 92 22
REMARK SMILES IDX 86 23 85 24 41 26 73 27 53 28 72 29 54 30 57 31 71 32 90 33
REMARK SMILES IDX 55 34 56 35 70 37 91 38 58 39 42 40 43 41 51 42 44 43 46 44
REMARK SMILES IDX 52 45 45 46 47 47 48 48 49 49 50 50 74 51 75 52 83 53 76 54
REMARK SMILES IDX 78 55 84 56 77 57 79 58 80 59 81 60 82 61 59 62 60 63 68 64
REMARK SMILES IDX 61 65 63 66 69 67 62 68 64 69 65 70 66 71 67 72 8 73 9 74
REMARK SMILES IDX 10 75 11 76 12 77 13 78 14 79 15 80 16 81 32 82 17 83 31 84
REMARK SMILES IDX 18 85 19 86 20 87 21 88 29 89 22 90 25 91 30 92 23 93 24 94
REMARK SMILES IDX 26 95 27 96 28 97
REMARK H PARENT 89 25 57 36
REMARK Flexibility Score: inf
ROOT
ATOM      1  C   UNL A   1      35.068  33.050  28.158  1.00  0.00     0.188 C 
ENDROOT
BRANCH   1   2
ATOM      2  O   UNL A   1      34.780  34.435  28.335  1.00  0.00    -0.376 OA
BRANCH   2   3
ATOM      3  C   UNL A   1      33.380  34.707  28.383  1.00  0.00     0.202 C 
BRANCH   3   4
ATOM      4  C   UNL A   1      33.034  35.808  29.382  1.00  0.00     0.261 C 
BRANCH   4   5
ATOM      5  O   UNL A   1      32.698  35.307  30.687  1.00  0.00    -0.460 OA
BRANCH   5   6
ATOM      6  C   UNL A   1      33.441  35.173  31.810  1.00  0.00     0.338 C 
ATOM      7  O   UNL A   1      33.187  35.938  32.743  1.00  0.00    -0.246 OA
BRANCH   6   8
ATOM      8  C   UNL A   1      34.595  34.228  31.994  1.00  0.00     0.060 A 
ATOM      9  C   UNL A   1      35.827  34.640  31.442  1.00  0.00     0.016 A 
ATOM     10  C   UNL A   1      34.583  33.027  32.709  1.00  0.00     0.016 A 
ATOM     11  C   UNL A   1      37.001  33.898  31.625  1.00  0.00     0.010 A 
ATOM     12  C   UNL A   1      35.752  32.277  32.889  1.00  0.00     0.010 A 
ATOM     13  C   UNL A   1      36.972  32.720  32.374  1.00  0.00    -0.014 A 
BRANCH  13  14
ATOM     14  C   UNL A   1      38.222  32.054  32.798  1.00  0.00     0.031 A 
ATOM     15  C   UNL A   1      38.977  32.485  34.014  1.00  0.00     0.074 A 
ATOM     16  C   UNL A   1      38.731  31.104  31.990  1.00  0.00     0.049 A 
ATOM     17  N   UNL A   1      40.017  31.919  34.568  1.00  0.00    -0.248 NA
ATOM     18  C   UNL A   1      38.529  33.712  34.688  1.00  0.00     0.031 C 
ATOM     19  C   UNL A   1      38.140  30.685  30.717  1.00  0.00     0.029 A 
ATOM     20  N   UNL A   1      39.870  30.348  32.095  1.00  0.00    -0.354 N 
ATOM     21  C   UNL A   1      40.342  32.705  35.662  1.00  0.00     0.074 A 
ATOM     22  C   UNL A   1      39.418  33.818  35.671  1.00  0.00     0.031 C 
ATOM     23  C   UNL A   1      38.929  29.759  30.152  1.00  0.00     0.029 A 
ATOM     24  C   UNL A   1      40.069  29.506  31.029  1.00  0.00     0.049 A 
ATOM     25  H   UNL A   1      40.486  30.405  32.861  1.00  0.00     0.167 HD
ATOM     26  C   UNL A   1      41.297  32.483  36.594  1.00  0.00     0.034 A 
ATOM     27  C   UNL A   1      41.044  28.609  30.791  1.00  0.00     0.034 A 
ATOM     28  C   UNL A   1      42.210  31.373  36.562  1.00  0.00     0.049 A 
ATOM     29  C   UNL A   1      42.101  28.386  31.833  1.00  0.00     0.074 A 
ATOM     30  C   UNL A   1      43.114  30.975  37.531  1.00  0.00     0.029 A 
ATOM     31  N   UNL A   1      42.366  30.513  35.488  1.00  0.00    -0.354 N 
ATOM     32  N   UNL A   1      42.226  28.962  33.004  1.00  0.00    -0.248 NA
ATOM     33  C   UNL A   1      43.122  27.369  31.549  1.00  0.00     0.031 C 
ATOM     34  C   UNL A   1      43.830  29.882  37.033  1.00  0.00     0.029 A 
ATOM     35  C   UNL A   1      43.373  29.604  35.755  1.00  0.00     0.049 A 
ATOM     36  H   UNL A   1      41.837  30.544  34.657  1.00  0.00     0.167 HD
ATOM     37  C   UNL A   1      43.319  28.359  33.610  1.00  0.00     0.074 A 
ATOM     38  C   UNL A   1      43.825  27.373  32.676  1.00  0.00     0.031 C 
ATOM     39  C   UNL A   1      43.851  28.607  34.831  1.00  0.00     0.034 A 
BRANCH  26  40
ATOM     40  C   UNL A   1      41.340  33.381  37.795  1.00  0.00     0.023 A 
ATOM     41  C   UNL A   1      40.588  33.007  38.928  1.00  0.00     0.012 A 
ATOM     42  C   UNL A   1      42.193  34.496  37.863  1.00  0.00     0.148 A 
ATOM     43  C   UNL A   1      40.670  33.740  40.110  1.00  0.00     0.002 A 
ATOM     44  C   UNL A   1      42.284  35.212  39.052  1.00  0.00     0.091 A 
ATOM     45  F   UNL A   1      42.890  34.835  36.771  1.00  0.00    -0.205 F 
ATOM     46  C   UNL A   1      41.522  34.838  40.172  1.00  0.00     0.022 A 
BRANCH  44  47
ATOM     47  S   UNL A   1      43.395  36.608  39.262  1.00  0.00     0.127 S 
ATOM     48  O   UNL A   1      42.870  37.543  38.268  1.00  0.00    -0.237 OA
ATOM     49  O   UNL A   1      43.149  36.992  40.652  1.00  0.00    -0.237 OA
ATOM     50  O   UNL A   1      44.732  36.097  38.996  1.00  0.00    -0.744 OA
ENDBRANCH  44  47
ENDBRANCH  26  40
BRANCH  27  51
ATOM     51  C   UNL A   1      40.959  27.778  29.563  1.00  0.00     0.023 A 
ATOM     52  C   UNL A   1      39.904  26.854  29.444  1.00  0.00     0.012 A 
ATOM     53  C   UNL A   1      41.817  27.996  28.468  1.00  0.00     0.148 A 
ATOM     54  C   UNL A   1      39.699  26.164  28.248  1.00  0.00     0.002 A 
ATOM     55  C   UNL A   1      41.588  27.330  27.270  1.00  0.00     0.091 A 
ATOM     56  F   UNL A   1      42.812  28.883  28.612  1.00  0.00    -0.205 F 
ATOM     57  C   UNL A   1      40.533  26.410  27.160  1.00  0.00     0.022 A 
BRANCH  55  58
ATOM     58  S   UNL A   1      42.538  27.655  25.780  1.00  0.00     0.127 S 
ATOM     59  O   UNL A   1      42.197  29.049  25.508  1.00  0.00    -0.237 OA
ATOM     60  O   UNL A   1      43.908  27.434  26.243  1.00  0.00    -0.237 OA
ATOM     61  O   UNL A   1      42.070  26.691  24.792  1.00  0.00    -0.744 OA
ENDBRANCH  55  58
ENDBRANCH  27  51
BRANCH  39  62
ATOM     62  C   UNL A   1      45.057  27.820  35.255  1.00  0.00     0.023 A 
ATOM     63  C   UNL A   1      46.338  28.345  34.999  1.00  0.00     0.012 A 
ATOM     64  C   UNL A   1      44.920  26.662  36.043  1.00  0.00     0.148 A 
ATOM     65  C   UNL A   1      47.471  27.728  35.526  1.00  0.00     0.002 A 
ATOM     66  C   UNL A   1      46.052  26.071  36.593  1.00  0.00     0.091 A 
ATOM     67  F   UNL A   1      43.687  26.188  36.270  1.00  0.00    -0.205 F 
ATOM     68  C   UNL A   1      47.327  26.601  36.333  1.00  0.00     0.022 A 
BRANCH  66  69
ATOM     69  S   UNL A   1      45.966  24.672  37.716  1.00  0.00     0.127 S 
ATOM     70  O   UNL A   1      45.076  25.179  38.759  1.00  0.00    -0.237 OA
ATOM     71  O   UNL A   1      45.383  23.633  36.866  1.00  0.00    -0.237 OA
ATOM     72  O   UNL A   1      47.334  24.412  38.145  1.00  0.00    -0.744 OA
ENDBRANCH  66  69
ENDBRANCH  39  62
ENDBRANCH  13  14
ENDBRANCH   6   8
ENDBRANCH   5   6
ENDBRANCH   4   5
ENDBRANCH   3   4
ENDBRANCH   2   3
ENDBRANCH   1   2
BRANCH   1  73
ATOM     73  C   UNL A   1      33.847  32.120  28.055  1.00  0.00     0.188 C 
BRANCH  73  74
ATOM     74  O   UNL A   1      33.950  30.989  27.199  1.00  0.00    -0.376 OA
BRANCH  74  75
ATOM     75  C   UNL A   1      32.730  30.309  26.876  1.00  0.00     0.202 C 
BRANCH  75  76
ATOM     76  C   UNL A   1      32.862  29.080  25.978  1.00  0.00     0.261 C 
BRANCH  76  77
ATOM     77  O   UNL A   1      31.572  28.527  25.652  1.00  0.00    -0.460 OA
BRANCH  77  78
ATOM     78  C   UNL A   1      31.310  27.337  26.234  1.00  0.00     0.339 C 
ATOM     79  O   UNL A   1      30.740  27.141  27.303  1.00  0.00    -0.246 OA
BRANCH  78  80
ATOM     80  C   UNL A   1      31.826  26.244  25.416  1.00  0.00     0.078 A 
ATOM     81  C   UNL A   1      31.539  26.197  24.056  1.00  0.00     0.019 A 
ATOM     82  C   UNL A   1      32.726  25.332  25.934  1.00  0.00     0.127 A 
ATOM     83  C   UNL A   1      32.172  25.241  23.264  1.00  0.00     0.026 A 
ATOM     84  N   UNL A   1      33.349  24.392  25.185  1.00  0.00    -0.258 NA
ATOM     85  C   UNL A   1      33.071  24.353  23.855  1.00  0.00     0.060 A 
BRANCH  85  86
ATOM     86  C   UNL A   1      33.881  23.391  23.003  1.00  0.00     0.181 C 
BRANCH  86  87
ATOM     87  N   UNL A   1      34.350  22.260  23.817  1.00  0.00    -0.303 N 
ATOM     88  C   UNL A   1      33.483  21.206  24.087  1.00  0.00     0.105 A 
ATOM     89  C   UNL A   1      35.697  22.251  24.224  1.00  0.00     0.329 A 
ATOM     90  C   UNL A   1      33.898  20.093  24.714  1.00  0.00     0.041 A 
ATOM     91  C   UNL A   1      36.141  20.962  24.805  1.00  0.00     0.335 A 
ATOM     92  O   UNL A   1      36.441  23.222  24.154  1.00  0.00    -0.261 OA
ATOM     93  Br  UNL A   1      32.754  18.675  25.103  1.00  0.00    -0.049 Br
ATOM     94  C   UNL A   1      35.295  19.951  25.057  1.00  0.00     0.109 A 
BRANCH  91  95
ATOM     95  N   UNL A   1      37.536  20.750  25.077  1.00  0.00     0.068 N 
ATOM     96  O   UNL A   1      38.159  21.656  25.645  1.00  0.00    -0.258 OA
ATOM     97  O   UNL A   1      38.048  19.707  24.641  1.00  0.00    -0.258 OA
ENDBRANCH  91  95
ENDBRANCH  86  87
ENDBRANCH  85  86
ENDBRANCH  78  80
ENDBRANCH  77  78
ENDBRANCH  76  77
ENDBRANCH  75  76
ENDBRANCH  74  75
ENDBRANCH  73  74
ENDBRANCH   1  73
TORSDOF 23
ENDMDL
