MODEL 1
REMARK VINA RESULT:      -9.6      0.000      0.000
REMARK SMILES CC[NH2+][C@@]1(C(=O)OCCOCCOCCOC(=O)c2ccc(-c3c4nc(c(-c5cccc(S(=O)(=O)[O-])c5F)c5ccc([nH]5)c(-c5cccc(S(=O)(=O)[O-])c5F)c5nc(c(-c6cccc(S(=O)(=O)[O-])c6F)c6ccc3[nH]6)C=C5)C=C4)cc2)CCC[C@@H]1CC[NH+]1CCS(=O)(=O)CC1
REMARK SMILES IDX 11 1 10 2 9 3 8 4 7 5 5 6 6 7 4 8 82 9 85 10 83 11 84 12
REMARK SMILES IDX 3 13 2 16 1 17 86 18 87 19 88 20 89 21 95 22 90 24 94 25
REMARK SMILES IDX 91 26 92 27 93 28 12 29 13 30 14 31 15 32 16 33 17 34 18 35
REMARK SMILES IDX 19 36 20 37 81 38 21 39 80 40 22 41 23 42 24 43 74 44 25 45
REMARK SMILES IDX 79 46 73 47 75 48 26 49 78 50 72 51 71 52 27 54 59 55 39 56
REMARK SMILES IDX 58 57 40 58 43 59 57 60 76 61 41 62 42 63 56 65 77 66 44 67
REMARK SMILES IDX 28 68 29 69 37 70 30 71 32 72 38 73 31 74 33 75 34 76 35 77
REMARK SMILES IDX 36 78 60 79 61 80 69 81 62 82 64 83 70 84 63 85 65 86 66 87
REMARK SMILES IDX 67 88 68 89 45 90 46 91 54 92 47 93 49 94 55 95 48 96 50 97
REMARK SMILES IDX 51 98 52 99 53 100
REMARK H PARENT 3 14 3 15 88 23 75 53 43 64
REMARK Flexibility Score: inf
ROOT
ATOM      1  C   UNL A   1      34.723  29.579  27.245  1.00  0.00     0.188 C 
ENDROOT
BRANCH   1   2
ATOM      2  O   UNL A   1      34.770  28.264  26.706  1.00  0.00    -0.376 OA
BRANCH   2   3
ATOM      3  C   UNL A   1      33.730  27.917  25.788  1.00  0.00     0.202 C 
BRANCH   3   4
ATOM      4  C   UNL A   1      33.980  28.283  24.315  1.00  0.00     0.261 C 
BRANCH   4   5
ATOM      5  O   UNL A   1      33.034  29.268  23.806  1.00  0.00    -0.459 OA
BRANCH   5   6
ATOM      6  C   UNL A   1      31.726  28.902  24.004  1.00  0.00     0.368 C 
ATOM      7  O   UNL A   1      31.142  29.133  25.062  1.00  0.00    -0.245 OA
BRANCH   6   8
ATOM      8  C   UNL A   1      31.068  28.088  22.831  1.00  0.00     0.197 C 
ATOM      9  C   UNL A   1      30.260  29.125  22.019  1.00  0.00     0.081 C 
ATOM     10  C   UNL A   1      29.932  27.053  23.170  1.00  0.00     0.068 C 
ATOM     11  C   UNL A   1      28.991  29.319  22.832  1.00  0.00     0.008 C 
ATOM     12  C   UNL A   1      28.718  27.969  23.484  1.00  0.00     0.011 C 
BRANCH   8  13
ATOM     13  N   UNL A   1      32.027  27.453  21.897  1.00  0.00    -0.332 N 
ATOM     14  H   UNL A   1      31.674  27.648  20.960  1.00  0.00     0.347 HD
ATOM     15  H   UNL A   1      32.908  27.856  22.216  1.00  0.00     0.347 HD
BRANCH  13  16
ATOM     16  C   UNL A   1      32.351  26.032  21.907  1.00  0.00     0.257 C 
ATOM     17  C   UNL A   1      32.509  25.573  20.447  1.00  0.00     0.071 C 
ENDBRANCH  13  16
ENDBRANCH   8  13
BRANCH  10  18
ATOM     18  C   UNL A   1      29.939  25.901  24.216  1.00  0.00     0.072 C 
BRANCH  18  19
ATOM     19  C   UNL A   1      30.904  25.723  25.417  1.00  0.00     0.262 C 
BRANCH  19  20
ATOM     20  N   UNL A   1      31.561  24.416  25.421  1.00  0.00    -0.333 N 
ATOM     21  C   UNL A   1      31.522  23.662  26.661  1.00  0.00     0.278 C 
ATOM     22  C   UNL A   1      30.989  23.516  24.440  1.00  0.00     0.278 C 
ATOM     23  H   UNL A   1      32.525  24.687  25.227  1.00  0.00     0.348 HD
ATOM     24  C   UNL A   1      32.431  22.439  26.719  1.00  0.00     0.198 C 
ATOM     25  C   UNL A   1      32.191  22.772  23.942  1.00  0.00     0.198 C 
ATOM     26  S   UNL A   1      32.708  21.623  25.168  1.00  0.00     0.161 S 
ATOM     27  O   UNL A   1      34.148  21.457  25.014  1.00  0.00    -0.228 OA
ATOM     28  O   UNL A   1      31.813  20.496  25.080  1.00  0.00    -0.228 OA
ENDBRANCH  19  20
ENDBRANCH  18  19
ENDBRANCH  10  18
ENDBRANCH   6   8
ENDBRANCH   5   6
ENDBRANCH   4   5
ENDBRANCH   3   4
ENDBRANCH   2   3
ENDBRANCH   1   2
BRANCH   1  29
ATOM     29  C   UNL A   1      33.320  30.188  27.341  1.00  0.00     0.188 C 
BRANCH  29  30
ATOM     30  O   UNL A   1      33.242  31.581  27.633  1.00  0.00    -0.376 OA
BRANCH  30  31
ATOM     31  C   UNL A   1      32.192  32.303  27.002  1.00  0.00     0.202 C 
BRANCH  31  32
ATOM     32  C   UNL A   1      32.164  33.821  27.243  1.00  0.00     0.261 C 
BRANCH  32  33
ATOM     33  O   UNL A   1      32.319  34.259  28.611  1.00  0.00    -0.460 OA
BRANCH  33  34
ATOM     34  C   UNL A   1      33.403  35.058  28.849  1.00  0.00     0.338 C 
ATOM     35  O   UNL A   1      33.455  36.264  28.674  1.00  0.00    -0.246 OA
BRANCH  34  36
ATOM     36  C   UNL A   1      34.535  34.292  29.456  1.00  0.00     0.060 A 
ATOM     37  C   UNL A   1      35.830  34.540  28.971  1.00  0.00     0.016 A 
ATOM     38  C   UNL A   1      34.371  33.444  30.563  1.00  0.00     0.016 A 
ATOM     39  C   UNL A   1      36.950  34.009  29.628  1.00  0.00     0.010 A 
ATOM     40  C   UNL A   1      35.497  32.888  31.205  1.00  0.00     0.010 A 
ATOM     41  C   UNL A   1      36.799  33.175  30.754  1.00  0.00    -0.014 A 
BRANCH  41  42
ATOM     42  C   UNL A   1      37.975  32.382  31.219  1.00  0.00     0.031 A 
ATOM     43  C   UNL A   1      38.593  32.850  32.510  1.00  0.00     0.074 A 
ATOM     44  C   UNL A   1      38.485  31.296  30.598  1.00  0.00     0.049 A 
ATOM     45  N   UNL A   1      39.521  32.297  33.241  1.00  0.00    -0.248 NA
ATOM     46  C   UNL A   1      38.065  34.114  33.052  1.00  0.00     0.031 C 
ATOM     47  C   UNL A   1      38.024  30.720  29.337  1.00  0.00     0.029 A 
ATOM     48  N   UNL A   1      39.539  30.479  30.959  1.00  0.00    -0.354 N 
ATOM     49  C   UNL A   1      39.667  33.133  34.340  1.00  0.00     0.074 A 
ATOM     50  C   UNL A   1      38.751  34.236  34.173  1.00  0.00     0.031 C 
ATOM     51  C   UNL A   1      38.793  29.658  29.023  1.00  0.00     0.029 A 
ATOM     52  C   UNL A   1      39.820  29.479  30.050  1.00  0.00     0.049 A 
ATOM     53  H   UNL A   1      40.046  30.599  31.794  1.00  0.00     0.167 HD
ATOM     54  C   UNL A   1      40.490  33.010  35.404  1.00  0.00     0.034 A 
ATOM     55  C   UNL A   1      40.796  28.542  30.040  1.00  0.00     0.034 A 
ATOM     56  C   UNL A   1      41.486  31.992  35.537  1.00  0.00     0.049 A 
ATOM     57  C   UNL A   1      41.771  28.476  31.198  1.00  0.00     0.074 A 
ATOM     58  C   UNL A   1      42.407  31.818  36.552  1.00  0.00     0.029 A 
ATOM     59  N   UNL A   1      41.731  31.006  34.594  1.00  0.00    -0.354 N 
ATOM     60  N   UNL A   1      41.806  29.196  32.295  1.00  0.00    -0.248 NA
ATOM     61  C   UNL A   1      42.826  27.450  31.130  1.00  0.00     0.031 C 
ATOM     62  C   UNL A   1      43.239  30.751  36.202  1.00  0.00     0.029 A 
ATOM     63  C   UNL A   1      42.799  30.226  34.997  1.00  0.00     0.049 A 
ATOM     64  H   UNL A   1      41.220  30.880  33.762  1.00  0.00     0.167 HD
ATOM     65  C   UNL A   1      42.855  28.686  33.058  1.00  0.00     0.074 A 
ATOM     66  C   UNL A   1      43.419  27.584  32.310  1.00  0.00     0.031 C 
ATOM     67  C   UNL A   1      43.316  29.100  34.265  1.00  0.00     0.034 A 
BRANCH  54  68
ATOM     68  C   UNL A   1      40.344  34.050  36.477  1.00  0.00     0.023 A 
ATOM     69  C   UNL A   1      40.904  35.332  36.282  1.00  0.00     0.012 A 
ATOM     70  C   UNL A   1      39.717  33.743  37.695  1.00  0.00     0.148 A 
ATOM     71  C   UNL A   1      40.881  36.276  37.305  1.00  0.00     0.002 A 
ATOM     72  C   UNL A   1      39.656  34.705  38.693  1.00  0.00     0.091 A 
ATOM     73  F   UNL A   1      39.231  32.505  37.869  1.00  0.00    -0.205 F 
ATOM     74  C   UNL A   1      40.252  35.964  38.508  1.00  0.00     0.022 A 
BRANCH  72  75
ATOM     75  S   UNL A   1      38.823  34.421  40.256  1.00  0.00     0.127 S 
ATOM     76  O   UNL A   1      39.816  33.629  40.980  1.00  0.00    -0.237 OA
ATOM     77  O   UNL A   1      38.646  35.784  40.755  1.00  0.00    -0.237 OA
ATOM     78  O   UNL A   1      37.587  33.722  39.934  1.00  0.00    -0.744 OA
ENDBRANCH  72  75
ENDBRANCH  54  68
BRANCH  55  79
ATOM     79  C   UNL A   1      40.927  27.567  28.908  1.00  0.00     0.023 A 
ATOM     80  C   UNL A   1      40.191  26.362  28.922  1.00  0.00     0.012 A 
ATOM     81  C   UNL A   1      41.824  27.798  27.846  1.00  0.00     0.148 A 
ATOM     82  C   UNL A   1      40.373  25.397  27.929  1.00  0.00     0.002 A 
ATOM     83  C   UNL A   1      41.964  26.855  26.831  1.00  0.00     0.091 A 
ATOM     84  F   UNL A   1      42.540  28.931  27.859  1.00  0.00    -0.205 F 
ATOM     85  C   UNL A   1      41.253  25.646  26.879  1.00  0.00     0.022 A 
BRANCH  83  86
ATOM     86  S   UNL A   1      43.006  27.121  25.392  1.00  0.00     0.127 S 
ATOM     87  O   UNL A   1      42.268  28.161  24.677  1.00  0.00    -0.237 OA
ATOM     88  O   UNL A   1      44.255  27.570  26.009  1.00  0.00    -0.237 OA
ATOM     89  O   UNL A   1      43.086  25.833  24.718  1.00  0.00    -0.744 OA
ENDBRANCH  83  86
ENDBRANCH  55  79
BRANCH  67  90
ATOM     90  C   UNL A   1      44.450  28.334  34.899  1.00  0.00     0.023 A 
ATOM     91  C   UNL A   1      45.784  28.610  34.544  1.00  0.00     0.012 A 
ATOM     92  C   UNL A   1      44.186  27.410  35.931  1.00  0.00     0.148 A 
ATOM     93  C   UNL A   1      46.837  27.955  35.187  1.00  0.00     0.002 A 
ATOM     94  C   UNL A   1      45.239  26.805  36.603  1.00  0.00     0.091 A 
ATOM     95  F   UNL A   1      42.907  27.149  36.242  1.00  0.00    -0.205 F 
ATOM     96  C   UNL A   1      46.565  27.065  36.223  1.00  0.00     0.022 A 
BRANCH  94  97
ATOM     97  S   UNL A   1      44.982  25.734  38.024  1.00  0.00     0.127 S 
ATOM     98  O   UNL A   1      44.339  24.575  37.410  1.00  0.00    -0.237 OA
ATOM     99  O   UNL A   1      46.351  25.500  38.485  1.00  0.00    -0.237 OA
ATOM    100  O   UNL A   1      44.154  26.491  38.952  1.00  0.00    -0.744 OA
ENDBRANCH  94  97
ENDBRANCH  67  90
ENDBRANCH  41  42
ENDBRANCH  34  36
ENDBRANCH  33  34
ENDBRANCH  32  33
ENDBRANCH  31  32
ENDBRANCH  30  31
ENDBRANCH  29  30
ENDBRANCH   1  29
TORSDOF 25
ENDMDL
MODEL 2
REMARK VINA RESULT:      -9.3      2.373      3.335
REMARK SMILES CC[NH2+][C@@]1(C(=O)OCCOCCOCCOC(=O)c2ccc(-c3c4nc(c(-c5cccc(S(=O)(=O)[O-])c5F)c5ccc([nH]5)c(-c5cccc(S(=O)(=O)[O-])c5F)c5nc(c(-c6cccc(S(=O)(=O)[O-])c6F)c6ccc3[nH]6)C=C5)C=C4)cc2)CCC[C@@H]1CC[NH+]1CCS(=O)(=O)CC1
REMARK SMILES IDX 11 1 10 2 9 3 8 4 7 5 5 6 6 7 4 8 82 9 85 10 83 11 84 12
REMARK SMILES IDX 3 13 2 16 1 17 86 18 87 19 88 20 89 21 95 22 90 24 94 25
REMARK SMILES IDX 91 26 92 27 93 28 12 29 13 30 14 31 15 32 16 33 17 34 18 35
REMARK SMILES IDX 19 36 20 37 81 38 21 39 80 40 22 41 23 42 24 43 74 44 25 45
REMARK SMILES IDX 79 46 73 47 75 48 26 49 78 50 72 51 71 52 27 54 59 55 39 56
REMARK SMILES IDX 58 57 40 58 43 59 57 60 76 61 41 62 42 63 56 65 77 66 44 67
REMARK SMILES IDX 28 68 29 69 37 70 30 71 32 72 38 73 31 74 33 75 34 76 35 77
REMARK SMILES IDX 36 78 60 79 61 80 69 81 62 82 64 83 70 84 63 85 65 86 66 87
REMARK SMILES IDX 67 88 68 89 45 90 46 91 54 92 47 93 49 94 55 95 48 96 50 97
REMARK SMILES IDX 51 98 52 99 53 100
REMARK H PARENT 3 14 3 15 88 23 75 53 43 64
REMARK Flexibility Score: inf
ROOT
ATOM      1  C   UNL A   1      33.718  28.682  26.914  1.00  0.00     0.188 C 
ENDROOT
BRANCH   1   2
ATOM      2  O   UNL A   1      33.641  27.419  26.264  1.00  0.00    -0.376 OA
BRANCH   2   3
ATOM      3  C   UNL A   1      34.371  27.289  25.042  1.00  0.00     0.202 C 
BRANCH   3   4
ATOM      4  C   UNL A   1      33.624  26.620  23.876  1.00  0.00     0.261 C 
BRANCH   4   5
ATOM      5  O   UNL A   1      32.631  25.650  24.320  1.00  0.00    -0.459 OA
BRANCH   5   6
ATOM      6  C   UNL A   1      33.179  24.428  24.621  1.00  0.00     0.368 C 
ATOM      7  O   UNL A   1      34.293  24.326  25.134  1.00  0.00    -0.245 OA
BRANCH   6   8
ATOM      8  C   UNL A   1      32.332  23.180  24.177  1.00  0.00     0.197 C 
ATOM      9  C   UNL A   1      30.954  23.749  23.768  1.00  0.00     0.081 C 
ATOM     10  C   UNL A   1      31.889  22.137  25.269  1.00  0.00     0.068 C 
ATOM     11  C   UNL A   1      30.245  23.981  25.091  1.00  0.00     0.008 C 
ATOM     12  C   UNL A   1      30.758  22.889  26.023  1.00  0.00     0.011 C 
BRANCH   8  13
ATOM     13  N   UNL A   1      32.867  22.446  23.006  1.00  0.00    -0.332 N 
ATOM     14  H   UNL A   1      33.491  23.099  22.532  1.00  0.00     0.347 HD
ATOM     15  H   UNL A   1      33.234  21.605  23.452  1.00  0.00     0.347 HD
BRANCH  13  16
ATOM     16  C   UNL A   1      32.034  21.867  21.961  1.00  0.00     0.257 C 
ATOM     17  C   UNL A   1      32.000  20.343  22.173  1.00  0.00     0.071 C 
ENDBRANCH  13  16
ENDBRANCH   8  13
BRANCH  10  18
ATOM     18  C   UNL A   1      32.759  21.403  26.331  1.00  0.00     0.072 C 
BRANCH  18  19
ATOM     19  C   UNL A   1      34.116  20.686  26.107  1.00  0.00     0.262 C 
BRANCH  19  20
ATOM     20  N   UNL A   1      33.954  19.315  25.623  1.00  0.00    -0.333 N 
ATOM     21  C   UNL A   1      32.598  18.859  25.377  1.00  0.00     0.278 C 
ATOM     22  C   UNL A   1      34.636  19.097  24.364  1.00  0.00     0.278 C 
ATOM     23  H   UNL A   1      34.344  18.791  26.407  1.00  0.00     0.348 HD
ATOM     24  C   UNL A   1      32.439  17.362  25.134  1.00  0.00     0.198 C 
ATOM     25  C   UNL A   1      35.157  17.700  24.514  1.00  0.00     0.198 C 
ATOM     26  S   UNL A   1      33.821  16.567  24.356  1.00  0.00     0.161 S 
ATOM     27  O   UNL A   1      34.160  15.397  25.156  1.00  0.00    -0.228 OA
ATOM     28  O   UNL A   1      33.544  16.451  22.945  1.00  0.00    -0.228 OA
ENDBRANCH  19  20
ENDBRANCH  18  19
ENDBRANCH  10  18
ENDBRANCH   6   8
ENDBRANCH   5   6
ENDBRANCH   4   5
ENDBRANCH   3   4
ENDBRANCH   2   3
ENDBRANCH   1   2
BRANCH   1  29
ATOM     29  C   UNL A   1      32.633  29.684  26.509  1.00  0.00     0.188 C 
BRANCH  29  30
ATOM     30  O   UNL A   1      32.585  30.909  27.235  1.00  0.00    -0.376 OA
BRANCH  30  31
ATOM     31  C   UNL A   1      31.734  31.923  26.714  1.00  0.00     0.202 C 
BRANCH  31  32
ATOM     32  C   UNL A   1      32.073  33.370  27.107  1.00  0.00     0.261 C 
BRANCH  32  33
ATOM     33  O   UNL A   1      33.017  33.539  28.187  1.00  0.00    -0.460 OA
BRANCH  33  34
ATOM     34  C   UNL A   1      34.255  33.985  27.816  1.00  0.00     0.338 C 
ATOM     35  O   UNL A   1      34.487  34.971  27.137  1.00  0.00    -0.246 OA
BRANCH  34  36
ATOM     36  C   UNL A   1      35.347  33.164  28.424  1.00  0.00     0.060 A 
ATOM     37  C   UNL A   1      36.662  33.647  28.329  1.00  0.00     0.016 A 
ATOM     38  C   UNL A   1      35.096  32.012  29.187  1.00  0.00     0.016 A 
ATOM     39  C   UNL A   1      37.700  33.032  29.046  1.00  0.00     0.010 A 
ATOM     40  C   UNL A   1      36.145  31.379  29.884  1.00  0.00     0.010 A 
ATOM     41  C   UNL A   1      37.455  31.890  29.834  1.00  0.00    -0.014 A 
BRANCH  41  42
ATOM     42  C   UNL A   1      38.621  31.088  30.312  1.00  0.00     0.031 A 
ATOM     43  C   UNL A   1      39.099  31.418  31.701  1.00  0.00     0.074 A 
ATOM     44  C   UNL A   1      39.235  30.104  29.619  1.00  0.00     0.049 A 
ATOM     45  N   UNL A   1      39.982  30.814  32.447  1.00  0.00    -0.248 NA
ATOM     46  C   UNL A   1      38.466  32.588  32.336  1.00  0.00     0.031 C 
ATOM     47  C   UNL A   1      38.916  29.670  28.261  1.00  0.00     0.029 A 
ATOM     48  N   UNL A   1      40.289  29.287  29.979  1.00  0.00    -0.354 N 
ATOM     49  C   UNL A   1      39.990  31.515  33.645  1.00  0.00     0.074 A 
ATOM     50  C   UNL A   1      39.043  32.597  33.523  1.00  0.00     0.031 C 
ATOM     51  C   UNL A   1      39.759  28.682  27.898  1.00  0.00     0.029 A 
ATOM     52  C   UNL A   1      40.696  28.416  28.989  1.00  0.00     0.049 A 
ATOM     53  H   UNL A   1      40.713  29.323  30.866  1.00  0.00     0.167 HD
ATOM     54  C   UNL A   1      40.719  31.293  34.761  1.00  0.00     0.034 A 
ATOM     55  C   UNL A   1      41.712  27.522  28.962  1.00  0.00     0.034 A 
ATOM     56  C   UNL A   1      41.746  30.303  34.866  1.00  0.00     0.049 A 
ATOM     57  C   UNL A   1      42.582  27.351  30.191  1.00  0.00     0.074 A 
ATOM     58  C   UNL A   1      42.579  30.040  35.936  1.00  0.00     0.029 A 
ATOM     59  N   UNL A   1      42.120  29.448  33.842  1.00  0.00    -0.354 N 
ATOM     60  N   UNL A   1      42.484  27.934  31.363  1.00  0.00    -0.248 NA
ATOM     61  C   UNL A   1      43.685  26.379  30.103  1.00  0.00     0.031 C 
ATOM     62  C   UNL A   1      43.488  29.054  35.544  1.00  0.00     0.029 A 
ATOM     63  C   UNL A   1      43.183  28.664  34.249  1.00  0.00     0.049 A 
ATOM     64  H   UNL A   1      41.692  29.406  32.956  1.00  0.00     0.167 HD
ATOM     65  C   UNL A   1      43.483  27.373  32.157  1.00  0.00     0.074 A 
ATOM     66  C   UNL A   1      44.163  26.390  31.341  1.00  0.00     0.031 C 
ATOM     67  C   UNL A   1      43.815  27.654  33.442  1.00  0.00     0.034 A 
BRANCH  54  68
ATOM     68  C   UNL A   1      40.430  32.190  35.929  1.00  0.00     0.023 A 
ATOM     69  C   UNL A   1      41.349  33.207  36.269  1.00  0.00     0.012 A 
ATOM     70  C   UNL A   1      39.290  31.988  36.725  1.00  0.00     0.148 A 
ATOM     71  C   UNL A   1      41.160  33.977  37.414  1.00  0.00     0.002 A 
ATOM     72  C   UNL A   1      39.084  32.791  37.838  1.00  0.00     0.091 A 
ATOM     73  F   UNL A   1      38.456  30.989  36.403  1.00  0.00    -0.205 F 
ATOM     74  C   UNL A   1      40.025  33.772  38.194  1.00  0.00     0.022 A 
BRANCH  72  75
ATOM     75  S   UNL A   1      37.629  32.644  38.875  1.00  0.00     0.127 S 
ATOM     76  O   UNL A   1      36.564  33.016  37.944  1.00  0.00    -0.237 OA
ATOM     77  O   UNL A   1      37.657  31.227  39.237  1.00  0.00    -0.237 OA
ATOM     78  O   UNL A   1      37.830  33.562  39.987  1.00  0.00    -0.744 OA
ENDBRANCH  72  75
ENDBRANCH  54  68
BRANCH  55  79
ATOM     79  C   UNL A   1      41.989  26.697  27.740  1.00  0.00     0.023 A 
ATOM     80  C   UNL A   1      42.512  27.305  26.579  1.00  0.00     0.012 A 
ATOM     81  C   UNL A   1      41.678  25.323  27.702  1.00  0.00     0.148 A 
ATOM     82  C   UNL A   1      42.684  26.574  25.400  1.00  0.00     0.002 A 
ATOM     83  C   UNL A   1      41.899  24.588  26.541  1.00  0.00     0.091 A 
ATOM     84  F   UNL A   1      41.152  24.764  28.801  1.00  0.00    -0.205 F 
ATOM     85  C   UNL A   1      42.385  25.214  25.383  1.00  0.00     0.022 A 
BRANCH  83  86
ATOM     86  S   UNL A   1      41.627  22.815  26.445  1.00  0.00     0.127 S 
ATOM     87  O   UNL A   1      40.200  22.748  26.136  1.00  0.00    -0.237 OA
ATOM     88  O   UNL A   1      42.511  22.438  25.342  1.00  0.00    -0.237 OA
ATOM     89  O   UNL A   1      42.012  22.285  27.745  1.00  0.00    -0.744 OA
ENDBRANCH  83  86
ENDBRANCH  55  79
BRANCH  67  90
ATOM     90  C   UNL A   1      44.922  26.857  34.086  1.00  0.00     0.023 A 
ATOM     91  C   UNL A   1      46.259  27.290  33.996  1.00  0.00     0.012 A 
ATOM     92  C   UNL A   1      44.612  25.730  34.874  1.00  0.00     0.148 A 
ATOM     93  C   UNL A   1      47.273  26.595  34.657  1.00  0.00     0.002 A 
ATOM     94  C   UNL A   1      45.618  25.077  35.573  1.00  0.00     0.091 A 
ATOM     95  F   UNL A   1      43.335  25.323  34.933  1.00  0.00    -0.205 F 
ATOM     96  C   UNL A   1      46.952  25.500  35.455  1.00  0.00     0.022 A 
BRANCH  94  97
ATOM     97  S   UNL A   1      45.278  23.729  36.712  1.00  0.00     0.127 S 
ATOM     98  O   UNL A   1      44.456  24.393  37.722  1.00  0.00    -0.237 OA
ATOM     99  O   UNL A   1      44.556  22.782  35.863  1.00  0.00    -0.237 OA
ATOM    100  O   UNL A   1      46.576  23.257  37.174  1.00  0.00    -0.744 OA
ENDBRANCH  94  97
ENDBRANCH  67  90
ENDBRANCH  41  42
ENDBRANCH  34  36
ENDBRANCH  33  34
ENDBRANCH  32  33
ENDBRANCH  31  32
ENDBRANCH  30  31
ENDBRANCH  29  30
ENDBRANCH   1  29
TORSDOF 25
ENDMDL
MODEL 3
REMARK VINA RESULT:      -9.3      5.480     10.312
REMARK SMILES CC[NH2+][C@@]1(C(=O)OCCOCCOCCOC(=O)c2ccc(-c3c4nc(c(-c5cccc(S(=O)(=O)[O-])c5F)c5ccc([nH]5)c(-c5cccc(S(=O)(=O)[O-])c5F)c5nc(c(-c6cccc(S(=O)(=O)[O-])c6F)c6ccc3[nH]6)C=C5)C=C4)cc2)CCC[C@@H]1CC[NH+]1CCS(=O)(=O)CC1
REMARK SMILES IDX 11 1 10 2 9 3 8 4 7 5 5 6 6 7 4 8 82 9 85 10 83 11 84 12
REMARK SMILES IDX 3 13 2 16 1 17 86 18 87 19 88 20 89 21 95 22 90 24 94 25
REMARK SMILES IDX 91 26 92 27 93 28 12 29 13 30 14 31 15 32 16 33 17 34 18 35
REMARK SMILES IDX 19 36 20 37 81 38 21 39 80 40 22 41 23 42 24 43 74 44 25 45
REMARK SMILES IDX 79 46 73 47 75 48 26 49 78 50 72 51 71 52 27 54 59 55 39 56
REMARK SMILES IDX 58 57 40 58 43 59 57 60 76 61 41 62 42 63 56 65 77 66 44 67
REMARK SMILES IDX 28 68 29 69 37 70 30 71 32 72 38 73 31 74 33 75 34 76 35 77
REMARK SMILES IDX 36 78 60 79 61 80 69 81 62 82 64 83 70 84 63 85 65 86 66 87
REMARK SMILES IDX 67 88 68 89 45 90 46 91 54 92 47 93 49 94 55 95 48 96 50 97
REMARK SMILES IDX 51 98 52 99 53 100
REMARK H PARENT 3 14 3 15 88 23 75 53 43 64
REMARK Flexibility Score: inf
ROOT
ATOM      1  C   UNL A   1      36.199  23.112  22.663  1.00  0.00     0.188 C 
ENDROOT
BRANCH   1   2
ATOM      2  O   UNL A   1      34.824  23.454  22.791  1.00  0.00    -0.376 OA
BRANCH   2   3
ATOM      3  C   UNL A   1      34.540  24.751  23.322  1.00  0.00     0.202 C 
BRANCH   3   4
ATOM      4  C   UNL A   1      33.795  25.716  22.385  1.00  0.00     0.261 C 
BRANCH   4   5
ATOM      5  O   UNL A   1      33.589  27.033  22.974  1.00  0.00    -0.459 OA
BRANCH   5   6
ATOM      6  C   UNL A   1      32.271  27.417  22.971  1.00  0.00     0.368 C 
ATOM      7  O   UNL A   1      31.485  27.027  22.109  1.00  0.00    -0.245 OA
BRANCH   6   8
ATOM      8  C   UNL A   1      31.869  28.457  24.079  1.00  0.00     0.197 C 
ATOM      9  C   UNL A   1      33.158  29.255  24.376  1.00  0.00     0.081 C 
ATOM     10  C   UNL A   1      31.527  27.933  25.523  1.00  0.00     0.068 C 
ATOM     11  C   UNL A   1      33.960  28.335  25.281  1.00  0.00     0.008 C 
ATOM     12  C   UNL A   1      32.924  27.564  26.093  1.00  0.00     0.011 C 
BRANCH   8  13
ATOM     13  N   UNL A   1      30.834  29.436  23.670  1.00  0.00    -0.332 N 
ATOM     14  H   UNL A   1      30.747  30.090  24.448  1.00  0.00     0.347 HD
ATOM     15  H   UNL A   1      31.200  29.744  22.769  1.00  0.00     0.347 HD
BRANCH  13  16
ATOM     16  C   UNL A   1      29.471  29.071  23.308  1.00  0.00     0.257 C 
ATOM     17  C   UNL A   1      28.607  30.343  23.377  1.00  0.00     0.071 C 
ENDBRANCH  13  16
ENDBRANCH   8  13
BRANCH  10  18
ATOM     18  C   UNL A   1      30.533  26.814  25.948  1.00  0.00     0.072 C 
BRANCH  18  19
ATOM     19  C   UNL A   1      29.824  25.784  25.030  1.00  0.00     0.262 C 
BRANCH  19  20
ATOM     20  N   UNL A   1      30.492  24.483  25.025  1.00  0.00    -0.333 N 
ATOM     21  C   UNL A   1      31.066  24.041  23.767  1.00  0.00     0.278 C 
ATOM     22  C   UNL A   1      31.599  24.435  25.958  1.00  0.00     0.278 C 
ATOM     23  H   UNL A   1      29.714  23.869  25.268  1.00  0.00     0.348 HD
ATOM     24  C   UNL A   1      31.515  22.585  23.721  1.00  0.00     0.198 C 
ATOM     25  C   UNL A   1      31.515  23.037  26.492  1.00  0.00     0.198 C 
ATOM     26  S   UNL A   1      32.081  21.914  25.264  1.00  0.00     0.161 S 
ATOM     27  O   UNL A   1      31.374  20.658  25.479  1.00  0.00    -0.228 OA
ATOM     28  O   UNL A   1      33.522  21.974  25.285  1.00  0.00    -0.228 OA
ENDBRANCH  19  20
ENDBRANCH  18  19
ENDBRANCH  10  18
ENDBRANCH   6   8
ENDBRANCH   5   6
ENDBRANCH   4   5
ENDBRANCH   3   4
ENDBRANCH   2   3
ENDBRANCH   1   2
BRANCH   1  29
ATOM     29  C   UNL A   1      36.665  21.962  23.562  1.00  0.00     0.188 C 
BRANCH  29  30
ATOM     30  O   UNL A   1      37.152  22.312  24.854  1.00  0.00    -0.376 OA
BRANCH  30  31
ATOM     31  C   UNL A   1      37.442  21.235  25.737  1.00  0.00     0.202 C 
BRANCH  31  32
ATOM     32  C   UNL A   1      38.794  20.531  25.539  1.00  0.00     0.261 C 
BRANCH  32  33
ATOM     33  O   UNL A   1      39.684  20.518  26.676  1.00  0.00    -0.460 OA
BRANCH  33  34
ATOM     34  C   UNL A   1      40.967  20.915  26.418  1.00  0.00     0.338 C 
ATOM     35  O   UNL A   1      41.799  20.284  25.788  1.00  0.00    -0.246 OA
BRANCH  34  36
ATOM     36  C   UNL A   1      41.234  22.296  26.925  1.00  0.00     0.060 A 
ATOM     37  C   UNL A   1      40.771  23.378  26.159  1.00  0.00     0.016 A 
ATOM     38  C   UNL A   1      41.808  22.546  28.182  1.00  0.00     0.016 A 
ATOM     39  C   UNL A   1      40.811  24.684  26.673  1.00  0.00     0.010 A 
ATOM     40  C   UNL A   1      41.873  23.862  28.685  1.00  0.00     0.010 A 
ATOM     41  C   UNL A   1      41.363  24.943  27.943  1.00  0.00    -0.014 A 
BRANCH  41  42
ATOM     42  C   UNL A   1      41.678  26.355  28.311  1.00  0.00     0.031 A 
ATOM     43  C   UNL A   1      43.095  26.787  28.040  1.00  0.00     0.074 A 
ATOM     44  C   UNL A   1      40.803  27.247  28.826  1.00  0.00     0.049 A 
ATOM     45  N   UNL A   1      43.637  27.971  28.114  1.00  0.00    -0.248 NA
ATOM     46  C   UNL A   1      44.017  25.723  27.606  1.00  0.00     0.031 C 
ATOM     47  C   UNL A   1      39.405  26.993  29.167  1.00  0.00     0.029 A 
ATOM     48  N   UNL A   1      40.983  28.573  29.167  1.00  0.00    -0.354 N 
ATOM     49  C   UNL A   1      44.954  27.797  27.710  1.00  0.00     0.074 A 
ATOM     50  C   UNL A   1      45.136  26.396  27.412  1.00  0.00     0.031 C 
ATOM     51  C   UNL A   1      38.860  28.116  29.677  1.00  0.00     0.029 A 
ATOM     52  C   UNL A   1      39.870  29.173  29.720  1.00  0.00     0.049 A 
ATOM     53  H   UNL A   1      41.832  29.050  29.027  1.00  0.00     0.167 HD
ATOM     54  C   UNL A   1      45.940  28.712  27.594  1.00  0.00     0.034 A 
ATOM     55  C   UNL A   1      39.692  30.420  30.216  1.00  0.00     0.034 A 
ATOM     56  C   UNL A   1      45.819  30.080  27.993  1.00  0.00     0.049 A 
ATOM     57  C   UNL A   1      40.840  31.408  30.164  1.00  0.00     0.074 A 
ATOM     58  C   UNL A   1      46.782  31.070  27.968  1.00  0.00     0.029 A 
ATOM     59  N   UNL A   1      44.677  30.638  28.545  1.00  0.00    -0.354 N 
ATOM     60  N   UNL A   1      42.039  31.259  29.653  1.00  0.00    -0.248 NA
ATOM     61  C   UNL A   1      40.601  32.746  30.733  1.00  0.00     0.031 C 
ATOM     62  C   UNL A   1      46.235  32.219  28.547  1.00  0.00     0.029 A 
ATOM     63  C   UNL A   1      44.914  31.958  28.879  1.00  0.00     0.049 A 
ATOM     64  H   UNL A   1      43.825  30.164  28.680  1.00  0.00     0.167 HD
ATOM     65  C   UNL A   1      42.679  32.489  29.804  1.00  0.00     0.074 A 
ATOM     66  C   UNL A   1      41.729  33.379  30.436  1.00  0.00     0.031 C 
ATOM     67  C   UNL A   1      43.941  32.846  29.461  1.00  0.00     0.034 A 
BRANCH  54  68
ATOM     68  C   UNL A   1      47.245  28.212  27.044  1.00  0.00     0.023 A 
ATOM     69  C   UNL A   1      48.352  28.062  27.907  1.00  0.00     0.012 A 
ATOM     70  C   UNL A   1      47.393  27.954  25.671  1.00  0.00     0.148 A 
ATOM     71  C   UNL A   1      49.600  27.710  27.401  1.00  0.00     0.002 A 
ATOM     72  C   UNL A   1      48.629  27.557  25.181  1.00  0.00     0.091 A 
ATOM     73  F   UNL A   1      46.336  28.144  24.867  1.00  0.00    -0.205 F 
ATOM     74  C   UNL A   1      49.737  27.451  26.039  1.00  0.00     0.022 A 
BRANCH  72  75
ATOM     75  S   UNL A   1      48.896  27.150  23.455  1.00  0.00     0.127 S 
ATOM     76  O   UNL A   1      48.205  25.865  23.345  1.00  0.00    -0.237 OA
ATOM     77  O   UNL A   1      48.231  28.261  22.776  1.00  0.00    -0.237 OA
ATOM     78  O   UNL A   1      50.339  27.096  23.270  1.00  0.00    -0.744 OA
ENDBRANCH  72  75
ENDBRANCH  54  68
BRANCH  55  79
ATOM     79  C   UNL A   1      38.381  30.841  30.810  1.00  0.00     0.023 A 
ATOM     80  C   UNL A   1      38.054  30.477  32.134  1.00  0.00     0.012 A 
ATOM     81  C   UNL A   1      37.429  31.548  30.049  1.00  0.00     0.148 A 
ATOM     82  C   UNL A   1      36.799  30.774  32.672  1.00  0.00     0.002 A 
ATOM     83  C   UNL A   1      36.199  31.886  30.606  1.00  0.00     0.091 A 
ATOM     84  F   UNL A   1      37.739  31.861  28.782  1.00  0.00    -0.205 F 
ATOM     85  C   UNL A   1      35.874  31.485  31.911  1.00  0.00     0.022 A 
BRANCH  83  86
ATOM     86  S   UNL A   1      34.975  32.875  29.739  1.00  0.00     0.127 S 
ATOM     87  O   UNL A   1      34.155  33.370  30.842  1.00  0.00    -0.237 OA
ATOM     88  O   UNL A   1      35.813  33.888  29.096  1.00  0.00    -0.237 OA
ATOM     89  O   UNL A   1      34.308  31.962  28.822  1.00  0.00    -0.744 OA
ENDBRANCH  83  86
ENDBRANCH  55  79
BRANCH  67  90
ATOM     90  C   UNL A   1      44.371  34.272  29.696  1.00  0.00     0.023 A 
ATOM     91  C   UNL A   1      45.054  34.627  30.875  1.00  0.00     0.012 A 
ATOM     92  C   UNL A   1      44.187  35.239  28.687  1.00  0.00     0.148 A 
ATOM     93  C   UNL A   1      45.520  35.930  31.059  1.00  0.00     0.002 A 
ATOM     94  C   UNL A   1      44.701  36.518  28.853  1.00  0.00     0.091 A 
ATOM     95  F   UNL A   1      43.519  34.886  27.579  1.00  0.00    -0.205 F 
ATOM     96  C   UNL A   1      45.356  36.870  30.044  1.00  0.00     0.022 A 
BRANCH  94  97
ATOM     97  S   UNL A   1      44.635  37.756  27.551  1.00  0.00     0.127 S 
ATOM     98  O   UNL A   1      45.259  38.906  28.203  1.00  0.00    -0.237 OA
ATOM     99  O   UNL A   1      45.442  37.140  26.498  1.00  0.00    -0.237 OA
ATOM    100  O   UNL A   1      43.226  37.913  27.218  1.00  0.00    -0.744 OA
ENDBRANCH  94  97
ENDBRANCH  67  90
ENDBRANCH  41  42
ENDBRANCH  34  36
ENDBRANCH  33  34
ENDBRANCH  32  33
ENDBRANCH  31  32
ENDBRANCH  30  31
ENDBRANCH  29  30
ENDBRANCH   1  29
TORSDOF 25
ENDMDL
