MODEL 1
REMARK VINA RESULT:      -9.0      0.000      0.000
REMARK SMILES C[C@H](Cc1ccco1)[NH2+]Cc1cc(C(=O)OCCOCCOCCOC(=O)c2ccc(-c3c4nc(c(-c5cccc(S(=O)(=O)[O-])c5F)c5ccc([nH]5)c(-c5cccc(S(=O)(=O)[O-])c5F)c5nc(c(-c6cccc(S(=O)(=O)[O-])c6F)c6ccc3[nH]6)C=C5)C=C4)cc2)cs1
REMARK SMILES IDX 20 1 19 2 18 3 17 4 16 5 14 6 15 7 13 8 11 9 12 10 92 11
REMARK SMILES IDX 91 12 10 13 9 14 2 17 1 18 3 19 4 20 5 21 8 22 6 23 7 24
REMARK SMILES IDX 21 25 22 26 23 27 24 28 25 29 26 30 27 31 28 32 29 33 90 34
REMARK SMILES IDX 30 35 89 36 31 37 32 38 33 39 83 40 34 41 88 42 82 43 84 44
REMARK SMILES IDX 35 45 87 46 81 47 80 48 36 50 68 51 48 52 67 53 49 54 52 55
REMARK SMILES IDX 66 56 85 57 50 58 51 59 65 61 86 62 53 63 37 64 38 65 46 66
REMARK SMILES IDX 39 67 41 68 47 69 40 70 42 71 43 72 44 73 45 74 69 75 70 76
REMARK SMILES IDX 78 77 71 78 73 79 79 80 72 81 74 82 75 83 76 84 77 85 54 86
REMARK SMILES IDX 55 87 63 88 56 89 58 90 64 91 57 92 59 93 60 94 61 95 62 96
REMARK H PARENT 9 15 9 16 84 49 52 60
REMARK Flexibility Score: inf
ROOT
ATOM      1  C   UNL A   1      31.954  30.312  26.868  1.00  0.00     0.188 C 
ENDROOT
BRANCH   1   2
ATOM      2  O   UNL A   1      31.712  30.367  25.470  1.00  0.00    -0.376 OA
BRANCH   2   3
ATOM      3  C   UNL A   1      31.379  29.136  24.848  1.00  0.00     0.202 C 
BRANCH   3   4
ATOM      4  C   UNL A   1      30.529  29.304  23.583  1.00  0.00     0.261 C 
BRANCH   4   5
ATOM      5  O   UNL A   1      30.446  28.138  22.746  1.00  0.00    -0.460 OA
BRANCH   5   6
ATOM      6  C   UNL A   1      29.924  27.014  23.310  1.00  0.00     0.339 C 
ATOM      7  O   UNL A   1      28.782  26.929  23.742  1.00  0.00    -0.246 OA
BRANCH   6   8
ATOM      8  C   UNL A   1      30.871  25.902  23.302  1.00  0.00     0.071 A 
ATOM      9  C   UNL A   1      31.807  23.787  23.775  1.00  0.00     0.060 A 
ATOM     10  C   UNL A   1      30.739  24.641  23.983  1.00  0.00     0.037 A 
ATOM     11  S   UNL A   1      32.964  24.502  22.729  1.00  0.00    -0.142 S 
ATOM     12  C   UNL A   1      32.069  25.952  22.615  1.00  0.00     0.081 A 
BRANCH   9  13
ATOM     13  C   UNL A   1      32.000  22.393  24.325  1.00  0.00     0.308 C 
BRANCH  13  14
ATOM     14  N   UNL A   1      33.191  21.706  23.820  1.00  0.00    -0.339 N 
ATOM     15  H   UNL A   1      32.951  21.291  22.919  1.00  0.00     0.346 HD
ATOM     16  H   UNL A   1      33.918  22.420  23.775  1.00  0.00     0.346 HD
BRANCH  14  17
ATOM     17  C   UNL A   1      33.743  20.634  24.678  1.00  0.00     0.187 C 
ATOM     18  C   UNL A   1      32.761  19.483  24.943  1.00  0.00     0.075 C 
BRANCH  17  19
ATOM     19  C   UNL A   1      34.262  21.304  25.985  1.00  0.00     0.140 C 
BRANCH  19  20
ATOM     20  C   UNL A   1      35.469  22.147  25.784  1.00  0.00     0.109 A 
ATOM     21  C   UNL A   1      35.655  23.514  25.766  1.00  0.00     0.046 A 
ATOM     22  O   UNL A   1      36.667  21.507  25.679  1.00  0.00    -0.469 OA
ATOM     23  C   UNL A   1      37.051  23.722  25.697  1.00  0.00     0.042 A 
ATOM     24  C   UNL A   1      37.622  22.473  25.637  1.00  0.00     0.195 A 
ENDBRANCH  19  20
ENDBRANCH  17  19
ENDBRANCH  14  17
ENDBRANCH  13  14
ENDBRANCH   9  13
ENDBRANCH   6   8
ENDBRANCH   5   6
ENDBRANCH   4   5
ENDBRANCH   3   4
ENDBRANCH   2   3
ENDBRANCH   1   2
BRANCH   1  25
ATOM     25  C   UNL A   1      33.381  30.740  27.266  1.00  0.00     0.188 C 
BRANCH  25  26
ATOM     26  O   UNL A   1      33.627  32.035  27.806  1.00  0.00    -0.376 OA
BRANCH  26  27
ATOM     27  C   UNL A   1      32.772  33.114  27.451  1.00  0.00     0.202 C 
BRANCH  27  28
ATOM     28  C   UNL A   1      33.023  34.489  28.082  1.00  0.00     0.261 C 
BRANCH  28  29
ATOM     29  O   UNL A   1      32.569  34.612  29.438  1.00  0.00    -0.460 OA
BRANCH  29  30
ATOM     30  C   UNL A   1      33.409  35.267  30.277  1.00  0.00     0.338 C 
ATOM     31  O   UNL A   1      33.257  36.373  30.767  1.00  0.00    -0.246 OA
BRANCH  30  32
ATOM     32  C   UNL A   1      34.514  34.366  30.656  1.00  0.00     0.060 A 
ATOM     33  C   UNL A   1      34.251  33.336  31.570  1.00  0.00     0.016 A 
ATOM     34  C   UNL A   1      35.801  34.557  30.151  1.00  0.00     0.016 A 
ATOM     35  C   UNL A   1      35.280  32.489  31.981  1.00  0.00     0.010 A 
ATOM     36  C   UNL A   1      36.835  33.724  30.584  1.00  0.00     0.010 A 
ATOM     37  C   UNL A   1      36.583  32.695  31.510  1.00  0.00    -0.014 A 
BRANCH  37  38
ATOM     38  C   UNL A   1      37.714  31.906  32.052  1.00  0.00     0.031 A 
ATOM     39  C   UNL A   1      38.329  32.315  33.359  1.00  0.00     0.074 A 
ATOM     40  C   UNL A   1      38.219  30.873  31.355  1.00  0.00     0.049 A 
ATOM     41  N   UNL A   1      39.380  31.827  33.965  1.00  0.00    -0.248 NA
ATOM     42  C   UNL A   1      37.676  33.421  34.077  1.00  0.00     0.031 C 
ATOM     43  C   UNL A   1      37.701  30.381  30.080  1.00  0.00     0.029 A 
ATOM     44  N   UNL A   1      39.311  30.079  31.607  1.00  0.00    -0.354 N 
ATOM     45  C   UNL A   1      39.530  32.579  35.123  1.00  0.00     0.074 A 
ATOM     46  C   UNL A   1      38.464  33.557  35.136  1.00  0.00     0.031 C 
ATOM     47  C   UNL A   1      38.502  29.396  29.637  1.00  0.00     0.029 A 
ATOM     48  C   UNL A   1      39.602  29.210  30.582  1.00  0.00     0.049 A 
ATOM     49  H   UNL A   1      39.832  30.126  32.440  1.00  0.00     0.167 HD
ATOM     50  C   UNL A   1      40.467  32.459  36.092  1.00  0.00     0.034 A 
ATOM     51  C   UNL A   1      40.656  28.388  30.409  1.00  0.00     0.034 A 
ATOM     52  C   UNL A   1      41.523  31.485  36.080  1.00  0.00     0.049 A 
ATOM     53  C   UNL A   1      41.721  28.318  31.474  1.00  0.00     0.074 A 
ATOM     54  C   UNL A   1      42.486  31.248  37.045  1.00  0.00     0.029 A 
ATOM     55  N   UNL A   1      41.773  30.603  35.041  1.00  0.00    -0.354 N 
ATOM     56  N   UNL A   1      41.774  28.935  32.630  1.00  0.00    -0.248 NA
ATOM     57  C   UNL A   1      42.861  27.425  31.220  1.00  0.00     0.031 C 
ATOM     58  C   UNL A   1      43.334  30.240  36.576  1.00  0.00     0.029 A 
ATOM     59  C   UNL A   1      42.889  29.838  35.328  1.00  0.00     0.049 A 
ATOM     60  H   UNL A   1      41.236  30.532  34.219  1.00  0.00     0.167 HD
ATOM     61  C   UNL A   1      42.937  28.489  33.249  1.00  0.00     0.074 A 
ATOM     62  C   UNL A   1      43.548  27.531  32.351  1.00  0.00     0.031 C 
ATOM     63  C   UNL A   1      43.462  28.852  34.446  1.00  0.00     0.034 A 
BRANCH  50  64
ATOM     64  C   UNL A   1      40.373  33.392  37.268  1.00  0.00     0.023 A 
ATOM     65  C   UNL A   1      41.121  34.586  37.265  1.00  0.00     0.012 A 
ATOM     66  C   UNL A   1      39.509  33.117  38.345  1.00  0.00     0.148 A 
ATOM     67  C   UNL A   1      41.031  35.482  38.330  1.00  0.00     0.002 A 
ATOM     68  C   UNL A   1      39.398  34.032  39.386  1.00  0.00     0.091 A 
ATOM     69  F   UNL A   1      38.827  31.963  38.341  1.00  0.00    -0.205 F 
ATOM     70  C   UNL A   1      40.163  35.210  39.384  1.00  0.00     0.022 A 
BRANCH  68  71
ATOM     71  S   UNL A   1      38.260  33.799  40.757  1.00  0.00     0.127 S 
ATOM     72  O   UNL A   1      38.042  35.177  41.195  1.00  0.00    -0.237 OA
ATOM     73  O   UNL A   1      37.108  33.178  40.101  1.00  0.00    -0.237 OA
ATOM     74  O   UNL A   1      38.950  32.940  41.708  1.00  0.00    -0.744 OA
ENDBRANCH  68  71
ENDBRANCH  50  64
BRANCH  51  75
ATOM     75  C   UNL A   1      40.752  27.548  29.182  1.00  0.00     0.023 A 
ATOM     76  C   UNL A   1      39.942  26.403  29.061  1.00  0.00     0.012 A 
ATOM     77  C   UNL A   1      41.628  27.886  28.131  1.00  0.00     0.148 A 
ATOM     78  C   UNL A   1      40.017  25.596  27.925  1.00  0.00     0.002 A 
ATOM     79  C   UNL A   1      41.661  27.106  26.981  1.00  0.00     0.091 A 
ATOM     80  F   UNL A   1      42.408  28.966  28.274  1.00  0.00    -0.205 F 
ATOM     81  C   UNL A   1      40.867  25.952  26.881  1.00  0.00     0.022 A 
BRANCH  79  82
ATOM     82  S   UNL A   1      42.636  27.557  25.541  1.00  0.00     0.127 S 
ATOM     83  O   UNL A   1      43.976  27.674  26.110  1.00  0.00    -0.237 OA
ATOM     84  O   UNL A   1      42.437  26.401  24.665  1.00  0.00    -0.237 OA
ATOM     85  O   UNL A   1      42.048  28.793  25.042  1.00  0.00    -0.744 OA
ENDBRANCH  79  82
ENDBRANCH  51  75
BRANCH  63  86
ATOM     86  C   UNL A   1      44.756  28.211  34.873  1.00  0.00     0.023 A 
ATOM     87  C   UNL A   1      44.723  27.003  35.597  1.00  0.00     0.012 A 
ATOM     88  C   UNL A   1      45.997  28.746  34.476  1.00  0.00     0.148 A 
ATOM     89  C   UNL A   1      45.907  26.346  35.934  1.00  0.00     0.002 A 
ATOM     90  C   UNL A   1      47.170  28.065  34.776  1.00  0.00     0.091 A 
ATOM     91  F   UNL A   1      46.005  29.906  33.800  1.00  0.00    -0.205 F 
ATOM     92  C   UNL A   1      47.127  26.869  35.513  1.00  0.00     0.022 A 
BRANCH  90  93
ATOM     93  S   UNL A   1      48.782  28.611  34.201  1.00  0.00     0.127 S 
ATOM     94  O   UNL A   1      48.923  29.896  34.883  1.00  0.00    -0.237 OA
ATOM     95  O   UNL A   1      49.664  27.554  34.699  1.00  0.00    -0.237 OA
ATOM     96  O   UNL A   1      48.687  28.685  32.749  1.00  0.00    -0.744 OA
ENDBRANCH  90  93
ENDBRANCH  63  86
ENDBRANCH  37  38
ENDBRANCH  30  32
ENDBRANCH  29  30
ENDBRANCH  28  29
ENDBRANCH  27  28
ENDBRANCH  26  27
ENDBRANCH  25  26
ENDBRANCH   1  25
TORSDOF 25
ENDMDL
MODEL 2
REMARK VINA RESULT:      -9.0      1.781      2.104
REMARK SMILES C[C@H](Cc1ccco1)[NH2+]Cc1cc(C(=O)OCCOCCOCCOC(=O)c2ccc(-c3c4nc(c(-c5cccc(S(=O)(=O)[O-])c5F)c5ccc([nH]5)c(-c5cccc(S(=O)(=O)[O-])c5F)c5nc(c(-c6cccc(S(=O)(=O)[O-])c6F)c6ccc3[nH]6)C=C5)C=C4)cc2)cs1
REMARK SMILES IDX 20 1 19 2 18 3 17 4 16 5 14 6 15 7 13 8 11 9 12 10 92 11
REMARK SMILES IDX 91 12 10 13 9 14 2 17 1 18 3 19 4 20 5 21 8 22 6 23 7 24
REMARK SMILES IDX 21 25 22 26 23 27 24 28 25 29 26 30 27 31 28 32 29 33 90 34
REMARK SMILES IDX 30 35 89 36 31 37 32 38 33 39 83 40 34 41 88 42 82 43 84 44
REMARK SMILES IDX 35 45 87 46 81 47 80 48 36 50 68 51 48 52 67 53 49 54 52 55
REMARK SMILES IDX 66 56 85 57 50 58 51 59 65 61 86 62 53 63 37 64 38 65 46 66
REMARK SMILES IDX 39 67 41 68 47 69 40 70 42 71 43 72 44 73 45 74 69 75 70 76
REMARK SMILES IDX 78 77 71 78 73 79 79 80 72 81 74 82 75 83 76 84 77 85 54 86
REMARK SMILES IDX 55 87 63 88 56 89 58 90 64 91 57 92 59 93 60 94 61 95 62 96
REMARK H PARENT 9 15 9 16 84 49 52 60
REMARK Flexibility Score: inf
ROOT
ATOM      1  C   UNL A   1      31.917  30.354  26.842  1.00  0.00     0.188 C 
ENDROOT
BRANCH   1   2
ATOM      2  O   UNL A   1      31.665  30.382  25.445  1.00  0.00    -0.376 OA
BRANCH   2   3
ATOM      3  C   UNL A   1      31.408  29.127  24.834  1.00  0.00     0.202 C 
BRANCH   3   4
ATOM      4  C   UNL A   1      30.795  29.247  23.434  1.00  0.00     0.261 C 
BRANCH   4   5
ATOM      5  O   UNL A   1      30.820  28.039  22.653  1.00  0.00    -0.460 OA
BRANCH   5   6
ATOM      6  C   UNL A   1      30.238  26.940  23.206  1.00  0.00     0.339 C 
ATOM      7  O   UNL A   1      29.062  26.881  23.543  1.00  0.00    -0.246 OA
BRANCH   6   8
ATOM      8  C   UNL A   1      31.168  25.818  23.313  1.00  0.00     0.071 A 
ATOM      9  C   UNL A   1      32.003  23.679  23.861  1.00  0.00     0.060 A 
ATOM     10  C   UNL A   1      30.921  24.539  23.924  1.00  0.00     0.037 A 
ATOM     11  S   UNL A   1      33.316  24.414  23.035  1.00  0.00    -0.142 S 
ATOM     12  C   UNL A   1      32.459  25.876  22.827  1.00  0.00     0.081 A 
BRANCH   9  13
ATOM     13  C   UNL A   1      32.098  22.267  24.390  1.00  0.00     0.308 C 
BRANCH  13  14
ATOM     14  N   UNL A   1      33.299  21.544  23.963  1.00  0.00    -0.339 N 
ATOM     15  H   UNL A   1      33.074  21.053  23.098  1.00  0.00     0.346 HD
ATOM     16  H   UNL A   1      34.025  22.254  23.869  1.00  0.00     0.346 HD
BRANCH  14  17
ATOM     17  C   UNL A   1      33.839  20.551  24.918  1.00  0.00     0.187 C 
ATOM     18  C   UNL A   1      32.842  19.444  25.294  1.00  0.00     0.075 C 
BRANCH  17  19
ATOM     19  C   UNL A   1      34.373  21.334  26.154  1.00  0.00     0.140 C 
BRANCH  19  20
ATOM     20  C   UNL A   1      35.600  22.124  25.874  1.00  0.00     0.109 A 
ATOM     21  C   UNL A   1      35.859  23.479  25.902  1.00  0.00     0.046 A 
ATOM     22  O   UNL A   1      36.745  21.430  25.622  1.00  0.00    -0.469 OA
ATOM     23  C   UNL A   1      37.252  23.619  25.706  1.00  0.00     0.042 A 
ATOM     24  C   UNL A   1      37.744  22.347  25.531  1.00  0.00     0.195 A 
ENDBRANCH  19  20
ENDBRANCH  17  19
ENDBRANCH  14  17
ENDBRANCH  13  14
ENDBRANCH   9  13
ENDBRANCH   6   8
ENDBRANCH   5   6
ENDBRANCH   4   5
ENDBRANCH   3   4
ENDBRANCH   2   3
ENDBRANCH   1   2
BRANCH   1  25
ATOM     25  C   UNL A   1      33.347  30.786  27.222  1.00  0.00     0.188 C 
BRANCH  25  26
ATOM     26  O   UNL A   1      33.600  32.090  27.738  1.00  0.00    -0.376 OA
BRANCH  26  27
ATOM     27  C   UNL A   1      32.748  33.165  27.366  1.00  0.00     0.202 C 
BRANCH  27  28
ATOM     28  C   UNL A   1      32.951  34.529  28.038  1.00  0.00     0.261 C 
BRANCH  28  29
ATOM     29  O   UNL A   1      32.590  34.567  29.426  1.00  0.00    -0.460 OA
BRANCH  29  30
ATOM     30  C   UNL A   1      33.456  35.224  30.236  1.00  0.00     0.338 C 
ATOM     31  O   UNL A   1      33.332  36.342  30.705  1.00  0.00    -0.246 OA
BRANCH  30  32
ATOM     32  C   UNL A   1      34.551  34.311  30.615  1.00  0.00     0.060 A 
ATOM     33  C   UNL A   1      34.274  33.276  31.520  1.00  0.00     0.016 A 
ATOM     34  C   UNL A   1      35.843  34.496  30.121  1.00  0.00     0.016 A 
ATOM     35  C   UNL A   1      35.293  32.418  31.930  1.00  0.00     0.010 A 
ATOM     36  C   UNL A   1      36.867  33.651  30.554  1.00  0.00     0.010 A 
ATOM     37  C   UNL A   1      36.601  32.618  31.470  1.00  0.00    -0.014 A 
BRANCH  37  38
ATOM     38  C   UNL A   1      37.722  31.815  32.013  1.00  0.00     0.031 A 
ATOM     39  C   UNL A   1      38.320  32.198  33.336  1.00  0.00     0.074 A 
ATOM     40  C   UNL A   1      38.234  30.794  31.305  1.00  0.00     0.049 A 
ATOM     41  N   UNL A   1      39.360  31.696  33.948  1.00  0.00    -0.248 NA
ATOM     42  C   UNL A   1      37.659  33.292  34.066  1.00  0.00     0.031 C 
ATOM     43  C   UNL A   1      37.733  30.327  30.014  1.00  0.00     0.029 A 
ATOM     44  N   UNL A   1      39.320  29.992  31.557  1.00  0.00    -0.354 N 
ATOM     45  C   UNL A   1      39.496  32.426  35.122  1.00  0.00     0.074 A 
ATOM     46  C   UNL A   1      38.432  33.407  35.137  1.00  0.00     0.031 C 
ATOM     47  C   UNL A   1      38.537  29.348  29.564  1.00  0.00     0.029 A 
ATOM     48  C   UNL A   1      39.623  29.141  30.521  1.00  0.00     0.049 A 
ATOM     49  H   UNL A   1      39.830  30.022  32.398  1.00  0.00     0.167 HD
ATOM     50  C   UNL A   1      40.418  32.285  36.102  1.00  0.00     0.034 A 
ATOM     51  C   UNL A   1      40.678  28.319  30.348  1.00  0.00     0.034 A 
ATOM     52  C   UNL A   1      41.472  31.308  36.087  1.00  0.00     0.049 A 
ATOM     53  C   UNL A   1      41.727  28.227  31.426  1.00  0.00     0.074 A 
ATOM     54  C   UNL A   1      42.421  31.051  37.061  1.00  0.00     0.029 A 
ATOM     55  N   UNL A   1      41.735  30.446  35.035  1.00  0.00    -0.354 N 
ATOM     56  N   UNL A   1      41.766  28.822  32.594  1.00  0.00    -0.248 NA
ATOM     57  C   UNL A   1      42.869  27.335  31.172  1.00  0.00     0.031 C 
ATOM     58  C   UNL A   1      43.273  30.049  36.585  1.00  0.00     0.029 A 
ATOM     59  C   UNL A   1      42.845  29.672  35.323  1.00  0.00     0.049 A 
ATOM     60  H   UNL A   1      41.209  30.391  34.204  1.00  0.00     0.167 HD
ATOM     61  C   UNL A   1      42.919  28.361  33.221  1.00  0.00     0.074 A 
ATOM     62  C   UNL A   1      43.539  27.418  32.314  1.00  0.00     0.031 C 
ATOM     63  C   UNL A   1      43.427  28.701  34.431  1.00  0.00     0.034 A 
BRANCH  50  64
ATOM     64  C   UNL A   1      40.310  33.197  37.293  1.00  0.00     0.023 A 
ATOM     65  C   UNL A   1      39.427  32.866  38.340  1.00  0.00     0.012 A 
ATOM     66  C   UNL A   1      41.117  34.346  37.403  1.00  0.00     0.148 A 
ATOM     67  C   UNL A   1      39.328  33.679  39.468  1.00  0.00     0.002 A 
ATOM     68  C   UNL A   1      41.038  35.132  38.546  1.00  0.00     0.091 A 
ATOM     69  F   UNL A   1      41.930  34.656  36.384  1.00  0.00    -0.205 F 
ATOM     70  C   UNL A   1      40.140  34.805  39.575  1.00  0.00     0.022 A 
BRANCH  68  71
ATOM     71  S   UNL A   1      42.090  36.567  38.804  1.00  0.00     0.127 S 
ATOM     72  O   UNL A   1      42.914  36.128  39.929  1.00  0.00    -0.237 OA
ATOM     73  O   UNL A   1      42.800  36.663  37.528  1.00  0.00    -0.237 OA
ATOM     74  O   UNL A   1      41.189  37.677  39.080  1.00  0.00    -0.744 OA
ENDBRANCH  68  71
ENDBRANCH  50  64
BRANCH  51  75
ATOM     75  C   UNL A   1      40.790  27.502  29.106  1.00  0.00     0.023 A 
ATOM     76  C   UNL A   1      39.993  26.351  28.962  1.00  0.00     0.012 A 
ATOM     77  C   UNL A   1      41.667  27.868  28.066  1.00  0.00     0.148 A 
ATOM     78  C   UNL A   1      40.082  25.565  27.812  1.00  0.00     0.002 A 
ATOM     79  C   UNL A   1      41.714  27.109  26.902  1.00  0.00     0.091 A 
ATOM     80  F   UNL A   1      42.434  28.954  28.232  1.00  0.00    -0.205 F 
ATOM     81  C   UNL A   1      40.933  25.948  26.779  1.00  0.00     0.022 A 
BRANCH  79  82
ATOM     82  S   UNL A   1      42.691  27.595  25.475  1.00  0.00     0.127 S 
ATOM     83  O   UNL A   1      42.534  26.439  24.596  1.00  0.00    -0.237 OA
ATOM     84  O   UNL A   1      41.999  28.806  25.031  1.00  0.00    -0.237 OA
ATOM     85  O   UNL A   1      44.037  27.827  25.985  1.00  0.00    -0.744 OA
ENDBRANCH  79  82
ENDBRANCH  51  75
BRANCH  63  86
ATOM     86  C   UNL A   1      44.713  28.047  34.865  1.00  0.00     0.023 A 
ATOM     87  C   UNL A   1      45.937  28.701  34.622  1.00  0.00     0.012 A 
ATOM     88  C   UNL A   1      44.705  26.843  35.596  1.00  0.00     0.148 A 
ATOM     89  C   UNL A   1      47.135  28.157  35.085  1.00  0.00     0.002 A 
ATOM     90  C   UNL A   1      45.897  26.329  36.092  1.00  0.00     0.091 A 
ATOM     91  F   UNL A   1      43.529  26.229  35.802  1.00  0.00    -0.205 F 
ATOM     92  C   UNL A   1      47.114  26.980  35.830  1.00  0.00     0.022 A 
BRANCH  90  93
ATOM     93  S   UNL A   1      45.961  24.870  37.138  1.00  0.00     0.127 S 
ATOM     94  O   UNL A   1      46.075  23.799  36.149  1.00  0.00    -0.237 OA
ATOM     95  O   UNL A   1      47.172  25.105  37.925  1.00  0.00    -0.237 OA
ATOM     96  O   UNL A   1      44.727  24.874  37.911  1.00  0.00    -0.744 OA
ENDBRANCH  90  93
ENDBRANCH  63  86
ENDBRANCH  37  38
ENDBRANCH  30  32
ENDBRANCH  29  30
ENDBRANCH  28  29
ENDBRANCH  27  28
ENDBRANCH  26  27
ENDBRANCH  25  26
ENDBRANCH   1  25
TORSDOF 25
ENDMDL
MODEL 3
REMARK VINA RESULT:      -8.4      3.349      4.494
REMARK SMILES C[C@H](Cc1ccco1)[NH2+]Cc1cc(C(=O)OCCOCCOCCOC(=O)c2ccc(-c3c4nc(c(-c5cccc(S(=O)(=O)[O-])c5F)c5ccc([nH]5)c(-c5cccc(S(=O)(=O)[O-])c5F)c5nc(c(-c6cccc(S(=O)(=O)[O-])c6F)c6ccc3[nH]6)C=C5)C=C4)cc2)cs1
REMARK SMILES IDX 20 1 19 2 18 3 17 4 16 5 14 6 15 7 13 8 11 9 12 10 92 11
REMARK SMILES IDX 91 12 10 13 9 14 2 17 1 18 3 19 4 20 5 21 8 22 6 23 7 24
REMARK SMILES IDX 21 25 22 26 23 27 24 28 25 29 26 30 27 31 28 32 29 33 90 34
REMARK SMILES IDX 30 35 89 36 31 37 32 38 33 39 83 40 34 41 88 42 82 43 84 44
REMARK SMILES IDX 35 45 87 46 81 47 80 48 36 50 68 51 48 52 67 53 49 54 52 55
REMARK SMILES IDX 66 56 85 57 50 58 51 59 65 61 86 62 53 63 37 64 38 65 46 66
REMARK SMILES IDX 39 67 41 68 47 69 40 70 42 71 43 72 44 73 45 74 69 75 70 76
REMARK SMILES IDX 78 77 71 78 73 79 79 80 72 81 74 82 75 83 76 84 77 85 54 86
REMARK SMILES IDX 55 87 63 88 56 89 58 90 64 91 57 92 59 93 60 94 61 95 62 96
REMARK H PARENT 9 15 9 16 84 49 52 60
REMARK Flexibility Score: inf
ROOT
ATOM      1  C   UNL A   1      32.238  30.319  26.884  1.00  0.00     0.188 C 
ENDROOT
BRANCH   1   2
ATOM      2  O   UNL A   1      31.678  30.348  25.579  1.00  0.00    -0.376 OA
BRANCH   2   3
ATOM      3  C   UNL A   1      31.423  29.086  24.984  1.00  0.00     0.202 C 
BRANCH   3   4
ATOM      4  C   UNL A   1      30.683  29.183  23.645  1.00  0.00     0.261 C 
BRANCH   4   5
ATOM      5  O   UNL A   1      30.716  27.991  22.842  1.00  0.00    -0.460 OA
BRANCH   5   6
ATOM      6  C   UNL A   1      30.105  26.889  23.357  1.00  0.00     0.339 C 
ATOM      7  O   UNL A   1      28.931  26.850  23.701  1.00  0.00    -0.246 OA
BRANCH   6   8
ATOM      8  C   UNL A   1      31.003  25.737  23.414  1.00  0.00     0.071 A 
ATOM      9  C   UNL A   1      31.793  23.567  23.907  1.00  0.00     0.060 A 
ATOM     10  C   UNL A   1      30.742  24.460  24.025  1.00  0.00     0.037 A 
ATOM     11  S   UNL A   1      33.090  24.267  23.029  1.00  0.00    -0.142 S 
ATOM     12  C   UNL A   1      32.272  25.758  22.870  1.00  0.00     0.081 A 
BRANCH   9  13
ATOM     13  C   UNL A   1      31.866  22.148  24.421  1.00  0.00     0.308 C 
BRANCH  13  14
ATOM     14  N   UNL A   1      32.954  21.355  23.845  1.00  0.00    -0.339 N 
ATOM     15  H   UNL A   1      32.555  20.764  23.116  1.00  0.00     0.346 HD
ATOM     16  H   UNL A   1      33.637  22.034  23.509  1.00  0.00     0.346 HD
BRANCH  14  17
ATOM     17  C   UNL A   1      33.693  20.480  24.781  1.00  0.00     0.187 C 
ATOM     18  C   UNL A   1      32.930  19.207  25.176  1.00  0.00     0.075 C 
BRANCH  17  19
ATOM     19  C   UNL A   1      34.103  21.349  26.007  1.00  0.00     0.140 C 
BRANCH  19  20
ATOM     20  C   UNL A   1      35.314  22.178  25.772  1.00  0.00     0.109 A 
ATOM     21  C   UNL A   1      35.570  23.521  25.954  1.00  0.00     0.046 A 
ATOM     22  O   UNL A   1      36.448  21.530  25.386  1.00  0.00    -0.469 OA
ATOM     23  C   UNL A   1      36.952  23.696  25.714  1.00  0.00     0.042 A 
ATOM     24  C   UNL A   1      37.439  22.460  25.363  1.00  0.00     0.195 A 
ENDBRANCH  19  20
ENDBRANCH  17  19
ENDBRANCH  14  17
ENDBRANCH  13  14
ENDBRANCH   9  13
ENDBRANCH   6   8
ENDBRANCH   5   6
ENDBRANCH   4   5
ENDBRANCH   3   4
ENDBRANCH   2   3
ENDBRANCH   1   2
BRANCH   1  25
ATOM     25  C   UNL A   1      33.752  30.028  26.901  1.00  0.00     0.188 C 
BRANCH  25  26
ATOM     26  O   UNL A   1      34.657  30.926  27.538  1.00  0.00    -0.376 OA
BRANCH  26  27
ATOM     27  C   UNL A   1      34.211  32.224  27.905  1.00  0.00     0.202 C 
BRANCH  27  28
ATOM     28  C   UNL A   1      34.567  32.755  29.300  1.00  0.00     0.261 C 
BRANCH  28  29
ATOM     29  O   UNL A   1      34.919  31.740  30.250  1.00  0.00    -0.460 OA
BRANCH  29  30
ATOM     30  C   UNL A   1      35.702  32.151  31.278  1.00  0.00     0.338 C 
ATOM     31  O   UNL A   1      35.408  32.925  32.173  1.00  0.00    -0.246 OA
BRANCH  30  32
ATOM     32  C   UNL A   1      36.966  31.391  31.257  1.00  0.00     0.060 A 
ATOM     33  C   UNL A   1      37.042  30.202  31.995  1.00  0.00     0.016 A 
ATOM     34  C   UNL A   1      38.076  31.864  30.556  1.00  0.00     0.016 A 
ATOM     35  C   UNL A   1      38.233  29.478  32.030  1.00  0.00     0.010 A 
ATOM     36  C   UNL A   1      39.276  31.151  30.614  1.00  0.00     0.010 A 
ATOM     37  C   UNL A   1      39.364  29.962  31.360  1.00  0.00    -0.014 A 
BRANCH  37  38
ATOM     38  C   UNL A   1      40.676  29.290  31.513  1.00  0.00     0.031 A 
ATOM     39  C   UNL A   1      41.585  29.708  32.632  1.00  0.00     0.074 A 
ATOM     40  C   UNL A   1      41.070  28.359  30.627  1.00  0.00     0.049 A 
ATOM     41  N   UNL A   1      42.807  29.322  32.891  1.00  0.00    -0.248 NA
ATOM     42  C   UNL A   1      41.047  30.692  33.585  1.00  0.00     0.031 C 
ATOM     43  C   UNL A   1      40.272  27.868  29.506  1.00  0.00     0.029 A 
ATOM     44  N   UNL A   1      42.264  27.690  30.511  1.00  0.00    -0.354 N 
ATOM     45  C   UNL A   1      43.195  30.031  34.020  1.00  0.00     0.074 A 
ATOM     46  C   UNL A   1      42.080  30.873  34.398  1.00  0.00     0.031 C 
ATOM     47  C   UNL A   1      41.014  27.008  28.787  1.00  0.00     0.029 A 
ATOM     48  C   UNL A   1      42.346  26.912  29.382  1.00  0.00     0.049 A 
ATOM     49  H   UNL A   1      42.989  27.761  31.173  1.00  0.00     0.167 HD
ATOM     50  C   UNL A   1      44.371  29.979  34.687  1.00  0.00     0.034 A 
ATOM     51  C   UNL A   1      43.389  26.231  28.866  1.00  0.00     0.034 A 
ATOM     52  C   UNL A   1      45.476  29.140  34.314  1.00  0.00     0.049 A 
ATOM     53  C   UNL A   1      44.710  26.239  29.594  1.00  0.00     0.074 A 
ATOM     54  C   UNL A   1      46.689  28.976  34.961  1.00  0.00     0.029 A 
ATOM     55  N   UNL A   1      45.517  28.345  33.180  1.00  0.00    -0.354 N 
ATOM     56  N   UNL A   1      45.018  26.804  30.736  1.00  0.00    -0.248 NA
ATOM     57  C   UNL A   1      45.820  25.502  28.972  1.00  0.00     0.031 C 
ATOM     58  C   UNL A   1      47.472  28.099  34.203  1.00  0.00     0.029 A 
ATOM     59  C   UNL A   1      46.741  27.706  33.093  1.00  0.00     0.049 A 
ATOM     60  H   UNL A   1      44.782  28.248  32.531  1.00  0.00     0.167 HD
ATOM     61  C   UNL A   1      46.347  26.471  30.981  1.00  0.00     0.074 A 
ATOM     62  C   UNL A   1      46.779  25.637  29.879  1.00  0.00     0.031 C 
ATOM     63  C   UNL A   1      47.144  26.839  32.015  1.00  0.00     0.034 A 
BRANCH  50  64
ATOM     64  C   UNL A   1      44.513  30.838  35.914  1.00  0.00     0.023 A 
ATOM     65  C   UNL A   1      44.169  30.309  37.174  1.00  0.00     0.012 A 
ATOM     66  C   UNL A   1      45.033  32.144  35.829  1.00  0.00     0.148 A 
ATOM     67  C   UNL A   1      44.317  31.075  38.329  1.00  0.00     0.002 A 
ATOM     68  C   UNL A   1      45.211  32.888  36.989  1.00  0.00     0.091 A 
ATOM     69  F   UNL A   1      45.328  32.637  34.618  1.00  0.00    -0.205 F 
ATOM     70  C   UNL A   1      44.847  32.359  38.237  1.00  0.00     0.022 A 
BRANCH  68  71
ATOM     71  S   UNL A   1      45.946  34.528  36.979  1.00  0.00     0.127 S 
ATOM     72  O   UNL A   1      44.955  35.289  36.219  1.00  0.00    -0.237 OA
ATOM     73  O   UNL A   1      46.000  34.852  38.406  1.00  0.00    -0.237 OA
ATOM     74  O   UNL A   1      47.246  34.379  36.343  1.00  0.00    -0.744 OA
ENDBRANCH  68  71
ENDBRANCH  50  64
BRANCH  51  75
ATOM     75  C   UNL A   1      43.227  25.467  27.596  1.00  0.00     0.023 A 
ATOM     76  C   UNL A   1      43.572  26.075  26.375  1.00  0.00     0.012 A 
ATOM     77  C   UNL A   1      42.748  24.142  27.595  1.00  0.00     0.148 A 
ATOM     78  C   UNL A   1      43.423  25.385  25.171  1.00  0.00     0.002 A 
ATOM     79  C   UNL A   1      42.651  23.443  26.397  1.00  0.00     0.091 A 
ATOM     80  F   UNL A   1      42.402  23.589  28.766  1.00  0.00    -0.205 F 
ATOM     81  C   UNL A   1      42.974  24.067  25.182  1.00  0.00     0.022 A 
BRANCH  79  82
ATOM     82  S   UNL A   1      42.195  21.706  26.331  1.00  0.00     0.127 S 
ATOM     83  O   UNL A   1      42.444  21.279  27.706  1.00  0.00    -0.237 OA
ATOM     84  O   UNL A   1      40.783  21.777  25.954  1.00  0.00    -0.237 OA
ATOM     85  O   UNL A   1      43.057  21.115  25.316  1.00  0.00    -0.744 OA
ENDBRANCH  79  82
ENDBRANCH  51  75
BRANCH  63  86
ATOM     86  C   UNL A   1      48.564  26.338  32.025  1.00  0.00     0.023 A 
ATOM     87  C   UNL A   1      49.567  27.089  31.383  1.00  0.00     0.012 A 
ATOM     88  C   UNL A   1      48.921  25.183  32.748  1.00  0.00     0.148 A 
ATOM     89  C   UNL A   1      50.902  26.690  31.446  1.00  0.00     0.002 A 
ATOM     90  C   UNL A   1      50.258  24.814  32.844  1.00  0.00     0.091 A 
ATOM     91  F   UNL A   1      47.948  24.472  33.339  1.00  0.00    -0.205 F 
ATOM     92  C   UNL A   1      51.248  25.563  32.186  1.00  0.00     0.022 A 
BRANCH  90  93
ATOM     93  S   UNL A   1      50.812  23.431  33.847  1.00  0.00     0.127 S 
ATOM     94  O   UNL A   1      52.264  23.598  33.810  1.00  0.00    -0.237 OA
ATOM     95  O   UNL A   1      50.197  23.722  35.143  1.00  0.00    -0.237 OA
ATOM     96  O   UNL A   1      50.307  22.232  33.193  1.00  0.00    -0.744 OA
ENDBRANCH  90  93
ENDBRANCH  63  86
ENDBRANCH  37  38
ENDBRANCH  30  32
ENDBRANCH  29  30
ENDBRANCH  28  29
ENDBRANCH  27  28
ENDBRANCH  26  27
ENDBRANCH  25  26
ENDBRANCH   1  25
TORSDOF 25
ENDMDL
