MODEL 1
REMARK VINA RESULT:      -8.9      0.000      0.000
REMARK SMILES C[NH+](C)[C@H]1CCN(C(=O)C(=O)c2ccccc2)C[C@H]1CCC(=O)OCCOCCOCCOC(=O)c1ccc(-c2c3nc(c(-c4cccc(S(=O)(=O)[O-])c4F)c4ccc([nH]4)c(-c4cccc(S(=O)(=O)[O-])c4F)c4nc(c(-c5cccc(S(=O)(=O)[O-])c5F)c5ccc2[nH]5)C=C4)C=C3)cc1
REMARK SMILES IDX 28 1 27 2 26 3 25 4 24 5 22 6 23 7 21 8 20 9 19 10 4 11 5 12
REMARK SMILES IDX 6 13 18 14 7 15 2 16 1 17 3 18 8 20 9 21 10 22 11 23 12 24
REMARK SMILES IDX 13 25 17 26 14 27 16 28 15 29 29 30 30 31 31 32 32 33 33 34
REMARK SMILES IDX 34 35 35 36 36 37 37 38 98 39 38 40 97 41 39 42 40 43 41 44
REMARK SMILES IDX 91 45 42 46 96 47 90 48 92 49 43 50 95 51 89 52 88 53 44 55
REMARK SMILES IDX 76 56 56 57 75 58 57 59 60 60 74 61 93 62 58 63 59 64 73 66
REMARK SMILES IDX 94 67 61 68 45 69 46 70 54 71 47 72 49 73 55 74 48 75 50 76
REMARK SMILES IDX 51 77 52 78 53 79 77 80 78 81 86 82 79 83 81 84 87 85 80 86
REMARK SMILES IDX 82 87 83 88 84 89 85 90 62 91 63 92 71 93 64 94 66 95 72 96
REMARK SMILES IDX 65 97 67 98 68 99 69 100 70 101
REMARK H PARENT 2 19 92 54 60 65
REMARK Flexibility Score: inf
ROOT
ATOM      1  C   UNL A   1      34.157  33.259  29.045  1.00  0.00     0.188 C 
ENDROOT
BRANCH   1   2
ATOM      2  O   UNL A   1      34.408  32.607  27.805  1.00  0.00    -0.376 OA
BRANCH   2   3
ATOM      3  C   UNL A   1      34.196  31.206  27.703  1.00  0.00     0.202 C 
BRANCH   3   4
ATOM      4  C   UNL A   1      32.847  30.715  27.158  1.00  0.00     0.261 C 
BRANCH   4   5
ATOM      5  O   UNL A   1      32.871  30.286  25.778  1.00  0.00    -0.463 OA
BRANCH   5   6
ATOM      6  C   UNL A   1      33.074  28.966  25.561  1.00  0.00     0.305 C 
ATOM      7  O   UNL A   1      34.033  28.515  24.941  1.00  0.00    -0.252 OA
BRANCH   6   8
ATOM      8  C   UNL A   1      32.031  28.031  26.162  1.00  0.00     0.123 C 
BRANCH   8   9
ATOM      9  C   UNL A   1      31.808  26.568  25.762  1.00  0.00     0.023 C 
BRANCH   9  10
ATOM     10  C   UNL A   1      30.437  26.032  25.280  1.00  0.00     0.067 C 
ATOM     11  C   UNL A   1      30.139  25.992  23.735  1.00  0.00     0.190 C 
ATOM     12  C   UNL A   1      31.109  24.996  23.062  1.00  0.00     0.087 C 
ATOM     13  C   UNL A   1      30.938  23.608  23.642  1.00  0.00     0.126 C 
ATOM     14  C   UNL A   1      30.300  24.561  25.832  1.00  0.00     0.129 C 
ATOM     15  N   UNL A   1      31.113  23.590  25.084  1.00  0.00    -0.335 N 
BRANCH  11  16
ATOM     16  N   UNL A   1      30.118  27.205  22.881  1.00  0.00    -0.337 N 
ATOM     17  C   UNL A   1      31.403  27.725  22.443  1.00  0.00     0.332 C 
ATOM     18  C   UNL A   1      29.405  28.304  23.555  1.00  0.00     0.332 C 
ATOM     19  H   UNL A   1      29.643  26.877  22.040  1.00  0.00     0.347 HD
ENDBRANCH  11  16
BRANCH  15  20
ATOM     20  C   UNL A   1      31.841  22.508  25.605  1.00  0.00     0.294 C 
ATOM     21  O   UNL A   1      31.426  21.350  25.540  1.00  0.00    -0.265 OA
BRANCH  20  22
ATOM     22  C   UNL A   1      33.158  22.729  26.355  1.00  0.00     0.250 C 
ATOM     23  O   UNL A   1      33.208  22.580  27.570  1.00  0.00    -0.283 OA
BRANCH  22  24
ATOM     24  C   UNL A   1      34.407  22.954  25.563  1.00  0.00     0.028 A 
ATOM     25  C   UNL A   1      35.562  23.364  26.244  1.00  0.00     0.012 A 
ATOM     26  C   UNL A   1      34.472  22.723  24.182  1.00  0.00     0.012 A 
ATOM     27  C   UNL A   1      36.774  23.501  25.559  1.00  0.00     0.001 A 
ATOM     28  C   UNL A   1      35.685  22.868  23.500  1.00  0.00     0.001 A 
ATOM     29  C   UNL A   1      36.836  23.247  24.190  1.00  0.00     0.000 A 
ENDBRANCH  22  24
ENDBRANCH  20  22
ENDBRANCH  15  20
ENDBRANCH   9  10
ENDBRANCH   8   9
ENDBRANCH   6   8
ENDBRANCH   5   6
ENDBRANCH   4   5
ENDBRANCH   3   4
ENDBRANCH   2   3
ENDBRANCH   1   2
BRANCH   1  30
ATOM     30  C   UNL A   1      34.854  32.745  30.316  1.00  0.00     0.188 C 
BRANCH  30  31
ATOM     31  O   UNL A   1      35.663  33.706  30.968  1.00  0.00    -0.376 OA
BRANCH  31  32
ATOM     32  C   UNL A   1      35.070  34.405  32.048  1.00  0.00     0.202 C 
BRANCH  32  33
ATOM     33  C   UNL A   1      34.597  33.511  33.203  1.00  0.00     0.261 C 
BRANCH  33  34
ATOM     34  O   UNL A   1      35.525  32.490  33.610  1.00  0.00    -0.460 OA
BRANCH  34  35
ATOM     35  C   UNL A   1      36.527  32.866  34.441  1.00  0.00     0.338 C 
ATOM     36  O   UNL A   1      36.407  33.394  35.534  1.00  0.00    -0.246 OA
BRANCH  35  37
ATOM     37  C   UNL A   1      37.789  32.298  33.910  1.00  0.00     0.060 A 
ATOM     38  C   UNL A   1      38.994  32.576  34.572  1.00  0.00     0.016 A 
ATOM     39  C   UNL A   1      37.780  31.465  32.789  1.00  0.00     0.016 A 
ATOM     40  C   UNL A   1      40.197  32.038  34.102  1.00  0.00     0.010 A 
ATOM     41  C   UNL A   1      38.986  30.948  32.307  1.00  0.00     0.010 A 
ATOM     42  C   UNL A   1      40.204  31.255  32.941  1.00  0.00    -0.014 A 
BRANCH  42  43
ATOM     43  C   UNL A   1      41.485  30.925  32.263  1.00  0.00     0.031 A 
ATOM     44  C   UNL A   1      42.032  31.909  31.263  1.00  0.00     0.074 A 
ATOM     45  C   UNL A   1      42.141  29.772  32.495  1.00  0.00     0.049 A 
ATOM     46  N   UNL A   1      43.074  31.808  30.481  1.00  0.00    -0.248 NA
ATOM     47  C   UNL A   1      41.295  33.176  31.124  1.00  0.00     0.031 C 
ATOM     48  C   UNL A   1      41.732  28.738  33.442  1.00  0.00     0.029 A 
ATOM     49  N   UNL A   1      43.280  29.267  31.914  1.00  0.00    -0.354 N 
ATOM     50  C   UNL A   1      43.097  32.978  29.730  1.00  0.00     0.074 A 
ATOM     51  C   UNL A   1      41.962  33.772  30.146  1.00  0.00     0.031 C 
ATOM     52  C   UNL A   1      42.588  27.704  33.353  1.00  0.00     0.029 A 
ATOM     53  C   UNL A   1      43.585  27.989  32.322  1.00  0.00     0.049 A 
ATOM     54  H   UNL A   1      43.826  29.772  31.269  1.00  0.00     0.167 HD
ATOM     55  C   UNL A   1      43.987  33.366  28.788  1.00  0.00     0.034 A 
ATOM     56  C   UNL A   1      44.538  27.137  31.888  1.00  0.00     0.034 A 
ATOM     57  C   UNL A   1      45.126  32.589  28.382  1.00  0.00     0.049 A 
ATOM     58  C   UNL A   1      45.498  27.578  30.810  1.00  0.00     0.074 A 
ATOM     59  C   UNL A   1      46.109  32.920  27.466  1.00  0.00     0.029 A 
ATOM     60  N   UNL A   1      45.426  31.319  28.848  1.00  0.00    -0.354 N 
ATOM     61  N   UNL A   1      45.576  28.732  30.190  1.00  0.00    -0.248 NA
ATOM     62  C   UNL A   1      46.523  26.609  30.390  1.00  0.00     0.031 C 
ATOM     63  C   UNL A   1      46.984  31.836  27.352  1.00  0.00     0.029 A 
ATOM     64  C   UNL A   1      46.571  30.846  28.229  1.00  0.00     0.049 A 
ATOM     65  H   UNL A   1      44.902  30.826  29.520  1.00  0.00     0.167 HD
ATOM     66  C   UNL A   1      46.678  28.641  29.344  1.00  0.00     0.074 A 
ATOM     67  C   UNL A   1      47.248  27.325  29.543  1.00  0.00     0.031 C 
ATOM     68  C   UNL A   1      47.167  29.559  28.474  1.00  0.00     0.034 A 
BRANCH  55  69
ATOM     69  C   UNL A   1      43.773  34.705  28.135  1.00  0.00     0.023 A 
ATOM     70  C   UNL A   1      43.037  34.792  26.936  1.00  0.00     0.012 A 
ATOM     71  C   UNL A   1      44.253  35.884  28.739  1.00  0.00     0.148 A 
ATOM     72  C   UNL A   1      42.811  36.027  26.330  1.00  0.00     0.002 A 
ATOM     73  C   UNL A   1      43.981  37.115  28.155  1.00  0.00     0.091 A 
ATOM     74  F   UNL A   1      44.970  35.778  29.867  1.00  0.00    -0.205 F 
ATOM     75  C   UNL A   1      43.272  37.187  26.945  1.00  0.00     0.022 A 
BRANCH  73  76
ATOM     76  S   UNL A   1      44.460  38.673  28.911  1.00  0.00     0.127 S 
ATOM     77  O   UNL A   1      43.905  39.641  27.966  1.00  0.00    -0.237 OA
ATOM     78  O   UNL A   1      43.770  38.613  30.199  1.00  0.00    -0.237 OA
ATOM     79  O   UNL A   1      45.914  38.650  28.996  1.00  0.00    -0.744 OA
ENDBRANCH  73  76
ENDBRANCH  55  69
BRANCH  56  80
ATOM     80  C   UNL A   1      44.655  25.773  32.482  1.00  0.00     0.023 A 
ATOM     81  C   UNL A   1      44.148  24.662  31.779  1.00  0.00     0.012 A 
ATOM     82  C   UNL A   1      45.248  25.574  33.744  1.00  0.00     0.148 A 
ATOM     83  C   UNL A   1      44.196  23.383  32.339  1.00  0.00     0.002 A 
ATOM     84  C   UNL A   1      45.344  24.290  34.270  1.00  0.00     0.091 A 
ATOM     85  F   UNL A   1      45.706  26.645  34.406  1.00  0.00    -0.205 F 
ATOM     86  C   UNL A   1      44.801  23.196  33.578  1.00  0.00     0.022 A 
BRANCH  84  87
ATOM     87  S   UNL A   1      46.207  23.937  35.805  1.00  0.00     0.127 S 
ATOM     88  O   UNL A   1      45.749  25.026  36.663  1.00  0.00    -0.237 OA
ATOM     89  O   UNL A   1      45.677  22.617  36.148  1.00  0.00    -0.237 OA
ATOM     90  O   UNL A   1      47.624  23.950  35.472  1.00  0.00    -0.744 OA
ENDBRANCH  84  87
ENDBRANCH  56  80
BRANCH  68  91
ATOM     91  C   UNL A   1      48.416  29.212  27.702  1.00  0.00     0.023 A 
ATOM     92  C   UNL A   1      49.685  29.526  28.229  1.00  0.00     0.012 A 
ATOM     93  C   UNL A   1      48.332  28.499  26.488  1.00  0.00     0.148 A 
ATOM     94  C   UNL A   1      50.847  29.169  27.544  1.00  0.00     0.002 A 
ATOM     95  C   UNL A   1      49.494  28.098  25.838  1.00  0.00     0.091 A 
ATOM     96  F   UNL A   1      47.116  28.219  25.995  1.00  0.00    -0.205 F 
ATOM     97  C   UNL A   1      50.751  28.445  26.356  1.00  0.00     0.022 A 
BRANCH  95  98
ATOM     98  S   UNL A   1      49.470  27.080  24.359  1.00  0.00     0.127 S 
ATOM     99  O   UNL A   1      48.769  27.945  23.412  1.00  0.00    -0.237 OA
ATOM    100  O   UNL A   1      50.897  26.903  24.083  1.00  0.00    -0.237 OA
ATOM    101  O   UNL A   1      48.769  25.856  24.723  1.00  0.00    -0.744 OA
ENDBRANCH  95  98
ENDBRANCH  68  91
ENDBRANCH  42  43
ENDBRANCH  35  37
ENDBRANCH  34  35
ENDBRANCH  33  34
ENDBRANCH  32  33
ENDBRANCH  31  32
ENDBRANCH  30  31
ENDBRANCH   1  30
TORSDOF 26
ENDMDL
MODEL 2
REMARK VINA RESULT:      -8.4      3.343      5.684
REMARK SMILES C[NH+](C)[C@H]1CCN(C(=O)C(=O)c2ccccc2)C[C@H]1CCC(=O)OCCOCCOCCOC(=O)c1ccc(-c2c3nc(c(-c4cccc(S(=O)(=O)[O-])c4F)c4ccc([nH]4)c(-c4cccc(S(=O)(=O)[O-])c4F)c4nc(c(-c5cccc(S(=O)(=O)[O-])c5F)c5ccc2[nH]5)C=C4)C=C3)cc1
REMARK SMILES IDX 28 1 27 2 26 3 25 4 24 5 22 6 23 7 21 8 20 9 19 10 4 11 5 12
REMARK SMILES IDX 6 13 18 14 7 15 2 16 1 17 3 18 8 20 9 21 10 22 11 23 12 24
REMARK SMILES IDX 13 25 17 26 14 27 16 28 15 29 29 30 30 31 31 32 32 33 33 34
REMARK SMILES IDX 34 35 35 36 36 37 37 38 98 39 38 40 97 41 39 42 40 43 41 44
REMARK SMILES IDX 91 45 42 46 96 47 90 48 92 49 43 50 95 51 89 52 88 53 44 55
REMARK SMILES IDX 76 56 56 57 75 58 57 59 60 60 74 61 93 62 58 63 59 64 73 66
REMARK SMILES IDX 94 67 61 68 45 69 46 70 54 71 47 72 49 73 55 74 48 75 50 76
REMARK SMILES IDX 51 77 52 78 53 79 77 80 78 81 86 82 79 83 81 84 87 85 80 86
REMARK SMILES IDX 82 87 83 88 84 89 85 90 62 91 63 92 71 93 64 94 66 95 72 96
REMARK SMILES IDX 65 97 67 98 68 99 69 100 70 101
REMARK H PARENT 2 19 92 54 60 65
REMARK Flexibility Score: inf
ROOT
ATOM      1  C   UNL A   1      35.022  32.469  28.946  1.00  0.00     0.188 C 
ENDROOT
BRANCH   1   2
ATOM      2  O   UNL A   1      34.565  32.050  27.665  1.00  0.00    -0.376 OA
BRANCH   2   3
ATOM      3  C   UNL A   1      33.369  31.291  27.570  1.00  0.00     0.202 C 
BRANCH   3   4
ATOM      4  C   UNL A   1      33.470  29.835  27.096  1.00  0.00     0.261 C 
BRANCH   4   5
ATOM      5  O   UNL A   1      32.389  29.397  26.243  1.00  0.00    -0.463 OA
BRANCH   5   6
ATOM      6  C   UNL A   1      32.715  28.537  25.249  1.00  0.00     0.305 C 
ATOM      7  O   UNL A   1      32.335  28.660  24.089  1.00  0.00    -0.252 OA
BRANCH   6   8
ATOM      8  C   UNL A   1      33.624  27.383  25.651  1.00  0.00     0.123 C 
BRANCH   8   9
ATOM      9  C   UNL A   1      33.633  25.989  25.009  1.00  0.00     0.023 C 
BRANCH   9  10
ATOM     10  C   UNL A   1      32.995  24.752  25.688  1.00  0.00     0.067 C 
ATOM     11  C   UNL A   1      31.761  24.062  24.998  1.00  0.00     0.190 C 
ATOM     12  C   UNL A   1      32.208  23.469  23.643  1.00  0.00     0.087 C 
ATOM     13  C   UNL A   1      33.307  22.448  23.843  1.00  0.00     0.126 C 
ATOM     14  C   UNL A   1      34.133  23.669  25.828  1.00  0.00     0.129 C 
ATOM     15  N   UNL A   1      34.446  22.999  24.556  1.00  0.00    -0.335 N 
BRANCH  11  16
ATOM     16  N   UNL A   1      30.475  24.759  24.751  1.00  0.00    -0.337 N 
ATOM     17  C   UNL A   1      30.398  25.599  23.567  1.00  0.00     0.332 C 
ATOM     18  C   UNL A   1      30.103  25.593  25.908  1.00  0.00     0.332 C 
ATOM     19  H   UNL A   1      29.829  23.985  24.593  1.00  0.00     0.347 HD
ENDBRANCH  11  16
BRANCH  15  20
ATOM     20  C   UNL A   1      35.713  22.625  24.080  1.00  0.00     0.294 C 
ATOM     21  O   UNL A   1      36.099  22.919  22.948  1.00  0.00    -0.265 OA
BRANCH  20  22
ATOM     22  C   UNL A   1      36.652  21.759  24.927  1.00  0.00     0.250 C 
ATOM     23  O   UNL A   1      36.568  20.537  24.883  1.00  0.00    -0.283 OA
BRANCH  22  24
ATOM     24  C   UNL A   1      37.774  22.420  25.660  1.00  0.00     0.028 A 
ATOM     25  C   UNL A   1      38.918  21.662  25.950  1.00  0.00     0.012 A 
ATOM     26  C   UNL A   1      37.741  23.774  26.021  1.00  0.00     0.012 A 
ATOM     27  C   UNL A   1      40.028  22.261  26.555  1.00  0.00     0.001 A 
ATOM     28  C   UNL A   1      38.851  24.367  26.633  1.00  0.00     0.001 A 
ATOM     29  C   UNL A   1      39.995  23.614  26.891  1.00  0.00     0.000 A 
ENDBRANCH  22  24
ENDBRANCH  20  22
ENDBRANCH  15  20
ENDBRANCH   9  10
ENDBRANCH   8   9
ENDBRANCH   6   8
ENDBRANCH   5   6
ENDBRANCH   4   5
ENDBRANCH   3   4
ENDBRANCH   2   3
ENDBRANCH   1   2
BRANCH   1  30
ATOM     30  C   UNL A   1      36.518  32.344  29.286  1.00  0.00     0.188 C 
BRANCH  30  31
ATOM     31  O   UNL A   1      37.075  33.493  29.894  1.00  0.00    -0.376 OA
BRANCH  31  32
ATOM     32  C   UNL A   1      37.636  33.320  31.184  1.00  0.00     0.202 C 
BRANCH  32  33
ATOM     33  C   UNL A   1      37.238  32.011  31.881  1.00  0.00     0.261 C 
BRANCH  33  34
ATOM     34  O   UNL A   1      38.228  31.463  32.771  1.00  0.00    -0.460 OA
BRANCH  34  35
ATOM     35  C   UNL A   1      38.838  30.318  32.382  1.00  0.00     0.338 C 
ATOM     36  O   UNL A   1      38.337  29.207  32.333  1.00  0.00    -0.246 OA
BRANCH  35  37
ATOM     37  C   UNL A   1      40.145  30.684  31.787  1.00  0.00     0.060 A 
ATOM     38  C   UNL A   1      41.178  31.125  32.628  1.00  0.00     0.016 A 
ATOM     39  C   UNL A   1      40.364  30.556  30.414  1.00  0.00     0.016 A 
ATOM     40  C   UNL A   1      42.426  31.459  32.094  1.00  0.00     0.010 A 
ATOM     41  C   UNL A   1      41.605  30.914  29.879  1.00  0.00     0.010 A 
ATOM     42  C   UNL A   1      42.633  31.396  30.710  1.00  0.00    -0.014 A 
BRANCH  42  43
ATOM     43  C   UNL A   1      43.835  32.021  30.099  1.00  0.00     0.031 A 
ATOM     44  C   UNL A   1      43.733  33.450  29.634  1.00  0.00     0.074 A 
ATOM     45  C   UNL A   1      44.985  31.342  29.924  1.00  0.00     0.049 A 
ATOM     46  N   UNL A   1      44.606  34.180  28.993  1.00  0.00    -0.248 NA
ATOM     47  C   UNL A   1      42.467  34.143  29.928  1.00  0.00     0.031 C 
ATOM     48  C   UNL A   1      45.226  29.961  30.336  1.00  0.00     0.029 A 
ATOM     49  N   UNL A   1      46.158  31.723  29.318  1.00  0.00    -0.354 N 
ATOM     50  C   UNL A   1      43.984  35.404  28.772  1.00  0.00     0.074 A 
ATOM     51  C   UNL A   1      42.658  35.316  29.344  1.00  0.00     0.031 C 
ATOM     52  C   UNL A   1      46.459  29.598  29.938  1.00  0.00     0.029 A 
ATOM     53  C   UNL A   1      47.081  30.708  29.217  1.00  0.00     0.049 A 
ATOM     54  H   UNL A   1      46.322  32.636  28.987  1.00  0.00     0.167 HD
ATOM     55  C   UNL A   1      44.473  36.509  28.161  1.00  0.00     0.034 A 
ATOM     56  C   UNL A   1      48.274  30.670  28.587  1.00  0.00     0.034 A 
ATOM     57  C   UNL A   1      45.794  36.608  27.606  1.00  0.00     0.049 A 
ATOM     58  C   UNL A   1      48.783  31.903  27.880  1.00  0.00     0.074 A 
ATOM     59  C   UNL A   1      46.395  37.701  27.007  1.00  0.00     0.029 A 
ATOM     60  N   UNL A   1      46.715  35.573  27.561  1.00  0.00    -0.354 N 
ATOM     61  N   UNL A   1      48.231  33.089  27.779  1.00  0.00    -0.248 NA
ATOM     62  C   UNL A   1      50.097  31.802  27.225  1.00  0.00     0.031 C 
ATOM     63  C   UNL A   1      47.665  37.318  26.568  1.00  0.00     0.029 A 
ATOM     64  C   UNL A   1      47.874  35.997  26.933  1.00  0.00     0.049 A 
ATOM     65  H   UNL A   1      46.568  34.669  27.923  1.00  0.00     0.167 HD
ATOM     66  C   UNL A   1      49.145  33.881  27.089  1.00  0.00     0.074 A 
ATOM     67  C   UNL A   1      50.294  33.047  26.812  1.00  0.00     0.031 C 
ATOM     68  C   UNL A   1      49.037  35.179  26.711  1.00  0.00     0.034 A 
BRANCH  55  69
ATOM     69  C   UNL A   1      43.574  37.712  28.072  1.00  0.00     0.023 A 
ATOM     70  C   UNL A   1      42.716  37.868  26.964  1.00  0.00     0.012 A 
ATOM     71  C   UNL A   1      43.538  38.661  29.113  1.00  0.00     0.148 A 
ATOM     72  C   UNL A   1      41.861  38.965  26.877  1.00  0.00     0.002 A 
ATOM     73  C   UNL A   1      42.648  39.726  29.042  1.00  0.00     0.091 A 
ATOM     74  F   UNL A   1      44.377  38.508  30.147  1.00  0.00    -0.205 F 
ATOM     75  C   UNL A   1      41.819  39.886  27.920  1.00  0.00     0.022 A 
BRANCH  73  76
ATOM     76  S   UNL A   1      42.458  40.921  30.370  1.00  0.00     0.127 S 
ATOM     77  O   UNL A   1      41.096  41.398  30.143  1.00  0.00    -0.237 OA
ATOM     78  O   UNL A   1      42.623  40.085  31.558  1.00  0.00    -0.237 OA
ATOM     79  O   UNL A   1      43.507  41.913  30.172  1.00  0.00    -0.744 OA
ENDBRANCH  73  76
ENDBRANCH  55  69
BRANCH  56  80
ATOM     80  C   UNL A   1      49.094  29.423  28.602  1.00  0.00     0.023 A 
ATOM     81  C   UNL A   1      50.084  29.252  29.590  1.00  0.00     0.012 A 
ATOM     82  C   UNL A   1      48.911  28.417  27.634  1.00  0.00     0.148 A 
ATOM     83  C   UNL A   1      50.901  28.120  29.591  1.00  0.00     0.002 A 
ATOM     84  C   UNL A   1      49.689  27.265  27.675  1.00  0.00     0.091 A 
ATOM     85  F   UNL A   1      47.978  28.606  26.690  1.00  0.00    -0.205 F 
ATOM     86  C   UNL A   1      50.698  27.123  28.641  1.00  0.00     0.022 A 
BRANCH  84  87
ATOM     87  S   UNL A   1      49.424  25.880  26.564  1.00  0.00     0.127 S 
ATOM     88  O   UNL A   1      49.770  26.462  25.271  1.00  0.00    -0.237 OA
ATOM     89  O   UNL A   1      50.382  24.899  27.075  1.00  0.00    -0.237 OA
ATOM     90  O   UNL A   1      48.027  25.502  26.732  1.00  0.00    -0.744 OA
ENDBRANCH  84  87
ENDBRANCH  56  80
BRANCH  68  91
ATOM     91  C   UNL A   1      50.210  35.813  26.004  1.00  0.00     0.023 A 
ATOM     92  C   UNL A   1      50.329  35.715  24.603  1.00  0.00     0.012 A 
ATOM     93  C   UNL A   1      51.153  36.575  26.725  1.00  0.00     0.148 A 
ATOM     94  C   UNL A   1      51.386  36.337  23.936  1.00  0.00     0.002 A 
ATOM     95  C   UNL A   1      52.172  37.235  26.048  1.00  0.00     0.091 A 
ATOM     96  F   UNL A   1      51.031  36.645  28.059  1.00  0.00    -0.205 F 
ATOM     97  C   UNL A   1      52.299  37.105  24.657  1.00  0.00     0.022 A 
BRANCH  95  98
ATOM     98  S   UNL A   1      53.333  38.326  26.878  1.00  0.00     0.127 S 
ATOM     99  O   UNL A   1      54.208  38.723  25.777  1.00  0.00    -0.237 OA
ATOM    100  O   UNL A   1      52.459  39.388  27.376  1.00  0.00    -0.237 OA
ATOM    101  O   UNL A   1      53.965  37.525  27.919  1.00  0.00    -0.744 OA
ENDBRANCH  95  98
ENDBRANCH  68  91
ENDBRANCH  42  43
ENDBRANCH  35  37
ENDBRANCH  34  35
ENDBRANCH  33  34
ENDBRANCH  32  33
ENDBRANCH  31  32
ENDBRANCH  30  31
ENDBRANCH   1  30
TORSDOF 26
ENDMDL
MODEL 3
REMARK VINA RESULT:      -8.4      4.559     10.803
REMARK SMILES C[NH+](C)[C@H]1CCN(C(=O)C(=O)c2ccccc2)C[C@H]1CCC(=O)OCCOCCOCCOC(=O)c1ccc(-c2c3nc(c(-c4cccc(S(=O)(=O)[O-])c4F)c4ccc([nH]4)c(-c4cccc(S(=O)(=O)[O-])c4F)c4nc(c(-c5cccc(S(=O)(=O)[O-])c5F)c5ccc2[nH]5)C=C4)C=C3)cc1
REMARK SMILES IDX 28 1 27 2 26 3 25 4 24 5 22 6 23 7 21 8 20 9 19 10 4 11 5 12
REMARK SMILES IDX 6 13 18 14 7 15 2 16 1 17 3 18 8 20 9 21 10 22 11 23 12 24
REMARK SMILES IDX 13 25 17 26 14 27 16 28 15 29 29 30 30 31 31 32 32 33 33 34
REMARK SMILES IDX 34 35 35 36 36 37 37 38 98 39 38 40 97 41 39 42 40 43 41 44
REMARK SMILES IDX 91 45 42 46 96 47 90 48 92 49 43 50 95 51 89 52 88 53 44 55
REMARK SMILES IDX 76 56 56 57 75 58 57 59 60 60 74 61 93 62 58 63 59 64 73 66
REMARK SMILES IDX 94 67 61 68 45 69 46 70 54 71 47 72 49 73 55 74 48 75 50 76
REMARK SMILES IDX 51 77 52 78 53 79 77 80 78 81 86 82 79 83 81 84 87 85 80 86
REMARK SMILES IDX 82 87 83 88 84 89 85 90 62 91 63 92 71 93 64 94 66 95 72 96
REMARK SMILES IDX 65 97 67 98 68 99 69 100 70 101
REMARK H PARENT 2 19 92 54 60 65
REMARK Flexibility Score: inf
ROOT
ATOM      1  C   UNL A   1      43.694  21.198  25.786  1.00  0.00     0.188 C 
ENDROOT
BRANCH   1   2
ATOM      2  O   UNL A   1      42.312  21.021  25.491  1.00  0.00    -0.376 OA
BRANCH   2   3
ATOM      3  C   UNL A   1      41.346  21.340  26.482  1.00  0.00     0.202 C 
BRANCH   3   4
ATOM      4  C   UNL A   1      39.872  21.411  26.060  1.00  0.00     0.261 C 
BRANCH   4   5
ATOM      5  O   UNL A   1      39.077  22.371  26.792  1.00  0.00    -0.463 OA
BRANCH   5   6
ATOM      6  C   UNL A   1      38.068  22.963  26.111  1.00  0.00     0.305 C 
ATOM      7  O   UNL A   1      38.139  24.088  25.627  1.00  0.00    -0.252 OA
BRANCH   6   8
ATOM      8  C   UNL A   1      36.804  22.127  25.950  1.00  0.00     0.123 C 
BRANCH   8   9
ATOM      9  C   UNL A   1      35.377  22.680  25.843  1.00  0.00     0.023 C 
BRANCH   9  10
ATOM     10  C   UNL A   1      34.380  22.214  24.753  1.00  0.00     0.067 C 
ATOM     11  C   UNL A   1      33.406  21.021  25.076  1.00  0.00     0.190 C 
ATOM     12  C   UNL A   1      32.443  21.450  26.206  1.00  0.00     0.087 C 
ATOM     13  C   UNL A   1      31.635  22.660  25.788  1.00  0.00     0.126 C 
ATOM     14  C   UNL A   1      33.497  23.465  24.375  1.00  0.00     0.129 C 
ATOM     15  N   UNL A   1      32.477  23.774  25.390  1.00  0.00    -0.335 N 
BRANCH  11  16
ATOM     16  N   UNL A   1      33.878  19.658  25.419  1.00  0.00    -0.337 N 
ATOM     17  C   UNL A   1      34.974  19.122  24.627  1.00  0.00     0.332 C 
ATOM     18  C   UNL A   1      32.770  18.689  25.349  1.00  0.00     0.332 C 
ATOM     19  H   UNL A   1      34.244  19.779  26.364  1.00  0.00     0.347 HD
ENDBRANCH  11  16
BRANCH  15  20
ATOM     20  C   UNL A   1      32.073  25.044  25.831  1.00  0.00     0.294 C 
ATOM     21  O   UNL A   1      31.435  25.202  26.873  1.00  0.00    -0.265 OA
BRANCH  20  22
ATOM     22  C   UNL A   1      32.339  26.295  24.988  1.00  0.00     0.250 C 
ATOM     23  O   UNL A   1      33.487  26.604  24.690  1.00  0.00    -0.283 OA
BRANCH  22  24
ATOM     24  C   UNL A   1      31.176  27.023  24.395  1.00  0.00     0.028 A 
ATOM     25  C   UNL A   1      31.341  28.371  24.045  1.00  0.00     0.012 A 
ATOM     26  C   UNL A   1      29.950  26.394  24.134  1.00  0.00     0.012 A 
ATOM     27  C   UNL A   1      30.310  29.067  23.406  1.00  0.00     0.001 A 
ATOM     28  C   UNL A   1      28.919  27.097  23.502  1.00  0.00     0.001 A 
ATOM     29  C   UNL A   1      29.102  28.428  23.130  1.00  0.00     0.000 A 
ENDBRANCH  22  24
ENDBRANCH  20  22
ENDBRANCH  15  20
ENDBRANCH   9  10
ENDBRANCH   8   9
ENDBRANCH   6   8
ENDBRANCH   5   6
ENDBRANCH   4   5
ENDBRANCH   3   4
ENDBRANCH   2   3
ENDBRANCH   1   2
BRANCH   1  30
ATOM     30  C   UNL A   1      44.658  21.583  24.651  1.00  0.00     0.188 C 
BRANCH  30  31
ATOM     31  O   UNL A   1      45.128  22.917  24.713  1.00  0.00    -0.376 OA
BRANCH  31  32
ATOM     32  C   UNL A   1      44.152  23.924  24.914  1.00  0.00     0.202 C 
BRANCH  32  33
ATOM     33  C   UNL A   1      44.725  25.326  25.165  1.00  0.00     0.261 C 
BRANCH  33  34
ATOM     34  O   UNL A   1      44.048  26.094  26.176  1.00  0.00    -0.460 OA
BRANCH  34  35
ATOM     35  C   UNL A   1      43.172  27.035  25.750  1.00  0.00     0.338 C 
ATOM     36  O   UNL A   1      42.303  26.891  24.906  1.00  0.00    -0.246 OA
BRANCH  35  37
ATOM     37  C   UNL A   1      43.282  28.199  26.662  1.00  0.00     0.060 A 
ATOM     38  C   UNL A   1      42.484  29.328  26.426  1.00  0.00     0.016 A 
ATOM     39  C   UNL A   1      44.137  28.162  27.765  1.00  0.00     0.016 A 
ATOM     40  C   UNL A   1      42.555  30.432  27.281  1.00  0.00     0.010 A 
ATOM     41  C   UNL A   1      44.225  29.276  28.605  1.00  0.00     0.010 A 
ATOM     42  C   UNL A   1      43.458  30.428  28.352  1.00  0.00    -0.014 A 
BRANCH  42  43
ATOM     43  C   UNL A   1      43.763  31.685  29.085  1.00  0.00     0.031 A 
ATOM     44  C   UNL A   1      42.952  32.004  30.313  1.00  0.00     0.074 A 
ATOM     45  C   UNL A   1      44.709  32.546  28.666  1.00  0.00     0.049 A 
ATOM     46  N   UNL A   1      42.965  33.073  31.064  1.00  0.00    -0.248 NA
ATOM     47  C   UNL A   1      41.990  30.976  30.745  1.00  0.00     0.031 C 
ATOM     48  C   UNL A   1      45.573  32.358  27.503  1.00  0.00     0.029 A 
ATOM     49  N   UNL A   1      45.072  33.776  29.161  1.00  0.00    -0.354 N 
ATOM     50  C   UNL A   1      41.990  32.866  32.033  1.00  0.00     0.074 A 
ATOM     51  C   UNL A   1      41.401  31.571  31.772  1.00  0.00     0.031 C 
ATOM     52  C   UNL A   1      46.343  33.452  27.353  1.00  0.00     0.029 A 
ATOM     53  C   UNL A   1      46.005  34.428  28.388  1.00  0.00     0.049 A 
ATOM     54  H   UNL A   1      44.701  34.154  29.992  1.00  0.00     0.167 HD
ATOM     55  C   UNL A   1      41.623  33.671  33.057  1.00  0.00     0.034 A 
ATOM     56  C   UNL A   1      46.502  35.679  28.487  1.00  0.00     0.034 A 
ATOM     57  C   UNL A   1      42.216  34.952  33.331  1.00  0.00     0.049 A 
ATOM     58  C   UNL A   1      46.051  36.573  29.616  1.00  0.00     0.074 A 
ATOM     59  C   UNL A   1      41.941  35.820  34.373  1.00  0.00     0.029 A 
ATOM     60  N   UNL A   1      43.187  35.559  32.550  1.00  0.00    -0.354 N 
ATOM     61  N   UNL A   1      45.212  36.319  30.591  1.00  0.00    -0.248 NA
ATOM     62  C   UNL A   1      46.641  37.921  29.676  1.00  0.00     0.031 C 
ATOM     63  C   UNL A   1      42.720  36.968  34.203  1.00  0.00     0.029 A 
ATOM     64  C   UNL A   1      43.513  36.796  33.079  1.00  0.00     0.049 A 
ATOM     65  H   UNL A   1      43.587  35.168  31.740  1.00  0.00     0.167 HD
ATOM     66  C   UNL A   1      45.205  37.453  31.399  1.00  0.00     0.074 A 
ATOM     67  C   UNL A   1      46.138  38.390  30.810  1.00  0.00     0.031 C 
ATOM     68  C   UNL A   1      44.485  37.700  32.521  1.00  0.00     0.034 A 
BRANCH  55  69
ATOM     69  C   UNL A   1      40.533  33.184  33.973  1.00  0.00     0.023 A 
ATOM     70  C   UNL A   1      40.863  32.431  35.118  1.00  0.00     0.012 A 
ATOM     71  C   UNL A   1      39.186  33.519  33.729  1.00  0.00     0.148 A 
ATOM     72  C   UNL A   1      39.867  31.992  35.989  1.00  0.00     0.002 A 
ATOM     73  C   UNL A   1      38.205  33.119  34.627  1.00  0.00     0.091 A 
ATOM     74  F   UNL A   1      38.891  34.215  32.622  1.00  0.00    -0.205 F 
ATOM     75  C   UNL A   1      38.542  32.345  35.750  1.00  0.00     0.022 A 
BRANCH  73  76
ATOM     76  S   UNL A   1      36.481  33.591  34.453  1.00  0.00     0.127 S 
ATOM     77  O   UNL A   1      35.990  32.574  33.525  1.00  0.00    -0.237 OA
ATOM     78  O   UNL A   1      35.988  33.455  35.823  1.00  0.00    -0.237 OA
ATOM     79  O   UNL A   1      36.485  34.953  33.939  1.00  0.00    -0.744 OA
ENDBRANCH  73  76
ENDBRANCH  55  69
BRANCH  56  80
ATOM     80  C   UNL A   1      47.504  36.170  27.496  1.00  0.00     0.023 A 
ATOM     81  C   UNL A   1      47.071  36.904  26.373  1.00  0.00     0.012 A 
ATOM     82  C   UNL A   1      48.878  35.900  27.650  1.00  0.00     0.148 A 
ATOM     83  C   UNL A   1      47.983  37.327  25.404  1.00  0.00     0.002 A 
ATOM     84  C   UNL A   1      49.787  36.374  26.711  1.00  0.00     0.091 A 
ATOM     85  F   UNL A   1      49.268  35.184  28.713  1.00  0.00    -0.205 F 
ATOM     86  C   UNL A   1      49.340  37.071  25.577  1.00  0.00     0.022 A 
BRANCH  84  87
ATOM     87  S   UNL A   1      51.563  36.191  26.907  1.00  0.00     0.127 S 
ATOM     88  O   UNL A   1      52.067  36.873  25.719  1.00  0.00    -0.237 OA
ATOM     89  O   UNL A   1      51.797  36.894  28.169  1.00  0.00    -0.237 OA
ATOM     90  O   UNL A   1      51.807  34.757  26.962  1.00  0.00    -0.744 OA
ENDBRANCH  84  87
ENDBRANCH  56  80
BRANCH  68  91
ATOM     91  C   UNL A   1      44.707  39.011  33.234  1.00  0.00     0.023 A 
ATOM     92  C   UNL A   1      45.805  39.168  34.103  1.00  0.00     0.012 A 
ATOM     93  C   UNL A   1      43.869  40.116  32.977  1.00  0.00     0.148 A 
ATOM     94  C   UNL A   1      46.045  40.391  34.731  1.00  0.00     0.002 A 
ATOM     95  C   UNL A   1      44.144  41.345  33.564  1.00  0.00     0.091 A 
ATOM     96  F   UNL A   1      42.820  39.944  32.158  1.00  0.00    -0.205 F 
ATOM     97  C   UNL A   1      45.222  41.481  34.452  1.00  0.00     0.022 A 
BRANCH  95  98
ATOM     98  S   UNL A   1      43.200  42.827  33.189  1.00  0.00     0.127 S 
ATOM     99  O   UNL A   1      43.210  42.825  31.728  1.00  0.00    -0.237 OA
ATOM    100  O   UNL A   1      41.901  42.528  33.791  1.00  0.00    -0.237 OA
ATOM    101  O   UNL A   1      43.917  43.931  33.816  1.00  0.00    -0.744 OA
ENDBRANCH  95  98
ENDBRANCH  68  91
ENDBRANCH  42  43
ENDBRANCH  35  37
ENDBRANCH  34  35
ENDBRANCH  33  34
ENDBRANCH  32  33
ENDBRANCH  31  32
ENDBRANCH  30  31
ENDBRANCH   1  30
TORSDOF 26
ENDMDL
