MODEL 1
REMARK VINA RESULT:     -10.6      0.000      0.000
REMARK SMILES O=C(/C=C/c1ccc(S(=O)(=O)Nc2ccc3c(c2)OCCO3)cc1)OCCOCCOCCOC(=O)c1ccc(-c2c3nc(c(-c4cccc(S(=O)(=O)[O-])c4F)c4ccc([nH]4)c(-c4cccc(S(=O)(=O)[O-])c4F)c4nc(c(-c5cccc(S(=O)(=O)[O-])c5F)c5ccc2[nH]5)C=C4)C=C3)cc1
REMARK SMILES IDX 29 1 28 2 27 3 26 4 25 5 2 6 1 7 3 8 4 9 5 10 6 11 24 12
REMARK SMILES IDX 7 13 23 14 8 15 9 16 10 17 11 18 12 19 13 21 14 22 18 23
REMARK SMILES IDX 15 24 17 25 16 26 19 27 22 28 20 29 21 30 30 31 31 32 32 33
REMARK SMILES IDX 33 34 34 35 35 36 36 37 37 38 38 39 99 40 39 41 98 42 40 43
REMARK SMILES IDX 41 44 42 45 92 46 43 47 97 48 91 49 93 50 44 51 96 52 90 53
REMARK SMILES IDX 89 54 45 56 77 57 57 58 76 59 58 60 61 61 75 62 94 63 59 64
REMARK SMILES IDX 60 65 74 67 95 68 62 69 46 70 47 71 55 72 48 73 50 74 56 75
REMARK SMILES IDX 49 76 51 77 52 78 53 79 54 80 78 81 79 82 87 83 80 84 82 85
REMARK SMILES IDX 88 86 81 87 83 88 84 89 85 90 86 91 63 92 64 93 72 94 65 95
REMARK SMILES IDX 67 96 73 97 66 98 68 99 69 100 70 101 71 102
REMARK H PARENT 12 20 93 55 61 66
REMARK Flexibility Score: inf
ROOT
ATOM      1  C   UNL A   1      35.372  18.190  24.567  1.00  0.00     0.188 C 
ENDROOT
BRANCH   1   2
ATOM      2  O   UNL A   1      35.068  16.816  24.811  1.00  0.00    -0.376 OA
BRANCH   2   3
ATOM      3  C   UNL A   1      33.728  16.487  25.145  1.00  0.00     0.202 C 
BRANCH   3   4
ATOM      4  C   UNL A   1      32.896  17.599  25.792  1.00  0.00     0.261 C 
BRANCH   4   5
ATOM      5  O   UNL A   1      31.811  18.045  24.970  1.00  0.00    -0.460 OA
BRANCH   5   6
ATOM      6  C   UNL A   1      32.112  18.960  24.010  1.00  0.00     0.330 C 
ATOM      7  O   UNL A   1      32.374  18.650  22.857  1.00  0.00    -0.247 OA
BRANCH   6   8
ATOM      8  C   UNL A   1      32.433  20.299  24.551  1.00  0.00     0.094 C 
ATOM      9  C   UNL A   1      33.197  21.165  23.870  1.00  0.00     0.015 C 
BRANCH   9  10
ATOM     10  C   UNL A   1      33.554  22.545  24.226  1.00  0.00    -0.025 A 
ATOM     11  C   UNL A   1      33.347  22.927  25.563  1.00  0.00     0.009 A 
ATOM     12  C   UNL A   1      34.018  23.498  23.316  1.00  0.00     0.009 A 
ATOM     13  C   UNL A   1      33.442  24.261  25.949  1.00  0.00     0.023 A 
ATOM     14  C   UNL A   1      34.158  24.835  23.707  1.00  0.00     0.023 A 
ATOM     15  C   UNL A   1      33.775  25.218  24.994  1.00  0.00     0.087 A 
BRANCH  15  16
ATOM     16  S   UNL A   1      33.323  26.928  25.314  1.00  0.00     0.261 S 
ATOM     17  O   UNL A   1      33.472  27.130  26.748  1.00  0.00    -0.201 OA
ATOM     18  O   UNL A   1      34.069  27.723  24.371  1.00  0.00    -0.201 OA
BRANCH  16  19
ATOM     19  N   UNL A   1      31.688  26.958  24.940  1.00  0.00    -0.279 N 
ATOM     20  H   UNL A   1      31.090  26.283  25.336  1.00  0.00     0.180 HD
BRANCH  19  21
ATOM     21  C   UNL A   1      31.146  27.941  24.062  1.00  0.00     0.053 A 
ATOM     22  C   UNL A   1      30.878  27.510  22.760  1.00  0.00     0.031 A 
ATOM     23  C   UNL A   1      30.775  29.220  24.454  1.00  0.00     0.077 A 
ATOM     24  C   UNL A   1      30.140  28.283  21.875  1.00  0.00     0.052 A 
ATOM     25  C   UNL A   1      29.970  29.975  23.599  1.00  0.00     0.163 A 
ATOM     26  C   UNL A   1      29.632  29.489  22.327  1.00  0.00     0.161 A 
ATOM     27  O   UNL A   1      29.455  31.139  24.115  1.00  0.00    -0.486 OA
ATOM     28  O   UNL A   1      28.733  30.120  21.504  1.00  0.00    -0.486 OA
ATOM     29  C   UNL A   1      28.570  31.809  23.211  1.00  0.00     0.271 C 
ATOM     30  C   UNL A   1      27.810  30.841  22.320  1.00  0.00     0.271 C 
ENDBRANCH  19  21
ENDBRANCH  16  19
ENDBRANCH  15  16
ENDBRANCH   9  10
ENDBRANCH   6   8
ENDBRANCH   5   6
ENDBRANCH   4   5
ENDBRANCH   3   4
ENDBRANCH   2   3
ENDBRANCH   1   2
BRANCH   1  31
ATOM     31  C   UNL A   1      36.790  18.653  24.908  1.00  0.00     0.188 C 
BRANCH  31  32
ATOM     32  O   UNL A   1      36.919  20.069  24.980  1.00  0.00    -0.376 OA
BRANCH  32  33
ATOM     33  C   UNL A   1      38.252  20.559  25.062  1.00  0.00     0.202 C 
BRANCH  33  34
ATOM     34  C   UNL A   1      39.250  19.564  25.669  1.00  0.00     0.261 C 
BRANCH  34  35
ATOM     35  O   UNL A   1      40.615  20.007  25.786  1.00  0.00    -0.460 OA
BRANCH  35  36
ATOM     36  C   UNL A   1      41.130  20.204  27.018  1.00  0.00     0.338 C 
ATOM     37  O   UNL A   1      41.535  19.357  27.794  1.00  0.00    -0.246 OA
BRANCH  36  38
ATOM     38  C   UNL A   1      41.233  21.659  27.261  1.00  0.00     0.060 A 
ATOM     39  C   UNL A   1      40.788  22.550  26.277  1.00  0.00     0.016 A 
ATOM     40  C   UNL A   1      41.822  22.139  28.433  1.00  0.00     0.016 A 
ATOM     41  C   UNL A   1      40.963  23.929  26.451  1.00  0.00     0.010 A 
ATOM     42  C   UNL A   1      42.003  23.516  28.599  1.00  0.00     0.010 A 
ATOM     43  C   UNL A   1      41.600  24.420  27.600  1.00  0.00    -0.014 A 
BRANCH  43  44
ATOM     44  C   UNL A   1      41.971  25.854  27.736  1.00  0.00     0.031 A 
ATOM     45  C   UNL A   1      43.386  26.276  27.451  1.00  0.00     0.074 A 
ATOM     46  C   UNL A   1      41.089  26.769  28.180  1.00  0.00     0.049 A 
ATOM     47  N   UNL A   1      43.939  27.450  27.607  1.00  0.00    -0.248 NA
ATOM     48  C   UNL A   1      44.289  25.251  26.898  1.00  0.00     0.031 C 
ATOM     49  C   UNL A   1      39.672  26.529  28.431  1.00  0.00     0.029 A 
ATOM     50  N   UNL A   1      41.270  28.084  28.545  1.00  0.00    -0.354 N 
ATOM     51  C   UNL A   1      45.250  27.312  27.171  1.00  0.00     0.074 A 
ATOM     52  C   UNL A   1      45.419  25.934  26.763  1.00  0.00     0.031 C 
ATOM     53  C   UNL A   1      39.136  27.625  28.997  1.00  0.00     0.029 A 
ATOM     54  C   UNL A   1      40.175  28.633  29.175  1.00  0.00     0.049 A 
ATOM     55  H   UNL A   1      42.101  28.583  28.374  1.00  0.00     0.167 HD
ATOM     56  C   UNL A   1      46.214  28.258  27.085  1.00  0.00     0.034 A 
ATOM     57  C   UNL A   1      40.048  29.794  29.851  1.00  0.00     0.034 A 
ATOM     58  C   UNL A   1      46.048  29.633  27.467  1.00  0.00     0.049 A 
ATOM     59  C   UNL A   1      41.187  30.772  29.872  1.00  0.00     0.074 A 
ATOM     60  C   UNL A   1      46.925  30.688  27.289  1.00  0.00     0.029 A 
ATOM     61  N   UNL A   1      44.950  30.136  28.140  1.00  0.00    -0.354 N 
ATOM     62  N   UNL A   1      42.365  30.671  29.314  1.00  0.00    -0.248 NA
ATOM     63  C   UNL A   1      40.944  32.051  30.557  1.00  0.00     0.031 C 
ATOM     64  C   UNL A   1      46.371  31.827  27.885  1.00  0.00     0.029 A 
ATOM     65  C   UNL A   1      45.143  31.478  28.421  1.00  0.00     0.049 A 
ATOM     66  H   UNL A   1      44.149  29.618  28.385  1.00  0.00     0.167 HD
ATOM     67  C   UNL A   1      42.993  31.887  29.553  1.00  0.00     0.074 A 
ATOM     68  C   UNL A   1      42.067  32.705  30.305  1.00  0.00     0.031 C 
ATOM     69  C   UNL A   1      44.225  32.291  29.166  1.00  0.00     0.034 A 
BRANCH  56  70
ATOM     70  C   UNL A   1      47.536  27.861  26.498  1.00  0.00     0.023 A 
ATOM     71  C   UNL A   1      48.565  27.428  27.357  1.00  0.00     0.012 A 
ATOM     72  C   UNL A   1      47.719  27.807  25.104  1.00  0.00     0.148 A 
ATOM     73  C   UNL A   1      49.765  26.949  26.836  1.00  0.00     0.002 A 
ATOM     74  C   UNL A   1      48.907  27.302  24.591  1.00  0.00     0.091 A 
ATOM     75  F   UNL A   1      46.732  28.248  24.312  1.00  0.00    -0.205 F 
ATOM     76  C   UNL A   1      49.931  26.875  25.454  1.00  0.00     0.022 A 
BRANCH  74  77
ATOM     77  S   UNL A   1      49.197  27.113  22.830  1.00  0.00     0.127 S 
ATOM     78  O   UNL A   1      48.809  28.428  22.324  1.00  0.00    -0.237 OA
ATOM     79  O   UNL A   1      50.635  26.842  22.783  1.00  0.00    -0.237 OA
ATOM     80  O   UNL A   1      48.354  26.005  22.400  1.00  0.00    -0.744 OA
ENDBRANCH  74  77
ENDBRANCH  56  70
BRANCH  57  81
ATOM     81  C   UNL A   1      38.806  30.152  30.584  1.00  0.00     0.023 A 
ATOM     82  C   UNL A   1      38.553  29.592  31.846  1.00  0.00     0.012 A 
ATOM     83  C   UNL A   1      37.824  30.958  29.974  1.00  0.00     0.148 A 
ATOM     84  C   UNL A   1      37.340  29.836  32.495  1.00  0.00     0.002 A 
ATOM     85  C   UNL A   1      36.625  31.212  30.634  1.00  0.00     0.091 A 
ATOM     86  F   UNL A   1      38.076  31.465  28.758  1.00  0.00    -0.205 F 
ATOM     87  C   UNL A   1      36.380  30.651  31.895  1.00  0.00     0.022 A 
BRANCH  85  88
ATOM     88  S   UNL A   1      35.410  32.349  29.954  1.00  0.00     0.127 S 
ATOM     89  O   UNL A   1      34.958  31.639  28.765  1.00  0.00    -0.237 OA
ATOM     90  O   UNL A   1      34.427  32.448  31.031  1.00  0.00    -0.237 OA
ATOM     91  O   UNL A   1      36.157  33.585  29.728  1.00  0.00    -0.744 OA
ENDBRANCH  85  88
ENDBRANCH  57  81
BRANCH  69  92
ATOM     92  C   UNL A   1      44.643  33.681  29.549  1.00  0.00     0.023 A 
ATOM     93  C   UNL A   1      44.383  34.748  28.668  1.00  0.00     0.012 A 
ATOM     94  C   UNL A   1      45.264  33.934  30.786  1.00  0.00     0.148 A 
ATOM     95  C   UNL A   1      44.757  36.048  29.005  1.00  0.00     0.002 A 
ATOM     96  C   UNL A   1      45.598  35.238  31.132  1.00  0.00     0.091 A 
ATOM     97  F   UNL A   1      45.529  32.897  31.593  1.00  0.00    -0.205 F 
ATOM     98  C   UNL A   1      45.353  36.294  30.240  1.00  0.00     0.022 A 
BRANCH  96  99
ATOM     99  S   UNL A   1      46.301  35.655  32.731  1.00  0.00     0.127 S 
ATOM    100  O   UNL A   1      45.413  34.941  33.646  1.00  0.00    -0.237 OA
ATOM    101  O   UNL A   1      47.652  35.100  32.633  1.00  0.00    -0.237 OA
ATOM    102  O   UNL A   1      46.255  37.109  32.822  1.00  0.00    -0.744 OA
ENDBRANCH  96  99
ENDBRANCH  69  92
ENDBRANCH  43  44
ENDBRANCH  36  38
ENDBRANCH  35  36
ENDBRANCH  34  35
ENDBRANCH  33  34
ENDBRANCH  32  33
ENDBRANCH  31  32
ENDBRANCH   1  31
TORSDOF 24
ENDMDL
MODEL 2
REMARK VINA RESULT:     -10.5      2.026      3.280
REMARK SMILES O=C(/C=C/c1ccc(S(=O)(=O)Nc2ccc3c(c2)OCCO3)cc1)OCCOCCOCCOC(=O)c1ccc(-c2c3nc(c(-c4cccc(S(=O)(=O)[O-])c4F)c4ccc([nH]4)c(-c4cccc(S(=O)(=O)[O-])c4F)c4nc(c(-c5cccc(S(=O)(=O)[O-])c5F)c5ccc2[nH]5)C=C4)C=C3)cc1
REMARK SMILES IDX 29 1 28 2 27 3 26 4 25 5 2 6 1 7 3 8 4 9 5 10 6 11 24 12
REMARK SMILES IDX 7 13 23 14 8 15 9 16 10 17 11 18 12 19 13 21 14 22 18 23
REMARK SMILES IDX 15 24 17 25 16 26 19 27 22 28 20 29 21 30 30 31 31 32 32 33
REMARK SMILES IDX 33 34 34 35 35 36 36 37 37 38 38 39 99 40 39 41 98 42 40 43
REMARK SMILES IDX 41 44 42 45 92 46 43 47 97 48 91 49 93 50 44 51 96 52 90 53
REMARK SMILES IDX 89 54 45 56 77 57 57 58 76 59 58 60 61 61 75 62 94 63 59 64
REMARK SMILES IDX 60 65 74 67 95 68 62 69 46 70 47 71 55 72 48 73 50 74 56 75
REMARK SMILES IDX 49 76 51 77 52 78 53 79 54 80 78 81 79 82 87 83 80 84 82 85
REMARK SMILES IDX 88 86 81 87 83 88 84 89 85 90 86 91 63 92 64 93 72 94 65 95
REMARK SMILES IDX 67 96 73 97 66 98 68 99 69 100 70 101 71 102
REMARK H PARENT 12 20 93 55 61 66
REMARK Flexibility Score: inf
ROOT
ATOM      1  C   UNL A   1      35.555  18.640  24.645  1.00  0.00     0.188 C 
ENDROOT
BRANCH   1   2
ATOM      2  O   UNL A   1      35.163  17.323  24.250  1.00  0.00    -0.376 OA
BRANCH   2   3
ATOM      3  C   UNL A   1      33.773  17.054  24.143  1.00  0.00     0.202 C 
BRANCH   3   4
ATOM      4  C   UNL A   1      32.890  17.571  25.283  1.00  0.00     0.261 C 
BRANCH   4   5
ATOM      5  O   UNL A   1      32.115  18.721  24.922  1.00  0.00    -0.460 OA
BRANCH   5   6
ATOM      6  C   UNL A   1      32.524  19.913  25.434  1.00  0.00     0.330 C 
ATOM      7  O   UNL A   1      33.118  20.010  26.497  1.00  0.00    -0.247 OA
BRANCH   6   8
ATOM      8  C   UNL A   1      31.891  21.082  24.782  1.00  0.00     0.094 C 
ATOM      9  C   UNL A   1      31.558  22.177  25.480  1.00  0.00     0.015 C 
BRANCH   9  10
ATOM     10  C   UNL A   1      30.991  23.439  24.984  1.00  0.00    -0.025 A 
ATOM     11  C   UNL A   1      30.913  23.592  23.589  1.00  0.00     0.009 A 
ATOM     12  C   UNL A   1      30.592  24.499  25.803  1.00  0.00     0.009 A 
ATOM     13  C   UNL A   1      30.602  24.824  23.021  1.00  0.00     0.023 A 
ATOM     14  C   UNL A   1      30.237  25.729  25.238  1.00  0.00     0.023 A 
ATOM     15  C   UNL A   1      30.339  25.906  23.857  1.00  0.00     0.087 A 
BRANCH  15  16
ATOM     16  S   UNL A   1      30.533  27.563  23.186  1.00  0.00     0.261 S 
ATOM     17  O   UNL A   1      30.685  27.407  21.747  1.00  0.00    -0.201 OA
ATOM     18  O   UNL A   1      29.456  28.347  23.738  1.00  0.00    -0.201 OA
BRANCH  16  19
ATOM     19  N   UNL A   1      32.003  28.055  23.826  1.00  0.00    -0.279 N 
ATOM     20  H   UNL A   1      32.160  29.013  23.992  1.00  0.00     0.180 HD
BRANCH  19  21
ATOM     21  C   UNL A   1      33.029  27.116  24.136  1.00  0.00     0.053 A 
ATOM     22  C   UNL A   1      33.350  26.992  25.490  1.00  0.00     0.031 A 
ATOM     23  C   UNL A   1      33.618  26.268  23.208  1.00  0.00     0.077 A 
ATOM     24  C   UNL A   1      34.154  25.961  25.956  1.00  0.00     0.052 A 
ATOM     25  C   UNL A   1      34.367  25.186  23.672  1.00  0.00     0.163 A 
ATOM     26  C   UNL A   1      34.606  25.022  25.046  1.00  0.00     0.161 A 
ATOM     27  O   UNL A   1      34.749  24.260  22.732  1.00  0.00    -0.486 OA
ATOM     28  O   UNL A   1      35.211  23.906  25.568  1.00  0.00    -0.486 OA
ATOM     29  C   UNL A   1      35.434  23.137  23.298  1.00  0.00     0.271 C 
ATOM     30  C   UNL A   1      34.946  22.806  24.698  1.00  0.00     0.271 C 
ENDBRANCH  19  21
ENDBRANCH  16  19
ENDBRANCH  15  16
ENDBRANCH   9  10
ENDBRANCH   6   8
ENDBRANCH   5   6
ENDBRANCH   4   5
ENDBRANCH   3   4
ENDBRANCH   2   3
ENDBRANCH   1   2
BRANCH   1  31
ATOM     31  C   UNL A   1      37.052  18.882  24.841  1.00  0.00     0.188 C 
BRANCH  31  32
ATOM     32  O   UNL A   1      37.385  20.259  24.991  1.00  0.00    -0.376 OA
BRANCH  32  33
ATOM     33  C   UNL A   1      38.778  20.549  25.043  1.00  0.00     0.202 C 
BRANCH  33  34
ATOM     34  C   UNL A   1      39.540  19.776  26.128  1.00  0.00     0.261 C 
BRANCH  34  35
ATOM     35  O   UNL A   1      40.796  19.188  25.741  1.00  0.00    -0.460 OA
BRANCH  35  36
ATOM     36  C   UNL A   1      41.910  19.531  26.422  1.00  0.00     0.338 C 
ATOM     37  O   UNL A   1      42.803  18.792  26.797  1.00  0.00    -0.246 OA
BRANCH  36  38
ATOM     38  C   UNL A   1      41.946  21.002  26.560  1.00  0.00     0.060 A 
ATOM     39  C   UNL A   1      42.147  21.792  25.422  1.00  0.00     0.016 A 
ATOM     40  C   UNL A   1      41.841  21.595  27.820  1.00  0.00     0.016 A 
ATOM     41  C   UNL A   1      42.276  23.181  25.548  1.00  0.00     0.010 A 
ATOM     42  C   UNL A   1      41.980  22.981  27.944  1.00  0.00     0.010 A 
ATOM     43  C   UNL A   1      42.225  23.783  26.814  1.00  0.00    -0.014 A 
BRANCH  43  44
ATOM     44  C   UNL A   1      42.542  25.223  27.009  1.00  0.00     0.031 A 
ATOM     45  C   UNL A   1      43.934  25.713  26.715  1.00  0.00     0.074 A 
ATOM     46  C   UNL A   1      41.635  26.081  27.513  1.00  0.00     0.049 A 
ATOM     47  N   UNL A   1      44.443  26.900  26.914  1.00  0.00    -0.248 NA
ATOM     48  C   UNL A   1      44.863  24.752  26.098  1.00  0.00     0.031 C 
ATOM     49  C   UNL A   1      40.235  25.772  27.782  1.00  0.00     0.029 A 
ATOM     50  N   UNL A   1      41.773  27.383  27.936  1.00  0.00    -0.354 N 
ATOM     51  C   UNL A   1      45.748  26.835  26.446  1.00  0.00     0.074 A 
ATOM     52  C   UNL A   1      45.962  25.485  25.971  1.00  0.00     0.031 C 
ATOM     53  C   UNL A   1      39.669  26.820  28.409  1.00  0.00     0.029 A 
ATOM     54  C   UNL A   1      40.672  27.859  28.613  1.00  0.00     0.049 A 
ATOM     55  H   UNL A   1      42.580  27.922  27.771  1.00  0.00     0.167 HD
ATOM     56  C   UNL A   1      46.673  27.822  26.385  1.00  0.00     0.034 A 
ATOM     57  C   UNL A   1      40.514  28.981  29.344  1.00  0.00     0.034 A 
ATOM     58  C   UNL A   1      46.462  29.170  26.834  1.00  0.00     0.049 A 
ATOM     59  C   UNL A   1      41.614  30.002  29.387  1.00  0.00     0.074 A 
ATOM     60  C   UNL A   1      47.293  30.267  26.688  1.00  0.00     0.029 A 
ATOM     61  N   UNL A   1      45.360  29.598  27.552  1.00  0.00    -0.354 N 
ATOM     62  N   UNL A   1      42.783  29.974  28.802  1.00  0.00    -0.248 NA
ATOM     63  C   UNL A   1      41.337  31.237  30.137  1.00  0.00     0.031 C 
ATOM     64  C   UNL A   1      46.708  31.354  27.347  1.00  0.00     0.029 A 
ATOM     65  C   UNL A   1      45.507  30.932  27.891  1.00  0.00     0.049 A 
ATOM     66  H   UNL A   1      44.585  29.037  27.789  1.00  0.00     0.167 HD
ATOM     67  C   UNL A   1      43.368  31.202  29.084  1.00  0.00     0.074 A 
ATOM     68  C   UNL A   1      42.428  31.947  29.893  1.00  0.00     0.031 C 
ATOM     69  C   UNL A   1      44.574  31.672  28.692  1.00  0.00     0.034 A 
BRANCH  56  70
ATOM     70  C   UNL A   1      47.996  27.505  25.753  1.00  0.00     0.023 A 
ATOM     71  C   UNL A   1      49.003  26.906  26.536  1.00  0.00     0.012 A 
ATOM     72  C   UNL A   1      48.200  27.692  24.374  1.00  0.00     0.148 A 
ATOM     73  C   UNL A   1      50.201  26.500  25.953  1.00  0.00     0.002 A 
ATOM     74  C   UNL A   1      49.385  27.259  23.795  1.00  0.00     0.091 A 
ATOM     75  F   UNL A   1      47.233  28.286  23.659  1.00  0.00    -0.205 F 
ATOM     76  C   UNL A   1      50.387  26.665  24.582  1.00  0.00     0.022 A 
BRANCH  74  77
ATOM     77  S   UNL A   1      49.699  27.374  22.031  1.00  0.00     0.127 S 
ATOM     78  O   UNL A   1      50.953  26.633  21.906  1.00  0.00    -0.237 OA
ATOM     79  O   UNL A   1      48.532  26.697  21.466  1.00  0.00    -0.237 OA
ATOM     80  O   UNL A   1      49.783  28.797  21.729  1.00  0.00    -0.744 OA
ENDBRANCH  74  77
ENDBRANCH  56  70
BRANCH  57  81
ATOM     81  C   UNL A   1      39.276  29.255  30.118  1.00  0.00     0.023 A 
ATOM     82  C   UNL A   1      39.023  28.552  31.306  1.00  0.00     0.012 A 
ATOM     83  C   UNL A   1      38.296  30.133  29.610  1.00  0.00     0.148 A 
ATOM     84  C   UNL A   1      37.814  28.722  31.983  1.00  0.00     0.002 A 
ATOM     85  C   UNL A   1      37.099  30.312  30.300  1.00  0.00     0.091 A 
ATOM     86  F   UNL A   1      38.547  30.778  28.463  1.00  0.00    -0.205 F 
ATOM     87  C   UNL A   1      36.856  29.606  31.487  1.00  0.00     0.022 A 
BRANCH  85  88
ATOM     88  S   UNL A   1      35.888  31.526  29.762  1.00  0.00     0.127 S 
ATOM     89  O   UNL A   1      35.146  31.783  30.989  1.00  0.00    -0.237 OA
ATOM     90  O   UNL A   1      36.727  32.630  29.299  1.00  0.00    -0.237 OA
ATOM     91  O   UNL A   1      35.156  30.857  28.688  1.00  0.00    -0.744 OA
ENDBRANCH  85  88
ENDBRANCH  57  81
BRANCH  69  92
ATOM     92  C   UNL A   1      44.946  33.059  29.131  1.00  0.00     0.023 A 
ATOM     93  C   UNL A   1      45.888  33.228  30.164  1.00  0.00     0.012 A 
ATOM     94  C   UNL A   1      44.389  34.189  28.505  1.00  0.00     0.148 A 
ATOM     95  C   UNL A   1      46.253  34.505  30.584  1.00  0.00     0.002 A 
ATOM     96  C   UNL A   1      44.788  35.459  28.902  1.00  0.00     0.091 A 
ATOM     97  F   UNL A   1      43.471  34.002  27.546  1.00  0.00    -0.205 F 
ATOM     98  C   UNL A   1      45.712  35.619  29.946  1.00  0.00     0.022 A 
BRANCH  96  99
ATOM     99  S   UNL A   1      44.199  36.948  28.087  1.00  0.00     0.127 S 
ATOM    100  O   UNL A   1      44.534  37.980  29.067  1.00  0.00    -0.237 OA
ATOM    101  O   UNL A   1      45.008  36.978  26.868  1.00  0.00    -0.237 OA
ATOM    102  O   UNL A   1      42.774  36.742  27.857  1.00  0.00    -0.744 OA
ENDBRANCH  96  99
ENDBRANCH  69  92
ENDBRANCH  43  44
ENDBRANCH  36  38
ENDBRANCH  35  36
ENDBRANCH  34  35
ENDBRANCH  33  34
ENDBRANCH  32  33
ENDBRANCH  31  32
ENDBRANCH   1  31
TORSDOF 24
ENDMDL
MODEL 3
REMARK VINA RESULT:     -10.5      3.183      5.211
REMARK SMILES O=C(/C=C/c1ccc(S(=O)(=O)Nc2ccc3c(c2)OCCO3)cc1)OCCOCCOCCOC(=O)c1ccc(-c2c3nc(c(-c4cccc(S(=O)(=O)[O-])c4F)c4ccc([nH]4)c(-c4cccc(S(=O)(=O)[O-])c4F)c4nc(c(-c5cccc(S(=O)(=O)[O-])c5F)c5ccc2[nH]5)C=C4)C=C3)cc1
REMARK SMILES IDX 29 1 28 2 27 3 26 4 25 5 2 6 1 7 3 8 4 9 5 10 6 11 24 12
REMARK SMILES IDX 7 13 23 14 8 15 9 16 10 17 11 18 12 19 13 21 14 22 18 23
REMARK SMILES IDX 15 24 17 25 16 26 19 27 22 28 20 29 21 30 30 31 31 32 32 33
REMARK SMILES IDX 33 34 34 35 35 36 36 37 37 38 38 39 99 40 39 41 98 42 40 43
REMARK SMILES IDX 41 44 42 45 92 46 43 47 97 48 91 49 93 50 44 51 96 52 90 53
REMARK SMILES IDX 89 54 45 56 77 57 57 58 76 59 58 60 61 61 75 62 94 63 59 64
REMARK SMILES IDX 60 65 74 67 95 68 62 69 46 70 47 71 55 72 48 73 50 74 56 75
REMARK SMILES IDX 49 76 51 77 52 78 53 79 54 80 78 81 79 82 87 83 80 84 82 85
REMARK SMILES IDX 88 86 81 87 83 88 84 89 85 90 86 91 63 92 64 93 72 94 65 95
REMARK SMILES IDX 67 96 73 97 66 98 68 99 69 100 70 101 71 102
REMARK H PARENT 12 20 93 55 61 66
REMARK Flexibility Score: inf
ROOT
ATOM      1  C   UNL A   1      34.382  23.505  24.041  1.00  0.00     0.188 C 
ENDROOT
BRANCH   1   2
ATOM      2  O   UNL A   1      33.068  23.517  23.480  1.00  0.00    -0.376 OA
BRANCH   2   3
ATOM      3  C   UNL A   1      32.005  23.022  24.281  1.00  0.00     0.202 C 
BRANCH   3   4
ATOM      4  C   UNL A   1      30.654  23.727  24.128  1.00  0.00     0.261 C 
BRANCH   4   5
ATOM      5  O   UNL A   1      30.576  24.964  24.846  1.00  0.00    -0.460 OA
BRANCH   5   6
ATOM      6  C   UNL A   1      31.165  24.992  26.072  1.00  0.00     0.330 C 
ATOM      7  O   UNL A   1      30.721  24.386  27.035  1.00  0.00    -0.247 OA
BRANCH   6   8
ATOM      8  C   UNL A   1      32.164  26.074  26.222  1.00  0.00     0.094 C 
ATOM      9  C   UNL A   1      31.793  27.356  26.345  1.00  0.00     0.015 C 
BRANCH   9  10
ATOM     10  C   UNL A   1      32.641  28.536  26.567  1.00  0.00    -0.025 A 
ATOM     11  C   UNL A   1      34.031  28.339  26.490  1.00  0.00     0.009 A 
ATOM     12  C   UNL A   1      32.156  29.802  26.906  1.00  0.00     0.009 A 
ATOM     13  C   UNL A   1      34.918  29.330  26.899  1.00  0.00     0.023 A 
ATOM     14  C   UNL A   1      33.044  30.818  27.278  1.00  0.00     0.023 A 
ATOM     15  C   UNL A   1      34.410  30.541  27.363  1.00  0.00     0.087 A 
BRANCH  15  16
ATOM     16  S   UNL A   1      35.456  31.550  28.420  1.00  0.00     0.261 S 
ATOM     17  O   UNL A   1      36.435  30.648  29.009  1.00  0.00    -0.201 OA
ATOM     18  O   UNL A   1      35.871  32.674  27.618  1.00  0.00    -0.201 OA
BRANCH  16  19
ATOM     19  N   UNL A   1      34.400  32.049  29.624  1.00  0.00    -0.279 N 
ATOM     20  H   UNL A   1      33.863  31.377  30.103  1.00  0.00     0.180 HD
BRANCH  19  21
ATOM     21  C   UNL A   1      34.264  33.425  29.969  1.00  0.00     0.053 A 
ATOM     22  C   UNL A   1      33.509  34.200  29.087  1.00  0.00     0.031 A 
ATOM     23  C   UNL A   1      34.729  33.983  31.152  1.00  0.00     0.077 A 
ATOM     24  C   UNL A   1      33.101  35.485  29.414  1.00  0.00     0.052 A 
ATOM     25  C   UNL A   1      34.264  35.246  31.523  1.00  0.00     0.163 A 
ATOM     26  C   UNL A   1      33.429  35.977  30.665  1.00  0.00     0.161 A 
ATOM     27  O   UNL A   1      34.580  35.663  32.793  1.00  0.00    -0.486 OA
ATOM     28  O   UNL A   1      32.830  37.156  31.035  1.00  0.00    -0.486 OA
ATOM     29  C   UNL A   1      33.993  36.926  33.130  1.00  0.00     0.271 C 
ATOM     30  C   UNL A   1      32.651  37.140  32.451  1.00  0.00     0.271 C 
ENDBRANCH  19  21
ENDBRANCH  16  19
ENDBRANCH  15  16
ENDBRANCH   9  10
ENDBRANCH   6   8
ENDBRANCH   5   6
ENDBRANCH   4   5
ENDBRANCH   3   4
ENDBRANCH   2   3
ENDBRANCH   1   2
BRANCH   1  31
ATOM     31  C   UNL A   1      35.222  22.249  23.799  1.00  0.00     0.188 C 
BRANCH  31  32
ATOM     32  O   UNL A   1      36.338  22.140  24.678  1.00  0.00    -0.376 OA
BRANCH  32  33
ATOM     33  C   UNL A   1      36.762  20.812  24.965  1.00  0.00     0.202 C 
BRANCH  33  34
ATOM     34  C   UNL A   1      38.263  20.683  25.258  1.00  0.00     0.261 C 
BRANCH  34  35
ATOM     35  O   UNL A   1      38.743  21.307  26.463  1.00  0.00    -0.460 OA
BRANCH  35  36
ATOM     36  C   UNL A   1      40.070  21.311  26.708  1.00  0.00     0.338 C 
ATOM     37  O   UNL A   1      40.840  20.371  26.622  1.00  0.00    -0.246 OA
BRANCH  36  38
ATOM     38  C   UNL A   1      40.493  22.696  27.008  1.00  0.00     0.060 A 
ATOM     39  C   UNL A   1      40.111  23.729  26.144  1.00  0.00     0.016 A 
ATOM     40  C   UNL A   1      41.314  22.961  28.105  1.00  0.00     0.016 A 
ATOM     41  C   UNL A   1      40.579  25.032  26.361  1.00  0.00     0.010 A 
ATOM     42  C   UNL A   1      41.786  24.261  28.314  1.00  0.00     0.010 A 
ATOM     43  C   UNL A   1      41.445  25.301  27.430  1.00  0.00    -0.014 A 
BRANCH  43  44
ATOM     44  C   UNL A   1      42.110  26.623  27.585  1.00  0.00     0.031 A 
ATOM     45  C   UNL A   1      43.568  26.755  27.238  1.00  0.00     0.074 A 
ATOM     46  C   UNL A   1      41.456  27.683  28.098  1.00  0.00     0.049 A 
ATOM     47  N   UNL A   1      44.357  27.785  27.396  1.00  0.00    -0.248 NA
ATOM     48  C   UNL A   1      44.213  25.588  26.613  1.00  0.00     0.031 C 
ATOM     49  C   UNL A   1      40.034  27.729  28.415  1.00  0.00     0.029 A 
ATOM     50  N   UNL A   1      41.921  28.918  28.487  1.00  0.00    -0.354 N 
ATOM     51  C   UNL A   1      45.590  27.398  26.889  1.00  0.00     0.074 A 
ATOM     52  C   UNL A   1      45.453  26.030  26.437  1.00  0.00     0.031 C 
ATOM     53  C   UNL A   1      39.762  28.890  29.036  1.00  0.00     0.029 A 
ATOM     54  C   UNL A   1      40.993  29.657  29.187  1.00  0.00     0.049 A 
ATOM     55  H   UNL A   1      42.829  29.242  28.286  1.00  0.00     0.167 HD
ATOM     56  C   UNL A   1      46.724  28.128  26.779  1.00  0.00     0.034 A 
ATOM     57  C   UNL A   1      41.139  30.793  29.898  1.00  0.00     0.034 A 
ATOM     58  C   UNL A   1      46.862  29.493  27.205  1.00  0.00     0.049 A 
ATOM     59  C   UNL A   1      42.454  31.516  29.886  1.00  0.00     0.074 A 
ATOM     60  C   UNL A   1      47.930  30.353  27.010  1.00  0.00     0.029 A 
ATOM     61  N   UNL A   1      45.924  30.186  27.947  1.00  0.00    -0.354 N 
ATOM     62  N   UNL A   1      43.560  31.196  29.266  1.00  0.00    -0.248 NA
ATOM     63  C   UNL A   1      42.512  32.792  30.617  1.00  0.00     0.031 C 
ATOM     64  C   UNL A   1      47.650  31.558  27.663  1.00  0.00     0.029 A 
ATOM     65  C   UNL A   1      46.402  31.449  28.252  1.00  0.00     0.049 A 
ATOM     66  H   UNL A   1      45.045  29.835  28.219  1.00  0.00     0.167 HD
ATOM     67  C   UNL A   1      44.436  32.249  29.504  1.00  0.00     0.074 A 
ATOM     68  C   UNL A   1      43.734  33.211  30.324  1.00  0.00     0.031 C 
ATOM     69  C   UNL A   1      45.706  32.405  29.065  1.00  0.00     0.034 A 
BRANCH  56  70
ATOM     70  C   UNL A   1      47.908  27.491  26.114  1.00  0.00     0.023 A 
ATOM     71  C   UNL A   1      48.019  27.551  24.711  1.00  0.00     0.012 A 
ATOM     72  C   UNL A   1      48.954  26.941  26.876  1.00  0.00     0.148 A 
ATOM     73  C   UNL A   1      49.158  27.066  24.072  1.00  0.00     0.002 A 
ATOM     74  C   UNL A   1      50.099  26.486  26.234  1.00  0.00     0.091 A 
ATOM     75  F   UNL A   1      48.811  26.876  28.207  1.00  0.00    -0.205 F 
ATOM     76  C   UNL A   1      50.202  26.545  24.833  1.00  0.00     0.022 A 
BRANCH  74  77
ATOM     77  S   UNL A   1      51.521  25.850  27.127  1.00  0.00     0.127 S 
ATOM     78  O   UNL A   1      51.961  24.768  26.247  1.00  0.00    -0.237 OA
ATOM     79  O   UNL A   1      52.410  27.012  27.155  1.00  0.00    -0.237 OA
ATOM     80  O   UNL A   1      51.023  25.431  28.430  1.00  0.00    -0.744 OA
ENDBRANCH  74  77
ENDBRANCH  56  70
BRANCH  57  81
ATOM     81  C   UNL A   1      40.032  31.371  30.704  1.00  0.00     0.023 A 
ATOM     82  C   UNL A   1      39.238  32.397  30.168  1.00  0.00     0.012 A 
ATOM     83  C   UNL A   1      39.845  30.980  32.046  1.00  0.00     0.148 A 
ATOM     84  C   UNL A   1      38.267  33.022  30.954  1.00  0.00     0.002 A 
ATOM     85  C   UNL A   1      38.863  31.594  32.819  1.00  0.00     0.091 A 
ATOM     86  F   UNL A   1      40.629  30.014  32.546  1.00  0.00    -0.205 F 
ATOM     87  C   UNL A   1      38.073  32.617  32.275  1.00  0.00     0.022 A 
BRANCH  85  88
ATOM     88  S   UNL A   1      38.499  31.026  34.485  1.00  0.00     0.127 S 
ATOM     89  O   UNL A   1      37.338  31.833  34.836  1.00  0.00    -0.237 OA
ATOM     90  O   UNL A   1      38.231  29.603  34.285  1.00  0.00    -0.237 OA
ATOM     91  O   UNL A   1      39.726  31.290  35.234  1.00  0.00    -0.744 OA
ENDBRANCH  85  88
ENDBRANCH  57  81
BRANCH  69  92
ATOM     92  C   UNL A   1      46.418  33.665  29.462  1.00  0.00     0.023 A 
ATOM     93  C   UNL A   1      47.148  33.697  30.667  1.00  0.00     0.012 A 
ATOM     94  C   UNL A   1      46.391  34.803  28.635  1.00  0.00     0.148 A 
ATOM     95  C   UNL A   1      47.822  34.853  31.053  1.00  0.00     0.002 A 
ATOM     96  C   UNL A   1      47.099  35.939  29.007  1.00  0.00     0.091 A 
ATOM     97  F   UNL A   1      45.664  34.758  27.509  1.00  0.00    -0.205 F 
ATOM     98  C   UNL A   1      47.807  35.969  30.219  1.00  0.00     0.022 A 
BRANCH  96  99
ATOM     99  S   UNL A   1      47.195  37.395  27.959  1.00  0.00     0.127 S 
ATOM    100  O   UNL A   1      45.784  37.675  27.704  1.00  0.00    -0.237 OA
ATOM    101  O   UNL A   1      47.862  38.363  28.831  1.00  0.00    -0.237 OA
ATOM    102  O   UNL A   1      47.976  36.999  26.794  1.00  0.00    -0.744 OA
ENDBRANCH  96  99
ENDBRANCH  69  92
ENDBRANCH  43  44
ENDBRANCH  36  38
ENDBRANCH  35  36
ENDBRANCH  34  35
ENDBRANCH  33  34
ENDBRANCH  32  33
ENDBRANCH  31  32
ENDBRANCH   1  31
TORSDOF 24
ENDMDL
