MODEL 1
REMARK VINA RESULT:      -8.9      0.000      0.000
REMARK SMILES O=C(C[C@@H]1CN(C(=O)NCc2cccs2)CCO1)OCCOCCOCCOC(=O)c1ccc(-c2c3nc(c(-c4cccc(S(=O)(=O)[O-])c4F)c4ccc([nH]4)c(-c4cccc(S(=O)(=O)[O-])c4F)c4nc(c(-c5cccc(S(=O)(=O)[O-])c5F)c5ccc2[nH]5)C=C4)C=C3)cc1
REMARK SMILES IDX 23 1 22 2 21 3 20 4 19 5 2 6 1 7 3 8 4 9 5 10 18 11 6 12
REMARK SMILES IDX 17 13 16 14 7 15 8 16 9 17 10 19 11 20 12 21 15 22 13 23
REMARK SMILES IDX 14 24 24 25 25 26 26 27 27 28 28 29 29 30 30 31 31 32 32 33
REMARK SMILES IDX 93 34 33 35 92 36 34 37 35 38 36 39 86 40 37 41 91 42 85 43
REMARK SMILES IDX 87 44 38 45 90 46 84 47 83 48 39 50 71 51 51 52 70 53 52 54
REMARK SMILES IDX 55 55 69 56 88 57 53 58 54 59 68 61 89 62 56 63 40 64 41 65
REMARK SMILES IDX 49 66 42 67 44 68 50 69 43 70 45 71 46 72 47 73 48 74 72 75
REMARK SMILES IDX 73 76 81 77 74 78 76 79 82 80 75 81 77 82 78 83 79 84 80 85
REMARK SMILES IDX 57 86 58 87 66 88 59 89 61 90 67 91 60 92 62 93 63 94 64 95
REMARK SMILES IDX 65 96
REMARK H PARENT 9 18 87 49 55 60
REMARK Flexibility Score: inf
ROOT
ATOM      1  C   UNL A   1      49.720  25.282  38.989  1.00  0.00     0.188 C 
ENDROOT
BRANCH   1   2
ATOM      2  O   UNL A   1      49.347  23.975  38.624  1.00  0.00    -0.376 OA
BRANCH   2   3
ATOM      3  C   UNL A   1      48.775  23.155  39.613  1.00  0.00     0.202 C 
BRANCH   3   4
ATOM      4  C   UNL A   1      47.867  22.002  39.192  1.00  0.00     0.261 C 
BRANCH   4   5
ATOM      5  O   UNL A   1      47.498  20.978  40.139  1.00  0.00    -0.463 OA
BRANCH   5   6
ATOM      6  C   UNL A   1      47.930  19.706  40.244  1.00  0.00     0.308 C 
ATOM      7  O   UNL A   1      48.166  19.065  39.223  1.00  0.00    -0.252 OA
BRANCH   6   8
ATOM      8  C   UNL A   1      48.050  19.072  41.596  1.00  0.00     0.156 C 
BRANCH   8   9
ATOM      9  C   UNL A   1      46.730  18.760  42.266  1.00  0.00     0.149 C 
ATOM     10  C   UNL A   1      46.168  17.367  41.924  1.00  0.00     0.154 C 
ATOM     11  O   UNL A   1      45.808  19.790  41.869  1.00  0.00    -0.374 OA
ATOM     12  N   UNL A   1      44.908  17.194  42.638  1.00  0.00    -0.320 N 
ATOM     13  C   UNL A   1      44.541  19.636  42.527  1.00  0.00     0.182 C 
ATOM     14  C   UNL A   1      43.950  18.249  42.243  1.00  0.00     0.150 C 
BRANCH  12  15
ATOM     15  C   UNL A   1      44.548  16.346  43.634  1.00  0.00     0.317 C 
ATOM     16  O   UNL A   1      45.060  16.435  44.757  1.00  0.00    -0.249 OA
ATOM     17  N   UNL A   1      43.666  15.347  43.539  1.00  0.00    -0.333 N 
ATOM     18  H   UNL A   1      43.627  14.870  44.400  1.00  0.00     0.165 HD
BRANCH  17  19
ATOM     19  C   UNL A   1      42.749  14.721  42.608  1.00  0.00     0.164 C 
BRANCH  19  20
ATOM     20  C   UNL A   1      42.514  13.286  43.018  1.00  0.00     0.024 A 
ATOM     21  C   UNL A   1      41.381  12.500  42.871  1.00  0.00     0.017 A 
ATOM     22  S   UNL A   1      43.741  12.430  43.863  1.00  0.00    -0.147 S 
ATOM     23  C   UNL A   1      41.493  11.241  43.532  1.00  0.00     0.012 A 
ATOM     24  C   UNL A   1      42.735  11.068  44.098  1.00  0.00     0.065 A 
ENDBRANCH  19  20
ENDBRANCH  17  19
ENDBRANCH  12  15
ENDBRANCH   8   9
ENDBRANCH   6   8
ENDBRANCH   5   6
ENDBRANCH   4   5
ENDBRANCH   3   4
ENDBRANCH   2   3
ENDBRANCH   1   2
BRANCH   1  25
ATOM     25  C   UNL A   1      51.142  25.683  38.571  1.00  0.00     0.188 C 
BRANCH  25  26
ATOM     26  O   UNL A   1      51.339  26.274  37.294  1.00  0.00    -0.376 OA
BRANCH  26  27
ATOM     27  C   UNL A   1      51.221  27.685  37.145  1.00  0.00     0.202 C 
BRANCH  27  28
ATOM     28  C   UNL A   1      49.845  28.383  37.088  1.00  0.00     0.261 C 
BRANCH  28  29
ATOM     29  O   UNL A   1      48.944  27.959  36.047  1.00  0.00    -0.460 OA
BRANCH  29  30
ATOM     30  C   UNL A   1      48.949  28.705  34.909  1.00  0.00     0.338 C 
ATOM     31  O   UNL A   1      49.910  28.941  34.206  1.00  0.00    -0.246 OA
BRANCH  30  32
ATOM     32  C   UNL A   1      47.557  29.025  34.493  1.00  0.00     0.060 A 
ATOM     33  C   UNL A   1      46.599  28.003  34.589  1.00  0.00     0.016 A 
ATOM     34  C   UNL A   1      47.183  30.290  34.035  1.00  0.00     0.016 A 
ATOM     35  C   UNL A   1      45.277  28.233  34.208  1.00  0.00     0.010 A 
ATOM     36  C   UNL A   1      45.863  30.507  33.608  1.00  0.00     0.010 A 
ATOM     37  C   UNL A   1      44.912  29.469  33.661  1.00  0.00    -0.014 A 
BRANCH  37  38
ATOM     38  C   UNL A   1      43.611  29.572  32.947  1.00  0.00     0.031 A 
ATOM     39  C   UNL A   1      42.457  30.222  33.666  1.00  0.00     0.074 A 
ATOM     40  C   UNL A   1      43.459  29.167  31.673  1.00  0.00     0.049 A 
ATOM     41  N   UNL A   1      41.251  30.488  33.235  1.00  0.00    -0.248 NA
ATOM     42  C   UNL A   1      42.700  30.633  35.060  1.00  0.00     0.031 C 
ATOM     43  C   UNL A   1      44.489  28.527  30.857  1.00  0.00     0.029 A 
ATOM     44  N   UNL A   1      42.363  29.226  30.846  1.00  0.00    -0.354 N 
ATOM     45  C   UNL A   1      40.592  31.091  34.301  1.00  0.00     0.074 A 
ATOM     46  C   UNL A   1      41.521  31.125  35.409  1.00  0.00     0.031 C 
ATOM     47  C   UNL A   1      43.965  28.223  29.655  1.00  0.00     0.029 A 
ATOM     48  C   UNL A   1      42.562  28.637  29.619  1.00  0.00     0.049 A 
ATOM     49  H   UNL A   1      41.513  29.649  31.107  1.00  0.00     0.167 HD
ATOM     50  C   UNL A   1      39.335  31.592  34.353  1.00  0.00     0.034 A 
ATOM     51  C   UNL A   1      41.708  28.442  28.592  1.00  0.00     0.034 A 
ATOM     52  C   UNL A   1      38.403  31.557  33.258  1.00  0.00     0.049 A 
ATOM     53  C   UNL A   1      40.301  28.981  28.685  1.00  0.00     0.074 A 
ATOM     54  C   UNL A   1      37.113  32.057  33.211  1.00  0.00     0.029 A 
ATOM     55  N   UNL A   1      38.651  30.980  32.024  1.00  0.00    -0.354 N 
ATOM     56  N   UNL A   1      39.731  29.650  29.659  1.00  0.00    -0.248 NA
ATOM     57  C   UNL A   1      39.431  28.774  27.517  1.00  0.00     0.031 C 
ATOM     58  C   UNL A   1      36.571  31.752  31.958  1.00  0.00     0.029 A 
ATOM     59  C   UNL A   1      37.538  31.101  31.210  1.00  0.00     0.049 A 
ATOM     60  H   UNL A   1      39.497  30.546  31.763  1.00  0.00     0.167 HD
ATOM     61  C   UNL A   1      38.453  29.970  29.209  1.00  0.00     0.074 A 
ATOM     62  C   UNL A   1      38.345  29.451  27.861  1.00  0.00     0.031 C 
ATOM     63  C   UNL A   1      37.452  30.618  29.856  1.00  0.00     0.034 A 
BRANCH  50  64
ATOM     64  C   UNL A   1      38.902  32.252  35.636  1.00  0.00     0.023 A 
ATOM     65  C   UNL A   1      39.084  33.641  35.800  1.00  0.00     0.012 A 
ATOM     66  C   UNL A   1      38.267  31.513  36.653  1.00  0.00     0.148 A 
ATOM     67  C   UNL A   1      38.666  34.279  36.966  1.00  0.00     0.002 A 
ATOM     68  C   UNL A   1      37.813  32.164  37.793  1.00  0.00     0.091 A 
ATOM     69  F   UNL A   1      38.125  30.190  36.487  1.00  0.00    -0.205 F 
ATOM     70  C   UNL A   1      38.021  33.543  37.956  1.00  0.00     0.022 A 
BRANCH  68  71
ATOM     71  S   UNL A   1      36.901  31.323  39.093  1.00  0.00     0.127 S 
ATOM     72  O   UNL A   1      35.684  32.132  39.169  1.00  0.00    -0.237 OA
ATOM     73  O   UNL A   1      36.712  29.991  38.521  1.00  0.00    -0.237 OA
ATOM     74  O   UNL A   1      37.749  31.368  40.275  1.00  0.00    -0.744 OA
ENDBRANCH  68  71
ENDBRANCH  50  64
BRANCH  51  75
ATOM     75  C   UNL A   1      42.154  27.708  27.371  1.00  0.00     0.023 A 
ATOM     76  C   UNL A   1      42.524  28.420  26.213  1.00  0.00     0.012 A 
ATOM     77  C   UNL A   1      42.189  26.300  27.350  1.00  0.00     0.148 A 
ATOM     78  C   UNL A   1      42.879  27.742  25.045  1.00  0.00     0.002 A 
ATOM     79  C   UNL A   1      42.601  25.633  26.203  1.00  0.00     0.091 A 
ATOM     80  F   UNL A   1      41.810  25.639  28.452  1.00  0.00    -0.205 F 
ATOM     81  C   UNL A   1      42.927  26.351  25.042  1.00  0.00     0.022 A 
BRANCH  79  82
ATOM     82  S   UNL A   1      42.814  23.851  26.152  1.00  0.00     0.127 S 
ATOM     83  O   UNL A   1      41.430  23.382  26.171  1.00  0.00    -0.237 OA
ATOM     84  O   UNL A   1      43.509  23.666  24.877  1.00  0.00    -0.237 OA
ATOM     85  O   UNL A   1      43.611  23.515  27.323  1.00  0.00    -0.744 OA
ENDBRANCH  79  82
ENDBRANCH  51  75
BRANCH  63  86
ATOM     86  C   UNL A   1      36.160  30.836  29.105  1.00  0.00     0.023 A 
ATOM     87  C   UNL A   1      35.463  29.736  28.565  1.00  0.00     0.012 A 
ATOM     88  C   UNL A   1      35.615  32.129  28.967  1.00  0.00     0.148 A 
ATOM     89  C   UNL A   1      34.279  29.924  27.852  1.00  0.00     0.002 A 
ATOM     90  C   UNL A   1      34.405  32.302  28.303  1.00  0.00     0.091 A 
ATOM     91  F   UNL A   1      36.293  33.168  29.475  1.00  0.00    -0.205 F 
ATOM     92  C   UNL A   1      33.746  31.203  27.729  1.00  0.00     0.022 A 
BRANCH  90  93
ATOM     93  S   UNL A   1      33.595  33.901  28.178  1.00  0.00     0.127 S 
ATOM     94  O   UNL A   1      33.471  34.283  29.585  1.00  0.00    -0.237 OA
ATOM     95  O   UNL A   1      34.568  34.684  27.418  1.00  0.00    -0.237 OA
ATOM     96  O   UNL A   1      32.338  33.659  27.482  1.00  0.00    -0.744 OA
ENDBRANCH  90  93
ENDBRANCH  63  86
ENDBRANCH  37  38
ENDBRANCH  30  32
ENDBRANCH  29  30
ENDBRANCH  28  29
ENDBRANCH  27  28
ENDBRANCH  26  27
ENDBRANCH  25  26
ENDBRANCH   1  25
TORSDOF 24
ENDMDL
MODEL 2
REMARK VINA RESULT:      -8.7      6.057     12.949
REMARK SMILES O=C(C[C@@H]1CN(C(=O)NCc2cccs2)CCO1)OCCOCCOCCOC(=O)c1ccc(-c2c3nc(c(-c4cccc(S(=O)(=O)[O-])c4F)c4ccc([nH]4)c(-c4cccc(S(=O)(=O)[O-])c4F)c4nc(c(-c5cccc(S(=O)(=O)[O-])c5F)c5ccc2[nH]5)C=C4)C=C3)cc1
REMARK SMILES IDX 23 1 22 2 21 3 20 4 19 5 2 6 1 7 3 8 4 9 5 10 18 11 6 12
REMARK SMILES IDX 17 13 16 14 7 15 8 16 9 17 10 19 11 20 12 21 15 22 13 23
REMARK SMILES IDX 14 24 24 25 25 26 26 27 27 28 28 29 29 30 30 31 31 32 32 33
REMARK SMILES IDX 93 34 33 35 92 36 34 37 35 38 36 39 86 40 37 41 91 42 85 43
REMARK SMILES IDX 87 44 38 45 90 46 84 47 83 48 39 50 71 51 51 52 70 53 52 54
REMARK SMILES IDX 55 55 69 56 88 57 53 58 54 59 68 61 89 62 56 63 40 64 41 65
REMARK SMILES IDX 49 66 42 67 44 68 50 69 43 70 45 71 46 72 47 73 48 74 72 75
REMARK SMILES IDX 73 76 81 77 74 78 76 79 82 80 75 81 77 82 78 83 79 84 80 85
REMARK SMILES IDX 57 86 58 87 66 88 59 89 61 90 67 91 60 92 62 93 63 94 64 95
REMARK SMILES IDX 65 96
REMARK H PARENT 9 18 87 49 55 60
REMARK Flexibility Score: inf
ROOT
ATOM      1  C   UNL A   1      47.651  27.745  25.706  1.00  0.00     0.188 C 
ENDROOT
BRANCH   1   2
ATOM      2  O   UNL A   1      47.216  27.394  26.997  1.00  0.00    -0.376 OA
BRANCH   2   3
ATOM      3  C   UNL A   1      48.027  27.764  28.086  1.00  0.00     0.202 C 
BRANCH   3   4
ATOM      4  C   UNL A   1      47.523  28.823  29.062  1.00  0.00     0.261 C 
BRANCH   4   5
ATOM      5  O   UNL A   1      48.413  29.848  29.554  1.00  0.00    -0.463 OA
BRANCH   5   6
ATOM      6  C   UNL A   1      48.348  30.575  30.686  1.00  0.00     0.308 C 
ATOM      7  O   UNL A   1      49.230  31.396  30.925  1.00  0.00    -0.252 OA
BRANCH   6   8
ATOM      8  C   UNL A   1      47.243  30.326  31.666  1.00  0.00     0.156 C 
BRANCH   8   9
ATOM      9  C   UNL A   1      46.312  31.500  31.879  1.00  0.00     0.149 C 
ATOM     10  C   UNL A   1      45.940  32.246  30.584  1.00  0.00     0.154 C 
ATOM     11  O   UNL A   1      46.964  32.386  32.805  1.00  0.00    -0.374 OA
ATOM     12  N   UNL A   1      45.038  33.340  30.928  1.00  0.00    -0.320 N 
ATOM     13  C   UNL A   1      46.121  33.496  33.146  1.00  0.00     0.182 C 
ATOM     14  C   UNL A   1      45.694  34.259  31.884  1.00  0.00     0.150 C 
BRANCH  12  15
ATOM     15  C   UNL A   1      43.735  33.560  30.626  1.00  0.00     0.317 C 
ATOM     16  O   UNL A   1      42.859  33.483  31.497  1.00  0.00    -0.249 OA
ATOM     17  N   UNL A   1      43.243  33.848  29.416  1.00  0.00    -0.333 N 
ATOM     18  H   UNL A   1      42.263  33.918  29.476  1.00  0.00     0.165 HD
BRANCH  17  19
ATOM     19  C   UNL A   1      43.653  34.091  28.049  1.00  0.00     0.164 C 
BRANCH  19  20
ATOM     20  C   UNL A   1      43.351  35.524  27.677  1.00  0.00     0.024 A 
ATOM     21  C   UNL A   1      42.176  36.083  27.198  1.00  0.00     0.017 A 
ATOM     22  S   UNL A   1      44.597  36.704  27.753  1.00  0.00    -0.147 S 
ATOM     23  C   UNL A   1      42.330  37.446  26.810  1.00  0.00     0.012 A 
ATOM     24  C   UNL A   1      43.597  37.914  27.075  1.00  0.00     0.065 A 
ENDBRANCH  19  20
ENDBRANCH  17  19
ENDBRANCH  12  15
ENDBRANCH   8   9
ENDBRANCH   6   8
ENDBRANCH   5   6
ENDBRANCH   4   5
ENDBRANCH   3   4
ENDBRANCH   2   3
ENDBRANCH   1   2
BRANCH   1  25
ATOM     25  C   UNL A   1      47.001  26.942  24.570  1.00  0.00     0.188 C 
BRANCH  25  26
ATOM     26  O   UNL A   1      47.640  25.757  24.116  1.00  0.00    -0.376 OA
BRANCH  26  27
ATOM     27  C   UNL A   1      47.447  24.537  24.824  1.00  0.00     0.202 C 
BRANCH  27  28
ATOM     28  C   UNL A   1      46.389  23.501  24.386  1.00  0.00     0.261 C 
BRANCH  28  29
ATOM     29  O   UNL A   1      45.301  23.260  25.298  1.00  0.00    -0.460 OA
BRANCH  29  30
ATOM     30  C   UNL A   1      44.052  23.515  24.824  1.00  0.00     0.338 C 
ATOM     31  O   UNL A   1      43.492  22.934  23.917  1.00  0.00    -0.246 OA
BRANCH  30  32
ATOM     32  C   UNL A   1      43.345  24.473  25.715  1.00  0.00     0.060 A 
ATOM     33  C   UNL A   1      43.986  25.689  26.002  1.00  0.00     0.016 A 
ATOM     34  C   UNL A   1      42.082  24.209  26.249  1.00  0.00     0.016 A 
ATOM     35  C   UNL A   1      43.383  26.629  26.838  1.00  0.00     0.010 A 
ATOM     36  C   UNL A   1      41.496  25.136  27.127  1.00  0.00     0.010 A 
ATOM     37  C   UNL A   1      42.159  26.335  27.452  1.00  0.00    -0.014 A 
BRANCH  37  38
ATOM     38  C   UNL A   1      41.717  27.182  28.591  1.00  0.00     0.031 A 
ATOM     39  C   UNL A   1      42.480  27.084  29.887  1.00  0.00     0.074 A 
ATOM     40  C   UNL A   1      40.712  28.070  28.476  1.00  0.00     0.049 A 
ATOM     41  N   UNL A   1      42.332  27.763  30.995  1.00  0.00    -0.248 NA
ATOM     42  C   UNL A   1      43.562  26.084  29.937  1.00  0.00     0.031 C 
ATOM     43  C   UNL A   1      39.893  28.274  27.284  1.00  0.00     0.029 A 
ATOM     44  N   UNL A   1      40.203  28.960  29.391  1.00  0.00    -0.354 N 
ATOM     45  C   UNL A   1      43.294  27.274  31.871  1.00  0.00     0.074 A 
ATOM     46  C   UNL A   1      44.002  26.220  31.179  1.00  0.00     0.031 C 
ATOM     47  C   UNL A   1      38.961  29.208  27.551  1.00  0.00     0.029 A 
ATOM     48  C   UNL A   1      39.111  29.661  28.934  1.00  0.00     0.049 A 
ATOM     49  H   UNL A   1      40.583  29.085  30.291  1.00  0.00     0.167 HD
ATOM     50  C   UNL A   1      43.582  27.676  33.132  1.00  0.00     0.034 A 
ATOM     51  C   UNL A   1      38.316  30.552  29.563  1.00  0.00     0.034 A 
ATOM     52  C   UNL A   1      42.880  28.719  33.830  1.00  0.00     0.049 A 
ATOM     53  C   UNL A   1      38.638  30.961  30.981  1.00  0.00     0.074 A 
ATOM     54  C   UNL A   1      43.112  29.208  35.104  1.00  0.00     0.029 A 
ATOM     55  N   UNL A   1      41.801  29.424  33.324  1.00  0.00    -0.354 N 
ATOM     56  N   UNL A   1      39.622  30.570  31.754  1.00  0.00    -0.248 NA
ATOM     57  C   UNL A   1      37.760  31.968  31.597  1.00  0.00     0.031 C 
ATOM     58  C   UNL A   1      42.152  30.188  35.379  1.00  0.00     0.029 A 
ATOM     59  C   UNL A   1      41.349  30.338  34.261  1.00  0.00     0.049 A 
ATOM     60  H   UNL A   1      41.411  29.294  32.428  1.00  0.00     0.167 HD
ATOM     61  C   UNL A   1      39.500  31.305  32.931  1.00  0.00     0.074 A 
ATOM     62  C   UNL A   1      38.367  32.189  32.754  1.00  0.00     0.031 C 
ATOM     63  C   UNL A   1      40.246  31.243  34.063  1.00  0.00     0.034 A 
BRANCH  50  64
ATOM     64  C   UNL A   1      44.732  26.999  33.832  1.00  0.00     0.023 A 
ATOM     65  C   UNL A   1      46.035  27.520  33.692  1.00  0.00     0.012 A 
ATOM     66  C   UNL A   1      44.518  25.888  34.670  1.00  0.00     0.148 A 
ATOM     67  C   UNL A   1      47.111  26.928  34.352  1.00  0.00     0.002 A 
ATOM     68  C   UNL A   1      45.588  25.332  35.360  1.00  0.00     0.091 A 
ATOM     69  F   UNL A   1      43.275  25.394  34.771  1.00  0.00    -0.205 F 
ATOM     70  C   UNL A   1      46.885  25.843  35.194  1.00  0.00     0.022 A 
BRANCH  68  71
ATOM     71  S   UNL A   1      45.394  23.981  36.529  1.00  0.00     0.127 S 
ATOM     72  O   UNL A   1      46.744  23.872  37.079  1.00  0.00    -0.237 OA
ATOM     73  O   UNL A   1      44.400  24.521  37.456  1.00  0.00    -0.237 OA
ATOM     74  O   UNL A   1      44.946  22.835  35.751  1.00  0.00    -0.744 OA
ENDBRANCH  68  71
ENDBRANCH  50  64
BRANCH  51  75
ATOM     75  C   UNL A   1      37.136  31.137  28.859  1.00  0.00     0.023 A 
ATOM     76  C   UNL A   1      37.056  32.527  28.646  1.00  0.00     0.012 A 
ATOM     77  C   UNL A   1      36.079  30.314  28.423  1.00  0.00     0.148 A 
ATOM     78  C   UNL A   1      35.927  33.090  28.049  1.00  0.00     0.002 A 
ATOM     79  C   UNL A   1      34.985  30.875  27.775  1.00  0.00     0.091 A 
ATOM     80  F   UNL A   1      36.161  28.997  28.657  1.00  0.00    -0.205 F 
ATOM     81  C   UNL A   1      34.897  32.265  27.605  1.00  0.00     0.022 A 
BRANCH  79  82
ATOM     82  S   UNL A   1      33.676  29.876  27.059  1.00  0.00     0.127 S 
ATOM     83  O   UNL A   1      33.439  28.892  28.113  1.00  0.00    -0.237 OA
ATOM     84  O   UNL A   1      32.608  30.860  26.883  1.00  0.00    -0.237 OA
ATOM     85  O   UNL A   1      34.218  29.351  25.813  1.00  0.00    -0.744 OA
ENDBRANCH  79  82
ENDBRANCH  51  75
BRANCH  63  86
ATOM     86  C   UNL A   1      39.885  32.180  35.191  1.00  0.00     0.023 A 
ATOM     87  C   UNL A   1      40.423  33.482  35.226  1.00  0.00     0.012 A 
ATOM     88  C   UNL A   1      38.979  31.784  36.196  1.00  0.00     0.148 A 
ATOM     89  C   UNL A   1      40.114  34.352  36.272  1.00  0.00     0.002 A 
ATOM     90  C   UNL A   1      38.632  32.676  37.204  1.00  0.00     0.091 A 
ATOM     91  F   UNL A   1      38.483  30.539  36.157  1.00  0.00    -0.205 F 
ATOM     92  C   UNL A   1      39.213  33.953  37.255  1.00  0.00     0.022 A 
BRANCH  90  93
ATOM     93  S   UNL A   1      37.407  32.283  38.459  1.00  0.00     0.127 S 
ATOM     94  O   UNL A   1      38.033  32.821  39.666  1.00  0.00    -0.237 OA
ATOM     95  O   UNL A   1      36.237  33.029  37.995  1.00  0.00    -0.237 OA
ATOM     96  O   UNL A   1      37.251  30.835  38.426  1.00  0.00    -0.744 OA
ENDBRANCH  90  93
ENDBRANCH  63  86
ENDBRANCH  37  38
ENDBRANCH  30  32
ENDBRANCH  29  30
ENDBRANCH  28  29
ENDBRANCH  27  28
ENDBRANCH  26  27
ENDBRANCH  25  26
ENDBRANCH   1  25
TORSDOF 24
ENDMDL
MODEL 3
REMARK VINA RESULT:      -8.6      9.782     15.483
REMARK SMILES O=C(C[C@@H]1CN(C(=O)NCc2cccs2)CCO1)OCCOCCOCCOC(=O)c1ccc(-c2c3nc(c(-c4cccc(S(=O)(=O)[O-])c4F)c4ccc([nH]4)c(-c4cccc(S(=O)(=O)[O-])c4F)c4nc(c(-c5cccc(S(=O)(=O)[O-])c5F)c5ccc2[nH]5)C=C4)C=C3)cc1
REMARK SMILES IDX 23 1 22 2 21 3 20 4 19 5 2 6 1 7 3 8 4 9 5 10 18 11 6 12
REMARK SMILES IDX 17 13 16 14 7 15 8 16 9 17 10 19 11 20 12 21 15 22 13 23
REMARK SMILES IDX 14 24 24 25 25 26 26 27 27 28 28 29 29 30 30 31 31 32 32 33
REMARK SMILES IDX 93 34 33 35 92 36 34 37 35 38 36 39 86 40 37 41 91 42 85 43
REMARK SMILES IDX 87 44 38 45 90 46 84 47 83 48 39 50 71 51 51 52 70 53 52 54
REMARK SMILES IDX 55 55 69 56 88 57 53 58 54 59 68 61 89 62 56 63 40 64 41 65
REMARK SMILES IDX 49 66 42 67 44 68 50 69 43 70 45 71 46 72 47 73 48 74 72 75
REMARK SMILES IDX 73 76 81 77 74 78 76 79 82 80 75 81 77 82 78 83 79 84 80 85
REMARK SMILES IDX 57 86 58 87 66 88 59 89 61 90 67 91 60 92 62 93 63 94 64 95
REMARK SMILES IDX 65 96
REMARK H PARENT 9 18 87 49 55 60
REMARK Flexibility Score: inf
ROOT
ATOM      1  C   UNL A   1      36.538  30.808  28.609  1.00  0.00     0.188 C 
ENDROOT
BRANCH   1   2
ATOM      2  O   UNL A   1      35.255  30.771  28.030  1.00  0.00    -0.376 OA
BRANCH   2   3
ATOM      3  C   UNL A   1      34.823  29.556  27.470  1.00  0.00     0.202 C 
BRANCH   3   4
ATOM      4  C   UNL A   1      34.562  29.480  25.967  1.00  0.00     0.261 C 
BRANCH   4   5
ATOM      5  O   UNL A   1      33.577  28.567  25.441  1.00  0.00    -0.463 OA
BRANCH   5   6
ATOM      6  C   UNL A   1      33.712  27.286  25.048  1.00  0.00     0.308 C 
ATOM      7  O   UNL A   1      33.660  27.015  23.850  1.00  0.00    -0.252 OA
BRANCH   6   8
ATOM      8  C   UNL A   1      33.855  26.205  26.075  1.00  0.00     0.156 C 
BRANCH   8   9
ATOM      9  C   UNL A   1      34.078  24.820  25.508  1.00  0.00     0.149 C 
ATOM     10  C   UNL A   1      33.774  23.681  26.499  1.00  0.00     0.154 C 
ATOM     11  O   UNL A   1      35.449  24.763  25.076  1.00  0.00    -0.374 OA
ATOM     12  N   UNL A   1      34.020  22.411  25.826  1.00  0.00    -0.320 N 
ATOM     13  C   UNL A   1      35.742  23.513  24.436  1.00  0.00     0.182 C 
ATOM     14  C   UNL A   1      35.425  22.338  25.372  1.00  0.00     0.150 C 
BRANCH  12  15
ATOM     15  C   UNL A   1      33.182  21.407  25.465  1.00  0.00     0.317 C 
ATOM     16  O   UNL A   1      33.621  20.361  24.970  1.00  0.00    -0.249 OA
ATOM     17  N   UNL A   1      31.848  21.418  25.563  1.00  0.00    -0.333 N 
ATOM     18  H   UNL A   1      31.492  20.578  25.193  1.00  0.00     0.165 HD
BRANCH  17  19
ATOM     19  C   UNL A   1      30.748  22.238  26.024  1.00  0.00     0.164 C 
BRANCH  19  20
ATOM     20  C   UNL A   1      30.624  23.459  25.143  1.00  0.00     0.024 A 
ATOM     21  C   UNL A   1      30.809  23.583  23.775  1.00  0.00     0.017 A 
ATOM     22  S   UNL A   1      30.278  24.987  25.849  1.00  0.00    -0.147 S 
ATOM     23  C   UNL A   1      30.759  24.937  23.330  1.00  0.00     0.012 A 
ATOM     24  C   UNL A   1      30.460  25.802  24.357  1.00  0.00     0.065 A 
ENDBRANCH  19  20
ENDBRANCH  17  19
ENDBRANCH  12  15
ENDBRANCH   8   9
ENDBRANCH   6   8
ENDBRANCH   5   6
ENDBRANCH   4   5
ENDBRANCH   3   4
ENDBRANCH   2   3
ENDBRANCH   1   2
BRANCH   1  25
ATOM     25  C   UNL A   1      36.805  29.708  29.647  1.00  0.00     0.188 C 
BRANCH  25  26
ATOM     26  O   UNL A   1      36.936  30.073  31.013  1.00  0.00    -0.376 OA
BRANCH  26  27
ATOM     27  C   UNL A   1      36.117  31.108  31.547  1.00  0.00     0.202 C 
BRANCH  27  28
ATOM     28  C   UNL A   1      36.605  32.020  32.694  1.00  0.00     0.261 C 
BRANCH  28  29
ATOM     29  O   UNL A   1      36.698  33.429  32.407  1.00  0.00    -0.460 OA
BRANCH  29  30
ATOM     30  C   UNL A   1      36.804  33.768  31.094  1.00  0.00     0.338 C 
ATOM     31  O   UNL A   1      35.888  33.995  30.331  1.00  0.00    -0.246 OA
BRANCH  30  32
ATOM     32  C   UNL A   1      38.222  34.053  30.745  1.00  0.00     0.060 A 
ATOM     33  C   UNL A   1      38.532  34.241  29.389  1.00  0.00     0.016 A 
ATOM     34  C   UNL A   1      39.228  34.150  31.710  1.00  0.00     0.016 A 
ATOM     35  C   UNL A   1      39.844  34.502  28.991  1.00  0.00     0.010 A 
ATOM     36  C   UNL A   1      40.555  34.368  31.303  1.00  0.00     0.010 A 
ATOM     37  C   UNL A   1      40.873  34.511  29.939  1.00  0.00    -0.014 A 
BRANCH  37  38
ATOM     38  C   UNL A   1      42.279  34.439  29.459  1.00  0.00     0.031 A 
ATOM     39  C   UNL A   1      42.972  35.728  29.097  1.00  0.00     0.074 A 
ATOM     40  C   UNL A   1      42.958  33.279  29.404  1.00  0.00     0.049 A 
ATOM     41  N   UNL A   1      44.208  35.931  28.721  1.00  0.00    -0.248 NA
ATOM     42  C   UNL A   1      42.160  36.955  29.176  1.00  0.00     0.031 C 
ATOM     43  C   UNL A   1      42.416  31.961  29.727  1.00  0.00     0.029 A 
ATOM     44  N   UNL A   1      44.260  33.027  29.039  1.00  0.00    -0.354 N 
ATOM     45  C   UNL A   1      44.321  37.302  28.516  1.00  0.00     0.074 A 
ATOM     46  C   UNL A   1      43.021  37.879  28.780  1.00  0.00     0.031 C 
ATOM     47  C   UNL A   1      43.369  31.034  29.516  1.00  0.00     0.029 A 
ATOM     48  C   UNL A   1      44.585  31.690  29.033  1.00  0.00     0.049 A 
ATOM     49  H   UNL A   1      44.901  33.737  28.803  1.00  0.00     0.167 HD
ATOM     50  C   UNL A   1      45.410  38.024  28.161  1.00  0.00     0.034 A 
ATOM     51  C   UNL A   1      45.725  31.068  28.667  1.00  0.00     0.034 A 
ATOM     52  C   UNL A   1      46.705  37.459  27.892  1.00  0.00     0.049 A 
ATOM     53  C   UNL A   1      46.917  31.893  28.244  1.00  0.00     0.074 A 
ATOM     54  C   UNL A   1      47.873  38.113  27.543  1.00  0.00     0.029 A 
ATOM     55  N   UNL A   1      47.001  36.106  27.924  1.00  0.00    -0.354 N 
ATOM     56  N   UNL A   1      47.038  33.197  28.166  1.00  0.00    -0.248 NA
ATOM     57  C   UNL A   1      48.144  31.159  27.897  1.00  0.00     0.031 C 
ATOM     58  C   UNL A   1      48.868  37.153  27.334  1.00  0.00     0.029 A 
ATOM     59  C   UNL A   1      48.331  35.903  27.594  1.00  0.00     0.049 A 
ATOM     60  H   UNL A   1      46.360  35.393  28.150  1.00  0.00     0.167 HD
ATOM     61  C   UNL A   1      48.359  33.437  27.794  1.00  0.00     0.074 A 
ATOM     62  C   UNL A   1      49.006  32.145  27.698  1.00  0.00     0.031 C 
ATOM     63  C   UNL A   1      48.978  34.618  27.539  1.00  0.00     0.034 A 
BRANCH  50  64
ATOM     64  C   UNL A   1      45.253  39.520  28.072  1.00  0.00     0.023 A 
ATOM     65  C   UNL A   1      45.422  40.308  29.229  1.00  0.00     0.012 A 
ATOM     66  C   UNL A   1      44.997  40.149  26.838  1.00  0.00     0.148 A 
ATOM     67  C   UNL A   1      45.310  41.696  29.166  1.00  0.00     0.002 A 
ATOM     68  C   UNL A   1      44.932  41.535  26.775  1.00  0.00     0.091 A 
ATOM     69  F   UNL A   1      44.817  39.380  25.754  1.00  0.00    -0.205 F 
ATOM     70  C   UNL A   1      45.077  42.309  27.938  1.00  0.00     0.022 A 
BRANCH  68  71
ATOM     71  S   UNL A   1      44.713  42.429  25.231  1.00  0.00     0.127 S 
ATOM     72  O   UNL A   1      44.567  43.804  25.706  1.00  0.00    -0.237 OA
ATOM     73  O   UNL A   1      45.971  42.153  24.539  1.00  0.00    -0.237 OA
ATOM     74  O   UNL A   1      43.530  41.862  24.600  1.00  0.00    -0.744 OA
ENDBRANCH  68  71
ENDBRANCH  50  64
BRANCH  51  75
ATOM     75  C   UNL A   1      45.810  29.578  28.691  1.00  0.00     0.023 A 
ATOM     76  C   UNL A   1      46.263  28.913  29.847  1.00  0.00     0.012 A 
ATOM     77  C   UNL A   1      45.465  28.819  27.556  1.00  0.00     0.148 A 
ATOM     78  C   UNL A   1      46.411  27.525  29.858  1.00  0.00     0.002 A 
ATOM     79  C   UNL A   1      45.555  27.433  27.593  1.00  0.00     0.091 A 
ATOM     80  F   UNL A   1      45.059  29.470  26.456  1.00  0.00    -0.205 F 
ATOM     81  C   UNL A   1      46.047  26.784  28.736  1.00  0.00     0.022 A 
BRANCH  79  82
ATOM     82  S   UNL A   1      44.990  26.396  26.240  1.00  0.00     0.127 S 
ATOM     83  O   UNL A   1      45.469  25.078  26.652  1.00  0.00    -0.237 OA
ATOM     84  O   UNL A   1      43.539  26.573  26.310  1.00  0.00    -0.237 OA
ATOM     85  O   UNL A   1      45.604  26.946  25.040  1.00  0.00    -0.744 OA
ENDBRANCH  79  82
ENDBRANCH  51  75
BRANCH  63  86
ATOM     86  C   UNL A   1      50.440  34.574  27.163  1.00  0.00     0.023 A 
ATOM     87  C   UNL A   1      51.427  34.581  28.168  1.00  0.00     0.012 A 
ATOM     88  C   UNL A   1      50.834  34.486  25.813  1.00  0.00     0.148 A 
ATOM     89  C   UNL A   1      52.782  34.561  27.835  1.00  0.00     0.002 A 
ATOM     90  C   UNL A   1      52.185  34.410  25.491  1.00  0.00     0.091 A 
ATOM     91  F   UNL A   1      49.886  34.492  24.865  1.00  0.00    -0.205 F 
ATOM     92  C   UNL A   1      53.161  34.466  26.499  1.00  0.00     0.022 A 
BRANCH  90  93
ATOM     93  S   UNL A   1      52.763  34.190  23.804  1.00  0.00     0.127 S 
ATOM     94  O   UNL A   1      54.178  33.883  24.011  1.00  0.00    -0.237 OA
ATOM     95  O   UNL A   1      51.956  33.060  23.343  1.00  0.00    -0.237 OA
ATOM     96  O   UNL A   1      52.488  35.446  23.119  1.00  0.00    -0.744 OA
ENDBRANCH  90  93
ENDBRANCH  63  86
ENDBRANCH  37  38
ENDBRANCH  30  32
ENDBRANCH  29  30
ENDBRANCH  28  29
ENDBRANCH  27  28
ENDBRANCH  26  27
ENDBRANCH  25  26
ENDBRANCH   1  25
TORSDOF 24
ENDMDL
