MODEL 1
REMARK VINA RESULT:     -10.4      0.000      0.000
REMARK SMILES Cc1cc2[nH]c(=O)[nH]c2cc1S(=O)(=O)NCCC(=O)OCCOCCOCCOC(=O)c1ccc(-c2c3nc(c(-c4cccc(S(=O)(=O)[O-])c4F)c4ccc([nH]4)c(-c4cccc(S(=O)(=O)[O-])c4F)c4nc(c(-c5cccc(S(=O)(=O)[O-])c5F)c5ccc2[nH]5)C=C4)C=C3)cc1
REMARK SMILES IDX 24 1 23 2 22 3 21 4 20 5 18 6 19 7 17 8 16 9 15 10 12 12
REMARK SMILES IDX 13 13 14 14 11 15 1 16 2 17 3 18 4 19 10 20 5 21 9 22 6 23
REMARK SMILES IDX 8 25 7 26 25 28 26 29 27 30 28 31 29 32 30 33 31 34 32 35
REMARK SMILES IDX 33 36 94 37 34 38 93 39 35 40 36 41 37 42 87 43 38 44 92 45
REMARK SMILES IDX 86 46 88 47 39 48 91 49 85 50 84 51 40 53 72 54 52 55 71 56
REMARK SMILES IDX 53 57 56 58 70 59 89 60 54 61 55 62 69 64 90 65 57 66 41 67
REMARK SMILES IDX 42 68 50 69 43 70 45 71 51 72 44 73 46 74 47 75 48 76 49 77
REMARK SMILES IDX 73 78 74 79 82 80 75 81 77 82 83 83 76 84 78 85 79 86 80 87
REMARK SMILES IDX 81 88 58 89 59 90 67 91 60 92 62 93 68 94 61 95 63 96 64 97
REMARK SMILES IDX 65 98 66 99
REMARK H PARENT 15 11 5 24 8 27 88 52 56 63
REMARK Flexibility Score: inf
ROOT
ATOM      1  C   UNL A   1      40.676  21.717  27.138  1.00  0.00     0.188 C 
ENDROOT
BRANCH   1   2
ATOM      2  O   UNL A   1      40.270  22.933  26.530  1.00  0.00    -0.376 OA
BRANCH   2   3
ATOM      3  C   UNL A   1      38.887  23.250  26.516  1.00  0.00     0.202 C 
BRANCH   3   4
ATOM      4  C   UNL A   1      37.992  22.314  25.708  1.00  0.00     0.261 C 
BRANCH   4   5
ATOM      5  O   UNL A   1      36.615  22.703  25.834  1.00  0.00    -0.463 OA
BRANCH   5   6
ATOM      6  C   UNL A   1      36.188  23.538  24.871  1.00  0.00     0.307 C 
ATOM      7  O   UNL A   1      36.388  23.368  23.670  1.00  0.00    -0.252 OA
BRANCH   6   8
ATOM      8  C   UNL A   1      35.250  24.605  25.333  1.00  0.00     0.139 C 
BRANCH   8   9
ATOM      9  C   UNL A   1      33.871  25.008  24.881  1.00  0.00     0.110 C 
BRANCH   9  10
ATOM     10  N   UNL A   1      32.831  25.027  25.874  1.00  0.00    -0.211 NA
ATOM     11  H   UNL A   1      33.301  24.965  26.777  1.00  0.00     0.141 HD
BRANCH  10  12
ATOM     12  S   UNL A   1      31.612  23.910  25.915  1.00  0.00     0.240 S 
ATOM     13  O   UNL A   1      30.757  24.230  24.780  1.00  0.00    -0.207 OA
ATOM     14  O   UNL A   1      31.100  23.915  27.256  1.00  0.00    -0.207 OA
BRANCH  12  15
ATOM     15  C   UNL A   1      32.348  22.311  25.618  1.00  0.00     0.087 A 
ATOM     16  C   UNL A   1      33.729  22.197  27.822  1.00  0.00     0.046 C 
ATOM     17  C   UNL A   1      33.264  21.655  26.500  1.00  0.00    -0.029 A 
ATOM     18  C   UNL A   1      33.804  20.401  26.116  1.00  0.00     0.033 A 
ATOM     19  C   UNL A   1      33.348  19.826  24.952  1.00  0.00     0.067 A 
ATOM     20  C   UNL A   1      31.941  21.712  24.412  1.00  0.00     0.050 A 
ATOM     21  N   UNL A   1      33.626  18.587  24.390  1.00  0.00    -0.306 N 
ATOM     22  C   UNL A   1      32.432  20.466  24.130  1.00  0.00     0.068 A 
ATOM     23  C   UNL A   1      32.846  18.426  23.234  1.00  0.00     0.323 A 
ATOM     24  H   UNL A   1      34.265  17.928  24.745  1.00  0.00     0.171 HD
ATOM     25  N   UNL A   1      32.131  19.623  23.072  1.00  0.00    -0.306 N 
ATOM     26  O   UNL A   1      32.712  17.428  22.548  1.00  0.00    -0.248 OA
ATOM     27  H   UNL A   1      31.517  19.830  22.330  1.00  0.00     0.171 HD
ENDBRANCH  12  15
ENDBRANCH  10  12
ENDBRANCH   9  10
ENDBRANCH   8   9
ENDBRANCH   6   8
ENDBRANCH   5   6
ENDBRANCH   4   5
ENDBRANCH   3   4
ENDBRANCH   2   3
ENDBRANCH   1   2
BRANCH   1  28
ATOM     28  C   UNL A   1      41.340  20.627  26.270  1.00  0.00     0.188 C 
BRANCH  28  29
ATOM     29  O   UNL A   1      42.404  19.833  26.759  1.00  0.00    -0.376 OA
BRANCH  29  30
ATOM     30  C   UNL A   1      42.793  18.715  25.982  1.00  0.00     0.202 C 
BRANCH  30  31
ATOM     31  C   UNL A   1      44.103  18.854  25.189  1.00  0.00     0.261 C 
BRANCH  31  32
ATOM     32  O   UNL A   1      44.793  20.080  25.496  1.00  0.00    -0.460 OA
BRANCH  32  33
ATOM     33  C   UNL A   1      44.762  21.054  24.543  1.00  0.00     0.338 C 
ATOM     34  O   UNL A   1      44.689  20.882  23.340  1.00  0.00    -0.246 OA
BRANCH  33  35
ATOM     35  C   UNL A   1      44.509  22.356  25.225  1.00  0.00     0.060 A 
ATOM     36  C   UNL A   1      45.074  22.668  26.462  1.00  0.00     0.016 A 
ATOM     37  C   UNL A   1      43.527  23.201  24.682  1.00  0.00     0.016 A 
ATOM     38  C   UNL A   1      44.604  23.779  27.175  1.00  0.00     0.010 A 
ATOM     39  C   UNL A   1      43.068  24.321  25.396  1.00  0.00     0.010 A 
ATOM     40  C   UNL A   1      43.587  24.613  26.661  1.00  0.00    -0.014 A 
BRANCH  40  41
ATOM     41  C   UNL A   1      43.423  25.962  27.259  1.00  0.00     0.031 A 
ATOM     42  C   UNL A   1      44.608  26.797  26.978  1.00  0.00     0.074 A 
ATOM     43  C   UNL A   1      42.420  26.587  27.922  1.00  0.00     0.049 A 
ATOM     44  N   UNL A   1      45.533  27.077  27.835  1.00  0.00    -0.248 NA
ATOM     45  C   UNL A   1      44.879  27.222  25.602  1.00  0.00     0.031 C 
ATOM     46  C   UNL A   1      41.135  26.057  28.316  1.00  0.00     0.029 A 
ATOM     47  N   UNL A   1      42.306  27.886  28.364  1.00  0.00    -0.354 N 
ATOM     48  C   UNL A   1      46.339  27.985  27.176  1.00  0.00     0.074 A 
ATOM     49  C   UNL A   1      46.031  27.874  25.769  1.00  0.00     0.031 C 
ATOM     50  C   UNL A   1      40.251  27.023  28.629  1.00  0.00     0.029 A 
ATOM     51  C   UNL A   1      41.005  28.254  28.710  1.00  0.00     0.049 A 
ATOM     52  H   UNL A   1      43.072  28.500  28.430  1.00  0.00     0.167 HD
ATOM     53  C   UNL A   1      46.908  29.006  27.862  1.00  0.00     0.034 A 
ATOM     54  C   UNL A   1      40.540  29.392  29.266  1.00  0.00     0.034 A 
ATOM     55  C   UNL A   1      46.870  28.833  29.287  1.00  0.00     0.049 A 
ATOM     56  C   UNL A   1      41.619  29.940  30.103  1.00  0.00     0.074 A 
ATOM     57  C   UNL A   1      47.554  28.134  30.256  1.00  0.00     0.029 A 
ATOM     58  N   UNL A   1      45.718  29.291  29.858  1.00  0.00    -0.354 N 
ATOM     59  N   UNL A   1      42.020  29.404  31.225  1.00  0.00    -0.248 NA
ATOM     60  C   UNL A   1      42.428  31.034  29.586  1.00  0.00     0.031 C 
ATOM     61  C   UNL A   1      46.741  28.154  31.430  1.00  0.00     0.029 A 
ATOM     62  C   UNL A   1      45.580  28.863  31.149  1.00  0.00     0.049 A 
ATOM     63  H   UNL A   1      45.063  29.863  29.395  1.00  0.00     0.167 HD
ATOM     64  C   UNL A   1      43.332  29.816  31.326  1.00  0.00     0.074 A 
ATOM     65  C   UNL A   1      43.471  30.939  30.409  1.00  0.00     0.031 C 
ATOM     66  C   UNL A   1      44.296  28.985  31.803  1.00  0.00     0.034 A 
BRANCH  53  67
ATOM     67  C   UNL A   1      47.035  30.379  27.268  1.00  0.00     0.023 A 
ATOM     68  C   UNL A   1      48.292  31.007  27.292  1.00  0.00     0.012 A 
ATOM     69  C   UNL A   1      45.914  31.168  26.927  1.00  0.00     0.148 A 
ATOM     70  C   UNL A   1      48.429  32.353  26.940  1.00  0.00     0.002 A 
ATOM     71  C   UNL A   1      46.069  32.469  26.475  1.00  0.00     0.091 A 
ATOM     72  F   UNL A   1      44.679  30.710  27.175  1.00  0.00    -0.205 F 
ATOM     73  C   UNL A   1      47.324  33.076  26.498  1.00  0.00     0.022 A 
BRANCH  71  74
ATOM     74  S   UNL A   1      44.675  33.385  25.818  1.00  0.00     0.127 S 
ATOM     75  O   UNL A   1      45.326  34.245  24.836  1.00  0.00    -0.237 OA
ATOM     76  O   UNL A   1      43.847  32.314  25.262  1.00  0.00    -0.237 OA
ATOM     77  O   UNL A   1      44.086  34.048  26.976  1.00  0.00    -0.744 OA
ENDBRANCH  71  74
ENDBRANCH  53  67
BRANCH  54  78
ATOM     78  C   UNL A   1      39.223  30.062  29.152  1.00  0.00     0.023 A 
ATOM     79  C   UNL A   1      38.338  29.651  28.131  1.00  0.00     0.012 A 
ATOM     80  C   UNL A   1      38.703  30.830  30.217  1.00  0.00     0.148 A 
ATOM     81  C   UNL A   1      36.966  29.898  28.222  1.00  0.00     0.002 A 
ATOM     82  C   UNL A   1      37.334  31.063  30.307  1.00  0.00     0.091 A 
ATOM     83  F   UNL A   1      39.533  31.244  31.185  1.00  0.00    -0.205 F 
ATOM     84  C   UNL A   1      36.460  30.582  29.321  1.00  0.00     0.022 A 
BRANCH  82  85
ATOM     85  S   UNL A   1      36.600  31.889  31.726  1.00  0.00     0.127 S 
ATOM     86  O   UNL A   1      37.055  31.052  32.835  1.00  0.00    -0.237 OA
ATOM     87  O   UNL A   1      37.222  33.208  31.662  1.00  0.00    -0.237 OA
ATOM     88  O   UNL A   1      35.161  31.863  31.492  1.00  0.00    -0.744 OA
ENDBRANCH  82  85
ENDBRANCH  54  78
BRANCH  66  89
ATOM     89  C   UNL A   1      43.960  28.043  32.909  1.00  0.00     0.023 A 
ATOM     90  C   UNL A   1      43.739  26.668  32.719  1.00  0.00     0.012 A 
ATOM     91  C   UNL A   1      43.992  28.564  34.215  1.00  0.00     0.148 A 
ATOM     92  C   UNL A   1      43.563  25.825  33.822  1.00  0.00     0.002 A 
ATOM     93  C   UNL A   1      43.854  27.721  35.308  1.00  0.00     0.091 A 
ATOM     94  F   UNL A   1      44.189  29.884  34.361  1.00  0.00    -0.205 F 
ATOM     95  C   UNL A   1      43.634  26.349  35.116  1.00  0.00     0.022 A 
BRANCH  93  96
ATOM     96  S   UNL A   1      44.041  28.317  36.990  1.00  0.00     0.127 S 
ATOM     97  O   UNL A   1      45.431  28.769  37.005  1.00  0.00    -0.237 OA
ATOM     98  O   UNL A   1      43.047  29.389  37.049  1.00  0.00    -0.237 OA
ATOM     99  O   UNL A   1      43.751  27.182  37.859  1.00  0.00    -0.744 OA
ENDBRANCH  93  96
ENDBRANCH  66  89
ENDBRANCH  40  41
ENDBRANCH  33  35
ENDBRANCH  32  33
ENDBRANCH  31  32
ENDBRANCH  30  31
ENDBRANCH  29  30
ENDBRANCH  28  29
ENDBRANCH   1  28
TORSDOF 24
ENDMDL
MODEL 2
REMARK VINA RESULT:      -9.7      2.521      4.158
REMARK SMILES Cc1cc2[nH]c(=O)[nH]c2cc1S(=O)(=O)NCCC(=O)OCCOCCOCCOC(=O)c1ccc(-c2c3nc(c(-c4cccc(S(=O)(=O)[O-])c4F)c4ccc([nH]4)c(-c4cccc(S(=O)(=O)[O-])c4F)c4nc(c(-c5cccc(S(=O)(=O)[O-])c5F)c5ccc2[nH]5)C=C4)C=C3)cc1
REMARK SMILES IDX 24 1 23 2 22 3 21 4 20 5 18 6 19 7 17 8 16 9 15 10 12 12
REMARK SMILES IDX 13 13 14 14 11 15 1 16 2 17 3 18 4 19 10 20 5 21 9 22 6 23
REMARK SMILES IDX 8 25 7 26 25 28 26 29 27 30 28 31 29 32 30 33 31 34 32 35
REMARK SMILES IDX 33 36 94 37 34 38 93 39 35 40 36 41 37 42 87 43 38 44 92 45
REMARK SMILES IDX 86 46 88 47 39 48 91 49 85 50 84 51 40 53 72 54 52 55 71 56
REMARK SMILES IDX 53 57 56 58 70 59 89 60 54 61 55 62 69 64 90 65 57 66 41 67
REMARK SMILES IDX 42 68 50 69 43 70 45 71 51 72 44 73 46 74 47 75 48 76 49 77
REMARK SMILES IDX 73 78 74 79 82 80 75 81 77 82 83 83 76 84 78 85 79 86 80 87
REMARK SMILES IDX 81 88 58 89 59 90 67 91 60 92 62 93 68 94 61 95 63 96 64 97
REMARK SMILES IDX 65 98 66 99
REMARK H PARENT 15 11 5 24 8 27 88 52 56 63
REMARK Flexibility Score: inf
ROOT
ATOM      1  C   UNL A   1      39.683  22.981  26.964  1.00  0.00     0.188 C 
ENDROOT
BRANCH   1   2
ATOM      2  O   UNL A   1      39.113  21.796  26.428  1.00  0.00    -0.376 OA
BRANCH   2   3
ATOM      3  C   UNL A   1      38.052  21.922  25.495  1.00  0.00     0.202 C 
BRANCH   3   4
ATOM      4  C   UNL A   1      37.528  23.336  25.260  1.00  0.00     0.261 C 
BRANCH   4   5
ATOM      5  O   UNL A   1      36.173  23.453  25.722  1.00  0.00    -0.463 OA
BRANCH   5   6
ATOM      6  C   UNL A   1      35.323  22.575  25.163  1.00  0.00     0.307 C 
ATOM      7  O   UNL A   1      34.599  21.812  25.800  1.00  0.00    -0.252 OA
BRANCH   6   8
ATOM      8  C   UNL A   1      35.143  22.723  23.688  1.00  0.00     0.139 C 
BRANCH   8   9
ATOM      9  C   UNL A   1      34.200  23.556  22.860  1.00  0.00     0.110 C 
BRANCH   9  10
ATOM     10  N   UNL A   1      33.975  24.913  23.281  1.00  0.00    -0.211 NA
ATOM     11  H   UNL A   1      34.157  24.931  24.284  1.00  0.00     0.141 HD
BRANCH  10  12
ATOM     12  S   UNL A   1      32.531  25.690  23.064  1.00  0.00     0.240 S 
ATOM     13  O   UNL A   1      31.513  24.656  23.196  1.00  0.00    -0.207 OA
ATOM     14  O   UNL A   1      32.659  26.458  21.859  1.00  0.00    -0.207 OA
BRANCH  12  15
ATOM     15  C   UNL A   1      32.335  26.833  24.421  1.00  0.00     0.087 A 
ATOM     16  C   UNL A   1      33.166  25.227  26.294  1.00  0.00     0.046 C 
ATOM     17  C   UNL A   1      32.627  26.536  25.790  1.00  0.00    -0.029 A 
ATOM     18  C   UNL A   1      32.385  27.530  26.773  1.00  0.00     0.033 A 
ATOM     19  C   UNL A   1      31.966  28.771  26.352  1.00  0.00     0.067 A 
ATOM     20  C   UNL A   1      31.863  28.101  24.035  1.00  0.00     0.050 A 
ATOM     21  N   UNL A   1      31.745  29.939  27.070  1.00  0.00    -0.306 N 
ATOM     22  C   UNL A   1      31.723  29.046  25.014  1.00  0.00     0.068 A 
ATOM     23  C   UNL A   1      31.407  30.967  26.176  1.00  0.00     0.323 A 
ATOM     24  H   UNL A   1      31.815  30.031  28.048  1.00  0.00     0.171 HD
ATOM     25  N   UNL A   1      31.368  30.381  24.900  1.00  0.00    -0.306 N 
ATOM     26  O   UNL A   1      31.273  32.155  26.409  1.00  0.00    -0.248 OA
ATOM     27  H   UNL A   1      31.129  30.842  24.064  1.00  0.00     0.171 HD
ENDBRANCH  12  15
ENDBRANCH  10  12
ENDBRANCH   9  10
ENDBRANCH   8   9
ENDBRANCH   6   8
ENDBRANCH   5   6
ENDBRANCH   4   5
ENDBRANCH   3   4
ENDBRANCH   2   3
ENDBRANCH   1   2
BRANCH   1  28
ATOM     28  C   UNL A   1      40.970  22.880  27.810  1.00  0.00     0.188 C 
BRANCH  28  29
ATOM     29  O   UNL A   1      41.903  21.832  27.622  1.00  0.00    -0.376 OA
BRANCH  29  30
ATOM     30  C   UNL A   1      41.959  21.232  26.342  1.00  0.00     0.202 C 
BRANCH  30  31
ATOM     31  C   UNL A   1      43.290  21.360  25.582  1.00  0.00     0.261 C 
BRANCH  31  32
ATOM     32  O   UNL A   1      43.239  22.387  24.574  1.00  0.00    -0.460 OA
BRANCH  32  33
ATOM     33  C   UNL A   1      44.244  23.306  24.588  1.00  0.00     0.338 C 
ATOM     34  O   UNL A   1      45.201  23.340  23.835  1.00  0.00    -0.246 OA
BRANCH  33  35
ATOM     35  C   UNL A   1      43.818  24.440  25.458  1.00  0.00     0.060 A 
ATOM     36  C   UNL A   1      44.401  24.680  26.702  1.00  0.00     0.016 A 
ATOM     37  C   UNL A   1      42.672  25.162  25.082  1.00  0.00     0.016 A 
ATOM     38  C   UNL A   1      43.797  25.586  27.585  1.00  0.00     0.010 A 
ATOM     39  C   UNL A   1      42.077  26.077  25.967  1.00  0.00     0.010 A 
ATOM     40  C   UNL A   1      42.621  26.286  27.238  1.00  0.00    -0.014 A 
BRANCH  40  41
ATOM     41  C   UNL A   1      42.269  27.492  28.028  1.00  0.00     0.031 A 
ATOM     42  C   UNL A   1      43.254  28.566  27.793  1.00  0.00     0.074 A 
ATOM     43  C   UNL A   1      41.232  27.826  28.834  1.00  0.00     0.049 A 
ATOM     44  N   UNL A   1      44.185  28.909  28.621  1.00  0.00    -0.248 NA
ATOM     45  C   UNL A   1      43.322  29.205  26.476  1.00  0.00     0.031 C 
ATOM     46  C   UNL A   1      40.103  27.014  29.230  1.00  0.00     0.029 A 
ATOM     47  N   UNL A   1      40.924  29.012  29.460  1.00  0.00    -0.354 N 
ATOM     48  C   UNL A   1      44.752  30.029  28.046  1.00  0.00     0.074 A 
ATOM     49  C   UNL A   1      44.347  30.039  26.660  1.00  0.00     0.031 C 
ATOM     50  C   UNL A   1      39.090  27.746  29.730  1.00  0.00     0.029 A 
ATOM     51  C   UNL A   1      39.613  29.078  29.935  1.00  0.00     0.049 A 
ATOM     52  H   UNL A   1      41.569  29.748  29.564  1.00  0.00     0.167 HD
ATOM     53  C   UNL A   1      45.185  31.045  28.832  1.00  0.00     0.034 A 
ATOM     54  C   UNL A   1      39.001  30.027  30.673  1.00  0.00     0.034 A 
ATOM     55  C   UNL A   1      45.304  30.690  30.218  1.00  0.00     0.049 A 
ATOM     56  C   UNL A   1      40.032  30.661  31.510  1.00  0.00     0.074 A 
ATOM     57  C   UNL A   1      46.186  30.018  31.034  1.00  0.00     0.029 A 
ATOM     58  N   UNL A   1      44.143  30.844  30.919  1.00  0.00    -0.354 N 
ATOM     59  N   UNL A   1      40.621  30.075  32.517  1.00  0.00    -0.248 NA
ATOM     60  C   UNL A   1      40.582  31.946  31.101  1.00  0.00     0.031 C 
ATOM     61  C   UNL A   1      45.489  29.735  32.248  1.00  0.00     0.029 A 
ATOM     62  C   UNL A   1      44.199  30.238  32.144  1.00  0.00     0.049 A 
ATOM     63  H   UNL A   1      43.358  31.334  30.583  1.00  0.00     0.167 HD
ATOM     64  C   UNL A   1      41.840  30.714  32.593  1.00  0.00     0.074 A 
ATOM     65  C   UNL A   1      41.693  31.949  31.836  1.00  0.00     0.031 C 
ATOM     66  C   UNL A   1      42.977  30.029  32.887  1.00  0.00     0.034 A 
BRANCH  53  67
ATOM     67  C   UNL A   1      45.009  32.481  28.430  1.00  0.00     0.023 A 
ATOM     68  C   UNL A   1      43.762  33.090  28.648  1.00  0.00     0.012 A 
ATOM     69  C   UNL A   1      45.939  33.164  27.615  1.00  0.00     0.148 A 
ATOM     70  C   UNL A   1      43.475  34.351  28.117  1.00  0.00     0.002 A 
ATOM     71  C   UNL A   1      45.692  34.457  27.182  1.00  0.00     0.091 A 
ATOM     72  F   UNL A   1      47.006  32.511  27.134  1.00  0.00    -0.205 F 
ATOM     73  C   UNL A   1      44.452  35.051  27.412  1.00  0.00     0.022 A 
BRANCH  71  74
ATOM     74  S   UNL A   1      46.968  35.406  26.353  1.00  0.00     0.127 S 
ATOM     75  O   UNL A   1      46.271  36.659  26.081  1.00  0.00    -0.237 OA
ATOM     76  O   UNL A   1      48.006  35.478  27.382  1.00  0.00    -0.237 OA
ATOM     77  O   UNL A   1      47.337  34.602  25.194  1.00  0.00    -0.744 OA
ENDBRANCH  71  74
ENDBRANCH  53  67
BRANCH  54  78
ATOM     78  C   UNL A   1      37.580  30.442  30.738  1.00  0.00     0.023 A 
ATOM     79  C   UNL A   1      37.032  30.795  31.991  1.00  0.00     0.012 A 
ATOM     80  C   UNL A   1      36.878  30.819  29.573  1.00  0.00     0.148 A 
ATOM     81  C   UNL A   1      35.888  31.593  32.080  1.00  0.00     0.002 A 
ATOM     82  C   UNL A   1      35.745  31.622  29.668  1.00  0.00     0.091 A 
ATOM     83  F   UNL A   1      37.374  30.475  28.376  1.00  0.00    -0.205 F 
ATOM     84  C   UNL A   1      35.259  32.027  30.920  1.00  0.00     0.022 A 
BRANCH  82  85
ATOM     85  S   UNL A   1      34.912  32.269  28.212  1.00  0.00     0.127 S 
ATOM     86  O   UNL A   1      35.969  33.058  27.580  1.00  0.00    -0.237 OA
ATOM     87  O   UNL A   1      34.555  31.046  27.499  1.00  0.00    -0.237 OA
ATOM     88  O   UNL A   1      33.788  33.049  28.719  1.00  0.00    -0.744 OA
ENDBRANCH  82  85
ENDBRANCH  54  78
BRANCH  66  89
ATOM     89  C   UNL A   1      42.916  28.908  33.869  1.00  0.00     0.023 A 
ATOM     90  C   UNL A   1      42.374  27.645  33.575  1.00  0.00     0.012 A 
ATOM     91  C   UNL A   1      43.549  29.118  35.108  1.00  0.00     0.148 A 
ATOM     92  C   UNL A   1      42.476  26.603  34.503  1.00  0.00     0.002 A 
ATOM     93  C   UNL A   1      43.681  28.074  36.011  1.00  0.00     0.091 A 
ATOM     94  F   UNL A   1      44.040  30.340  35.364  1.00  0.00    -0.205 F 
ATOM     95  C   UNL A   1      43.140  26.813  35.714  1.00  0.00     0.022 A 
BRANCH  93  96
ATOM     96  S   UNL A   1      44.613  28.253  37.533  1.00  0.00     0.127 S 
ATOM     97  O   UNL A   1      44.173  27.093  38.304  1.00  0.00    -0.237 OA
ATOM     98  O   UNL A   1      45.996  28.185  37.057  1.00  0.00    -0.237 OA
ATOM     99  O   UNL A   1      44.236  29.546  38.092  1.00  0.00    -0.744 OA
ENDBRANCH  93  96
ENDBRANCH  66  89
ENDBRANCH  40  41
ENDBRANCH  33  35
ENDBRANCH  32  33
ENDBRANCH  31  32
ENDBRANCH  30  31
ENDBRANCH  29  30
ENDBRANCH  28  29
ENDBRANCH   1  28
TORSDOF 24
ENDMDL
MODEL 3
REMARK VINA RESULT:      -9.4      2.824      4.675
REMARK SMILES Cc1cc2[nH]c(=O)[nH]c2cc1S(=O)(=O)NCCC(=O)OCCOCCOCCOC(=O)c1ccc(-c2c3nc(c(-c4cccc(S(=O)(=O)[O-])c4F)c4ccc([nH]4)c(-c4cccc(S(=O)(=O)[O-])c4F)c4nc(c(-c5cccc(S(=O)(=O)[O-])c5F)c5ccc2[nH]5)C=C4)C=C3)cc1
REMARK SMILES IDX 24 1 23 2 22 3 21 4 20 5 18 6 19 7 17 8 16 9 15 10 12 12
REMARK SMILES IDX 13 13 14 14 11 15 1 16 2 17 3 18 4 19 10 20 5 21 9 22 6 23
REMARK SMILES IDX 8 25 7 26 25 28 26 29 27 30 28 31 29 32 30 33 31 34 32 35
REMARK SMILES IDX 33 36 94 37 34 38 93 39 35 40 36 41 37 42 87 43 38 44 92 45
REMARK SMILES IDX 86 46 88 47 39 48 91 49 85 50 84 51 40 53 72 54 52 55 71 56
REMARK SMILES IDX 53 57 56 58 70 59 89 60 54 61 55 62 69 64 90 65 57 66 41 67
REMARK SMILES IDX 42 68 50 69 43 70 45 71 51 72 44 73 46 74 47 75 48 76 49 77
REMARK SMILES IDX 73 78 74 79 82 80 75 81 77 82 83 83 76 84 78 85 79 86 80 87
REMARK SMILES IDX 81 88 58 89 59 90 67 91 60 92 62 93 68 94 61 95 63 96 64 97
REMARK SMILES IDX 65 98 66 99
REMARK H PARENT 15 11 5 24 8 27 88 52 56 63
REMARK Flexibility Score: inf
ROOT
ATOM      1  C   UNL A   1      39.790  22.015  26.192  1.00  0.00     0.188 C 
ENDROOT
BRANCH   1   2
ATOM      2  O   UNL A   1      38.596  21.505  25.619  1.00  0.00    -0.376 OA
BRANCH   2   3
ATOM      3  C   UNL A   1      37.447  22.336  25.605  1.00  0.00     0.202 C 
BRANCH   3   4
ATOM      4  C   UNL A   1      36.110  21.637  25.838  1.00  0.00     0.261 C 
BRANCH   4   5
ATOM      5  O   UNL A   1      35.585  21.132  24.601  1.00  0.00    -0.463 OA
BRANCH   5   6
ATOM      6  C   UNL A   1      34.497  20.353  24.741  1.00  0.00     0.307 C 
ATOM      7  O   UNL A   1      34.529  19.126  24.801  1.00  0.00    -0.252 OA
BRANCH   6   8
ATOM      8  C   UNL A   1      33.232  21.088  25.039  1.00  0.00     0.139 C 
BRANCH   8   9
ATOM      9  C   UNL A   1      32.285  21.871  24.169  1.00  0.00     0.110 C 
BRANCH   9  10
ATOM     10  N   UNL A   1      32.533  23.281  24.027  1.00  0.00    -0.211 NA
ATOM     11  H   UNL A   1      33.352  23.483  24.600  1.00  0.00     0.141 HD
BRANCH  10  12
ATOM     12  S   UNL A   1      31.408  24.431  24.416  1.00  0.00     0.240 S 
ATOM     13  O   UNL A   1      30.879  24.030  25.713  1.00  0.00    -0.207 OA
ATOM     14  O   UNL A   1      30.552  24.566  23.273  1.00  0.00    -0.207 OA
BRANCH  12  15
ATOM     15  C   UNL A   1      32.280  25.974  24.631  1.00  0.00     0.087 A 
ATOM     16  C   UNL A   1      33.395  26.024  22.279  1.00  0.00     0.046 C 
ATOM     17  C   UNL A   1      33.128  26.579  23.649  1.00  0.00    -0.029 A 
ATOM     18  C   UNL A   1      33.792  27.790  23.971  1.00  0.00     0.033 A 
ATOM     19  C   UNL A   1      33.518  28.378  25.185  1.00  0.00     0.067 A 
ATOM     20  C   UNL A   1      32.061  26.584  25.880  1.00  0.00     0.050 A 
ATOM     21  N   UNL A   1      33.943  29.589  25.715  1.00  0.00    -0.306 N 
ATOM     22  C   UNL A   1      32.665  27.790  26.106  1.00  0.00     0.068 A 
ATOM     23  C   UNL A   1      33.319  29.787  26.957  1.00  0.00     0.323 A 
ATOM     24  H   UNL A   1      34.579  30.209  25.290  1.00  0.00     0.171 HD
ATOM     25  N   UNL A   1      32.549  28.638  27.197  1.00  0.00    -0.306 N 
ATOM     26  O   UNL A   1      33.335  30.783  27.658  1.00  0.00    -0.248 OA
ATOM     27  H   UNL A   1      32.015  28.463  28.006  1.00  0.00     0.171 HD
ENDBRANCH  12  15
ENDBRANCH  10  12
ENDBRANCH   9  10
ENDBRANCH   8   9
ENDBRANCH   6   8
ENDBRANCH   5   6
ENDBRANCH   4   5
ENDBRANCH   3   4
ENDBRANCH   2   3
ENDBRANCH   1   2
BRANCH   1  28
ATOM     28  C   UNL A   1      40.952  21.046  26.498  1.00  0.00     0.188 C 
BRANCH  28  29
ATOM     29  O   UNL A   1      42.275  21.510  26.694  1.00  0.00    -0.376 OA
BRANCH  29  30
ATOM     30  C   UNL A   1      43.157  21.445  25.590  1.00  0.00     0.202 C 
BRANCH  30  31
ATOM     31  C   UNL A   1      43.545  22.784  24.942  1.00  0.00     0.261 C 
BRANCH  31  32
ATOM     32  O   UNL A   1      43.410  23.887  25.859  1.00  0.00    -0.460 OA
BRANCH  32  33
ATOM     33  C   UNL A   1      44.530  24.625  26.094  1.00  0.00     0.338 C 
ATOM     34  O   UNL A   1      45.635  24.429  25.621  1.00  0.00    -0.246 OA
BRANCH  33  35
ATOM     35  C   UNL A   1      44.114  25.890  26.765  1.00  0.00     0.060 A 
ATOM     36  C   UNL A   1      44.715  26.339  27.942  1.00  0.00     0.016 A 
ATOM     37  C   UNL A   1      42.961  26.537  26.289  1.00  0.00     0.016 A 
ATOM     38  C   UNL A   1      44.121  27.381  28.667  1.00  0.00     0.010 A 
ATOM     39  C   UNL A   1      42.376  27.589  27.014  1.00  0.00     0.010 A 
ATOM     40  C   UNL A   1      42.939  28.012  28.223  1.00  0.00    -0.014 A 
BRANCH  40  41
ATOM     41  C   UNL A   1      42.595  29.335  28.802  1.00  0.00     0.031 A 
ATOM     42  C   UNL A   1      43.643  30.324  28.482  1.00  0.00     0.074 A 
ATOM     43  C   UNL A   1      41.526  29.824  29.476  1.00  0.00     0.049 A 
ATOM     44  N   UNL A   1      44.535  30.750  29.314  1.00  0.00    -0.248 NA
ATOM     45  C   UNL A   1      43.826  30.756  27.093  1.00  0.00     0.031 C 
ATOM     46  C   UNL A   1      40.337  29.124  29.905  1.00  0.00     0.029 A 
ATOM     47  N   UNL A   1      41.236  31.102  29.898  1.00  0.00    -0.354 N 
ATOM     48  C   UNL A   1      45.191  31.750  28.623  1.00  0.00     0.074 A 
ATOM     49  C   UNL A   1      44.876  31.569  27.225  1.00  0.00     0.031 C 
ATOM     50  C   UNL A   1      39.331  29.961  30.221  1.00  0.00     0.029 A 
ATOM     51  C   UNL A   1      39.903  31.288  30.265  1.00  0.00     0.049 A 
ATOM     52  H   UNL A   1      41.908  31.820  29.938  1.00  0.00     0.167 HD
ATOM     53  C   UNL A   1      45.621  32.855  29.280  1.00  0.00     0.034 A 
ATOM     54  C   UNL A   1      39.291  32.359  30.812  1.00  0.00     0.034 A 
ATOM     55  C   UNL A   1      45.635  32.706  30.708  1.00  0.00     0.049 A 
ATOM     56  C   UNL A   1      40.295  33.071  31.617  1.00  0.00     0.074 A 
ATOM     57  C   UNL A   1      46.429  32.131  31.673  1.00  0.00     0.029 A 
ATOM     58  N   UNL A   1      44.440  33.007  31.295  1.00  0.00    -0.354 N 
ATOM     59  N   UNL A   1      40.790  32.619  32.738  1.00  0.00    -0.248 NA
ATOM     60  C   UNL A   1      40.931  34.259  31.064  1.00  0.00     0.031 C 
ATOM     61  C   UNL A   1      45.644  32.058  32.864  1.00  0.00     0.029 A 
ATOM     62  C   UNL A   1      44.388  32.589  32.596  1.00  0.00     0.049 A 
ATOM     63  H   UNL A   1      43.702  33.471  30.837  1.00  0.00     0.167 HD
ATOM     64  C   UNL A   1      42.031  33.216  32.805  1.00  0.00     0.074 A 
ATOM     65  C   UNL A   1      41.992  34.329  31.867  1.00  0.00     0.031 C 
ATOM     66  C   UNL A   1      43.113  32.540  33.275  1.00  0.00     0.034 A 
BRANCH  53  67
ATOM     67  C   UNL A   1      45.540  34.220  28.661  1.00  0.00     0.023 A 
ATOM     68  C   UNL A   1      46.681  35.039  28.690  1.00  0.00     0.012 A 
ATOM     69  C   UNL A   1      44.315  34.816  28.287  1.00  0.00     0.148 A 
ATOM     70  C   UNL A   1      46.611  36.384  28.313  1.00  0.00     0.002 A 
ATOM     71  C   UNL A   1      44.270  36.117  27.812  1.00  0.00     0.091 A 
ATOM     72  F   UNL A   1      43.164  34.172  28.526  1.00  0.00    -0.205 F 
ATOM     73  C   UNL A   1      45.413  36.915  27.841  1.00  0.00     0.022 A 
BRANCH  71  74
ATOM     74  S   UNL A   1      42.760  36.789  27.116  1.00  0.00     0.127 S 
ATOM     75  O   UNL A   1      43.201  38.109  26.679  1.00  0.00    -0.237 OA
ATOM     76  O   UNL A   1      42.474  35.836  26.042  1.00  0.00    -0.237 OA
ATOM     77  O   UNL A   1      41.797  36.753  28.211  1.00  0.00    -0.744 OA
ENDBRANCH  71  74
ENDBRANCH  53  67
BRANCH  54  78
ATOM     78  C   UNL A   1      37.890  32.832  30.715  1.00  0.00     0.023 A 
ATOM     79  C   UNL A   1      37.102  32.404  29.624  1.00  0.00     0.012 A 
ATOM     80  C   UNL A   1      37.234  33.398  31.830  1.00  0.00     0.148 A 
ATOM     81  C   UNL A   1      35.706  32.431  29.686  1.00  0.00     0.002 A 
ATOM     82  C   UNL A   1      35.843  33.412  31.890  1.00  0.00     0.091 A 
ATOM     83  F   UNL A   1      37.968  33.827  32.866  1.00  0.00    -0.205 F 
ATOM     84  C   UNL A   1      35.077  32.912  30.828  1.00  0.00     0.022 A 
BRANCH  82  85
ATOM     85  S   UNL A   1      34.960  33.966  33.355  1.00  0.00     0.127 S 
ATOM     86  O   UNL A   1      35.275  35.393  33.382  1.00  0.00    -0.237 OA
ATOM     87  O   UNL A   1      33.576  33.653  33.010  1.00  0.00    -0.237 OA
ATOM     88  O   UNL A   1      35.518  33.197  34.462  1.00  0.00    -0.744 OA
ENDBRANCH  82  85
ENDBRANCH  54  78
BRANCH  66  89
ATOM     89  C   UNL A   1      42.936  31.581  34.404  1.00  0.00     0.023 A 
ATOM     90  C   UNL A   1      42.975  31.958  35.757  1.00  0.00     0.012 A 
ATOM     91  C   UNL A   1      42.594  30.260  34.064  1.00  0.00     0.148 A 
ATOM     92  C   UNL A   1      42.664  31.027  36.755  1.00  0.00     0.002 A 
ATOM     93  C   UNL A   1      42.252  29.350  35.052  1.00  0.00     0.091 A 
ATOM     94  F   UNL A   1      42.584  29.928  32.763  1.00  0.00    -0.205 F 
ATOM     95  C   UNL A   1      42.290  29.728  36.402  1.00  0.00     0.022 A 
BRANCH  93  96
ATOM     96  S   UNL A   1      41.662  27.702  34.656  1.00  0.00     0.127 S 
ATOM     97  O   UNL A   1      41.302  27.178  35.972  1.00  0.00    -0.237 OA
ATOM     98  O   UNL A   1      40.528  27.984  33.776  1.00  0.00    -0.237 OA
ATOM     99  O   UNL A   1      42.772  27.019  34.002  1.00  0.00    -0.744 OA
ENDBRANCH  93  96
ENDBRANCH  66  89
ENDBRANCH  40  41
ENDBRANCH  33  35
ENDBRANCH  32  33
ENDBRANCH  31  32
ENDBRANCH  30  31
ENDBRANCH  29  30
ENDBRANCH  28  29
ENDBRANCH   1  28
TORSDOF 24
ENDMDL
