MODEL 1
REMARK VINA RESULT:     -12.2      0.000      0.000
REMARK SMILES O=C(OCCOCCOCCOC(=O)[C@@H]1C=C[C@H](NC(=O)[C@@H]2Cc3ccccc3O2)C1)c1ccc(-c2c3nc(c(-c4cccc(S(=O)(=O)[O-])c4F)c4ccc([nH]4)c(-c4cccc(S(=O)(=O)[O-])c4F)c4nc(c(-c5cccc(S(=O)(=O)[O-])c5F)c5ccc2[nH]5)C=C4)C=C3)cc1
REMARK SMILES IDX 7 1 6 2 5 3 4 4 3 5 2 6 1 7 32 8 33 9 94 10 34 11 93 12
REMARK SMILES IDX 35 13 36 14 37 15 87 16 38 17 92 18 86 19 88 20 39 21 91 22
REMARK SMILES IDX 85 23 84 24 40 26 72 27 52 28 71 29 53 30 56 31 70 32 89 33
REMARK SMILES IDX 54 34 55 35 69 37 90 38 57 39 41 40 42 41 50 42 43 43 45 44
REMARK SMILES IDX 51 45 44 46 46 47 47 48 48 49 49 50 73 51 74 52 82 53 75 54
REMARK SMILES IDX 77 55 83 56 76 57 78 58 79 59 80 60 81 61 58 62 59 63 67 64
REMARK SMILES IDX 60 65 62 66 68 67 61 68 63 69 64 70 65 71 66 72 8 73 9 74
REMARK SMILES IDX 10 75 11 76 12 77 13 78 14 79 15 80 16 81 31 82 17 83 18 84
REMARK SMILES IDX 19 85 20 86 21 88 22 89 23 90 30 91 24 92 29 93 25 94 28 95
REMARK SMILES IDX 26 96 27 97
REMARK H PARENT 88 25 56 36 19 87
REMARK Flexibility Score: inf
ROOT
ATOM      1  C   UNL A   1      41.225  20.193  26.366  1.00  0.00     0.188 C 
ENDROOT
BRANCH   1   2
ATOM      2  O   UNL A   1      41.968  19.487  25.393  1.00  0.00    -0.376 OA
BRANCH   2   3
ATOM      3  C   UNL A   1      43.331  19.213  25.701  1.00  0.00     0.202 C 
BRANCH   3   4
ATOM      4  C   UNL A   1      44.464  20.181  25.296  1.00  0.00     0.261 C 
BRANCH   4   5
ATOM      5  O   UNL A   1      44.335  21.626  25.439  1.00  0.00    -0.460 OA
BRANCH   5   6
ATOM      6  C   UNL A   1      44.638  22.571  26.360  1.00  0.00     0.338 C 
ATOM      7  O   UNL A   1      45.708  22.475  26.959  1.00  0.00    -0.246 OA
BRANCH   6   8
ATOM      8  C   UNL A   1      43.709  23.672  26.742  1.00  0.00     0.060 A 
ATOM      9  C   UNL A   1      42.604  23.456  27.530  1.00  0.00     0.016 A 
ATOM     10  C   UNL A   1      43.935  24.996  26.289  1.00  0.00     0.016 A 
ATOM     11  C   UNL A   1      41.877  24.545  28.008  1.00  0.00     0.010 A 
ATOM     12  C   UNL A   1      43.220  26.112  26.812  1.00  0.00     0.010 A 
ATOM     13  C   UNL A   1      42.271  25.907  27.818  1.00  0.00    -0.014 A 
BRANCH  13  14
ATOM     14  C   UNL A   1      41.357  27.108  28.682  1.00  0.00     0.031 A 
ATOM     15  C   UNL A   1      42.699  27.051  29.987  1.00  0.00     0.074 A 
ATOM     16  C   UNL A   1      40.054  28.445  28.233  1.00  0.00     0.049 A 
ATOM     17  N   UNL A   1      43.145  28.103  30.662  1.00  0.00    -0.248 NA
ATOM     18  C   UNL A   1      43.619  25.913  30.288  1.00  0.00     0.031 C 
ATOM     19  C   UNL A   1      39.327  28.999  26.806  1.00  0.00     0.029 A 
ATOM     20  N   UNL A   1      39.400  29.584  28.958  1.00  0.00    -0.354 N 
ATOM     21  C   UNL A   1      43.839  27.667  31.728  1.00  0.00     0.074 A 
ATOM     22  C   UNL A   1      44.378  26.404  31.285  1.00  0.00     0.031 C 
ATOM     23  C   UNL A   1      38.424  29.970  27.017  1.00  0.00     0.029 A 
ATOM     24  C   UNL A   1      38.369  30.257  28.411  1.00  0.00     0.049 A 
ATOM     25  H   UNL A   1      39.731  29.844  29.849  1.00  0.00     0.167 HD
ATOM     26  C   UNL A   1      43.838  28.228  32.963  1.00  0.00     0.034 A 
ATOM     27  C   UNL A   1      37.477  30.928  29.155  1.00  0.00     0.034 A 
ATOM     28  C   UNL A   1      42.886  29.231  33.481  1.00  0.00     0.049 A 
ATOM     29  C   UNL A   1      37.816  31.125  30.617  1.00  0.00     0.074 A 
ATOM     30  C   UNL A   1      42.944  29.843  34.723  1.00  0.00     0.029 A 
ATOM     31  N   UNL A   1      41.656  29.666  32.933  1.00  0.00    -0.354 N 
ATOM     32  N   UNL A   1      38.894  30.729  31.278  1.00  0.00    -0.248 NA
ATOM     33  C   UNL A   1      36.887  31.924  31.393  1.00  0.00     0.031 C 
ATOM     34  C   UNL A   1      41.760  30.563  34.940  1.00  0.00     0.029 A 
ATOM     35  C   UNL A   1      40.958  30.514  33.803  1.00  0.00     0.049 A 
ATOM     36  H   UNL A   1      41.328  29.404  32.042  1.00  0.00     0.167 HD
ATOM     37  C   UNL A   1      38.817  31.279  32.548  1.00  0.00     0.074 A 
ATOM     38  C   UNL A   1      37.563  32.045  32.531  1.00  0.00     0.031 C 
ATOM     39  C   UNL A   1      39.673  31.218  33.617  1.00  0.00     0.034 A 
BRANCH  26  40
ATOM     40  C   UNL A   1      44.940  27.719  33.843  1.00  0.00     0.023 A 
ATOM     41  C   UNL A   1      46.215  28.320  33.725  1.00  0.00     0.012 A 
ATOM     42  C   UNL A   1      44.742  26.695  34.780  1.00  0.00     0.148 A 
ATOM     43  C   UNL A   1      47.288  27.872  34.488  1.00  0.00     0.002 A 
ATOM     44  C   UNL A   1      45.808  26.279  35.568  1.00  0.00     0.091 A 
ATOM     45  F   UNL A   1      43.527  26.136  34.870  1.00  0.00    -0.205 F 
ATOM     46  C   UNL A   1      47.082  26.853  35.413  1.00  0.00     0.022 A 
BRANCH  44  47
ATOM     47  S   UNL A   1      45.642  25.015  36.830  1.00  0.00     0.127 S 
ATOM     48  O   UNL A   1      45.673  23.794  36.025  1.00  0.00    -0.237 OA
ATOM     49  O   UNL A   1      46.837  25.242  37.642  1.00  0.00    -0.237 OA
ATOM     50  O   UNL A   1      44.380  25.280  37.505  1.00  0.00    -0.744 OA
ENDBRANCH  44  47
ENDBRANCH  26  40
BRANCH  27  51
ATOM     51  C   UNL A   1      36.211  31.294  28.501  1.00  0.00     0.023 A 
ATOM     52  C   UNL A   1      35.301  30.293  28.141  1.00  0.00     0.012 A 
ATOM     53  C   UNL A   1      35.799  32.641  28.509  1.00  0.00     0.148 A 
ATOM     54  C   UNL A   1      33.981  30.628  27.845  1.00  0.00     0.002 A 
ATOM     55  C   UNL A   1      34.463  32.955  28.319  1.00  0.00     0.091 A 
ATOM     56  F   UNL A   1      36.721  33.593  28.702  1.00  0.00    -0.205 F 
ATOM     57  C   UNL A   1      33.551  31.950  27.975  1.00  0.00     0.022 A 
BRANCH  55  58
ATOM     58  S   UNL A   1      33.818  34.585  28.728  1.00  0.00     0.127 S 
ATOM     59  O   UNL A   1      34.662  35.459  27.920  1.00  0.00    -0.237 OA
ATOM     60  O   UNL A   1      32.426  34.487  28.286  1.00  0.00    -0.237 OA
ATOM     61  O   UNL A   1      33.973  34.703  30.174  1.00  0.00    -0.744 OA
ENDBRANCH  55  58
ENDBRANCH  27  51
BRANCH  39  62
ATOM     62  C   UNL A   1      39.247  32.123  34.764  1.00  0.00     0.023 A 
ATOM     63  C   UNL A   1      39.521  33.508  34.746  1.00  0.00     0.012 A 
ATOM     64  C   UNL A   1      38.618  31.559  35.894  1.00  0.00     0.148 A 
ATOM     65  C   UNL A   1      39.263  34.292  35.871  1.00  0.00     0.002 A 
ATOM     66  C   UNL A   1      38.286  32.365  36.974  1.00  0.00     0.091 A 
ATOM     67  F   UNL A   1      38.376  30.241  35.898  1.00  0.00    -0.205 F 
ATOM     68  C   UNL A   1      38.639  33.724  36.980  1.00  0.00     0.022 A 
BRANCH  66  69
ATOM     69  S   UNL A   1      37.377  31.746  38.392  1.00  0.00     0.127 S 
ATOM     70  O   UNL A   1      38.317  32.003  39.483  1.00  0.00    -0.237 OA
ATOM     71  O   UNL A   1      36.193  32.603  38.390  1.00  0.00    -0.237 OA
ATOM     72  O   UNL A   1      37.112  30.339  38.120  1.00  0.00    -0.744 OA
ENDBRANCH  66  69
ENDBRANCH  39  62
ENDBRANCH  13  14
ENDBRANCH   6   8
ENDBRANCH   5   6
ENDBRANCH   4   5
ENDBRANCH   3   4
ENDBRANCH   2   3
ENDBRANCH   1   2
BRANCH   1  73
ATOM     73  C   UNL A   1      40.271  21.295  25.891  1.00  0.00     0.188 C 
BRANCH  73  74
ATOM     74  O   UNL A   1      39.428  21.929  26.839  1.00  0.00    -0.376 OA
BRANCH  74  75
ATOM     75  C   UNL A   1      38.728  23.097  26.424  1.00  0.00     0.202 C 
BRANCH  75  76
ATOM     76  C   UNL A   1      37.436  22.972  25.594  1.00  0.00     0.261 C 
BRANCH  76  77
ATOM     77  O   UNL A   1      36.829  21.676  25.627  1.00  0.00    -0.463 OA
BRANCH  77  78
ATOM     78  C   UNL A   1      35.477  21.689  25.749  1.00  0.00     0.312 C 
ATOM     79  O   UNL A   1      34.871  21.991  26.772  1.00  0.00    -0.252 OA
BRANCH  78  80
ATOM     80  C   UNL A   1      34.750  21.343  24.471  1.00  0.00     0.124 C 
ATOM     81  C   UNL A   1      34.410  22.562  23.715  1.00  0.00    -0.014 C 
ATOM     82  C   UNL A   1      33.388  20.621  24.483  1.00  0.00     0.048 C 
ATOM     83  C   UNL A   1      33.084  22.613  23.638  1.00  0.00    -0.006 C 
ATOM     84  C   UNL A   1      32.296  21.693  24.508  1.00  0.00     0.106 C 
BRANCH  84  85
ATOM     85  N   UNL A   1      31.901  22.352  25.828  1.00  0.00    -0.347 N 
ATOM     86  C   UNL A   1      32.073  23.582  26.514  1.00  0.00     0.261 C 
ATOM     87  H   UNL A   1      31.360  21.733  26.369  1.00  0.00     0.164 HD
ATOM     88  O   UNL A   1      31.494  23.547  27.632  1.00  0.00    -0.271 OA
BRANCH  86  89
ATOM     89  C   UNL A   1      32.876  25.151  26.235  1.00  0.00     0.266 C 
ATOM     90  C   UNL A   1      33.308  27.221  25.939  1.00  0.00     0.095 C 
ATOM     91  O   UNL A   1      30.979  25.166  25.559  1.00  0.00    -0.480 OA
ATOM     92  C   UNL A   1      31.578  28.061  25.225  1.00  0.00    -0.002 A 
ATOM     93  C   UNL A   1      30.360  26.818  24.974  1.00  0.00     0.123 A 
ATOM     94  C   UNL A   1      31.556  29.147  24.356  1.00  0.00     0.008 A 
ATOM     95  C   UNL A   1      29.734  26.753  23.730  1.00  0.00     0.047 A 
ATOM     96  C   UNL A   1      30.710  29.007  23.211  1.00  0.00     0.001 A 
ATOM     97  C   UNL A   1      29.908  27.860  22.890  1.00  0.00     0.004 A 
ENDBRANCH  86  89
ENDBRANCH  84  85
ENDBRANCH  78  80
ENDBRANCH  77  78
ENDBRANCH  76  77
ENDBRANCH  75  76
ENDBRANCH  74  75
ENDBRANCH  73  74
ENDBRANCH   1  73
TORSDOF 22
ENDMDL
MODEL 2
REMARK VINA RESULT:     -11.6      1.377      3.214
REMARK SMILES O=C(OCCOCCOCCOC(=O)[C@@H]1C=C[C@H](NC(=O)[C@@H]2Cc3ccccc3O2)C1)c1ccc(-c2c3nc(c(-c4cccc(S(=O)(=O)[O-])c4F)c4ccc([nH]4)c(-c4cccc(S(=O)(=O)[O-])c4F)c4nc(c(-c5cccc(S(=O)(=O)[O-])c5F)c5ccc2[nH]5)C=C4)C=C3)cc1
REMARK SMILES IDX 7 1 6 2 5 3 4 4 3 5 2 6 1 7 32 8 33 9 94 10 34 11 93 12
REMARK SMILES IDX 35 13 36 14 37 15 87 16 38 17 92 18 86 19 88 20 39 21 91 22
REMARK SMILES IDX 85 23 84 24 40 26 72 27 52 28 71 29 53 30 56 31 70 32 89 33
REMARK SMILES IDX 54 34 55 35 69 37 90 38 57 39 41 40 42 41 50 42 43 43 45 44
REMARK SMILES IDX 51 45 44 46 46 47 47 48 48 49 49 50 73 51 74 52 82 53 75 54
REMARK SMILES IDX 77 55 83 56 76 57 78 58 79 59 80 60 81 61 58 62 59 63 67 64
REMARK SMILES IDX 60 65 62 66 68 67 61 68 63 69 64 70 65 71 66 72 8 73 9 74
REMARK SMILES IDX 10 75 11 76 12 77 13 78 14 79 15 80 16 81 31 82 17 83 18 84
REMARK SMILES IDX 19 85 20 86 21 88 22 89 23 90 30 91 24 92 29 93 25 94 28 95
REMARK SMILES IDX 26 96 27 97
REMARK H PARENT 88 25 56 36 19 87
REMARK Flexibility Score: inf
ROOT
ATOM      1  C   UNL A   1      40.179  21.222  26.349  1.00  0.00     0.188 C 
ENDROOT
BRANCH   1   2
ATOM      2  O   UNL A   1      41.485  21.444  25.860  1.00  0.00    -0.376 OA
BRANCH   2   3
ATOM      3  C   UNL A   1      42.370  20.329  25.862  1.00  0.00     0.202 C 
BRANCH   3   4
ATOM      4  C   UNL A   1      43.856  20.472  25.466  1.00  0.00     0.261 C 
BRANCH   4   5
ATOM      5  O   UNL A   1      44.650  21.635  25.844  1.00  0.00    -0.460 OA
BRANCH   5   6
ATOM      6  C   UNL A   1      44.629  22.972  25.633  1.00  0.00     0.338 C 
ATOM      7  O   UNL A   1      45.178  23.407  24.622  1.00  0.00    -0.246 OA
BRANCH   6   8
ATOM      8  C   UNL A   1      44.049  23.946  26.599  1.00  0.00     0.060 A 
ATOM      9  C   UNL A   1      44.140  25.304  26.411  1.00  0.00     0.016 A 
ATOM     10  C   UNL A   1      43.380  23.495  27.764  1.00  0.00     0.016 A 
ATOM     11  C   UNL A   1      43.423  26.163  27.243  1.00  0.00     0.010 A 
ATOM     12  C   UNL A   1      42.612  24.369  28.588  1.00  0.00     0.010 A 
ATOM     13  C   UNL A   1      42.493  25.716  28.234  1.00  0.00    -0.014 A 
BRANCH  13  14
ATOM     14  C   UNL A   1      41.534  26.941  29.009  1.00  0.00     0.031 A 
ATOM     15  C   UNL A   1      42.842  26.980  30.349  1.00  0.00     0.074 A 
ATOM     16  C   UNL A   1      40.218  28.226  28.457  1.00  0.00     0.049 A 
ATOM     17  N   UNL A   1      43.250  28.075  30.979  1.00  0.00    -0.248 NA
ATOM     18  C   UNL A   1      43.775  25.878  30.733  1.00  0.00     0.031 C 
ATOM     19  C   UNL A   1      39.518  28.689  26.985  1.00  0.00     0.029 A 
ATOM     20  N   UNL A   1      39.524  29.388  29.104  1.00  0.00    -0.354 N 
ATOM     21  C   UNL A   1      43.924  27.710  32.083  1.00  0.00     0.074 A 
ATOM     22  C   UNL A   1      44.498  26.436  31.722  1.00  0.00     0.031 C 
ATOM     23  C   UNL A   1      38.592  29.652  27.122  1.00  0.00     0.029 A 
ATOM     24  C   UNL A   1      38.495  30.010  28.496  1.00  0.00     0.049 A 
ATOM     25  H   UNL A   1      39.826  29.701  29.988  1.00  0.00     0.167 HD
ATOM     26  C   UNL A   1      43.880  28.334  33.286  1.00  0.00     0.034 A 
ATOM     27  C   UNL A   1      37.571  30.702  29.181  1.00  0.00     0.034 A 
ATOM     28  C   UNL A   1      42.896  29.343  33.726  1.00  0.00     0.049 A 
ATOM     29  C   UNL A   1      37.868  30.981  30.638  1.00  0.00     0.074 A 
ATOM     30  C   UNL A   1      42.909  30.021  34.935  1.00  0.00     0.029 A 
ATOM     31  N   UNL A   1      41.673  29.724  33.125  1.00  0.00    -0.354 N 
ATOM     32  N   UNL A   1      38.935  30.642  31.347  1.00  0.00    -0.248 NA
ATOM     33  C   UNL A   1      36.904  31.802  31.348  1.00  0.00     0.031 C 
ATOM     34  C   UNL A   1      41.706  30.727  35.083  1.00  0.00     0.029 A 
ATOM     35  C   UNL A   1      40.935  30.602  33.931  1.00  0.00     0.049 A 
ATOM     36  H   UNL A   1      41.373  29.409  32.242  1.00  0.00     0.167 HD
ATOM     37  C   UNL A   1      38.815  31.257  32.584  1.00  0.00     0.074 A 
ATOM     38  C   UNL A   1      37.547  31.996  32.494  1.00  0.00     0.031 C 
ATOM     39  C   UNL A   1      39.643  31.269  33.676  1.00  0.00     0.034 A 
BRANCH  26  40
ATOM     40  C   UNL A   1      44.968  27.894  34.220  1.00  0.00     0.023 A 
ATOM     41  C   UNL A   1      46.221  28.541  34.129  1.00  0.00     0.012 A 
ATOM     42  C   UNL A   1      44.775  26.890  35.179  1.00  0.00     0.148 A 
ATOM     43  C   UNL A   1      47.283  28.158  34.943  1.00  0.00     0.002 A 
ATOM     44  C   UNL A   1      45.826  26.539  36.017  1.00  0.00     0.091 A 
ATOM     45  F   UNL A   1      43.580  26.286  35.242  1.00  0.00    -0.205 F 
ATOM     46  C   UNL A   1      47.083  27.159  35.890  1.00  0.00     0.022 A 
BRANCH  44  47
ATOM     47  S   UNL A   1      45.664  25.306  37.309  1.00  0.00     0.127 S 
ATOM     48  O   UNL A   1      45.124  24.170  36.561  1.00  0.00    -0.237 OA
ATOM     49  O   UNL A   1      47.050  25.145  37.749  1.00  0.00    -0.237 OA
ATOM     50  O   UNL A   1      44.766  25.877  38.302  1.00  0.00    -0.744 OA
ENDBRANCH  44  47
ENDBRANCH  26  40
BRANCH  27  51
ATOM     51  C   UNL A   1      36.316  31.007  28.476  1.00  0.00     0.023 A 
ATOM     52  C   UNL A   1      35.467  29.964  28.088  1.00  0.00     0.012 A 
ATOM     53  C   UNL A   1      35.844  32.333  28.462  1.00  0.00     0.148 A 
ATOM     54  C   UNL A   1      34.146  30.237  27.739  1.00  0.00     0.002 A 
ATOM     55  C   UNL A   1      34.503  32.586  28.219  1.00  0.00     0.091 A 
ATOM     56  F   UNL A   1      36.713  33.327  28.685  1.00  0.00    -0.205 F 
ATOM     57  C   UNL A   1      33.652  31.538  27.845  1.00  0.00     0.022 A 
BRANCH  55  58
ATOM     58  S   UNL A   1      33.769  34.186  28.594  1.00  0.00     0.127 S 
ATOM     59  O   UNL A   1      32.491  34.107  27.894  1.00  0.00    -0.237 OA
ATOM     60  O   UNL A   1      33.678  34.149  30.055  1.00  0.00    -0.237 OA
ATOM     61  O   UNL A   1      34.719  35.169  28.085  1.00  0.00    -0.744 OA
ENDBRANCH  55  58
ENDBRANCH  27  51
BRANCH  39  62
ATOM     62  C   UNL A   1      39.170  32.225  34.762  1.00  0.00     0.023 A 
ATOM     63  C   UNL A   1      39.335  33.621  34.634  1.00  0.00     0.012 A 
ATOM     64  C   UNL A   1      38.609  31.703  35.946  1.00  0.00     0.148 A 
ATOM     65  C   UNL A   1      39.039  34.467  35.703  1.00  0.00     0.002 A 
ATOM     66  C   UNL A   1      38.236  32.561  36.970  1.00  0.00     0.091 A 
ATOM     67  F   UNL A   1      38.470  30.374  36.055  1.00  0.00    -0.205 F 
ATOM     68  C   UNL A   1      38.482  33.939  36.866  1.00  0.00     0.022 A 
BRANCH  66  69
ATOM     69  S   UNL A   1      37.405  31.985  38.453  1.00  0.00     0.127 S 
ATOM     70  O   UNL A   1      36.224  32.847  38.486  1.00  0.00    -0.237 OA
ATOM     71  O   UNL A   1      37.132  30.586  38.124  1.00  0.00    -0.237 OA
ATOM     72  O   UNL A   1      38.347  32.180  39.547  1.00  0.00    -0.744 OA
ENDBRANCH  66  69
ENDBRANCH  39  62
ENDBRANCH  13  14
ENDBRANCH   6   8
ENDBRANCH   5   6
ENDBRANCH   4   5
ENDBRANCH   3   4
ENDBRANCH   2   3
ENDBRANCH   1   2
BRANCH   1  73
ATOM     73  C   UNL A   1      39.126  22.313  26.126  1.00  0.00     0.188 C 
BRANCH  73  74
ATOM     74  O   UNL A   1      37.782  21.931  25.882  1.00  0.00    -0.376 OA
BRANCH  74  75
ATOM     75  C   UNL A   1      36.885  22.932  25.413  1.00  0.00     0.202 C 
BRANCH  75  76
ATOM     76  C   UNL A   1      35.774  23.470  26.335  1.00  0.00     0.261 C 
BRANCH  76  77
ATOM     77  O   UNL A   1      34.455  23.026  26.003  1.00  0.00    -0.463 OA
BRANCH  77  78
ATOM     78  C   UNL A   1      33.675  22.727  27.072  1.00  0.00     0.312 C 
ATOM     79  O   UNL A   1      34.011  22.000  28.002  1.00  0.00    -0.252 OA
BRANCH  78  80
ATOM     80  C   UNL A   1      32.333  23.421  27.056  1.00  0.00     0.124 C 
ATOM     81  C   UNL A   1      31.386  22.710  26.179  1.00  0.00    -0.014 C 
ATOM     82  C   UNL A   1      32.174  24.867  26.544  1.00  0.00     0.048 C 
ATOM     83  C   UNL A   1      31.053  23.552  25.205  1.00  0.00    -0.006 C 
ATOM     84  C   UNL A   1      31.862  24.795  25.047  1.00  0.00     0.106 C 
BRANCH  84  85
ATOM     85  N   UNL A   1      32.995  24.616  24.038  1.00  0.00    -0.347 N 
ATOM     86  C   UNL A   1      33.352  23.773  22.955  1.00  0.00     0.261 C 
ATOM     87  H   UNL A   1      33.690  25.297  24.183  1.00  0.00     0.164 HD
ATOM     88  O   UNL A   1      34.466  24.116  22.478  1.00  0.00    -0.271 OA
BRANCH  86  89
ATOM     89  C   UNL A   1      32.667  22.370  22.089  1.00  0.00     0.266 C 
ATOM     90  C   UNL A   1      31.804  20.486  21.577  1.00  0.00     0.095 C 
ATOM     91  O   UNL A   1      33.543  21.812  23.815  1.00  0.00    -0.480 OA
ATOM     92  C   UNL A   1      32.270  19.216  23.119  1.00  0.00    -0.002 A 
ATOM     93  C   UNL A   1      33.308  20.029  24.281  1.00  0.00     0.123 A 
ATOM     94  C   UNL A   1      32.462  17.848  22.953  1.00  0.00     0.008 A 
ATOM     95  C   UNL A   1      34.498  19.404  24.649  1.00  0.00     0.047 A 
ATOM     96  C   UNL A   1      33.643  17.311  23.557  1.00  0.00     0.001 A 
ATOM     97  C   UNL A   1      34.625  18.054  24.296  1.00  0.00     0.004 A 
ENDBRANCH  86  89
ENDBRANCH  84  85
ENDBRANCH  78  80
ENDBRANCH  77  78
ENDBRANCH  76  77
ENDBRANCH  75  76
ENDBRANCH  74  75
ENDBRANCH  73  74
ENDBRANCH   1  73
TORSDOF 22
ENDMDL
MODEL 3
REMARK VINA RESULT:     -11.3      1.722      2.145
REMARK SMILES O=C(OCCOCCOCCOC(=O)[C@@H]1C=C[C@H](NC(=O)[C@@H]2Cc3ccccc3O2)C1)c1ccc(-c2c3nc(c(-c4cccc(S(=O)(=O)[O-])c4F)c4ccc([nH]4)c(-c4cccc(S(=O)(=O)[O-])c4F)c4nc(c(-c5cccc(S(=O)(=O)[O-])c5F)c5ccc2[nH]5)C=C4)C=C3)cc1
REMARK SMILES IDX 7 1 6 2 5 3 4 4 3 5 2 6 1 7 32 8 33 9 94 10 34 11 93 12
REMARK SMILES IDX 35 13 36 14 37 15 87 16 38 17 92 18 86 19 88 20 39 21 91 22
REMARK SMILES IDX 85 23 84 24 40 26 72 27 52 28 71 29 53 30 56 31 70 32 89 33
REMARK SMILES IDX 54 34 55 35 69 37 90 38 57 39 41 40 42 41 50 42 43 43 45 44
REMARK SMILES IDX 51 45 44 46 46 47 47 48 48 49 49 50 73 51 74 52 82 53 75 54
REMARK SMILES IDX 77 55 83 56 76 57 78 58 79 59 80 60 81 61 58 62 59 63 67 64
REMARK SMILES IDX 60 65 62 66 68 67 61 68 63 69 64 70 65 71 66 72 8 73 9 74
REMARK SMILES IDX 10 75 11 76 12 77 13 78 14 79 15 80 16 81 31 82 17 83 18 84
REMARK SMILES IDX 19 85 20 86 21 88 22 89 23 90 30 91 24 92 29 93 25 94 28 95
REMARK SMILES IDX 26 96 27 97
REMARK H PARENT 88 25 56 36 19 87
REMARK Flexibility Score: inf
ROOT
ATOM      1  C   UNL A   1      41.935  23.282  25.740  1.00  0.00     0.188 C 
ENDROOT
BRANCH   1   2
ATOM      2  O   UNL A   1      42.271  22.064  25.108  1.00  0.00    -0.376 OA
BRANCH   2   3
ATOM      3  C   UNL A   1      42.924  21.084  25.908  1.00  0.00     0.202 C 
BRANCH   3   4
ATOM      4  C   UNL A   1      44.399  20.694  25.669  1.00  0.00     0.261 C 
BRANCH   4   5
ATOM      5  O   UNL A   1      45.503  21.556  26.074  1.00  0.00    -0.460 OA
BRANCH   5   6
ATOM      6  C   UNL A   1      45.791  22.879  26.075  1.00  0.00     0.338 C 
ATOM      7  O   UNL A   1      46.685  23.277  25.331  1.00  0.00    -0.246 OA
BRANCH   6   8
ATOM      8  C   UNL A   1      45.139  23.860  26.987  1.00  0.00     0.060 A 
ATOM      9  C   UNL A   1      45.134  25.209  26.726  1.00  0.00     0.016 A 
ATOM     10  C   UNL A   1      44.501  23.426  28.176  1.00  0.00     0.016 A 
ATOM     11  C   UNL A   1      44.354  26.058  27.510  1.00  0.00     0.010 A 
ATOM     12  C   UNL A   1      43.669  24.285  28.952  1.00  0.00     0.010 A 
ATOM     13  C   UNL A   1      43.455  25.599  28.525  1.00  0.00    -0.014 A 
BRANCH  13  14
ATOM     14  C   UNL A   1      42.409  26.793  29.233  1.00  0.00     0.031 A 
ATOM     15  C   UNL A   1      43.687  26.969  30.589  1.00  0.00     0.074 A 
ATOM     16  C   UNL A   1      41.025  27.969  28.607  1.00  0.00     0.049 A 
ATOM     17  N   UNL A   1      44.015  28.112  31.179  1.00  0.00    -0.248 NA
ATOM     18  C   UNL A   1      44.680  25.945  31.034  1.00  0.00     0.031 C 
ATOM     19  C   UNL A   1      40.325  28.327  27.106  1.00  0.00     0.029 A 
ATOM     20  N   UNL A   1      40.249  29.111  29.194  1.00  0.00    -0.354 N 
ATOM     21  C   UNL A   1      44.690  27.835  32.309  1.00  0.00     0.074 A 
ATOM     22  C   UNL A   1      45.349  26.587  32.010  1.00  0.00     0.031 C 
ATOM     23  C   UNL A   1      39.339  29.235  27.188  1.00  0.00     0.029 A 
ATOM     24  C   UNL A   1      39.195  29.642  28.544  1.00  0.00     0.049 A 
ATOM     25  H   UNL A   1      40.516  29.478  30.068  1.00  0.00     0.167 HD
ATOM     26  C   UNL A   1      44.586  28.505  33.483  1.00  0.00     0.034 A 
ATOM     27  C   UNL A   1      38.218  30.302  29.185  1.00  0.00     0.034 A 
ATOM     28  C   UNL A   1      43.534  29.467  33.865  1.00  0.00     0.049 A 
ATOM     29  C   UNL A   1      38.471  30.659  30.634  1.00  0.00     0.074 A 
ATOM     30  C   UNL A   1      43.483  30.194  35.045  1.00  0.00     0.029 A 
ATOM     31  N   UNL A   1      42.300  29.746  33.230  1.00  0.00    -0.354 N 
ATOM     32  N   UNL A   1      39.544  30.417  31.372  1.00  0.00    -0.248 NA
ATOM     33  C   UNL A   1      37.445  31.446  31.293  1.00  0.00     0.031 C 
ATOM     34  C   UNL A   1      42.236  30.829  35.144  1.00  0.00     0.029 A 
ATOM     35  C   UNL A   1      41.496  30.608  33.986  1.00  0.00     0.049 A 
ATOM     36  H   UNL A   1      42.037  29.377  32.356  1.00  0.00     0.167 HD
ATOM     37  C   UNL A   1      39.363  31.073  32.580  1.00  0.00     0.074 A 
ATOM     38  C   UNL A   1      38.054  31.727  32.440  1.00  0.00     0.031 C 
ATOM     39  C   UNL A   1      40.169  31.182  33.684  1.00  0.00     0.034 A 
BRANCH  26  40
ATOM     40  C   UNL A   1      45.682  28.173  34.451  1.00  0.00     0.023 A 
ATOM     41  C   UNL A   1      45.437  27.164  35.411  1.00  0.00     0.012 A 
ATOM     42  C   UNL A   1      46.931  28.810  34.420  1.00  0.00     0.148 A 
ATOM     43  C   UNL A   1      46.400  26.832  36.358  1.00  0.00     0.002 A 
ATOM     44  C   UNL A   1      47.903  28.446  35.344  1.00  0.00     0.091 A 
ATOM     45  F   UNL A   1      47.138  29.768  33.506  1.00  0.00    -0.205 F 
ATOM     46  C   UNL A   1      47.634  27.471  36.322  1.00  0.00     0.022 A 
BRANCH  44  47
ATOM     47  S   UNL A   1      49.547  29.163  35.352  1.00  0.00     0.127 S 
ATOM     48  O   UNL A   1      49.327  30.387  36.123  1.00  0.00    -0.237 OA
ATOM     49  O   UNL A   1      50.321  28.134  36.045  1.00  0.00    -0.237 OA
ATOM     50  O   UNL A   1      49.906  29.367  33.956  1.00  0.00    -0.744 OA
ENDBRANCH  44  47
ENDBRANCH  26  40
BRANCH  27  51
ATOM     51  C   UNL A   1      36.959  30.498  28.449  1.00  0.00     0.023 A 
ATOM     52  C   UNL A   1      36.144  29.397  28.161  1.00  0.00     0.012 A 
ATOM     53  C   UNL A   1      36.448  31.802  28.302  1.00  0.00     0.148 A 
ATOM     54  C   UNL A   1      34.818  29.595  27.782  1.00  0.00     0.002 A 
ATOM     55  C   UNL A   1      35.102  31.989  28.030  1.00  0.00     0.091 A 
ATOM     56  F   UNL A   1      37.286  32.839  28.430  1.00  0.00    -0.205 F 
ATOM     57  C   UNL A   1      34.285  30.885  27.758  1.00  0.00     0.022 A 
BRANCH  55  58
ATOM     58  S   UNL A   1      34.319  33.596  28.243  1.00  0.00     0.127 S 
ATOM     59  O   UNL A   1      35.079  34.431  27.319  1.00  0.00    -0.237 OA
ATOM     60  O   UNL A   1      32.939  33.323  27.839  1.00  0.00    -0.237 OA
ATOM     61  O   UNL A   1      34.470  33.908  29.660  1.00  0.00    -0.744 OA
ENDBRANCH  55  58
ENDBRANCH  27  51
BRANCH  39  62
ATOM     62  C   UNL A   1      39.618  32.150  34.721  1.00  0.00     0.023 A 
ATOM     63  C   UNL A   1      39.849  33.539  34.623  1.00  0.00     0.012 A 
ATOM     64  C   UNL A   1      38.913  31.644  35.834  1.00  0.00     0.148 A 
ATOM     65  C   UNL A   1      39.471  34.391  35.662  1.00  0.00     0.002 A 
ATOM     66  C   UNL A   1      38.465  32.511  36.819  1.00  0.00     0.091 A 
ATOM     67  F   UNL A   1      38.714  30.321  35.915  1.00  0.00    -0.205 F 
ATOM     68  C   UNL A   1      38.773  33.879  36.754  1.00  0.00     0.022 A 
BRANCH  66  69
ATOM     69  S   UNL A   1      37.459  31.960  38.199  1.00  0.00     0.127 S 
ATOM     70  O   UNL A   1      38.293  32.328  39.342  1.00  0.00    -0.237 OA
ATOM     71  O   UNL A   1      36.252  32.770  38.036  1.00  0.00    -0.237 OA
ATOM     72  O   UNL A   1      37.261  30.529  38.010  1.00  0.00    -0.744 OA
ENDBRANCH  66  69
ENDBRANCH  39  62
ENDBRANCH  13  14
ENDBRANCH   6   8
ENDBRANCH   5   6
ENDBRANCH   4   5
ENDBRANCH   3   4
ENDBRANCH   2   3
ENDBRANCH   1   2
BRANCH   1  73
ATOM     73  C   UNL A   1      40.881  23.256  26.851  1.00  0.00     0.188 C 
BRANCH  73  74
ATOM     74  O   UNL A   1      39.652  23.935  26.648  1.00  0.00    -0.376 OA
BRANCH  74  75
ATOM     75  C   UNL A   1      38.482  23.144  26.468  1.00  0.00     0.202 C 
BRANCH  75  76
ATOM     76  C   UNL A   1      37.404  23.575  25.456  1.00  0.00     0.261 C 
BRANCH  76  77
ATOM     77  O   UNL A   1      36.756  22.495  24.777  1.00  0.00    -0.463 OA
BRANCH  77  78
ATOM     78  C   UNL A   1      35.524  22.187  25.253  1.00  0.00     0.312 C 
ATOM     79  O   UNL A   1      35.090  22.534  26.347  1.00  0.00    -0.252 OA
BRANCH  78  80
ATOM     80  C   UNL A   1      34.676  21.404  24.279  1.00  0.00     0.124 C 
ATOM     81  C   UNL A   1      33.897  22.310  23.415  1.00  0.00    -0.014 C 
ATOM     82  C   UNL A   1      33.571  20.440  24.757  1.00  0.00     0.048 C 
ATOM     83  C   UNL A   1      32.613  22.066  23.655  1.00  0.00    -0.006 C 
ATOM     84  C   UNL A   1      32.268  21.239  24.847  1.00  0.00     0.106 C 
BRANCH  84  85
ATOM     85  N   UNL A   1      31.981  22.097  26.077  1.00  0.00    -0.347 N 
ATOM     86  C   UNL A   1      31.330  23.311  26.418  1.00  0.00     0.261 C 
ATOM     87  H   UNL A   1      32.365  21.680  26.881  1.00  0.00     0.164 HD
ATOM     88  O   UNL A   1      31.427  23.530  27.654  1.00  0.00    -0.271 OA
BRANCH  86  89
ATOM     89  C   UNL A   1      30.422  24.603  25.586  1.00  0.00     0.266 C 
ATOM     90  C   UNL A   1      29.794  26.158  24.265  1.00  0.00     0.095 C 
ATOM     91  O   UNL A   1      32.410  24.861  25.392  1.00  0.00    -0.480 OA
ATOM     92  C   UNL A   1      31.513  26.973  23.498  1.00  0.00    -0.002 A 
ATOM     93  C   UNL A   1      32.922  26.232  24.248  1.00  0.00     0.123 A 
ATOM     94  C   UNL A   1      31.629  28.308  23.126  1.00  0.00     0.008 A 
ATOM     95  C   UNL A   1      33.887  27.071  24.804  1.00  0.00     0.047 A 
ATOM     96  C   UNL A   1      32.784  28.992  23.622  1.00  0.00     0.001 A 
ATOM     97  C   UNL A   1      33.805  28.425  24.458  1.00  0.00     0.004 A 
ENDBRANCH  86  89
ENDBRANCH  84  85
ENDBRANCH  78  80
ENDBRANCH  77  78
ENDBRANCH  76  77
ENDBRANCH  75  76
ENDBRANCH  74  75
ENDBRANCH  73  74
ENDBRANCH   1  73
TORSDOF 22
ENDMDL
