MODEL 1
REMARK VINA RESULT:      -8.2      0.000      0.000
REMARK SMILES CCc1nc(COC)cc(OCC(=O)OCCOCCOCCOC(=O)c2ccc(-c3c4nc(c(-c5cccc(S(=O)(=O)[O-])c5F)c5ccc([nH]5)c(-c5cccc(S(=O)(=O)[O-])c5F)c5nc(c(-c6cccc(S(=O)(=O)[O-])c6F)c6ccc3[nH]6)C=C5)C=C4)cc2)n1
REMARK SMILES IDX 19 1 18 2 17 3 16 4 15 5 13 6 14 7 12 8 11 9 10 10 3 11 4 12
REMARK SMILES IDX 90 13 5 14 9 15 2 16 1 17 6 18 7 19 8 20 20 21 21 22 22 23
REMARK SMILES IDX 23 24 24 25 25 26 26 27 27 28 28 29 89 30 29 31 88 32 30 33
REMARK SMILES IDX 31 34 32 35 82 36 33 37 87 38 81 39 83 40 34 41 86 42 80 43
REMARK SMILES IDX 79 44 35 46 67 47 47 48 66 49 48 50 51 51 65 52 84 53 49 54
REMARK SMILES IDX 50 55 64 57 85 58 52 59 36 60 37 61 45 62 38 63 40 64 46 65
REMARK SMILES IDX 39 66 41 67 42 68 43 69 44 70 68 71 69 72 77 73 70 74 72 75
REMARK SMILES IDX 78 76 71 77 73 78 74 79 75 80 76 81 53 82 54 83 62 84 55 85
REMARK SMILES IDX 57 86 63 87 56 88 58 89 59 90 60 91 61 92
REMARK H PARENT 83 45 51 56
REMARK Flexibility Score: inf
ROOT
ATOM      1  C   UNL A   1      34.607  33.012  33.298  1.00  0.00     0.188 C 
ENDROOT
BRANCH   1   2
ATOM      2  O   UNL A   1      34.246  33.213  31.946  1.00  0.00    -0.376 OA
BRANCH   2   3
ATOM      3  C   UNL A   1      34.286  34.547  31.477  1.00  0.00     0.202 C 
BRANCH   3   4
ATOM      4  C   UNL A   1      33.925  34.733  29.993  1.00  0.00     0.261 C 
BRANCH   4   5
ATOM      5  O   UNL A   1      34.216  33.553  29.190  1.00  0.00    -0.461 OA
BRANCH   5   6
ATOM      6  C   UNL A   1      33.344  33.227  28.190  1.00  0.00     0.344 C 
ATOM      7  O   UNL A   1      32.438  33.967  27.821  1.00  0.00    -0.248 OA
BRANCH   6   8
ATOM      8  C   UNL A   1      33.699  31.891  27.438  1.00  0.00     0.353 C 
BRANCH   8   9
ATOM      9  O   UNL A   1      32.953  30.723  27.756  1.00  0.00    -0.466 OA
BRANCH   9  10
ATOM     10  C   UNL A   1      32.752  29.685  26.872  1.00  0.00     0.217 A 
ATOM     11  C   UNL A   1      31.530  29.093  25.012  1.00  0.00     0.132 A 
ATOM     12  N   UNL A   1      31.735  27.789  25.186  1.00  0.00    -0.235 NA
ATOM     13  N   UNL A   1      31.990  30.064  25.827  1.00  0.00    -0.198 NA
ATOM     14  C   UNL A   1      32.424  27.396  26.261  1.00  0.00     0.074 A 
ATOM     15  C   UNL A   1      33.028  28.342  27.105  1.00  0.00     0.094 A 
BRANCH  11  16
ATOM     16  C   UNL A   1      30.519  29.395  23.947  1.00  0.00     0.074 C 
ATOM     17  C   UNL A   1      30.696  28.609  22.670  1.00  0.00     0.012 C 
ENDBRANCH  11  16
BRANCH  14  18
ATOM     18  C   UNL A   1      32.441  25.883  26.451  1.00  0.00     0.216 C 
BRANCH  18  19
ATOM     19  O   UNL A   1      31.129  25.270  26.525  1.00  0.00    -0.378 OA
ATOM     20  C   UNL A   1      30.324  25.382  25.358  1.00  0.00     0.195 C 
ENDBRANCH  18  19
ENDBRANCH  14  18
ENDBRANCH   9  10
ENDBRANCH   8   9
ENDBRANCH   6   8
ENDBRANCH   5   6
ENDBRANCH   4   5
ENDBRANCH   3   4
ENDBRANCH   2   3
ENDBRANCH   1   2
BRANCH   1  21
ATOM     21  C   UNL A   1      35.131  34.192  34.134  1.00  0.00     0.188 C 
BRANCH  21  22
ATOM     22  O   UNL A   1      36.468  34.550  33.885  1.00  0.00    -0.376 OA
BRANCH  22  23
ATOM     23  C   UNL A   1      37.513  33.621  34.089  1.00  0.00     0.202 C 
BRANCH  23  24
ATOM     24  C   UNL A   1      37.342  32.191  34.640  1.00  0.00     0.261 C 
BRANCH  24  25
ATOM     25  O   UNL A   1      37.385  31.045  33.742  1.00  0.00    -0.460 OA
BRANCH  25  26
ATOM     26  C   UNL A   1      38.647  30.769  33.336  1.00  0.00     0.338 C 
ATOM     27  O   UNL A   1      39.129  29.646  33.425  1.00  0.00    -0.246 OA
BRANCH  26  28
ATOM     28  C   UNL A   1      39.502  31.755  32.634  1.00  0.00     0.060 A 
ATOM     29  C   UNL A   1      39.347  31.761  31.237  1.00  0.00     0.016 A 
ATOM     30  C   UNL A   1      40.749  32.084  33.167  1.00  0.00     0.016 A 
ATOM     31  C   UNL A   1      40.452  31.869  30.394  1.00  0.00     0.010 A 
ATOM     32  C   UNL A   1      41.838  32.339  32.304  1.00  0.00     0.010 A 
ATOM     33  C   UNL A   1      41.712  32.197  30.911  1.00  0.00    -0.014 A 
BRANCH  33  34
ATOM     34  C   UNL A   1      42.802  32.578  29.967  1.00  0.00     0.031 A 
ATOM     35  C   UNL A   1      43.965  31.682  29.620  1.00  0.00     0.074 A 
ATOM     36  C   UNL A   1      42.736  33.819  29.439  1.00  0.00     0.049 A 
ATOM     37  N   UNL A   1      45.069  31.985  28.983  1.00  0.00    -0.248 NA
ATOM     38  C   UNL A   1      43.881  30.268  30.019  1.00  0.00     0.031 C 
ATOM     39  C   UNL A   1      41.639  34.768  29.659  1.00  0.00     0.029 A 
ATOM     40  N   UNL A   1      43.612  34.513  28.644  1.00  0.00    -0.354 N 
ATOM     41  C   UNL A   1      45.840  30.826  28.951  1.00  0.00     0.074 A 
ATOM     42  C   UNL A   1      45.054  29.797  29.602  1.00  0.00     0.031 C 
ATOM     43  C   UNL A   1      41.908  35.915  29.034  1.00  0.00     0.029 A 
ATOM     44  C   UNL A   1      43.247  35.829  28.480  1.00  0.00     0.049 A 
ATOM     45  H   UNL A   1      44.414  34.113  28.236  1.00  0.00     0.167 HD
ATOM     46  C   UNL A   1      47.087  30.651  28.437  1.00  0.00     0.034 A 
ATOM     47  C   UNL A   1      43.933  36.892  28.028  1.00  0.00     0.034 A 
ATOM     48  C   UNL A   1      47.843  31.692  27.774  1.00  0.00     0.049 A 
ATOM     49  C   UNL A   1      45.329  36.691  27.540  1.00  0.00     0.074 A 
ATOM     50  C   UNL A   1      49.099  31.610  27.195  1.00  0.00     0.029 A 
ATOM     51  N   UNL A   1      47.423  33.006  27.614  1.00  0.00    -0.354 N 
ATOM     52  N   UNL A   1      46.028  35.585  27.489  1.00  0.00    -0.248 NA
ATOM     53  C   UNL A   1      46.021  37.876  27.023  1.00  0.00     0.031 C 
ATOM     54  C   UNL A   1      49.456  32.879  26.727  1.00  0.00     0.029 A 
ATOM     55  C   UNL A   1      48.403  33.746  26.969  1.00  0.00     0.049 A 
ATOM     56  H   UNL A   1      46.556  33.361  27.915  1.00  0.00     0.167 HD
ATOM     57  C   UNL A   1      47.234  35.931  26.901  1.00  0.00     0.074 A 
ATOM     58  C   UNL A   1      47.160  37.348  26.600  1.00  0.00     0.031 C 
ATOM     59  C   UNL A   1      48.308  35.147  26.644  1.00  0.00     0.034 A 
BRANCH  46  60
ATOM     60  C   UNL A   1      47.749  29.296  28.569  1.00  0.00     0.023 A 
ATOM     61  C   UNL A   1      48.490  28.977  29.725  1.00  0.00     0.012 A 
ATOM     62  C   UNL A   1      47.536  28.294  27.597  1.00  0.00     0.148 A 
ATOM     63  C   UNL A   1      49.027  27.699  29.898  1.00  0.00     0.002 A 
ATOM     64  C   UNL A   1      48.040  27.011  27.794  1.00  0.00     0.091 A 
ATOM     65  F   UNL A   1      46.833  28.610  26.499  1.00  0.00    -0.205 F 
ATOM     66  C   UNL A   1      48.793  26.714  28.940  1.00  0.00     0.022 A 
BRANCH  64  67
ATOM     67  S   UNL A   1      47.724  25.654  26.656  1.00  0.00     0.127 S 
ATOM     68  O   UNL A   1      48.477  26.078  25.477  1.00  0.00    -0.237 OA
ATOM     69  O   UNL A   1      48.299  24.512  27.367  1.00  0.00    -0.237 OA
ATOM     70  O   UNL A   1      46.280  25.599  26.487  1.00  0.00    -0.744 OA
ENDBRANCH  64  67
ENDBRANCH  46  60
BRANCH  47  71
ATOM     71  C   UNL A   1      43.288  38.232  28.056  1.00  0.00     0.023 A 
ATOM     72  C   UNL A   1      42.521  38.654  26.958  1.00  0.00     0.012 A 
ATOM     73  C   UNL A   1      43.348  39.041  29.212  1.00  0.00     0.148 A 
ATOM     74  C   UNL A   1      41.834  39.866  27.001  1.00  0.00     0.002 A 
ATOM     75  C   UNL A   1      42.606  40.213  29.273  1.00  0.00     0.091 A 
ATOM     76  F   UNL A   1      44.090  38.619  30.246  1.00  0.00    -0.205 F 
ATOM     77  C   UNL A   1      41.862  40.636  28.163  1.00  0.00     0.022 A 
BRANCH  75  78
ATOM     78  S   UNL A   1      42.453  41.164  30.790  1.00  0.00     0.127 S 
ATOM     79  O   UNL A   1      43.081  42.432  30.408  1.00  0.00    -0.237 OA
ATOM     80  O   UNL A   1      40.995  41.230  30.957  1.00  0.00    -0.237 OA
ATOM     81  O   UNL A   1      43.137  40.399  31.809  1.00  0.00    -0.744 OA
ENDBRANCH  75  78
ENDBRANCH  47  71
BRANCH  59  82
ATOM     82  C   UNL A   1      49.476  35.802  25.957  1.00  0.00     0.023 A 
ATOM     83  C   UNL A   1      49.666  35.633  24.571  1.00  0.00     0.012 A 
ATOM     84  C   UNL A   1      50.376  36.602  26.687  1.00  0.00     0.148 A 
ATOM     85  C   UNL A   1      50.759  36.215  23.930  1.00  0.00     0.002 A 
ATOM     86  C   UNL A   1      51.432  37.222  26.032  1.00  0.00     0.091 A 
ATOM     87  F   UNL A   1      50.192  36.728  28.008  1.00  0.00    -0.205 F 
ATOM     88  C   UNL A   1      51.635  37.017  24.658  1.00  0.00     0.022 A 
BRANCH  86  89
ATOM     89  S   UNL A   1      52.558  38.344  26.869  1.00  0.00     0.127 S 
ATOM     90  O   UNL A   1      51.631  39.295  27.480  1.00  0.00    -0.237 OA
ATOM     91  O   UNL A   1      53.233  37.454  27.814  1.00  0.00    -0.237 OA
ATOM     92  O   UNL A   1      53.421  38.894  25.832  1.00  0.00    -0.744 OA
ENDBRANCH  86  89
ENDBRANCH  59  82
ENDBRANCH  33  34
ENDBRANCH  26  28
ENDBRANCH  25  26
ENDBRANCH  24  25
ENDBRANCH  23  24
ENDBRANCH  22  23
ENDBRANCH  21  22
ENDBRANCH   1  21
TORSDOF 25
ENDMDL
MODEL 2
REMARK VINA RESULT:      -8.0      3.575      6.060
REMARK SMILES CCc1nc(COC)cc(OCC(=O)OCCOCCOCCOC(=O)c2ccc(-c3c4nc(c(-c5cccc(S(=O)(=O)[O-])c5F)c5ccc([nH]5)c(-c5cccc(S(=O)(=O)[O-])c5F)c5nc(c(-c6cccc(S(=O)(=O)[O-])c6F)c6ccc3[nH]6)C=C5)C=C4)cc2)n1
REMARK SMILES IDX 19 1 18 2 17 3 16 4 15 5 13 6 14 7 12 8 11 9 10 10 3 11 4 12
REMARK SMILES IDX 90 13 5 14 9 15 2 16 1 17 6 18 7 19 8 20 20 21 21 22 22 23
REMARK SMILES IDX 23 24 24 25 25 26 26 27 27 28 28 29 89 30 29 31 88 32 30 33
REMARK SMILES IDX 31 34 32 35 82 36 33 37 87 38 81 39 83 40 34 41 86 42 80 43
REMARK SMILES IDX 79 44 35 46 67 47 47 48 66 49 48 50 51 51 65 52 84 53 49 54
REMARK SMILES IDX 50 55 64 57 85 58 52 59 36 60 37 61 45 62 38 63 40 64 46 65
REMARK SMILES IDX 39 66 41 67 42 68 43 69 44 70 68 71 69 72 77 73 70 74 72 75
REMARK SMILES IDX 78 76 71 77 73 78 74 79 75 80 76 81 53 82 54 83 62 84 55 85
REMARK SMILES IDX 57 86 63 87 56 88 58 89 59 90 60 91 61 92
REMARK H PARENT 83 45 51 56
REMARK Flexibility Score: inf
ROOT
ATOM      1  C   UNL A   1      34.181  33.423  33.267  1.00  0.00     0.188 C 
ENDROOT
BRANCH   1   2
ATOM      2  O   UNL A   1      34.068  33.318  31.860  1.00  0.00    -0.376 OA
BRANCH   2   3
ATOM      3  C   UNL A   1      34.291  34.504  31.123  1.00  0.00     0.202 C 
BRANCH   3   4
ATOM      4  C   UNL A   1      34.462  34.311  29.605  1.00  0.00     0.261 C 
BRANCH   4   5
ATOM      5  O   UNL A   1      34.207  32.942  29.179  1.00  0.00    -0.461 OA
BRANCH   5   6
ATOM      6  C   UNL A   1      34.903  32.465  28.105  1.00  0.00     0.344 C 
ATOM      7  O   UNL A   1      35.784  33.103  27.538  1.00  0.00    -0.248 OA
BRANCH   6   8
ATOM      8  C   UNL A   1      34.593  30.963  27.754  1.00  0.00     0.353 C 
BRANCH   8   9
ATOM      9  O   UNL A   1      33.332  30.655  27.171  1.00  0.00    -0.466 OA
BRANCH   9  10
ATOM     10  C   UNL A   1      33.178  29.798  26.103  1.00  0.00     0.217 A 
ATOM     11  C   UNL A   1      31.670  29.172  24.478  1.00  0.00     0.132 A 
ATOM     12  N   UNL A   1      32.284  28.017  24.233  1.00  0.00    -0.235 NA
ATOM     13  N   UNL A   1      32.059  30.073  25.404  1.00  0.00    -0.198 NA
ATOM     14  C   UNL A   1      33.350  27.698  24.972  1.00  0.00     0.074 A 
ATOM     15  C   UNL A   1      33.884  28.620  25.886  1.00  0.00     0.094 A 
BRANCH  11  16
ATOM     16  C   UNL A   1      30.341  29.293  23.796  1.00  0.00     0.074 C 
ATOM     17  C   UNL A   1      30.409  29.333  22.288  1.00  0.00     0.012 C 
ENDBRANCH  11  16
BRANCH  14  18
ATOM     18  C   UNL A   1      33.857  26.280  24.727  1.00  0.00     0.216 C 
BRANCH  18  19
ATOM     19  O   UNL A   1      33.602  25.353  25.812  1.00  0.00    -0.378 OA
ATOM     20  C   UNL A   1      32.241  25.205  26.197  1.00  0.00     0.195 C 
ENDBRANCH  18  19
ENDBRANCH  14  18
ENDBRANCH   9  10
ENDBRANCH   8   9
ENDBRANCH   6   8
ENDBRANCH   5   6
ENDBRANCH   4   5
ENDBRANCH   3   4
ENDBRANCH   2   3
ENDBRANCH   1   2
BRANCH   1  21
ATOM     21  C   UNL A   1      35.130  34.465  33.883  1.00  0.00     0.188 C 
BRANCH  21  22
ATOM     22  O   UNL A   1      36.199  33.930  34.623  1.00  0.00    -0.376 OA
BRANCH  22  23
ATOM     23  C   UNL A   1      36.778  32.693  34.264  1.00  0.00     0.202 C 
BRANCH  23  24
ATOM     24  C   UNL A   1      38.003  32.514  33.343  1.00  0.00     0.261 C 
BRANCH  24  25
ATOM     25  O   UNL A   1      38.622  33.668  32.707  1.00  0.00    -0.460 OA
BRANCH  25  26
ATOM     26  C   UNL A   1      39.951  33.491  32.525  1.00  0.00     0.338 C 
ATOM     27  O   UNL A   1      40.785  34.179  33.101  1.00  0.00    -0.246 OA
BRANCH  26  28
ATOM     28  C   UNL A   1      40.515  32.377  31.726  1.00  0.00     0.060 A 
ATOM     29  C   UNL A   1      41.632  31.756  32.310  1.00  0.00     0.016 A 
ATOM     30  C   UNL A   1      40.428  32.419  30.334  1.00  0.00     0.016 A 
ATOM     31  C   UNL A   1      42.734  31.392  31.538  1.00  0.00     0.010 A 
ATOM     32  C   UNL A   1      41.486  31.912  29.548  1.00  0.00     0.010 A 
ATOM     33  C   UNL A   1      42.666  31.428  30.140  1.00  0.00    -0.014 A 
BRANCH  33  34
ATOM     34  C   UNL A   1      43.747  30.773  29.348  1.00  0.00     0.031 A 
ATOM     35  C   UNL A   1      43.809  29.289  29.079  1.00  0.00     0.074 A 
ATOM     36  C   UNL A   1      44.733  31.574  28.893  1.00  0.00     0.049 A 
ATOM     37  N   UNL A   1      44.802  28.588  28.589  1.00  0.00    -0.248 NA
ATOM     38  C   UNL A   1      42.611  28.489  29.379  1.00  0.00     0.031 C 
ATOM     39  C   UNL A   1      44.767  33.033  29.046  1.00  0.00     0.029 A 
ATOM     40  N   UNL A   1      45.907  31.288  28.245  1.00  0.00    -0.354 N 
ATOM     41  C   UNL A   1      44.380  27.260  28.572  1.00  0.00     0.074 A 
ATOM     42  C   UNL A   1      43.018  27.260  29.068  1.00  0.00     0.031 C 
ATOM     43  C   UNL A   1      45.899  33.511  28.527  1.00  0.00     0.029 A 
ATOM     44  C   UNL A   1      46.724  32.387  28.121  1.00  0.00     0.049 A 
ATOM     45  H   UNL A   1      46.140  30.393  27.905  1.00  0.00     0.167 HD
ATOM     46  C   UNL A   1      45.074  26.156  28.191  1.00  0.00     0.034 A 
ATOM     47  C   UNL A   1      48.028  32.496  27.815  1.00  0.00     0.034 A 
ATOM     48  C   UNL A   1      46.429  26.186  27.682  1.00  0.00     0.049 A 
ATOM     49  C   UNL A   1      48.791  31.260  27.475  1.00  0.00     0.074 A 
ATOM     50  C   UNL A   1      47.208  25.128  27.242  1.00  0.00     0.029 A 
ATOM     51  N   UNL A   1      47.210  27.327  27.556  1.00  0.00    -0.354 N 
ATOM     52  N   UNL A   1      48.368  30.021  27.434  1.00  0.00    -0.248 NA
ATOM     53  C   UNL A   1      50.201  31.437  27.112  1.00  0.00     0.031 C 
ATOM     54  C   UNL A   1      48.471  25.622  26.896  1.00  0.00     0.029 A 
ATOM     55  C   UNL A   1      48.466  26.996  27.071  1.00  0.00     0.049 A 
ATOM     56  H   UNL A   1      46.915  28.239  27.780  1.00  0.00     0.167 HD
ATOM     57  C   UNL A   1      49.451  29.269  27.007  1.00  0.00     0.074 A 
ATOM     58  C   UNL A   1      50.543  30.199  26.786  1.00  0.00     0.031 C 
ATOM     59  C   UNL A   1      49.535  27.930  26.824  1.00  0.00     0.034 A 
BRANCH  46  60
ATOM     60  C   UNL A   1      44.414  24.799  28.314  1.00  0.00     0.023 A 
ATOM     61  C   UNL A   1      44.193  24.228  29.583  1.00  0.00     0.012 A 
ATOM     62  C   UNL A   1      43.904  24.142  27.171  1.00  0.00     0.148 A 
ATOM     63  C   UNL A   1      43.502  23.020  29.712  1.00  0.00     0.002 A 
ATOM     64  C   UNL A   1      43.183  22.959  27.311  1.00  0.00     0.091 A 
ATOM     65  F   UNL A   1      44.124  24.692  25.968  1.00  0.00    -0.205 F 
ATOM     66  C   UNL A   1      42.988  22.393  28.579  1.00  0.00     0.022 A 
BRANCH  64  67
ATOM     67  S   UNL A   1      42.412  22.119  25.919  1.00  0.00     0.127 S 
ATOM     68  O   UNL A   1      42.894  20.750  26.099  1.00  0.00    -0.237 OA
ATOM     69  O   UNL A   1      40.987  22.304  26.195  1.00  0.00    -0.237 OA
ATOM     70  O   UNL A   1      42.892  22.796  24.724  1.00  0.00    -0.744 OA
ENDBRANCH  64  67
ENDBRANCH  46  60
BRANCH  47  71
ATOM     71  C   UNL A   1      48.668  33.838  27.853  1.00  0.00     0.023 A 
ATOM     72  C   UNL A   1      48.619  34.660  26.715  1.00  0.00     0.012 A 
ATOM     73  C   UNL A   1      49.231  34.339  29.047  1.00  0.00     0.148 A 
ATOM     74  C   UNL A   1      49.133  35.956  26.759  1.00  0.00     0.002 A 
ATOM     75  C   UNL A   1      49.677  35.653  29.102  1.00  0.00     0.091 A 
ATOM     76  F   UNL A   1      49.270  33.534  30.119  1.00  0.00    -0.205 F 
ATOM     77  C   UNL A   1      49.645  36.457  27.954  1.00  0.00     0.022 A 
BRANCH  75  78
ATOM     78  S   UNL A   1      50.185  36.421  30.644  1.00  0.00     0.127 S 
ATOM     79  O   UNL A   1      51.412  35.680  30.953  1.00  0.00    -0.237 OA
ATOM     80  O   UNL A   1      50.402  37.813  30.229  1.00  0.00    -0.237 OA
ATOM     81  O   UNL A   1      49.083  36.237  31.562  1.00  0.00    -0.744 OA
ENDBRANCH  75  78
ENDBRANCH  47  71
BRANCH  59  82
ATOM     82  C   UNL A   1      50.847  27.397  26.313  1.00  0.00     0.023 A 
ATOM     83  C   UNL A   1      50.982  27.034  24.958  1.00  0.00     0.012 A 
ATOM     84  C   UNL A   1      51.952  27.273  27.177  1.00  0.00     0.148 A 
ATOM     85  C   UNL A   1      52.185  26.515  24.480  1.00  0.00     0.002 A 
ATOM     86  C   UNL A   1      53.163  26.807  26.683  1.00  0.00     0.091 A 
ATOM     87  F   UNL A   1      51.794  27.600  28.467  1.00  0.00    -0.205 F 
ATOM     88  C   UNL A   1      53.277  26.412  25.340  1.00  0.00     0.022 A 
BRANCH  86  89
ATOM     89  S   UNL A   1      54.647  26.724  27.691  1.00  0.00     0.127 S 
ATOM     90  O   UNL A   1      54.210  25.870  28.794  1.00  0.00    -0.237 OA
ATOM     91  O   UNL A   1      55.605  26.100  26.778  1.00  0.00    -0.237 OA
ATOM     92  O   UNL A   1      54.964  28.099  28.054  1.00  0.00    -0.744 OA
ENDBRANCH  86  89
ENDBRANCH  59  82
ENDBRANCH  33  34
ENDBRANCH  26  28
ENDBRANCH  25  26
ENDBRANCH  24  25
ENDBRANCH  23  24
ENDBRANCH  22  23
ENDBRANCH  21  22
ENDBRANCH   1  21
TORSDOF 25
ENDMDL
MODEL 3
REMARK VINA RESULT:      -7.9      4.606     13.791
REMARK SMILES CCc1nc(COC)cc(OCC(=O)OCCOCCOCCOC(=O)c2ccc(-c3c4nc(c(-c5cccc(S(=O)(=O)[O-])c5F)c5ccc([nH]5)c(-c5cccc(S(=O)(=O)[O-])c5F)c5nc(c(-c6cccc(S(=O)(=O)[O-])c6F)c6ccc3[nH]6)C=C5)C=C4)cc2)n1
REMARK SMILES IDX 19 1 18 2 17 3 16 4 15 5 13 6 14 7 12 8 11 9 10 10 3 11 4 12
REMARK SMILES IDX 90 13 5 14 9 15 2 16 1 17 6 18 7 19 8 20 20 21 21 22 22 23
REMARK SMILES IDX 23 24 24 25 25 26 26 27 27 28 28 29 89 30 29 31 88 32 30 33
REMARK SMILES IDX 31 34 32 35 82 36 33 37 87 38 81 39 83 40 34 41 86 42 80 43
REMARK SMILES IDX 79 44 35 46 67 47 47 48 66 49 48 50 51 51 65 52 84 53 49 54
REMARK SMILES IDX 50 55 64 57 85 58 52 59 36 60 37 61 45 62 38 63 40 64 46 65
REMARK SMILES IDX 39 66 41 67 42 68 43 69 44 70 68 71 69 72 77 73 70 74 72 75
REMARK SMILES IDX 78 76 71 77 73 78 74 79 75 80 76 81 53 82 54 83 62 84 55 85
REMARK SMILES IDX 57 86 63 87 56 88 58 89 59 90 60 91 61 92
REMARK H PARENT 83 45 51 56
REMARK Flexibility Score: inf
ROOT
ATOM      1  C   UNL A   1      45.787  35.607  26.325  1.00  0.00     0.188 C 
ENDROOT
BRANCH   1   2
ATOM      2  O   UNL A   1      44.837  36.563  26.754  1.00  0.00    -0.376 OA
BRANCH   2   3
ATOM      3  C   UNL A   1      43.477  36.235  26.545  1.00  0.00     0.202 C 
BRANCH   3   4
ATOM      4  C   UNL A   1      42.477  37.370  26.829  1.00  0.00     0.261 C 
BRANCH   4   5
ATOM      5  O   UNL A   1      43.119  38.572  27.340  1.00  0.00    -0.461 OA
BRANCH   5   6
ATOM      6  C   UNL A   1      42.378  39.718  27.401  1.00  0.00     0.344 C 
ATOM      7  O   UNL A   1      41.983  40.318  26.407  1.00  0.00    -0.248 OA
BRANCH   6   8
ATOM      8  C   UNL A   1      41.933  40.119  28.856  1.00  0.00     0.353 C 
BRANCH   8   9
ATOM      9  O   UNL A   1      42.658  41.144  29.523  1.00  0.00    -0.466 OA
BRANCH   9  10
ATOM     10  C   UNL A   1      43.176  41.007  30.793  1.00  0.00     0.217 A 
ATOM     11  C   UNL A   1      42.932  41.781  32.948  1.00  0.00     0.132 A 
ATOM     12  N   UNL A   1      44.144  41.375  33.323  1.00  0.00    -0.235 NA
ATOM     13  N   UNL A   1      42.419  41.643  31.709  1.00  0.00    -0.198 NA
ATOM     14  C   UNL A   1      44.933  40.813  32.403  1.00  0.00     0.074 A 
ATOM     15  C   UNL A   1      44.444  40.537  31.117  1.00  0.00     0.094 A 
BRANCH  11  16
ATOM     16  C   UNL A   1      42.254  42.640  33.972  1.00  0.00     0.074 C 
ATOM     17  C   UNL A   1      42.300  44.121  33.680  1.00  0.00     0.012 C 
ENDBRANCH  11  16
BRANCH  14  18
ATOM     18  C   UNL A   1      46.353  40.555  32.898  1.00  0.00     0.216 C 
BRANCH  18  19
ATOM     19  O   UNL A   1      47.387  41.229  32.137  1.00  0.00    -0.378 OA
ATOM     20  C   UNL A   1      48.572  40.479  31.899  1.00  0.00     0.195 C 
ENDBRANCH  18  19
ENDBRANCH  14  18
ENDBRANCH   9  10
ENDBRANCH   8   9
ENDBRANCH   6   8
ENDBRANCH   5   6
ENDBRANCH   4   5
ENDBRANCH   3   4
ENDBRANCH   2   3
ENDBRANCH   1   2
BRANCH   1  21
ATOM     21  C   UNL A   1      47.228  36.046  26.015  1.00  0.00     0.188 C 
BRANCH  21  22
ATOM     22  O   UNL A   1      47.694  37.135  26.771  1.00  0.00    -0.376 OA
BRANCH  22  23
ATOM     23  C   UNL A   1      48.379  36.927  27.989  1.00  0.00     0.202 C 
BRANCH  23  24
ATOM     24  C   UNL A   1      47.990  35.895  29.068  1.00  0.00     0.261 C 
BRANCH  24  25
ATOM     25  O   UNL A   1      48.369  36.104  30.458  1.00  0.00    -0.460 OA
BRANCH  25  26
ATOM     26  C   UNL A   1      47.288  36.258  31.258  1.00  0.00     0.338 C 
ATOM     27  O   UNL A   1      47.176  37.204  32.028  1.00  0.00    -0.246 OA
BRANCH  26  28
ATOM     28  C   UNL A   1      46.095  35.381  31.179  1.00  0.00     0.060 A 
ATOM     29  C   UNL A   1      46.310  34.072  31.645  1.00  0.00     0.016 A 
ATOM     30  C   UNL A   1      45.163  35.581  30.160  1.00  0.00     0.016 A 
ATOM     31  C   UNL A   1      45.783  32.975  30.966  1.00  0.00     0.010 A 
ATOM     32  C   UNL A   1      44.517  34.472  29.570  1.00  0.00     0.010 A 
ATOM     33  C   UNL A   1      44.848  33.156  29.939  1.00  0.00    -0.014 A 
BRANCH  33  34
ATOM     34  C   UNL A   1      44.099  31.971  29.429  1.00  0.00     0.031 A 
ATOM     35  C   UNL A   1      42.670  31.658  29.799  1.00  0.00     0.074 A 
ATOM     36  C   UNL A   1      44.779  31.129  28.623  1.00  0.00     0.049 A 
ATOM     37  N   UNL A   1      41.994  30.555  29.587  1.00  0.00    -0.248 NA
ATOM     38  C   UNL A   1      41.893  32.707  30.476  1.00  0.00     0.031 C 
ATOM     39  C   UNL A   1      46.152  31.342  28.153  1.00  0.00     0.029 A 
ATOM     40  N   UNL A   1      44.435  29.916  28.084  1.00  0.00    -0.354 N 
ATOM     41  C   UNL A   1      40.734  30.747  30.150  1.00  0.00     0.074 A 
ATOM     42  C   UNL A   1      40.728  32.096  30.682  1.00  0.00     0.031 C 
ATOM     43  C   UNL A   1      46.539  30.300  27.415  1.00  0.00     0.029 A 
ATOM     44  C   UNL A   1      45.494  29.293  27.465  1.00  0.00     0.049 A 
ATOM     45  H   UNL A   1      43.529  29.532  28.134  1.00  0.00     0.167 HD
ATOM     46  C   UNL A   1      39.697  29.873  30.223  1.00  0.00     0.034 A 
ATOM     47  C   UNL A   1      45.668  28.023  27.063  1.00  0.00     0.034 A 
ATOM     48  C   UNL A   1      39.722  28.537  29.666  1.00  0.00     0.049 A 
ATOM     49  C   UNL A   1      44.540  27.059  27.223  1.00  0.00     0.074 A 
ATOM     50  C   UNL A   1      38.715  27.586  29.661  1.00  0.00     0.029 A 
ATOM     51  N   UNL A   1      40.812  27.957  29.031  1.00  0.00    -0.354 N 
ATOM     52  N   UNL A   1      43.349  27.267  27.728  1.00  0.00    -0.248 NA
ATOM     53  C   UNL A   1      44.768  25.695  26.735  1.00  0.00     0.031 C 
ATOM     54  C   UNL A   1      39.209  26.420  29.065  1.00  0.00     0.029 A 
ATOM     55  C   UNL A   1      40.510  26.657  28.652  1.00  0.00     0.049 A 
ATOM     56  H   UNL A   1      41.674  28.404  28.871  1.00  0.00     0.167 HD
ATOM     57  C   UNL A   1      42.669  26.068  27.589  1.00  0.00     0.074 A 
ATOM     58  C   UNL A   1      43.579  25.146  26.935  1.00  0.00     0.031 C 
ATOM     59  C   UNL A   1      41.408  25.758  27.975  1.00  0.00     0.034 A 
BRANCH  46  60
ATOM     60  C   UNL A   1      38.432  30.297  30.939  1.00  0.00     0.023 A 
ATOM     61  C   UNL A   1      38.268  30.027  32.312  1.00  0.00     0.012 A 
ATOM     62  C   UNL A   1      37.454  31.071  30.273  1.00  0.00     0.148 A 
ATOM     63  C   UNL A   1      37.147  30.495  33.003  1.00  0.00     0.002 A 
ATOM     64  C   UNL A   1      36.360  31.567  30.977  1.00  0.00     0.091 A 
ATOM     65  F   UNL A   1      37.618  31.317  28.965  1.00  0.00    -0.205 F 
ATOM     66  C   UNL A   1      36.200  31.273  32.339  1.00  0.00     0.022 A 
BRANCH  64  67
ATOM     67  S   UNL A   1      35.129  32.644  30.229  1.00  0.00     0.127 S 
ATOM     68  O   UNL A   1      34.546  31.766  29.215  1.00  0.00    -0.237 OA
ATOM     69  O   UNL A   1      34.246  32.939  31.359  1.00  0.00    -0.237 OA
ATOM     70  O   UNL A   1      35.859  33.793  29.713  1.00  0.00    -0.744 OA
ENDBRANCH  64  67
ENDBRANCH  46  60
BRANCH  47  71
ATOM     71  C   UNL A   1      46.983  27.618  26.500  1.00  0.00     0.023 A 
ATOM     72  C   UNL A   1      47.942  27.025  27.338  1.00  0.00     0.012 A 
ATOM     73  C   UNL A   1      47.242  27.723  25.116  1.00  0.00     0.148 A 
ATOM     74  C   UNL A   1      49.145  26.556  26.812  1.00  0.00     0.002 A 
ATOM     75  C   UNL A   1      48.412  27.191  24.590  1.00  0.00     0.091 A 
ATOM     76  F   UNL A   1      46.313  28.296  24.336  1.00  0.00    -0.205 F 
ATOM     77  C   UNL A   1      49.372  26.623  25.439  1.00  0.00     0.022 A 
BRANCH  75  78
ATOM     78  S   UNL A   1      48.696  27.083  22.819  1.00  0.00     0.127 S 
ATOM     79  O   UNL A   1      47.784  28.112  22.310  1.00  0.00    -0.237 OA
ATOM     80  O   UNL A   1      50.120  27.428  22.722  1.00  0.00    -0.237 OA
ATOM     81  O   UNL A   1      48.385  25.720  22.449  1.00  0.00    -0.744 OA
ENDBRANCH  75  78
ENDBRANCH  47  71
BRANCH  59  82
ATOM     82  C   UNL A   1      40.924  24.369  27.654  1.00  0.00     0.023 A 
ATOM     83  C   UNL A   1      41.591  23.248  28.184  1.00  0.00     0.012 A 
ATOM     84  C   UNL A   1      39.791  24.180  26.838  1.00  0.00     0.148 A 
ATOM     85  C   UNL A   1      41.166  21.957  27.872  1.00  0.00     0.002 A 
ATOM     86  C   UNL A   1      39.340  22.893  26.575  1.00  0.00     0.091 A 
ATOM     87  F   UNL A   1      39.187  25.260  26.323  1.00  0.00    -0.205 F 
ATOM     88  C   UNL A   1      40.035  21.780  27.077  1.00  0.00     0.022 A 
BRANCH  86  89
ATOM     89  S   UNL A   1      37.844  22.570  25.637  1.00  0.00     0.127 S 
ATOM     90  O   UNL A   1      36.805  22.945  26.595  1.00  0.00    -0.237 OA
ATOM     91  O   UNL A   1      37.988  23.484  24.503  1.00  0.00    -0.237 OA
ATOM     92  O   UNL A   1      37.887  21.157  25.285  1.00  0.00    -0.744 OA
ENDBRANCH  86  89
ENDBRANCH  59  82
ENDBRANCH  33  34
ENDBRANCH  26  28
ENDBRANCH  25  26
ENDBRANCH  24  25
ENDBRANCH  23  24
ENDBRANCH  22  23
ENDBRANCH  21  22
ENDBRANCH   1  21
TORSDOF 25
ENDMDL
