MODEL 1
REMARK VINA RESULT:      -9.8      0.000      0.000
REMARK SMILES O=C(CNC(=O)[C@H]1CC[C@@H](Cn2cnc3ccccc3c2=O)CC1)OCCOCCOCCOC(=O)c1ccc(-c2c3nc(c(-c4cccc(S(=O)(=O)[O-])c4F)c4ccc([nH]4)c(-c4cccc(S(=O)(=O)[O-])c4F)c4nc(c(-c5cccc(S(=O)(=O)[O-])c5F)c5ccc2[nH]5)C=C4)C=C3)cc1
REMARK SMILES IDX 29 1 28 2 27 3 26 4 25 5 2 6 1 7 3 8 4 9 5 10 6 12 7 13
REMARK SMILES IDX 24 14 8 15 23 16 9 17 10 18 11 19 12 20 13 21 21 22 14 23
REMARK SMILES IDX 20 24 22 25 15 26 19 27 16 28 18 29 17 30 30 31 31 32 32 33
REMARK SMILES IDX 33 34 34 35 35 36 36 37 37 38 38 39 99 40 39 41 98 42 40 43
REMARK SMILES IDX 41 44 42 45 92 46 43 47 97 48 91 49 93 50 44 51 96 52 90 53
REMARK SMILES IDX 89 54 45 56 77 57 57 58 76 59 58 60 61 61 75 62 94 63 59 64
REMARK SMILES IDX 60 65 74 67 95 68 62 69 46 70 47 71 55 72 48 73 50 74 56 75
REMARK SMILES IDX 49 76 51 77 52 78 53 79 54 80 78 81 79 82 87 83 80 84 82 85
REMARK SMILES IDX 88 86 81 87 83 88 84 89 85 90 86 91 63 92 64 93 72 94 65 95
REMARK SMILES IDX 67 96 73 97 66 98 68 99 69 100 70 101 71 102
REMARK H PARENT 4 11 93 55 61 66
REMARK Flexibility Score: inf
ROOT
ATOM      1  C   UNL A   1      39.238  27.537  28.315  1.00  0.00     0.188 C 
ENDROOT
BRANCH   1   2
ATOM      2  O   UNL A   1      40.203  26.607  27.831  1.00  0.00    -0.376 OA
BRANCH   2   3
ATOM      3  C   UNL A   1      39.801  25.261  28.024  1.00  0.00     0.202 C 
BRANCH   3   4
ATOM      4  C   UNL A   1      39.981  24.475  26.726  1.00  0.00     0.261 C 
BRANCH   4   5
ATOM      5  O   UNL A   1      39.163  23.289  26.642  1.00  0.00    -0.462 OA
BRANCH   5   6
ATOM      6  C   UNL A   1      37.951  23.218  26.027  1.00  0.00     0.325 C 
ATOM      7  O   UNL A   1      37.264  24.242  25.975  1.00  0.00    -0.250 OA
BRANCH   6   8
ATOM      8  C   UNL A   1      37.397  21.871  25.521  1.00  0.00     0.238 C 
BRANCH   8   9
ATOM      9  N   UNL A   1      36.210  21.404  26.219  1.00  0.00    -0.345 N 
ATOM     10  C   UNL A   1      34.920  21.206  25.860  1.00  0.00     0.223 C 
ATOM     11  H   UNL A   1      36.383  21.181  27.163  1.00  0.00     0.164 HD
ATOM     12  O   UNL A   1      34.185  20.770  26.755  1.00  0.00    -0.275 OA
BRANCH  10  13
ATOM     13  C   UNL A   1      34.299  21.556  24.494  1.00  0.00     0.078 C 
ATOM     14  C   UNL A   1      32.854  21.088  24.380  1.00  0.00     0.014 C 
ATOM     15  C   UNL A   1      34.471  22.999  24.035  1.00  0.00     0.014 C 
ATOM     16  C   UNL A   1      32.108  21.466  23.090  1.00  0.00     0.006 C 
ATOM     17  C   UNL A   1      33.878  23.208  22.636  1.00  0.00     0.006 C 
ATOM     18  C   UNL A   1      32.389  22.881  22.515  1.00  0.00     0.009 C 
BRANCH  18  19
ATOM     19  C   UNL A   1      31.415  23.912  23.117  1.00  0.00     0.130 C 
BRANCH  19  20
ATOM     20  N   UNL A   1      31.902  25.232  23.555  1.00  0.00    -0.298 N 
ATOM     21  C   UNL A   1      31.788  26.609  22.563  1.00  0.00     0.203 A 
ATOM     22  C   UNL A   1      31.867  25.358  25.352  1.00  0.00     0.261 A 
ATOM     23  N   UNL A   1      31.650  27.985  22.978  1.00  0.00    -0.238 NA
ATOM     24  C   UNL A   1      31.621  27.407  26.015  1.00  0.00     0.066 A 
ATOM     25  O   UNL A   1      31.983  24.192  25.796  1.00  0.00    -0.269 OA
ATOM     26  C   UNL A   1      31.525  28.562  24.669  1.00  0.00     0.077 A 
ATOM     27  C   UNL A   1      31.668  28.106  27.287  1.00  0.00     0.016 A 
ATOM     28  C   UNL A   1      31.505  29.930  24.908  1.00  0.00     0.029 A 
ATOM     29  C   UNL A   1      31.782  29.506  27.356  1.00  0.00     0.001 A 
ATOM     30  C   UNL A   1      31.688  30.366  26.236  1.00  0.00     0.002 A 
ENDBRANCH  19  20
ENDBRANCH  18  19
ENDBRANCH  10  13
ENDBRANCH   8   9
ENDBRANCH   6   8
ENDBRANCH   5   6
ENDBRANCH   4   5
ENDBRANCH   3   4
ENDBRANCH   2   3
ENDBRANCH   1   2
BRANCH   1  31
ATOM     31  C   UNL A   1      39.528  28.863  27.692  1.00  0.00     0.188 C 
BRANCH  31  32
ATOM     32  O   UNL A   1      38.670  29.931  28.080  1.00  0.00    -0.376 OA
BRANCH  32  33
ATOM     33  C   UNL A   1      37.302  29.680  27.739  1.00  0.00     0.202 C 
BRANCH  33  34
ATOM     34  C   UNL A   1      36.277  30.228  28.755  1.00  0.00     0.261 C 
BRANCH  34  35
ATOM     35  O   UNL A   1      36.370  29.612  30.063  1.00  0.00    -0.460 OA
BRANCH  35  36
ATOM     36  C   UNL A   1      36.715  30.273  31.217  1.00  0.00     0.338 C 
ATOM     37  O   UNL A   1      35.989  30.892  31.963  1.00  0.00    -0.246 OA
BRANCH  36  38
ATOM     38  C   UNL A   1      38.142  29.883  31.421  1.00  0.00     0.060 A 
ATOM     39  C   UNL A   1      38.224  28.338  32.151  1.00  0.00     0.016 A 
ATOM     40  C   UNL A   1      39.617  30.781  31.352  1.00  0.00     0.016 A 
ATOM     41  C   UNL A   1      39.948  27.629  32.887  1.00  0.00     0.010 A 
ATOM     42  C   UNL A   1      41.185  30.166  31.982  1.00  0.00     0.010 A 
ATOM     43  C   UNL A   1      41.397  28.575  32.712  1.00  0.00    -0.014 A 
BRANCH  43  44
ATOM     44  C   UNL A   1      42.734  27.892  32.793  1.00  0.00     0.031 A 
ATOM     45  C   UNL A   1      43.445  27.900  34.094  1.00  0.00     0.074 A 
ATOM     46  C   UNL A   1      43.374  27.352  31.720  1.00  0.00     0.049 A 
ATOM     47  N   UNL A   1      44.676  27.557  34.342  1.00  0.00    -0.248 NA
ATOM     48  C   UNL A   1      42.650  28.262  35.276  1.00  0.00     0.031 C 
ATOM     49  C   UNL A   1      42.790  26.991  30.437  1.00  0.00     0.029 A 
ATOM     50  N   UNL A   1      44.711  27.077  31.491  1.00  0.00    -0.354 N 
ATOM     51  C   UNL A   1      44.794  27.606  35.715  1.00  0.00     0.074 A 
ATOM     52  C   UNL A   1      43.549  28.125  36.240  1.00  0.00     0.031 C 
ATOM     53  C   UNL A   1      43.730  26.818  29.503  1.00  0.00     0.029 A 
ATOM     54  C   UNL A   1      45.016  26.912  30.146  1.00  0.00     0.049 A 
ATOM     55  H   UNL A   1      45.380  27.006  32.210  1.00  0.00     0.167 HD
ATOM     56  C   UNL A   1      45.820  27.157  36.466  1.00  0.00     0.034 A 
ATOM     57  C   UNL A   1      46.177  26.791  29.472  1.00  0.00     0.034 A 
ATOM     58  C   UNL A   1      47.041  26.632  35.924  1.00  0.00     0.049 A 
ATOM     59  C   UNL A   1      47.381  26.513  30.300  1.00  0.00     0.074 A 
ATOM     60  C   UNL A   1      48.148  26.167  36.607  1.00  0.00     0.029 A 
ATOM     61  N   UNL A   1      47.323  26.518  34.570  1.00  0.00    -0.354 N 
ATOM     62  N   UNL A   1      47.464  26.521  31.607  1.00  0.00    -0.248 NA
ATOM     63  C   UNL A   1      48.594  26.068  29.608  1.00  0.00     0.031 C 
ATOM     64  C   UNL A   1      49.118  25.815  35.666  1.00  0.00     0.029 A 
ATOM     65  C   UNL A   1      48.602  26.022  34.395  1.00  0.00     0.049 A 
ATOM     66  H   UNL A   1      46.704  26.755  33.842  1.00  0.00     0.167 HD
ATOM     67  C   UNL A   1      48.710  26.011  31.906  1.00  0.00     0.074 A 
ATOM     68  C   UNL A   1      49.362  25.730  30.638  1.00  0.00     0.031 C 
ATOM     69  C   UNL A   1      49.242  25.772  33.127  1.00  0.00     0.034 A 
BRANCH  56  70
ATOM     70  C   UNL A   1      45.620  27.188  37.946  1.00  0.00     0.023 A 
ATOM     71  C   UNL A   1      45.073  26.064  38.599  1.00  0.00     0.012 A 
ATOM     72  C   UNL A   1      45.952  28.335  38.685  1.00  0.00     0.148 A 
ATOM     73  C   UNL A   1      44.839  26.091  39.972  1.00  0.00     0.002 A 
ATOM     74  C   UNL A   1      45.739  28.346  40.054  1.00  0.00     0.091 A 
ATOM     75  F   UNL A   1      46.447  29.393  38.028  1.00  0.00    -0.205 F 
ATOM     76  C   UNL A   1      45.180  27.228  40.699  1.00  0.00     0.022 A 
BRANCH  74  77
ATOM     77  S   UNL A   1      46.130  29.766  41.077  1.00  0.00     0.127 S 
ATOM     78  O   UNL A   1      47.548  29.962  40.775  1.00  0.00    -0.237 OA
ATOM     79  O   UNL A   1      45.240  30.786  40.530  1.00  0.00    -0.237 OA
ATOM     80  O   UNL A   1      45.846  29.368  42.449  1.00  0.00    -0.744 OA
ENDBRANCH  74  77
ENDBRANCH  56  70
BRANCH  57  81
ATOM     81  C   UNL A   1      46.180  26.725  27.977  1.00  0.00     0.023 A 
ATOM     82  C   UNL A   1      46.476  27.881  27.230  1.00  0.00     0.012 A 
ATOM     83  C   UNL A   1      46.013  25.498  27.297  1.00  0.00     0.148 A 
ATOM     84  C   UNL A   1      46.633  27.817  25.842  1.00  0.00     0.002 A 
ATOM     85  C   UNL A   1      46.164  25.442  25.911  1.00  0.00     0.091 A 
ATOM     86  F   UNL A   1      45.740  24.404  28.021  1.00  0.00    -0.205 F 
ATOM     87  C   UNL A   1      46.485  26.600  25.184  1.00  0.00     0.022 A 
BRANCH  85  88
ATOM     88  S   UNL A   1      45.996  23.925  24.957  1.00  0.00     0.127 S 
ATOM     89  O   UNL A   1      46.864  24.193  23.811  1.00  0.00    -0.237 OA
ATOM     90  O   UNL A   1      46.506  22.925  25.894  1.00  0.00    -0.237 OA
ATOM     91  O   UNL A   1      44.578  23.806  24.646  1.00  0.00    -0.744 OA
ENDBRANCH  85  88
ENDBRANCH  57  81
BRANCH  69  92
ATOM     92  C   UNL A   1      50.628  25.212  33.164  1.00  0.00     0.023 A 
ATOM     93  C   UNL A   1      51.717  26.089  33.318  1.00  0.00     0.012 A 
ATOM     94  C   UNL A   1      50.835  23.821  33.159  1.00  0.00     0.148 A 
ATOM     95  C   UNL A   1      53.005  25.584  33.465  1.00  0.00     0.002 A 
ATOM     96  C   UNL A   1      52.116  23.325  33.337  1.00  0.00     0.091 A 
ATOM     97  F   UNL A   1      49.772  23.017  33.005  1.00  0.00    -0.205 F 
ATOM     98  C   UNL A   1      53.202  24.204  33.490  1.00  0.00     0.022 A 
BRANCH  96  99
ATOM     99  S   UNL A   1      52.466  21.567  33.416  1.00  0.00     0.127 S 
ATOM    100  O   UNL A   1      52.200  21.153  32.039  1.00  0.00    -0.237 OA
ATOM    101  O   UNL A   1      53.877  21.554  33.799  1.00  0.00    -0.237 OA
ATOM    102  O   UNL A   1      51.557  21.015  34.412  1.00  0.00    -0.744 OA
ENDBRANCH  96  99
ENDBRANCH  69  92
ENDBRANCH  43  44
ENDBRANCH  36  38
ENDBRANCH  35  36
ENDBRANCH  34  35
ENDBRANCH  33  34
ENDBRANCH  32  33
ENDBRANCH  31  32
ENDBRANCH   1  31
TORSDOF 24
ENDMDL
MODEL 2
REMARK VINA RESULT:      -8.6      7.629     12.161
REMARK SMILES O=C(CNC(=O)[C@H]1CC[C@@H](Cn2cnc3ccccc3c2=O)CC1)OCCOCCOCCOC(=O)c1ccc(-c2c3nc(c(-c4cccc(S(=O)(=O)[O-])c4F)c4ccc([nH]4)c(-c4cccc(S(=O)(=O)[O-])c4F)c4nc(c(-c5cccc(S(=O)(=O)[O-])c5F)c5ccc2[nH]5)C=C4)C=C3)cc1
REMARK SMILES IDX 29 1 28 2 27 3 26 4 25 5 2 6 1 7 3 8 4 9 5 10 6 12 7 13
REMARK SMILES IDX 24 14 8 15 23 16 9 17 10 18 11 19 12 20 13 21 21 22 14 23
REMARK SMILES IDX 20 24 22 25 15 26 19 27 16 28 18 29 17 30 30 31 31 32 32 33
REMARK SMILES IDX 33 34 34 35 35 36 36 37 37 38 38 39 99 40 39 41 98 42 40 43
REMARK SMILES IDX 41 44 42 45 92 46 43 47 97 48 91 49 93 50 44 51 96 52 90 53
REMARK SMILES IDX 89 54 45 56 77 57 57 58 76 59 58 60 61 61 75 62 94 63 59 64
REMARK SMILES IDX 60 65 74 67 95 68 62 69 46 70 47 71 55 72 48 73 50 74 56 75
REMARK SMILES IDX 49 76 51 77 52 78 53 79 54 80 78 81 79 82 87 83 80 84 82 85
REMARK SMILES IDX 88 86 81 87 83 88 84 89 85 90 86 91 63 92 64 93 72 94 65 95
REMARK SMILES IDX 67 96 73 97 66 98 68 99 69 100 70 101 71 102
REMARK H PARENT 4 11 93 55 61 66
REMARK Flexibility Score: inf
ROOT
ATOM      1  C   UNL A   1      39.938  27.112  28.586  1.00  0.00     0.188 C 
ENDROOT
BRANCH   1   2
ATOM      2  O   UNL A   1      40.578  26.231  27.667  1.00  0.00    -0.376 OA
BRANCH   2   3
ATOM      3  C   UNL A   1      40.455  24.871  28.048  1.00  0.00     0.202 C 
BRANCH   3   4
ATOM      4  C   UNL A   1      40.424  23.985  26.803  1.00  0.00     0.261 C 
BRANCH   4   5
ATOM      5  O   UNL A   1      39.355  23.016  26.802  1.00  0.00    -0.462 OA
BRANCH   5   6
ATOM      6  C   UNL A   1      38.244  23.080  26.018  1.00  0.00     0.325 C 
ATOM      7  O   UNL A   1      37.770  24.191  25.768  1.00  0.00    -0.250 OA
BRANCH   6   8
ATOM      8  C   UNL A   1      37.525  21.795  25.557  1.00  0.00     0.238 C 
BRANCH   8   9
ATOM      9  N   UNL A   1      36.308  21.487  26.291  1.00  0.00    -0.345 N 
ATOM     10  C   UNL A   1      35.004  21.370  25.948  1.00  0.00     0.223 C 
ATOM     11  H   UNL A   1      36.468  21.327  27.249  1.00  0.00     0.164 HD
ATOM     12  O   UNL A   1      34.241  21.070  26.876  1.00  0.00    -0.275 OA
BRANCH  10  13
ATOM     13  C   UNL A   1      34.404  21.660  24.559  1.00  0.00     0.078 C 
ATOM     14  C   UNL A   1      32.965  21.178  24.439  1.00  0.00     0.014 C 
ATOM     15  C   UNL A   1      34.576  23.084  24.045  1.00  0.00     0.014 C 
ATOM     16  C   UNL A   1      32.239  21.498  23.122  1.00  0.00     0.006 C 
ATOM     17  C   UNL A   1      34.007  23.232  22.628  1.00  0.00     0.006 C 
ATOM     18  C   UNL A   1      32.522  22.891  22.495  1.00  0.00     0.009 C 
BRANCH  18  19
ATOM     19  C   UNL A   1      31.532  23.939  23.037  1.00  0.00     0.130 C 
BRANCH  19  20
ATOM     20  N   UNL A   1      32.018  25.237  23.539  1.00  0.00    -0.298 N 
ATOM     21  C   UNL A   1      31.988  26.641  22.579  1.00  0.00     0.203 A 
ATOM     22  C   UNL A   1      31.880  25.316  25.333  1.00  0.00     0.261 A 
ATOM     23  N   UNL A   1      31.853  28.008  23.024  1.00  0.00    -0.238 NA
ATOM     24  C   UNL A   1      31.637  27.352  26.037  1.00  0.00     0.066 A 
ATOM     25  O   UNL A   1      31.948  24.137  25.751  1.00  0.00    -0.269 OA
ATOM     26  C   UNL A   1      31.641  28.544  24.720  1.00  0.00     0.077 A 
ATOM     27  C   UNL A   1      31.623  28.017  27.328  1.00  0.00     0.016 A 
ATOM     28  C   UNL A   1      31.634  29.905  24.994  1.00  0.00     0.029 A 
ATOM     29  C   UNL A   1      31.761  29.411  27.441  1.00  0.00     0.001 A 
ATOM     30  C   UNL A   1      31.748  30.303  26.342  1.00  0.00     0.002 A 
ENDBRANCH  19  20
ENDBRANCH  18  19
ENDBRANCH  10  13
ENDBRANCH   8   9
ENDBRANCH   6   8
ENDBRANCH   5   6
ENDBRANCH   4   5
ENDBRANCH   3   4
ENDBRANCH   2   3
ENDBRANCH   1   2
BRANCH   1  31
ATOM     31  C   UNL A   1      39.977  28.488  28.005  1.00  0.00     0.188 C 
BRANCH  31  32
ATOM     32  O   UNL A   1      39.410  29.516  28.809  1.00  0.00    -0.376 OA
BRANCH  32  33
ATOM     33  C   UNL A   1      37.982  29.565  28.700  1.00  0.00     0.202 C 
BRANCH  33  34
ATOM     34  C   UNL A   1      37.232  29.422  30.041  1.00  0.00     0.261 C 
BRANCH  34  35
ATOM     35  O   UNL A   1      38.041  28.856  31.101  1.00  0.00    -0.460 OA
BRANCH  35  36
ATOM     36  C   UNL A   1      37.797  29.018  32.444  1.00  0.00     0.338 C 
ATOM     37  O   UNL A   1      37.372  28.197  33.225  1.00  0.00    -0.246 OA
BRANCH  36  38
ATOM     38  C   UNL A   1      38.360  30.371  32.732  1.00  0.00     0.060 A 
ATOM     39  C   UNL A   1      39.910  30.219  33.438  1.00  0.00     0.016 A 
ATOM     40  C   UNL A   1      37.646  31.945  32.774  1.00  0.00     0.016 A 
ATOM     41  C   UNL A   1      40.830  31.793  34.271  1.00  0.00     0.010 A 
ATOM     42  C   UNL A   1      38.452  33.382  33.494  1.00  0.00     0.010 A 
ATOM     43  C   UNL A   1      40.064  33.354  34.207  1.00  0.00    -0.014 A 
BRANCH  43  44
ATOM     44  C   UNL A   1      40.904  34.591  34.362  1.00  0.00     0.031 A 
ATOM     45  C   UNL A   1      41.782  34.986  33.235  1.00  0.00     0.074 A 
ATOM     46  C   UNL A   1      40.978  35.315  35.513  1.00  0.00     0.049 A 
ATOM     47  N   UNL A   1      42.726  35.882  33.224  1.00  0.00    -0.248 NA
ATOM     48  C   UNL A   1      41.513  34.351  31.937  1.00  0.00     0.031 C 
ATOM     49  C   UNL A   1      40.046  35.292  36.629  1.00  0.00     0.029 A 
ATOM     50  N   UNL A   1      41.948  36.178  35.993  1.00  0.00    -0.354 N 
ATOM     51  C   UNL A   1      43.130  35.965  31.908  1.00  0.00     0.074 A 
ATOM     52  C   UNL A   1      42.415  34.945  31.169  1.00  0.00     0.031 C 
ATOM     53  C   UNL A   1      40.580  35.842  37.724  1.00  0.00     0.029 A 
ATOM     54  C   UNL A   1      41.857  36.400  37.361  1.00  0.00     0.049 A 
ATOM     55  H   UNL A   1      42.634  36.593  35.422  1.00  0.00     0.167 HD
ATOM     56  C   UNL A   1      43.950  36.883  31.358  1.00  0.00     0.034 A 
ATOM     57  C   UNL A   1      42.658  37.021  38.250  1.00  0.00     0.034 A 
ATOM     58  C   UNL A   1      44.639  37.894  32.108  1.00  0.00     0.049 A 
ATOM     59  C   UNL A   1      43.728  37.877  37.670  1.00  0.00     0.074 A 
ATOM     60  C   UNL A   1      45.507  38.862  31.640  1.00  0.00     0.029 A 
ATOM     61  N   UNL A   1      44.550  38.060  33.483  1.00  0.00    -0.354 N 
ATOM     62  N   UNL A   1      44.069  37.975  36.409  1.00  0.00    -0.248 NA
ATOM     63  C   UNL A   1      44.417  38.808  38.568  1.00  0.00     0.031 C 
ATOM     64  C   UNL A   1      45.980  39.583  32.739  1.00  0.00     0.029 A 
ATOM     65  C   UNL A   1      45.377  39.093  33.887  1.00  0.00     0.049 A 
ATOM     66  H   UNL A   1      43.984  37.522  34.082  1.00  0.00     0.167 HD
ATOM     67  C   UNL A   1      44.957  39.028  36.342  1.00  0.00     0.074 A 
ATOM     68  C   UNL A   1      45.125  39.520  37.699  1.00  0.00     0.031 C 
ATOM     69  C   UNL A   1      45.549  39.552  35.244  1.00  0.00     0.034 A 
BRANCH  56  70
ATOM     70  C   UNL A   1      44.095  36.835  29.872  1.00  0.00     0.023 A 
ATOM     71  C   UNL A   1      43.223  37.592  29.062  1.00  0.00     0.012 A 
ATOM     72  C   UNL A   1      45.077  36.027  29.278  1.00  0.00     0.148 A 
ATOM     73  C   UNL A   1      43.314  37.526  27.675  1.00  0.00     0.002 A 
ATOM     74  C   UNL A   1      45.179  35.985  27.897  1.00  0.00     0.091 A 
ATOM     75  F   UNL A   1      45.873  35.303  30.078  1.00  0.00    -0.205 F 
ATOM     76  C   UNL A   1      44.298  36.730  27.093  1.00  0.00     0.022 A 
BRANCH  74  77
ATOM     77  S   UNL A   1      46.400  34.980  27.053  1.00  0.00     0.127 S 
ATOM     78  O   UNL A   1      46.092  35.262  25.651  1.00  0.00    -0.237 OA
ATOM     79  O   UNL A   1      47.653  35.559  27.534  1.00  0.00    -0.237 OA
ATOM     80  O   UNL A   1      46.153  33.607  27.470  1.00  0.00    -0.744 OA
ENDBRANCH  74  77
ENDBRANCH  56  70
BRANCH  57  81
ATOM     81  C   UNL A   1      42.325  37.005  39.708  1.00  0.00     0.023 A 
ATOM     82  C   UNL A   1      42.825  35.973  40.525  1.00  0.00     0.012 A 
ATOM     83  C   UNL A   1      41.621  38.072  40.311  1.00  0.00     0.148 A 
ATOM     84  C   UNL A   1      42.656  36.012  41.913  1.00  0.00     0.002 A 
ATOM     85  C   UNL A   1      41.450  38.100  41.696  1.00  0.00     0.091 A 
ATOM     86  F   UNL A   1      41.159  39.051  39.523  1.00  0.00    -0.205 F 
ATOM     87  C   UNL A   1      41.978  37.076  42.498  1.00  0.00     0.022 A 
BRANCH  85  88
ATOM     88  S   UNL A   1      40.591  39.425  42.560  1.00  0.00     0.127 S 
ATOM     89  O   UNL A   1      39.274  39.393  41.925  1.00  0.00    -0.237 OA
ATOM     90  O   UNL A   1      40.620  38.947  43.942  1.00  0.00    -0.237 OA
ATOM     91  O   UNL A   1      41.369  40.630  42.313  1.00  0.00    -0.744 OA
ENDBRANCH  85  88
ENDBRANCH  57  81
BRANCH  69  92
ATOM     92  C   UNL A   1      46.480  40.701  35.459  1.00  0.00     0.023 A 
ATOM     93  C   UNL A   1      45.964  42.010  35.464  1.00  0.00     0.012 A 
ATOM     94  C   UNL A   1      47.834  40.474  35.765  1.00  0.00     0.148 A 
ATOM     95  C   UNL A   1      46.790  43.086  35.771  1.00  0.00     0.002 A 
ATOM     96  C   UNL A   1      48.643  41.547  36.101  1.00  0.00     0.091 A 
ATOM     97  F   UNL A   1      48.290  39.213  35.746  1.00  0.00    -0.205 F 
ATOM     98  C   UNL A   1      48.124  42.853  36.103  1.00  0.00     0.022 A 
BRANCH  96  99
ATOM     99  S   UNL A   1      50.361  41.347  36.575  1.00  0.00     0.127 S 
ATOM    100  O   UNL A   1      50.929  40.741  35.371  1.00  0.00    -0.237 OA
ATOM    101  O   UNL A   1      50.774  42.728  36.819  1.00  0.00    -0.237 OA
ATOM    102  O   UNL A   1      50.362  40.490  37.754  1.00  0.00    -0.744 OA
ENDBRANCH  96  99
ENDBRANCH  69  92
ENDBRANCH  43  44
ENDBRANCH  36  38
ENDBRANCH  35  36
ENDBRANCH  34  35
ENDBRANCH  33  34
ENDBRANCH  32  33
ENDBRANCH  31  32
ENDBRANCH   1  31
TORSDOF 24
ENDMDL
MODEL 3
REMARK VINA RESULT:      -8.4      4.466      9.266
REMARK SMILES O=C(CNC(=O)[C@H]1CC[C@@H](Cn2cnc3ccccc3c2=O)CC1)OCCOCCOCCOC(=O)c1ccc(-c2c3nc(c(-c4cccc(S(=O)(=O)[O-])c4F)c4ccc([nH]4)c(-c4cccc(S(=O)(=O)[O-])c4F)c4nc(c(-c5cccc(S(=O)(=O)[O-])c5F)c5ccc2[nH]5)C=C4)C=C3)cc1
REMARK SMILES IDX 29 1 28 2 27 3 26 4 25 5 2 6 1 7 3 8 4 9 5 10 6 12 7 13
REMARK SMILES IDX 24 14 8 15 23 16 9 17 10 18 11 19 12 20 13 21 21 22 14 23
REMARK SMILES IDX 20 24 22 25 15 26 19 27 16 28 18 29 17 30 30 31 31 32 32 33
REMARK SMILES IDX 33 34 34 35 35 36 36 37 37 38 38 39 99 40 39 41 98 42 40 43
REMARK SMILES IDX 41 44 42 45 92 46 43 47 97 48 91 49 93 50 44 51 96 52 90 53
REMARK SMILES IDX 89 54 45 56 77 57 57 58 76 59 58 60 61 61 75 62 94 63 59 64
REMARK SMILES IDX 60 65 74 67 95 68 62 69 46 70 47 71 55 72 48 73 50 74 56 75
REMARK SMILES IDX 49 76 51 77 52 78 53 79 54 80 78 81 79 82 87 83 80 84 82 85
REMARK SMILES IDX 88 86 81 87 83 88 84 89 85 90 86 91 63 92 64 93 72 94 65 95
REMARK SMILES IDX 67 96 73 97 66 98 68 99 69 100 70 101 71 102
REMARK H PARENT 4 11 93 55 61 66
REMARK Flexibility Score: inf
ROOT
ATOM      1  C   UNL A   1      42.419  24.352  26.667  1.00  0.00     0.188 C 
ENDROOT
BRANCH   1   2
ATOM      2  O   UNL A   1      42.043  23.677  27.865  1.00  0.00    -0.376 OA
BRANCH   2   3
ATOM      3  C   UNL A   1      42.527  22.345  27.908  1.00  0.00     0.202 C 
BRANCH   3   4
ATOM      4  C   UNL A   1      41.368  21.367  27.719  1.00  0.00     0.261 C 
BRANCH   4   5
ATOM      5  O   UNL A   1      41.111  21.023  26.341  1.00  0.00    -0.462 OA
BRANCH   5   6
ATOM      6  C   UNL A   1      40.034  20.319  25.899  1.00  0.00     0.325 C 
ATOM      7  O   UNL A   1      40.169  19.109  25.706  1.00  0.00    -0.250 OA
BRANCH   6   8
ATOM      8  C   UNL A   1      38.718  21.034  25.530  1.00  0.00     0.238 C 
BRANCH   8   9
ATOM      9  N   UNL A   1      38.651  22.428  25.938  1.00  0.00    -0.345 N 
ATOM     10  C   UNL A   1      37.662  23.351  25.986  1.00  0.00     0.223 C 
ATOM     11  H   UNL A   1      39.517  22.778  26.250  1.00  0.00     0.164 HD
ATOM     12  O   UNL A   1      37.998  24.460  26.421  1.00  0.00    -0.275 OA
BRANCH  10  13
ATOM     13  C   UNL A   1      36.222  23.161  25.472  1.00  0.00     0.078 C 
ATOM     14  C   UNL A   1      35.338  22.445  26.485  1.00  0.00     0.014 C 
ATOM     15  C   UNL A   1      35.550  24.403  24.901  1.00  0.00     0.014 C 
ATOM     16  C   UNL A   1      33.856  22.283  26.111  1.00  0.00     0.006 C 
ATOM     17  C   UNL A   1      34.154  24.075  24.357  1.00  0.00     0.006 C 
ATOM     18  C   UNL A   1      33.187  23.483  25.384  1.00  0.00     0.009 C 
BRANCH  18  19
ATOM     19  C   UNL A   1      32.593  24.470  26.407  1.00  0.00     0.130 C 
BRANCH  19  20
ATOM     20  N   UNL A   1      31.969  25.728  25.956  1.00  0.00    -0.298 N 
ATOM     21  C   UNL A   1      32.847  26.916  25.113  1.00  0.00     0.203 A 
ATOM     22  C   UNL A   1      30.200  25.505  25.705  1.00  0.00     0.261 A 
ATOM     23  N   UNL A   1      32.346  27.853  24.136  1.00  0.00    -0.238 NA
ATOM     24  C   UNL A   1      29.415  26.870  24.215  1.00  0.00     0.066 A 
ATOM     25  O   UNL A   1      29.843  24.577  26.467  1.00  0.00    -0.269 OA
ATOM     26  C   UNL A   1      30.656  27.953  23.549  1.00  0.00     0.077 A 
ATOM     27  C   UNL A   1      28.099  27.238  23.724  1.00  0.00     0.016 A 
ATOM     28  C   UNL A   1      30.310  28.984  22.685  1.00  0.00     0.029 A 
ATOM     29  C   UNL A   1      27.894  28.401  22.962  1.00  0.00     0.001 A 
ATOM     30  C   UNL A   1      28.937  29.214  22.457  1.00  0.00     0.002 A 
ENDBRANCH  19  20
ENDBRANCH  18  19
ENDBRANCH  10  13
ENDBRANCH   8   9
ENDBRANCH   6   8
ENDBRANCH   5   6
ENDBRANCH   4   5
ENDBRANCH   3   4
ENDBRANCH   2   3
ENDBRANCH   1   2
BRANCH   1  31
ATOM     31  C   UNL A   1      41.212  25.056  26.140  1.00  0.00     0.188 C 
BRANCH  31  32
ATOM     32  O   UNL A   1      41.461  26.263  25.426  1.00  0.00    -0.376 OA
BRANCH  32  33
ATOM     33  C   UNL A   1      42.827  26.378  25.015  1.00  0.00     0.202 C 
BRANCH  33  34
ATOM     34  C   UNL A   1      43.614  27.508  25.714  1.00  0.00     0.261 C 
BRANCH  34  35
ATOM     35  O   UNL A   1      45.047  27.300  25.720  1.00  0.00    -0.460 OA
BRANCH  35  36
ATOM     36  C   UNL A   1      45.751  26.728  26.752  1.00  0.00     0.338 C 
ATOM     37  O   UNL A   1      46.721  26.008  26.680  1.00  0.00    -0.246 OA
BRANCH  36  38
ATOM     38  C   UNL A   1      45.151  27.360  27.965  1.00  0.00     0.060 A 
ATOM     39  C   UNL A   1      46.064  28.735  28.417  1.00  0.00     0.016 A 
ATOM     40  C   UNL A   1      43.973  26.810  29.105  1.00  0.00     0.016 A 
ATOM     41  C   UNL A   1      45.771  29.640  30.181  1.00  0.00     0.010 A 
ATOM     42  C   UNL A   1      43.670  27.611  30.686  1.00  0.00     0.010 A 
ATOM     43  C   UNL A   1      44.516  29.057  31.235  1.00  0.00    -0.014 A 
BRANCH  43  44
ATOM     44  C   UNL A   1      43.956  29.974  32.287  1.00  0.00     0.031 A 
ATOM     45  C   UNL A   1      44.367  29.757  33.694  1.00  0.00     0.074 A 
ATOM     46  C   UNL A   1      43.019  30.929  32.036  1.00  0.00     0.049 A 
ATOM     47  N   UNL A   1      43.864  30.285  34.772  1.00  0.00    -0.248 NA
ATOM     48  C   UNL A   1      45.542  28.901  33.912  1.00  0.00     0.031 C 
ATOM     49  C   UNL A   1      42.667  31.499  30.745  1.00  0.00     0.029 A 
ATOM     50  N   UNL A   1      42.102  31.556  32.863  1.00  0.00    -0.354 N 
ATOM     51  C   UNL A   1      44.691  29.875  35.796  1.00  0.00     0.074 A 
ATOM     52  C   UNL A   1      45.660  28.958  35.231  1.00  0.00     0.031 C 
ATOM     53  C   UNL A   1      41.496  32.141  30.797  1.00  0.00     0.029 A 
ATOM     54  C   UNL A   1      41.063  32.163  32.170  1.00  0.00     0.049 A 
ATOM     55  H   UNL A   1      42.179  31.568  33.844  1.00  0.00     0.167 HD
ATOM     56  C   UNL A   1      44.696  30.312  37.071  1.00  0.00     0.034 A 
ATOM     57  C   UNL A   1      39.905  32.733  32.559  1.00  0.00     0.034 A 
ATOM     58  C   UNL A   1      43.736  31.233  37.608  1.00  0.00     0.049 A 
ATOM     59  C   UNL A   1      39.784  33.029  34.012  1.00  0.00     0.074 A 
ATOM     60  C   UNL A   1      43.648  31.723  38.896  1.00  0.00     0.029 A 
ATOM     61  N   UNL A   1      42.686  31.791  36.890  1.00  0.00    -0.354 N 
ATOM     62  N   UNL A   1      40.605  32.667  34.967  1.00  0.00    -0.248 NA
ATOM     63  C   UNL A   1      38.699  33.917  34.438  1.00  0.00     0.031 C 
ATOM     64  C   UNL A   1      42.519  32.540  38.970  1.00  0.00     0.029 A 
ATOM     65  C   UNL A   1      41.924  32.593  37.718  1.00  0.00     0.049 A 
ATOM     66  H   UNL A   1      42.511  31.637  35.934  1.00  0.00     0.167 HD
ATOM     67  C   UNL A   1      40.187  33.340  36.096  1.00  0.00     0.074 A 
ATOM     68  C   UNL A   1      39.018  34.112  35.713  1.00  0.00     0.031 C 
ATOM     69  C   UNL A   1      40.750  33.335  37.326  1.00  0.00     0.034 A 
BRANCH  56  70
ATOM     70  C   UNL A   1      45.808  29.814  37.937  1.00  0.00     0.023 A 
ATOM     71  C   UNL A   1      45.617  28.655  38.718  1.00  0.00     0.012 A 
ATOM     72  C   UNL A   1      47.029  30.504  37.995  1.00  0.00     0.148 A 
ATOM     73  C   UNL A   1      46.625  28.201  39.565  1.00  0.00     0.002 A 
ATOM     74  C   UNL A   1      48.037  30.032  38.821  1.00  0.00     0.091 A 
ATOM     75  F   UNL A   1      47.166  31.614  37.257  1.00  0.00    -0.205 F 
ATOM     76  C   UNL A   1      47.837  28.885  39.608  1.00  0.00     0.022 A 
BRANCH  74  77
ATOM     77  S   UNL A   1      49.627  30.850  38.959  1.00  0.00     0.127 S 
ATOM     78  O   UNL A   1      49.375  31.797  40.045  1.00  0.00    -0.237 OA
ATOM     79  O   UNL A   1      50.509  29.738  39.307  1.00  0.00    -0.237 OA
ATOM     80  O   UNL A   1      49.883  31.460  37.662  1.00  0.00    -0.744 OA
ENDBRANCH  74  77
ENDBRANCH  56  70
BRANCH  57  81
ATOM     81  C   UNL A   1      38.924  33.222  31.541  1.00  0.00     0.023 A 
ATOM     82  C   UNL A   1      39.278  34.285  30.688  1.00  0.00     0.012 A 
ATOM     83  C   UNL A   1      37.693  32.560  31.331  1.00  0.00     0.148 A 
ATOM     84  C   UNL A   1      38.444  34.664  29.632  1.00  0.00     0.002 A 
ATOM     85  C   UNL A   1      36.863  32.949  30.280  1.00  0.00     0.091 A 
ATOM     86  F   UNL A   1      37.373  31.545  32.146  1.00  0.00    -0.205 F 
ATOM     87  C   UNL A   1      37.243  33.993  29.423  1.00  0.00     0.022 A 
BRANCH  85  88
ATOM     88  S   UNL A   1      35.289  32.154  29.916  1.00  0.00     0.127 S 
ATOM     89  O   UNL A   1      35.692  30.761  29.730  1.00  0.00    -0.237 OA
ATOM     90  O   UNL A   1      34.532  32.417  31.140  1.00  0.00    -0.237 OA
ATOM     91  O   UNL A   1      34.776  32.815  28.725  1.00  0.00    -0.744 OA
ENDBRANCH  85  88
ENDBRANCH  57  81
BRANCH  69  92
ATOM     92  C   UNL A   1      40.084  34.160  38.379  1.00  0.00     0.023 A 
ATOM     93  C   UNL A   1      40.256  35.557  38.365  1.00  0.00     0.012 A 
ATOM     94  C   UNL A   1      39.207  33.565  39.303  1.00  0.00     0.148 A 
ATOM     95  C   UNL A   1      39.559  36.355  39.267  1.00  0.00     0.002 A 
ATOM     96  C   UNL A   1      38.492  34.368  40.176  1.00  0.00     0.091 A 
ATOM     97  F   UNL A   1      39.073  32.230  39.288  1.00  0.00    -0.205 F 
ATOM     98  C   UNL A   1      38.667  35.763  40.160  1.00  0.00     0.022 A 
BRANCH  96  99
ATOM     99  S   UNL A   1      37.299  33.704  41.339  1.00  0.00     0.127 S 
ATOM    100  O   UNL A   1      38.113  32.739  42.077  1.00  0.00    -0.237 OA
ATOM    101  O   UNL A   1      36.919  34.894  42.100  1.00  0.00    -0.237 OA
ATOM    102  O   UNL A   1      36.230  33.123  40.538  1.00  0.00    -0.744 OA
ENDBRANCH  96  99
ENDBRANCH  69  92
ENDBRANCH  43  44
ENDBRANCH  36  38
ENDBRANCH  35  36
ENDBRANCH  34  35
ENDBRANCH  33  34
ENDBRANCH  32  33
ENDBRANCH  31  32
ENDBRANCH   1  31
TORSDOF 24
ENDMDL
