MODEL 1
REMARK VINA RESULT:     -13.3      0.000      0.000
REMARK SMILES Cc1c(CC(=O)OCCOCCOCCOC(=O)c2ccc(-c3c4nc(c(-c5cccc(S(=O)(=O)[O-])c5F)c5ccc([nH]5)c(-c5cccc(S(=O)(=O)[O-])c5F)c5nc(c(-c6cccc(S(=O)(=O)[O-])c6F)c6ccc3[nH]6)C=C5)C=C4)cc2)cc(-c2ccccc2)cc1-c1ccccc1
REMARK SMILES IDX 12 1 11 2 10 3 9 4 8 5 7 6 5 7 6 8 4 9 3 10 1 11 2 12 91 13
REMARK SMILES IDX 82 14 90 15 83 16 92 17 93 18 97 19 94 20 96 21 95 22 84 23
REMARK SMILES IDX 85 24 89 25 86 26 88 27 87 28 13 29 14 30 15 31 16 32 17 33
REMARK SMILES IDX 18 34 19 35 20 36 81 37 21 38 80 39 22 40 23 41 24 42 74 43
REMARK SMILES IDX 25 44 79 45 73 46 75 47 26 48 78 49 72 50 71 51 27 53 59 54
REMARK SMILES IDX 39 55 58 56 40 57 43 58 57 59 76 60 41 61 42 62 56 64 77 65
REMARK SMILES IDX 44 66 28 67 29 68 37 69 30 70 32 71 38 72 31 73 33 74 34 75
REMARK SMILES IDX 35 76 36 77 60 78 61 79 69 80 62 81 64 82 70 83 63 84 65 85
REMARK SMILES IDX 66 86 67 87 68 88 45 89 46 90 54 91 47 92 49 93 55 94 48 95
REMARK SMILES IDX 50 96 51 97 52 98 53 99
REMARK H PARENT 75 52 43 63
REMARK Flexibility Score: inf
ROOT
ATOM      1  C   UNL A   1      36.262  22.972  25.152  1.00  0.00     0.188 C 
ENDROOT
BRANCH   1   2
ATOM      2  C   UNL A   1      35.658  21.616  24.761  1.00  0.00     0.188 C 
BRANCH   2   3
ATOM      3  O   UNL A   1      34.390  21.438  24.092  1.00  0.00    -0.376 OA
BRANCH   3   4
ATOM      4  C   UNL A   1      33.157  22.118  24.400  1.00  0.00     0.202 C 
BRANCH   4   5
ATOM      5  C   UNL A   1      31.804  22.343  23.368  1.00  0.00     0.261 C 
BRANCH   5   6
ATOM      6  O   UNL A   1      30.715  23.626  23.252  1.00  0.00    -0.463 OA
BRANCH   6   7
ATOM      7  C   UNL A   1      30.698  25.046  23.043  1.00  0.00     0.310 C 
ATOM      8  O   UNL A   1      31.416  25.757  22.334  1.00  0.00    -0.252 OA
BRANCH   7   9
ATOM      9  C   UNL A   1      29.656  25.900  23.652  1.00  0.00     0.158 C 
BRANCH   9  10
ATOM     10  C   UNL A   1      30.109  27.261  23.933  1.00  0.00    -0.033 A 
ATOM     11  C   UNL A   1      31.777  26.434  25.646  1.00  0.00     0.045 C 
ATOM     12  C   UNL A   1      31.059  27.555  24.914  1.00  0.00    -0.039 A 
ATOM     13  C   UNL A   1      31.347  28.911  25.134  1.00  0.00    -0.015 A 
ATOM     14  C   UNL A   1      29.470  28.236  23.193  1.00  0.00     0.013 A 
ATOM     15  C   UNL A   1      30.626  29.909  24.423  1.00  0.00     0.017 A 
ATOM     16  C   UNL A   1      29.689  29.573  23.441  1.00  0.00    -0.017 A 
BRANCH  13  17
ATOM     17  C   UNL A   1      32.397  29.282  26.083  1.00  0.00    -0.018 A 
ATOM     18  C   UNL A   1      33.545  28.495  26.228  1.00  0.00     0.009 A 
ATOM     19  C   UNL A   1      32.320  30.507  26.768  1.00  0.00     0.009 A 
ATOM     20  C   UNL A   1      34.589  28.921  27.049  1.00  0.00     0.001 A 
ATOM     21  C   UNL A   1      33.366  30.937  27.578  1.00  0.00     0.001 A 
ATOM     22  C   UNL A   1      34.498  30.139  27.723  1.00  0.00     0.000 A 
ENDBRANCH  13  17
BRANCH  16  23
ATOM     23  C   UNL A   1      28.872  30.480  22.647  1.00  0.00    -0.018 A 
ATOM     24  C   UNL A   1      28.468  30.111  21.357  1.00  0.00     0.009 A 
ATOM     25  C   UNL A   1      28.772  31.829  23.030  1.00  0.00     0.009 A 
ATOM     26  C   UNL A   1      27.969  31.068  20.474  1.00  0.00     0.001 A 
ATOM     27  C   UNL A   1      28.278  32.785  22.145  1.00  0.00     0.001 A 
ATOM     28  C   UNL A   1      27.877  32.403  20.867  1.00  0.00     0.000 A 
ENDBRANCH  16  23
ENDBRANCH   9  10
ENDBRANCH   7   9
ENDBRANCH   6   7
ENDBRANCH   5   6
ENDBRANCH   4   5
ENDBRANCH   3   4
ENDBRANCH   2   3
ENDBRANCH   1   2
BRANCH   1  29
ATOM     29  O   UNL A   1      37.617  22.844  25.543  1.00  0.00    -0.376 OA
BRANCH  29  30
ATOM     30  C   UNL A   1      38.125  21.518  25.585  1.00  0.00     0.202 C 
BRANCH  30  31
ATOM     31  C   UNL A   1      39.502  21.375  26.282  1.00  0.00     0.261 C 
BRANCH  31  32
ATOM     32  O   UNL A   1      40.362  22.501  25.991  1.00  0.00    -0.460 OA
BRANCH  32  33
ATOM     33  C   UNL A   1      40.831  23.253  27.045  1.00  0.00     0.338 C 
ATOM     34  O   UNL A   1      41.384  22.777  28.027  1.00  0.00    -0.246 OA
BRANCH  33  35
ATOM     35  C   UNL A   1      40.304  24.661  26.937  1.00  0.00     0.060 A 
ATOM     36  C   UNL A   1      40.926  25.785  26.372  1.00  0.00     0.016 A 
ATOM     37  C   UNL A   1      39.288  24.941  27.781  1.00  0.00     0.016 A 
ATOM     38  C   UNL A   1      40.650  27.150  26.838  1.00  0.00     0.010 A 
ATOM     39  C   UNL A   1      39.285  26.204  28.353  1.00  0.00     0.010 A 
ATOM     40  C   UNL A   1      39.871  27.421  27.969  1.00  0.00    -0.014 A 
BRANCH  40  41
ATOM     41  C   UNL A   1      39.810  28.793  28.874  1.00  0.00     0.031 A 
ATOM     42  C   UNL A   1      38.790  30.152  28.998  1.00  0.00     0.074 A 
ATOM     43  C   UNL A   1      40.835  28.857  29.755  1.00  0.00     0.049 A 
ATOM     44  N   UNL A   1      39.138  31.257  29.637  1.00  0.00    -0.248 NA
ATOM     45  C   UNL A   1      37.413  30.455  28.433  1.00  0.00     0.031 C 
ATOM     46  C   UNL A   1      41.015  29.732  30.906  1.00  0.00     0.029 A 
ATOM     47  N   UNL A   1      42.048  28.175  29.673  1.00  0.00    -0.354 N 
ATOM     48  C   UNL A   1      38.050  32.135  29.669  1.00  0.00     0.074 A 
ATOM     49  C   UNL A   1      37.126  31.710  28.707  1.00  0.00     0.031 C 
ATOM     50  C   UNL A   1      42.318  29.765  31.222  1.00  0.00     0.029 A 
ATOM     51  C   UNL A   1      43.029  29.016  30.204  1.00  0.00     0.049 A 
ATOM     52  H   UNL A   1      42.187  27.270  29.309  1.00  0.00     0.167 HD
ATOM     53  C   UNL A   1      37.872  33.123  30.576  1.00  0.00     0.034 A 
ATOM     54  C   UNL A   1      44.017  29.466  29.379  1.00  0.00     0.034 A 
ATOM     55  C   UNL A   1      39.156  33.510  31.110  1.00  0.00     0.049 A 
ATOM     56  C   UNL A   1      43.995  30.979  29.218  1.00  0.00     0.074 A 
ATOM     57  C   UNL A   1      39.879  33.234  32.248  1.00  0.00     0.029 A 
ATOM     58  N   UNL A   1      40.056  34.013  30.189  1.00  0.00    -0.354 N 
ATOM     59  N   UNL A   1      43.274  31.808  29.931  1.00  0.00    -0.248 NA
ATOM     60  C   UNL A   1      44.741  31.664  28.162  1.00  0.00     0.031 C 
ATOM     61  C   UNL A   1      41.267  33.399  31.909  1.00  0.00     0.029 A 
ATOM     62  C   UNL A   1      41.363  33.838  30.596  1.00  0.00     0.049 A 
ATOM     63  H   UNL A   1      39.796  34.445  29.343  1.00  0.00     0.167 HD
ATOM     64  C   UNL A   1      43.259  33.028  29.303  1.00  0.00     0.074 A 
ATOM     65  C   UNL A   1      44.234  32.902  28.233  1.00  0.00     0.031 C 
ATOM     66  C   UNL A   1      42.412  34.058  29.604  1.00  0.00     0.034 A 
BRANCH  53  67
ATOM     67  C   UNL A   1      36.504  33.737  30.894  1.00  0.00     0.023 A 
ATOM     68  C   UNL A   1      36.077  33.730  32.233  1.00  0.00     0.012 A 
ATOM     69  C   UNL A   1      35.556  34.248  29.947  1.00  0.00     0.148 A 
ATOM     70  C   UNL A   1      34.815  34.221  32.617  1.00  0.00     0.002 A 
ATOM     71  C   UNL A   1      34.344  34.830  30.344  1.00  0.00     0.091 A 
ATOM     72  F   UNL A   1      35.753  34.078  28.632  1.00  0.00    -0.205 F 
ATOM     73  C   UNL A   1      33.963  34.800  31.682  1.00  0.00     0.022 A 
BRANCH  71  74
ATOM     74  S   UNL A   1      33.253  35.675  29.174  1.00  0.00     0.127 S 
ATOM     75  O   UNL A   1      32.629  34.560  28.465  1.00  0.00    -0.237 OA
ATOM     76  O   UNL A   1      32.342  36.415  30.052  1.00  0.00    -0.237 OA
ATOM     77  O   UNL A   1      34.125  36.525  28.372  1.00  0.00    -0.744 OA
ENDBRANCH  71  74
ENDBRANCH  53  67
BRANCH  54  78
ATOM     78  C   UNL A   1      44.426  28.438  28.348  1.00  0.00     0.023 A 
ATOM     79  C   UNL A   1      44.011  28.682  27.008  1.00  0.00     0.012 A 
ATOM     80  C   UNL A   1      45.407  27.448  28.550  1.00  0.00     0.148 A 
ATOM     81  C   UNL A   1      44.618  28.054  25.917  1.00  0.00     0.002 A 
ATOM     82  C   UNL A   1      45.987  26.794  27.454  1.00  0.00     0.091 A 
ATOM     83  F   UNL A   1      45.838  27.194  29.791  1.00  0.00    -0.205 F 
ATOM     84  C   UNL A   1      45.611  27.112  26.141  1.00  0.00     0.022 A 
BRANCH  82  85
ATOM     85  S   UNL A   1      47.383  25.673  27.677  1.00  0.00     0.127 S 
ATOM     86  O   UNL A   1      47.992  25.642  26.346  1.00  0.00    -0.237 OA
ATOM     87  O   UNL A   1      48.212  26.310  28.689  1.00  0.00    -0.237 OA
ATOM     88  O   UNL A   1      46.709  24.439  28.068  1.00  0.00    -0.744 OA
ENDBRANCH  82  85
ENDBRANCH  54  78
BRANCH  66  89
ATOM     89  C   UNL A   1      42.557  35.396  28.909  1.00  0.00     0.023 A 
ATOM     90  C   UNL A   1      42.038  35.539  27.605  1.00  0.00     0.012 A 
ATOM     91  C   UNL A   1      43.317  36.468  29.426  1.00  0.00     0.148 A 
ATOM     92  C   UNL A   1      42.237  36.703  26.860  1.00  0.00     0.002 A 
ATOM     93  C   UNL A   1      43.624  37.567  28.630  1.00  0.00     0.091 A 
ATOM     94  F   UNL A   1      43.703  36.454  30.709  1.00  0.00    -0.205 F 
ATOM     95  C   UNL A   1      43.060  37.704  27.360  1.00  0.00     0.022 A 
BRANCH  93  96
ATOM     96  S   UNL A   1      44.894  38.752  29.100  1.00  0.00     0.127 S 
ATOM     97  O   UNL A   1      46.019  37.871  29.425  1.00  0.00    -0.237 OA
ATOM     98  O   UNL A   1      45.062  39.525  27.872  1.00  0.00    -0.237 OA
ATOM     99  O   UNL A   1      44.354  39.475  30.243  1.00  0.00    -0.744 OA
ENDBRANCH  93  96
ENDBRANCH  66  89
ENDBRANCH  40  41
ENDBRANCH  33  35
ENDBRANCH  32  33
ENDBRANCH  31  32
ENDBRANCH  30  31
ENDBRANCH  29  30
ENDBRANCH   1  29
TORSDOF 23
ENDMDL
MODEL 2
REMARK VINA RESULT:     -12.8      1.868      2.680
REMARK SMILES Cc1c(CC(=O)OCCOCCOCCOC(=O)c2ccc(-c3c4nc(c(-c5cccc(S(=O)(=O)[O-])c5F)c5ccc([nH]5)c(-c5cccc(S(=O)(=O)[O-])c5F)c5nc(c(-c6cccc(S(=O)(=O)[O-])c6F)c6ccc3[nH]6)C=C5)C=C4)cc2)cc(-c2ccccc2)cc1-c1ccccc1
REMARK SMILES IDX 12 1 11 2 10 3 9 4 8 5 7 6 5 7 6 8 4 9 3 10 1 11 2 12 91 13
REMARK SMILES IDX 82 14 90 15 83 16 92 17 93 18 97 19 94 20 96 21 95 22 84 23
REMARK SMILES IDX 85 24 89 25 86 26 88 27 87 28 13 29 14 30 15 31 16 32 17 33
REMARK SMILES IDX 18 34 19 35 20 36 81 37 21 38 80 39 22 40 23 41 24 42 74 43
REMARK SMILES IDX 25 44 79 45 73 46 75 47 26 48 78 49 72 50 71 51 27 53 59 54
REMARK SMILES IDX 39 55 58 56 40 57 43 58 57 59 76 60 41 61 42 62 56 64 77 65
REMARK SMILES IDX 44 66 28 67 29 68 37 69 30 70 32 71 38 72 31 73 33 74 34 75
REMARK SMILES IDX 35 76 36 77 60 78 61 79 69 80 62 81 64 82 70 83 63 84 65 85
REMARK SMILES IDX 66 86 67 87 68 88 45 89 46 90 54 91 47 92 49 93 55 94 48 95
REMARK SMILES IDX 50 96 51 97 52 98 53 99
REMARK H PARENT 75 52 43 63
REMARK Flexibility Score: inf
ROOT
ATOM      1  C   UNL A   1      36.861  23.031  24.502  1.00  0.00     0.188 C 
ENDROOT
BRANCH   1   2
ATOM      2  C   UNL A   1      35.872  21.867  24.655  1.00  0.00     0.188 C 
BRANCH   2   3
ATOM      3  O   UNL A   1      34.739  21.856  25.551  1.00  0.00    -0.376 OA
BRANCH   3   4
ATOM      4  C   UNL A   1      34.309  22.940  26.398  1.00  0.00     0.202 C 
BRANCH   4   5
ATOM      5  C   UNL A   1      33.176  22.870  27.686  1.00  0.00     0.261 C 
BRANCH   5   6
ATOM      6  O   UNL A   1      31.525  23.217  27.714  1.00  0.00    -0.463 OA
BRANCH   6   7
ATOM      7  C   UNL A   1      30.424  23.425  26.816  1.00  0.00     0.310 C 
ATOM      8  O   UNL A   1      29.673  22.611  26.273  1.00  0.00    -0.252 OA
BRANCH   7   9
ATOM      9  C   UNL A   1      29.963  24.787  26.470  1.00  0.00     0.158 C 
BRANCH   9  10
ATOM     10  C   UNL A   1      31.008  25.623  25.885  1.00  0.00    -0.033 A 
ATOM     11  C   UNL A   1      30.766  27.345  27.724  1.00  0.00     0.045 C 
ATOM     12  C   UNL A   1      31.365  26.867  26.411  1.00  0.00    -0.039 A 
ATOM     13  C   UNL A   1      32.330  27.603  25.705  1.00  0.00    -0.015 A 
ATOM     14  C   UNL A   1      31.564  25.112  24.728  1.00  0.00     0.013 A 
ATOM     15  C   UNL A   1      32.838  27.102  24.476  1.00  0.00     0.017 A 
ATOM     16  C   UNL A   1      32.461  25.847  23.987  1.00  0.00    -0.017 A 
BRANCH  13  17
ATOM     17  C   UNL A   1      32.814  28.870  26.252  1.00  0.00    -0.018 A 
ATOM     18  C   UNL A   1      32.047  30.037  26.151  1.00  0.00     0.009 A 
ATOM     19  C   UNL A   1      34.003  28.899  27.003  1.00  0.00     0.009 A 
ATOM     20  C   UNL A   1      32.467  31.209  26.779  1.00  0.00     0.001 A 
ATOM     21  C   UNL A   1      34.415  30.067  27.638  1.00  0.00     0.001 A 
ATOM     22  C   UNL A   1      33.649  31.223  27.519  1.00  0.00     0.000 A 
ENDBRANCH  13  17
BRANCH  16  23
ATOM     23  C   UNL A   1      32.886  25.215  22.746  1.00  0.00    -0.018 A 
ATOM     24  C   UNL A   1      32.582  25.814  21.516  1.00  0.00     0.009 A 
ATOM     25  C   UNL A   1      33.292  23.868  22.763  1.00  0.00     0.009 A 
ATOM     26  C   UNL A   1      32.690  25.086  20.331  1.00  0.00     0.001 A 
ATOM     27  C   UNL A   1      33.395  23.141  21.580  1.00  0.00     0.001 A 
ATOM     28  C   UNL A   1      33.094  23.751  20.364  1.00  0.00     0.000 A 
ENDBRANCH  16  23
ENDBRANCH   9  10
ENDBRANCH   7   9
ENDBRANCH   6   7
ENDBRANCH   5   6
ENDBRANCH   4   5
ENDBRANCH   3   4
ENDBRANCH   2   3
ENDBRANCH   1   2
BRANCH   1  29
ATOM     29  O   UNL A   1      38.195  22.613  24.730  1.00  0.00    -0.376 OA
BRANCH  29  30
ATOM     30  C   UNL A   1      38.349  21.423  25.492  1.00  0.00     0.202 C 
BRANCH  30  31
ATOM     31  C   UNL A   1      39.516  21.455  26.510  1.00  0.00     0.261 C 
BRANCH  31  32
ATOM     32  O   UNL A   1      40.559  22.365  26.092  1.00  0.00    -0.460 OA
BRANCH  32  33
ATOM     33  C   UNL A   1      41.134  23.180  27.043  1.00  0.00     0.338 C 
ATOM     34  O   UNL A   1      41.809  22.765  27.974  1.00  0.00    -0.246 OA
BRANCH  33  35
ATOM     35  C   UNL A   1      40.566  24.571  26.928  1.00  0.00     0.060 A 
ATOM     36  C   UNL A   1      41.155  25.709  26.354  1.00  0.00     0.016 A 
ATOM     37  C   UNL A   1      39.545  24.827  27.774  1.00  0.00     0.016 A 
ATOM     38  C   UNL A   1      40.841  27.069  26.813  1.00  0.00     0.010 A 
ATOM     39  C   UNL A   1      39.508  26.093  28.338  1.00  0.00     0.010 A 
ATOM     40  C   UNL A   1      40.058  27.324  27.944  1.00  0.00    -0.014 A 
BRANCH  40  41
ATOM     41  C   UNL A   1      39.961  28.700  28.841  1.00  0.00     0.031 A 
ATOM     42  C   UNL A   1      38.907  30.033  28.955  1.00  0.00     0.074 A 
ATOM     43  C   UNL A   1      40.983  28.795  29.723  1.00  0.00     0.049 A 
ATOM     44  N   UNL A   1      39.225  31.150  29.588  1.00  0.00    -0.248 NA
ATOM     45  C   UNL A   1      37.523  30.298  28.387  1.00  0.00     0.031 C 
ATOM     46  C   UNL A   1      41.138  29.681  30.869  1.00  0.00     0.029 A 
ATOM     47  N   UNL A   1      42.213  28.143  29.647  1.00  0.00    -0.354 N 
ATOM     48  C   UNL A   1      38.115  32.000  29.613  1.00  0.00     0.074 A 
ATOM     49  C   UNL A   1      37.204  31.546  28.653  1.00  0.00     0.031 C 
ATOM     50  C   UNL A   1      42.439  29.749  31.186  1.00  0.00     0.029 A 
ATOM     51  C   UNL A   1      43.171  29.012  30.173  1.00  0.00     0.049 A 
ATOM     52  H   UNL A   1      42.375  27.240  29.288  1.00  0.00     0.167 HD
ATOM     53  C   UNL A   1      37.910  32.989  30.515  1.00  0.00     0.034 A 
ATOM     54  C   UNL A   1      44.149  29.483  29.347  1.00  0.00     0.034 A 
ATOM     55  C   UNL A   1      39.183  33.411  31.048  1.00  0.00     0.049 A 
ATOM     56  C   UNL A   1      44.089  30.993  29.178  1.00  0.00     0.074 A 
ATOM     57  C   UNL A   1      39.912  33.161  32.189  1.00  0.00     0.029 A 
ATOM     58  N   UNL A   1      40.072  33.932  30.125  1.00  0.00    -0.354 N 
ATOM     59  N   UNL A   1      43.346  31.808  29.884  1.00  0.00    -0.248 NA
ATOM     60  C   UNL A   1      44.818  31.691  28.119  1.00  0.00     0.031 C 
ATOM     61  C   UNL A   1      41.296  33.359  31.850  1.00  0.00     0.029 A 
ATOM     62  C   UNL A   1      41.382  33.793  30.535  1.00  0.00     0.049 A 
ATOM     63  H   UNL A   1      39.802  34.352  29.277  1.00  0.00     0.167 HD
ATOM     64  C   UNL A   1      43.301  33.024  29.250  1.00  0.00     0.074 A 
ATOM     65  C   UNL A   1      44.280  32.916  28.182  1.00  0.00     0.031 C 
ATOM     66  C   UNL A   1      42.427  34.034  29.543  1.00  0.00     0.034 A 
BRANCH  53  67
ATOM     67  C   UNL A   1      36.527  33.570  30.827  1.00  0.00     0.023 A 
ATOM     68  C   UNL A   1      36.046  33.448  32.143  1.00  0.00     0.012 A 
ATOM     69  C   UNL A   1      35.615  34.157  29.889  1.00  0.00     0.148 A 
ATOM     70  C   UNL A   1      34.767  33.901  32.514  1.00  0.00     0.002 A 
ATOM     71  C   UNL A   1      34.385  34.699  30.284  1.00  0.00     0.091 A 
ATOM     72  F   UNL A   1      35.866  34.099  28.573  1.00  0.00    -0.205 F 
ATOM     73  C   UNL A   1      33.949  34.555  31.597  1.00  0.00     0.022 A 
BRANCH  71  74
ATOM     74  S   UNL A   1      33.336  35.637  29.146  1.00  0.00     0.127 S 
ATOM     75  O   UNL A   1      34.317  36.342  28.324  1.00  0.00    -0.237 OA
ATOM     76  O   UNL A   1      32.600  34.587  28.438  1.00  0.00    -0.237 OA
ATOM     77  O   UNL A   1      32.499  36.480  29.992  1.00  0.00    -0.744 OA
ENDBRANCH  71  74
ENDBRANCH  53  67
BRANCH  54  78
ATOM     78  C   UNL A   1      44.586  28.459  28.323  1.00  0.00     0.023 A 
ATOM     79  C   UNL A   1      44.054  28.608  27.010  1.00  0.00     0.012 A 
ATOM     80  C   UNL A   1      45.672  27.579  28.484  1.00  0.00     0.148 A 
ATOM     81  C   UNL A   1      44.643  27.999  25.899  1.00  0.00     0.002 A 
ATOM     82  C   UNL A   1      46.237  26.942  27.370  1.00  0.00     0.091 A 
ATOM     83  F   UNL A   1      46.214  27.418  29.697  1.00  0.00    -0.205 F 
ATOM     84  C   UNL A   1      45.739  27.169  26.079  1.00  0.00     0.022 A 
BRANCH  82  85
ATOM     85  S   UNL A   1      47.751  25.973  27.525  1.00  0.00     0.127 S 
ATOM     86  O   UNL A   1      48.761  26.991  27.820  1.00  0.00    -0.237 OA
ATOM     87  O   UNL A   1      47.495  25.060  28.630  1.00  0.00    -0.237 OA
ATOM     88  O   UNL A   1      47.856  25.377  26.197  1.00  0.00    -0.744 OA
ENDBRANCH  82  85
ENDBRANCH  54  78
BRANCH  66  89
ATOM     89  C   UNL A   1      42.539  35.370  28.840  1.00  0.00     0.023 A 
ATOM     90  C   UNL A   1      42.161  35.454  27.483  1.00  0.00     0.012 A 
ATOM     91  C   UNL A   1      43.143  36.509  29.416  1.00  0.00     0.148 A 
ATOM     92  C   UNL A   1      42.347  36.621  26.741  1.00  0.00     0.002 A 
ATOM     93  C   UNL A   1      43.447  37.620  28.637  1.00  0.00     0.091 A 
ATOM     94  F   UNL A   1      43.380  36.543  30.735  1.00  0.00    -0.205 F 
ATOM     95  C   UNL A   1      43.022  37.694  27.309  1.00  0.00     0.022 A 
BRANCH  93  96
ATOM     96  S   UNL A   1      44.553  38.915  29.221  1.00  0.00     0.127 S 
ATOM     97  O   UNL A   1      43.723  39.586  30.225  1.00  0.00    -0.237 OA
ATOM     98  O   UNL A   1      45.666  38.144  29.769  1.00  0.00    -0.237 OA
ATOM     99  O   UNL A   1      44.853  39.732  28.053  1.00  0.00    -0.744 OA
ENDBRANCH  93  96
ENDBRANCH  66  89
ENDBRANCH  40  41
ENDBRANCH  33  35
ENDBRANCH  32  33
ENDBRANCH  31  32
ENDBRANCH  30  31
ENDBRANCH  29  30
ENDBRANCH   1  29
TORSDOF 23
ENDMDL
MODEL 3
REMARK VINA RESULT:     -12.1      2.047      3.886
REMARK SMILES Cc1c(CC(=O)OCCOCCOCCOC(=O)c2ccc(-c3c4nc(c(-c5cccc(S(=O)(=O)[O-])c5F)c5ccc([nH]5)c(-c5cccc(S(=O)(=O)[O-])c5F)c5nc(c(-c6cccc(S(=O)(=O)[O-])c6F)c6ccc3[nH]6)C=C5)C=C4)cc2)cc(-c2ccccc2)cc1-c1ccccc1
REMARK SMILES IDX 12 1 11 2 10 3 9 4 8 5 7 6 5 7 6 8 4 9 3 10 1 11 2 12 91 13
REMARK SMILES IDX 82 14 90 15 83 16 92 17 93 18 97 19 94 20 96 21 95 22 84 23
REMARK SMILES IDX 85 24 89 25 86 26 88 27 87 28 13 29 14 30 15 31 16 32 17 33
REMARK SMILES IDX 18 34 19 35 20 36 81 37 21 38 80 39 22 40 23 41 24 42 74 43
REMARK SMILES IDX 25 44 79 45 73 46 75 47 26 48 78 49 72 50 71 51 27 53 59 54
REMARK SMILES IDX 39 55 58 56 40 57 43 58 57 59 76 60 41 61 42 62 56 64 77 65
REMARK SMILES IDX 44 66 28 67 29 68 37 69 30 70 32 71 38 72 31 73 33 74 34 75
REMARK SMILES IDX 35 76 36 77 60 78 61 79 69 80 62 81 64 82 70 83 63 84 65 85
REMARK SMILES IDX 66 86 67 87 68 88 45 89 46 90 54 91 47 92 49 93 55 94 48 95
REMARK SMILES IDX 50 96 51 97 52 98 53 99
REMARK H PARENT 75 52 43 63
REMARK Flexibility Score: inf
ROOT
ATOM      1  C   UNL A   1      36.128  22.220  25.750  1.00  0.00     0.188 C 
ENDROOT
BRANCH   1   2
ATOM      2  C   UNL A   1      34.985  21.253  25.409  1.00  0.00     0.188 C 
BRANCH   2   3
ATOM      3  O   UNL A   1      33.699  21.229  26.068  1.00  0.00    -0.376 OA
BRANCH   3   4
ATOM      4  C   UNL A   1      33.161  22.250  26.932  1.00  0.00     0.202 C 
BRANCH   4   5
ATOM      5  C   UNL A   1      32.283  23.651  26.469  1.00  0.00     0.261 C 
BRANCH   5   6
ATOM      6  O   UNL A   1      32.657  24.860  25.353  1.00  0.00    -0.463 OA
BRANCH   6   7
ATOM      7  C   UNL A   1      33.193  25.016  24.031  1.00  0.00     0.310 C 
ATOM      8  O   UNL A   1      33.332  24.192  23.124  1.00  0.00    -0.252 OA
BRANCH   7   9
ATOM      9  C   UNL A   1      33.606  26.342  23.521  1.00  0.00     0.158 C 
BRANCH   9  10
ATOM     10  C   UNL A   1      32.873  27.451  24.124  1.00  0.00    -0.033 A 
ATOM     11  C   UNL A   1      31.022  27.260  22.410  1.00  0.00     0.045 C 
ATOM     12  C   UNL A   1      31.685  27.955  23.587  1.00  0.00    -0.039 A 
ATOM     13  C   UNL A   1      31.125  29.074  24.222  1.00  0.00    -0.015 A 
ATOM     14  C   UNL A   1      33.488  28.005  25.231  1.00  0.00     0.013 A 
ATOM     15  C   UNL A   1      31.807  29.682  25.311  1.00  0.00     0.017 A 
ATOM     16  C   UNL A   1      32.989  29.142  25.825  1.00  0.00    -0.017 A 
BRANCH  13  17
ATOM     17  C   UNL A   1      29.835  29.593  23.765  1.00  0.00    -0.018 A 
ATOM     18  C   UNL A   1      29.560  30.965  23.796  1.00  0.00     0.009 A 
ATOM     19  C   UNL A   1      28.905  28.725  23.166  1.00  0.00     0.009 A 
ATOM     20  C   UNL A   1      28.375  31.455  23.248  1.00  0.00     0.001 A 
ATOM     21  C   UNL A   1      27.728  29.216  22.610  1.00  0.00     0.001 A 
ATOM     22  C   UNL A   1      27.461  30.581  22.658  1.00  0.00     0.000 A 
ENDBRANCH  13  17
BRANCH  16  23
ATOM     23  C   UNL A   1      33.799  29.660  26.919  1.00  0.00    -0.018 A 
ATOM     24  C   UNL A   1      33.594  30.966  27.384  1.00  0.00     0.009 A 
ATOM     25  C   UNL A   1      34.984  28.991  27.275  1.00  0.00     0.009 A 
ATOM     26  C   UNL A   1      34.547  31.584  28.193  1.00  0.00     0.001 A 
ATOM     27  C   UNL A   1      35.937  29.611  28.079  1.00  0.00     0.001 A 
ATOM     28  C   UNL A   1      35.718  30.908  28.537  1.00  0.00     0.000 A 
ENDBRANCH  16  23
ENDBRANCH   9  10
ENDBRANCH   7   9
ENDBRANCH   6   7
ENDBRANCH   5   6
ENDBRANCH   4   5
ENDBRANCH   3   4
ENDBRANCH   2   3
ENDBRANCH   1   2
BRANCH   1  29
ATOM     29  O   UNL A   1      37.382  21.561  25.751  1.00  0.00    -0.376 OA
BRANCH  29  30
ATOM     30  C   UNL A   1      38.508  22.378  26.040  1.00  0.00     0.202 C 
BRANCH  30  31
ATOM     31  C   UNL A   1      39.783  21.598  26.450  1.00  0.00     0.261 C 
BRANCH  31  32
ATOM     32  O   UNL A   1      40.948  22.077  25.740  1.00  0.00    -0.460 OA
BRANCH  32  33
ATOM     33  C   UNL A   1      42.130  22.204  26.437  1.00  0.00     0.338 C 
ATOM     34  O   UNL A   1      42.605  21.321  27.137  1.00  0.00    -0.246 OA
BRANCH  33  35
ATOM     35  C   UNL A   1      42.563  23.648  26.439  1.00  0.00     0.060 A 
ATOM     36  C   UNL A   1      43.776  24.195  26.887  1.00  0.00     0.016 A 
ATOM     37  C   UNL A   1      41.548  24.533  26.331  1.00  0.00     0.016 A 
ATOM     38  C   UNL A   1      43.871  25.562  27.414  1.00  0.00     0.010 A 
ATOM     39  C   UNL A   1      41.651  25.691  27.087  1.00  0.00     0.010 A 
ATOM     40  C   UNL A   1      42.748  26.363  27.651  1.00  0.00    -0.014 A 
BRANCH  40  41
ATOM     41  C   UNL A   1      42.615  27.693  28.609  1.00  0.00     0.031 A 
ATOM     42  C   UNL A   1      41.375  28.764  29.077  1.00  0.00     0.074 A 
ATOM     43  C   UNL A   1      43.798  28.021  29.178  1.00  0.00     0.049 A 
ATOM     44  N   UNL A   1      41.611  29.930  29.654  1.00  0.00    -0.248 NA
ATOM     45  C   UNL A   1      39.864  28.711  28.927  1.00  0.00     0.031 C 
ATOM     46  C   UNL A   1      44.075  28.933  30.281  1.00  0.00     0.029 A 
ATOM     47  N   UNL A   1      45.067  27.654  28.733  1.00  0.00    -0.354 N 
ATOM     48  C   UNL A   1      40.398  30.516  30.027  1.00  0.00     0.074 A 
ATOM     49  C   UNL A   1      39.373  29.862  29.334  1.00  0.00     0.031 C 
ATOM     50  C   UNL A   1      45.367  29.288  30.229  1.00  0.00     0.029 A 
ATOM     51  C   UNL A   1      45.925  28.718  29.018  1.00  0.00     0.049 A 
ATOM     52  H   UNL A   1      45.311  26.804  28.297  1.00  0.00     0.167 HD
ATOM     53  C   UNL A   1      40.247  31.446  31.000  1.00  0.00     0.034 A 
ATOM     54  C   UNL A   1      46.508  29.383  27.979  1.00  0.00     0.034 A 
ATOM     55  C   UNL A   1      41.498  32.144  31.182  1.00  0.00     0.049 A 
ATOM     56  C   UNL A   1      46.081  30.841  27.910  1.00  0.00     0.074 A 
ATOM     57  C   UNL A   1      42.553  32.073  32.062  1.00  0.00     0.029 A 
ATOM     58  N   UNL A   1      41.959  32.836  30.077  1.00  0.00    -0.354 N 
ATOM     59  N   UNL A   1      45.409  31.481  28.834  1.00  0.00    -0.248 NA
ATOM     60  C   UNL A   1      46.317  31.670  26.727  1.00  0.00     0.031 C 
ATOM     61  C   UNL A   1      43.710  32.566  31.366  1.00  0.00     0.029 A 
ATOM     62  C   UNL A   1      43.330  32.993  30.102  1.00  0.00     0.049 A 
ATOM     63  H   UNL A   1      41.379  33.177  29.359  1.00  0.00     0.167 HD
ATOM     64  C   UNL A   1      44.929  32.649  28.299  1.00  0.00     0.074 A 
ATOM     65  C   UNL A   1      45.568  32.747  26.998  1.00  0.00     0.031 C 
ATOM     66  C   UNL A   1      43.978  33.446  28.873  1.00  0.00     0.034 A 
BRANCH  53  67
ATOM     67  C   UNL A   1      38.916  31.713  31.711  1.00  0.00     0.023 A 
ATOM     68  C   UNL A   1      38.679  31.051  32.928  1.00  0.00     0.012 A 
ATOM     69  C   UNL A   1      37.829  32.508  31.219  1.00  0.00     0.148 A 
ATOM     70  C   UNL A   1      37.466  31.189  33.628  1.00  0.00     0.002 A 
ATOM     71  C   UNL A   1      36.665  32.724  31.968  1.00  0.00     0.091 A 
ATOM     72  F   UNL A   1      37.848  32.980  29.964  1.00  0.00    -0.205 F 
ATOM     73  C   UNL A   1      36.473  32.048  33.169  1.00  0.00     0.022 A 
BRANCH  71  74
ATOM     74  S   UNL A   1      35.393  33.904  31.451  1.00  0.00     0.127 S 
ATOM     75  O   UNL A   1      34.160  33.153  31.673  1.00  0.00    -0.237 OA
ATOM     76  O   UNL A   1      35.590  35.024  32.375  1.00  0.00    -0.237 OA
ATOM     77  O   UNL A   1      35.698  34.221  30.061  1.00  0.00    -0.744 OA
ENDBRANCH  71  74
ENDBRANCH  53  67
BRANCH  54  78
ATOM     78  C   UNL A   1      46.848  28.468  26.823  1.00  0.00     0.023 A 
ATOM     79  C   UNL A   1      45.806  28.212  25.888  1.00  0.00     0.012 A 
ATOM     80  C   UNL A   1      48.155  28.104  26.448  1.00  0.00     0.148 A 
ATOM     81  C   UNL A   1      46.064  27.722  24.605  1.00  0.00     0.002 A 
ATOM     82  C   UNL A   1      48.405  27.579  25.173  1.00  0.00     0.091 A 
ATOM     83  F   UNL A   1      49.170  28.340  27.289  1.00  0.00    -0.205 F 
ATOM     84  C   UNL A   1      47.366  27.409  24.246  1.00  0.00     0.022 A 
BRANCH  82  85
ATOM     85  S   UNL A   1      50.092  27.296  24.600  1.00  0.00     0.127 S 
ATOM     86  O   UNL A   1      49.900  26.891  23.206  1.00  0.00    -0.237 OA
ATOM     87  O   UNL A   1      50.755  28.583  24.753  1.00  0.00    -0.237 OA
ATOM     88  O   UNL A   1      50.530  26.227  25.492  1.00  0.00    -0.744 OA
ENDBRANCH  82  85
ENDBRANCH  54  78
BRANCH  66  89
ATOM     89  C   UNL A   1      43.599  34.766  28.236  1.00  0.00     0.023 A 
ATOM     90  C   UNL A   1      42.648  34.766  27.193  1.00  0.00     0.012 A 
ATOM     91  C   UNL A   1      44.253  35.987  28.516  1.00  0.00     0.148 A 
ATOM     92  C   UNL A   1      42.338  35.927  26.483  1.00  0.00     0.002 A 
ATOM     93  C   UNL A   1      44.038  37.105  27.718  1.00  0.00     0.091 A 
ATOM     94  F   UNL A   1      45.048  36.085  29.590  1.00  0.00    -0.205 F 
ATOM     95  C   UNL A   1      43.059  37.089  26.722  1.00  0.00     0.022 A 
BRANCH  93  96
ATOM     96  S   UNL A   1      45.121  38.541  27.786  1.00  0.00     0.127 S 
ATOM     97  O   UNL A   1      44.697  39.175  29.037  1.00  0.00    -0.237 OA
ATOM     98  O   UNL A   1      46.444  37.926  27.833  1.00  0.00    -0.237 OA
ATOM     99  O   UNL A   1      44.818  39.319  26.592  1.00  0.00    -0.744 OA
ENDBRANCH  93  96
ENDBRANCH  66  89
ENDBRANCH  40  41
ENDBRANCH  33  35
ENDBRANCH  32  33
ENDBRANCH  31  32
ENDBRANCH  30  31
ENDBRANCH  29  30
ENDBRANCH   1  29
TORSDOF 23
ENDMDL
