MODEL 1
REMARK VINA RESULT:      -9.6      0.000      0.000
REMARK SMILES CCc1cc(OCCC(=O)OCCOCCOCCOC(=O)c2ccc(-c3c4nc(c(-c5cccc(S(=O)(=O)[O-])c5F)c5ccc([nH]5)c(-c5cccc(S(=O)(=O)[O-])c5F)c5nc(c(-c6cccc(S(=O)(=O)[O-])c6F)c6ccc3[nH]6)C=C5)C=C4)cc2)nc(-c2cnccn2)n1
REMARK SMILES IDX 15 1 14 2 13 3 12 4 11 5 9 6 10 7 8 8 7 9 6 10 5 11 3 12
REMARK SMILES IDX 4 13 94 14 87 15 86 16 2 17 1 18 88 19 89 20 93 21 90 22
REMARK SMILES IDX 92 23 91 24 16 25 17 26 18 27 19 28 20 29 21 30 22 31 23 32
REMARK SMILES IDX 24 33 85 34 25 35 84 36 26 37 27 38 28 39 78 40 29 41 83 42
REMARK SMILES IDX 77 43 79 44 30 45 82 46 76 47 75 48 31 50 63 51 43 52 62 53
REMARK SMILES IDX 44 54 47 55 61 56 80 57 45 58 46 59 60 61 81 62 48 63 32 64
REMARK SMILES IDX 33 65 41 66 34 67 36 68 42 69 35 70 37 71 38 72 39 73 40 74
REMARK SMILES IDX 64 75 65 76 73 77 66 78 68 79 74 80 67 81 69 82 70 83 71 84
REMARK SMILES IDX 72 85 49 86 50 87 58 88 51 89 53 90 59 91 52 92 54 93 55 94
REMARK SMILES IDX 56 95 57 96
REMARK H PARENT 79 49 47 60
REMARK Flexibility Score: inf
ROOT
ATOM      1  C   UNL A   1      33.200  20.255  24.398  1.00  0.00     0.188 C 
ENDROOT
BRANCH   1   2
ATOM      2  O   UNL A   1      31.890  20.754  24.694  1.00  0.00    -0.376 OA
BRANCH   2   3
ATOM      3  C   UNL A   1      31.795  21.976  25.423  1.00  0.00     0.202 C 
BRANCH   3   4
ATOM      4  C   UNL A   1      31.826  23.271  24.598  1.00  0.00     0.261 C 
BRANCH   4   5
ATOM      5  O   UNL A   1      33.169  23.752  24.419  1.00  0.00    -0.463 OA
BRANCH   5   6
ATOM      6  C   UNL A   1      33.614  23.880  23.148  1.00  0.00     0.309 C 
ATOM      7  O   UNL A   1      34.419  23.131  22.611  1.00  0.00    -0.252 OA
BRANCH   6   8
ATOM      8  C   UNL A   1      33.033  25.086  22.448  1.00  0.00     0.164 C 
BRANCH   8   9
ATOM      9  C   UNL A   1      33.876  26.365  22.444  1.00  0.00     0.243 C 
BRANCH   9  10
ATOM     10  O   UNL A   1      33.104  27.516  22.086  1.00  0.00    -0.477 OA
BRANCH  10  11
ATOM     11  C   UNL A   1      32.276  28.090  23.015  1.00  0.00     0.217 A 
ATOM     12  C   UNL A   1      31.729  28.946  25.165  1.00  0.00     0.048 A 
ATOM     13  C   UNL A   1      32.537  28.155  24.367  1.00  0.00     0.092 A 
ATOM     14  N   UNL A   1      30.696  29.606  24.644  1.00  0.00    -0.231 NA
ATOM     15  C   UNL A   1      30.501  29.483  23.317  1.00  0.00     0.183 A 
ATOM     16  N   UNL A   1      31.238  28.739  22.471  1.00  0.00    -0.192 NA
BRANCH  12  17
ATOM     17  C   UNL A   1      32.067  29.235  26.605  1.00  0.00     0.053 C 
ATOM     18  C   UNL A   1      31.508  28.248  27.620  1.00  0.00     0.011 C 
ENDBRANCH  12  17
BRANCH  15  19
ATOM     19  C   UNL A   1      29.420  30.290  22.778  1.00  0.00     0.126 A 
ATOM     20  C   UNL A   1      28.762  31.234  23.554  1.00  0.00     0.143 A 
ATOM     21  N   UNL A   1      29.166  30.169  21.441  1.00  0.00    -0.250 NA
ATOM     22  N   UNL A   1      27.847  32.098  23.042  1.00  0.00    -0.261 NA
ATOM     23  C   UNL A   1      28.259  31.022  20.933  1.00  0.00     0.132 A 
ATOM     24  C   UNL A   1      27.621  31.969  21.714  1.00  0.00     0.131 A 
ENDBRANCH  15  19
ENDBRANCH  10  11
ENDBRANCH   9  10
ENDBRANCH   8   9
ENDBRANCH   6   8
ENDBRANCH   5   6
ENDBRANCH   4   5
ENDBRANCH   3   4
ENDBRANCH   2   3
ENDBRANCH   1   2
BRANCH   1  25
ATOM     25  C   UNL A   1      34.296  20.624  25.422  1.00  0.00     0.188 C 
BRANCH  25  26
ATOM     26  O   UNL A   1      35.535  20.946  24.752  1.00  0.00    -0.376 OA
BRANCH  26  27
ATOM     27  C   UNL A   1      36.287  22.020  25.345  1.00  0.00     0.202 C 
BRANCH  27  28
ATOM     28  C   UNL A   1      37.815  21.916  25.350  1.00  0.00     0.261 C 
BRANCH  28  29
ATOM     29  O   UNL A   1      38.407  23.092  25.871  1.00  0.00    -0.460 OA
BRANCH  29  30
ATOM     30  C   UNL A   1      39.498  22.821  26.635  1.00  0.00     0.338 C 
ATOM     31  O   UNL A   1      39.991  21.737  26.854  1.00  0.00    -0.246 OA
BRANCH  30  32
ATOM     32  C   UNL A   1      40.131  24.110  26.968  1.00  0.00     0.060 A 
ATOM     33  C   UNL A   1      40.759  24.203  28.215  1.00  0.00     0.016 A 
ATOM     34  C   UNL A   1      40.185  25.163  26.047  1.00  0.00     0.016 A 
ATOM     35  C   UNL A   1      41.378  25.389  28.578  1.00  0.00     0.010 A 
ATOM     36  C   UNL A   1      40.819  26.346  26.405  1.00  0.00     0.010 A 
ATOM     37  C   UNL A   1      41.358  26.475  27.695  1.00  0.00    -0.014 A 
BRANCH  37  38
ATOM     38  C   UNL A   1      41.620  27.822  28.228  1.00  0.00     0.031 A 
ATOM     39  C   UNL A   1      43.052  28.273  28.263  1.00  0.00     0.074 A 
ATOM     40  C   UNL A   1      40.618  28.611  28.645  1.00  0.00     0.049 A 
ATOM     41  N   UNL A   1      43.554  29.403  28.680  1.00  0.00    -0.248 NA
ATOM     42  C   UNL A   1      44.058  27.316  27.763  1.00  0.00     0.031 C 
ATOM     43  C   UNL A   1      39.200  28.255  28.642  1.00  0.00     0.029 A 
ATOM     44  N   UNL A   1      40.654  29.873  29.171  1.00  0.00    -0.354 N 
ATOM     45  C   UNL A   1      44.928  29.282  28.516  1.00  0.00     0.074 A 
ATOM     46  C   UNL A   1      45.189  27.966  27.985  1.00  0.00     0.031 C 
ATOM     47  C   UNL A   1      38.498  29.274  29.170  1.00  0.00     0.029 A 
ATOM     48  C   UNL A   1      39.422  30.337  29.563  1.00  0.00     0.049 A 
ATOM     49  H   UNL A   1      41.482  30.399  29.259  1.00  0.00     0.167 HD
ATOM     50  C   UNL A   1      45.889  30.199  28.770  1.00  0.00     0.034 A 
ATOM     51  C   UNL A   1      39.095  31.484  30.186  1.00  0.00     0.034 A 
ATOM     52  C   UNL A   1      45.612  31.505  29.292  1.00  0.00     0.049 A 
ATOM     53  C   UNL A   1      40.189  32.480  30.483  1.00  0.00     0.074 A 
ATOM     54  C   UNL A   1      46.498  32.531  29.556  1.00  0.00     0.029 A 
ATOM     55  N   UNL A   1      44.350  31.957  29.645  1.00  0.00    -0.354 N 
ATOM     56  N   UNL A   1      41.472  32.404  30.218  1.00  0.00    -0.248 NA
ATOM     57  C   UNL A   1      39.784  33.733  31.133  1.00  0.00     0.031 C 
ATOM     58  C   UNL A   1      45.773  33.594  30.105  1.00  0.00     0.029 A 
ATOM     59  C   UNL A   1      44.431  33.243  30.143  1.00  0.00     0.049 A 
ATOM     60  H   UNL A   1      43.518  31.438  29.557  1.00  0.00     0.167 HD
ATOM     61  C   UNL A   1      42.022  33.611  30.635  1.00  0.00     0.074 A 
ATOM     62  C   UNL A   1      40.926  34.408  31.150  1.00  0.00     0.031 C 
ATOM     63  C   UNL A   1      43.314  34.026  30.608  1.00  0.00     0.034 A 
BRANCH  50  64
ATOM     64  C   UNL A   1      47.312  29.810  28.480  1.00  0.00     0.023 A 
ATOM     65  C   UNL A   1      47.883  30.113  27.226  1.00  0.00     0.012 A 
ATOM     66  C   UNL A   1      48.092  29.163  29.456  1.00  0.00     0.148 A 
ATOM     67  C   UNL A   1      49.198  29.749  26.938  1.00  0.00     0.002 A 
ATOM     68  C   UNL A   1      49.416  28.846  29.180  1.00  0.00     0.091 A 
ATOM     69  F   UNL A   1      47.520  28.853  30.629  1.00  0.00    -0.205 F 
ATOM     70  C   UNL A   1      49.966  29.126  27.918  1.00  0.00     0.022 A 
BRANCH  68  71
ATOM     71  S   UNL A   1      50.509  28.110  30.399  1.00  0.00     0.127 S 
ATOM     72  O   UNL A   1      51.111  27.018  29.634  1.00  0.00    -0.237 OA
ATOM     73  O   UNL A   1      51.419  29.217  30.699  1.00  0.00    -0.237 OA
ATOM     74  O   UNL A   1      49.660  27.700  31.507  1.00  0.00    -0.744 OA
ENDBRANCH  68  71
ENDBRANCH  50  64
BRANCH  51  75
ATOM     75  C   UNL A   1      37.677  31.765  30.542  1.00  0.00     0.023 A 
ATOM     76  C   UNL A   1      37.173  31.348  31.789  1.00  0.00     0.012 A 
ATOM     77  C   UNL A   1      36.828  32.458  29.656  1.00  0.00     0.148 A 
ATOM     78  C   UNL A   1      35.841  31.585  32.133  1.00  0.00     0.002 A 
ATOM     79  C   UNL A   1      35.519  32.738  30.027  1.00  0.00     0.091 A 
ATOM     80  F   UNL A   1      37.323  32.835  28.468  1.00  0.00    -0.205 F 
ATOM     81  C   UNL A   1      35.017  32.288  31.257  1.00  0.00     0.022 A 
BRANCH  79  82
ATOM     82  S   UNL A   1      34.422  33.736  29.012  1.00  0.00     0.127 S 
ATOM     83  O   UNL A   1      35.332  34.766  28.513  1.00  0.00    -0.237 OA
ATOM     84  O   UNL A   1      33.976  32.770  28.009  1.00  0.00    -0.237 OA
ATOM     85  O   UNL A   1      33.372  34.204  29.907  1.00  0.00    -0.744 OA
ENDBRANCH  79  82
ENDBRANCH  51  75
BRANCH  63  86
ATOM     86  C   UNL A   1      43.610  35.412  31.112  1.00  0.00     0.023 A 
ATOM     87  C   UNL A   1      43.978  35.607  32.458  1.00  0.00     0.012 A 
ATOM     88  C   UNL A   1      43.603  36.510  30.229  1.00  0.00     0.148 A 
ATOM     89  C   UNL A   1      44.294  36.882  32.927  1.00  0.00     0.002 A 
ATOM     90  C   UNL A   1      43.974  37.766  30.690  1.00  0.00     0.091 A 
ATOM     91  F   UNL A   1      43.238  36.304  28.955  1.00  0.00    -0.205 F 
ATOM     92  C   UNL A   1      44.305  37.957  32.041  1.00  0.00     0.022 A 
BRANCH  90  93
ATOM     93  S   UNL A   1      44.117  39.186  29.600  1.00  0.00     0.127 S 
ATOM     94  O   UNL A   1      44.342  40.271  30.553  1.00  0.00    -0.237 OA
ATOM     95  O   UNL A   1      45.283  38.837  28.788  1.00  0.00    -0.237 OA
ATOM     96  O   UNL A   1      42.864  39.253  28.860  1.00  0.00    -0.744 OA
ENDBRANCH  90  93
ENDBRANCH  63  86
ENDBRANCH  37  38
ENDBRANCH  30  32
ENDBRANCH  29  30
ENDBRANCH  28  29
ENDBRANCH  27  28
ENDBRANCH  26  27
ENDBRANCH  25  26
ENDBRANCH   1  25
TORSDOF 25
ENDMDL
MODEL 2
REMARK VINA RESULT:      -9.6      2.715      3.307
REMARK SMILES CCc1cc(OCCC(=O)OCCOCCOCCOC(=O)c2ccc(-c3c4nc(c(-c5cccc(S(=O)(=O)[O-])c5F)c5ccc([nH]5)c(-c5cccc(S(=O)(=O)[O-])c5F)c5nc(c(-c6cccc(S(=O)(=O)[O-])c6F)c6ccc3[nH]6)C=C5)C=C4)cc2)nc(-c2cnccn2)n1
REMARK SMILES IDX 15 1 14 2 13 3 12 4 11 5 9 6 10 7 8 8 7 9 6 10 5 11 3 12
REMARK SMILES IDX 4 13 94 14 87 15 86 16 2 17 1 18 88 19 89 20 93 21 90 22
REMARK SMILES IDX 92 23 91 24 16 25 17 26 18 27 19 28 20 29 21 30 22 31 23 32
REMARK SMILES IDX 24 33 85 34 25 35 84 36 26 37 27 38 28 39 78 40 29 41 83 42
REMARK SMILES IDX 77 43 79 44 30 45 82 46 76 47 75 48 31 50 63 51 43 52 62 53
REMARK SMILES IDX 44 54 47 55 61 56 80 57 45 58 46 59 60 61 81 62 48 63 32 64
REMARK SMILES IDX 33 65 41 66 34 67 36 68 42 69 35 70 37 71 38 72 39 73 40 74
REMARK SMILES IDX 64 75 65 76 73 77 66 78 68 79 74 80 67 81 69 82 70 83 71 84
REMARK SMILES IDX 72 85 49 86 50 87 58 88 51 89 53 90 59 91 52 92 54 93 55 94
REMARK SMILES IDX 56 95 57 96
REMARK H PARENT 79 49 47 60
REMARK Flexibility Score: inf
ROOT
ATOM      1  C   UNL A   1      33.410  19.735  24.500  1.00  0.00     0.188 C 
ENDROOT
BRANCH   1   2
ATOM      2  O   UNL A   1      32.103  20.302  24.350  1.00  0.00    -0.376 OA
BRANCH   2   3
ATOM      3  C   UNL A   1      32.011  21.709  24.142  1.00  0.00     0.202 C 
BRANCH   3   4
ATOM      4  C   UNL A   1      32.220  22.205  22.703  1.00  0.00     0.261 C 
BRANCH   4   5
ATOM      5  O   UNL A   1      33.438  22.959  22.575  1.00  0.00    -0.463 OA
BRANCH   5   6
ATOM      6  C   UNL A   1      33.340  24.205  22.059  1.00  0.00     0.309 C 
ATOM      7  O   UNL A   1      33.291  24.464  20.864  1.00  0.00    -0.252 OA
BRANCH   6   8
ATOM      8  C   UNL A   1      33.330  25.276  23.125  1.00  0.00     0.164 C 
BRANCH   8   9
ATOM      9  C   UNL A   1      34.115  26.558  22.833  1.00  0.00     0.243 C 
BRANCH   9  10
ATOM     10  O   UNL A   1      33.264  27.618  22.384  1.00  0.00    -0.477 OA
BRANCH  10  11
ATOM     11  C   UNL A   1      32.450  28.258  23.282  1.00  0.00     0.217 A 
ATOM     12  C   UNL A   1      31.961  29.344  25.340  1.00  0.00     0.048 A 
ATOM     13  C   UNL A   1      32.774  28.504  24.599  1.00  0.00     0.092 A 
ATOM     14  N   UNL A   1      30.866  29.878  24.802  1.00  0.00    -0.231 NA
ATOM     15  C   UNL A   1      30.613  29.583  23.513  1.00  0.00     0.183 A 
ATOM     16  N   UNL A   1      31.351  28.780  22.723  1.00  0.00    -0.192 NA
BRANCH  12  17
ATOM     17  C   UNL A   1      32.352  29.825  26.713  1.00  0.00     0.053 C 
ATOM     18  C   UNL A   1      33.836  29.740  27.040  1.00  0.00     0.011 C 
ENDBRANCH  12  17
BRANCH  15  19
ATOM     19  C   UNL A   1      29.461  30.259  22.942  1.00  0.00     0.126 A 
ATOM     20  C   UNL A   1      28.869  31.343  23.574  1.00  0.00     0.143 A 
ATOM     21  N   UNL A   1      29.067  29.862  21.695  1.00  0.00    -0.250 NA
ATOM     22  N   UNL A   1      27.883  32.081  22.999  1.00  0.00    -0.261 NA
ATOM     23  C   UNL A   1      28.090  30.590  21.126  1.00  0.00     0.132 A 
ATOM     24  C   UNL A   1      27.518  31.678  21.760  1.00  0.00     0.131 A 
ENDBRANCH  15  19
ENDBRANCH  10  11
ENDBRANCH   9  10
ENDBRANCH   8   9
ENDBRANCH   6   8
ENDBRANCH   5   6
ENDBRANCH   4   5
ENDBRANCH   3   4
ENDBRANCH   2   3
ENDBRANCH   1   2
BRANCH   1  25
ATOM     25  C   UNL A   1      34.372  20.522  25.418  1.00  0.00     0.188 C 
BRANCH  25  26
ATOM     26  O   UNL A   1      35.454  21.097  24.653  1.00  0.00    -0.376 OA
BRANCH  26  27
ATOM     27  C   UNL A   1      36.618  21.455  25.418  1.00  0.00     0.202 C 
BRANCH  27  28
ATOM     28  C   UNL A   1      37.883  20.609  25.249  1.00  0.00     0.261 C 
BRANCH  28  29
ATOM     29  O   UNL A   1      39.043  21.421  25.224  1.00  0.00    -0.460 OA
BRANCH  29  30
ATOM     30  C   UNL A   1      39.866  21.170  26.278  1.00  0.00     0.338 C 
ATOM     31  O   UNL A   1      40.373  20.113  26.579  1.00  0.00    -0.246 OA
BRANCH  30  32
ATOM     32  C   UNL A   1      40.233  22.471  26.865  1.00  0.00     0.060 A 
ATOM     33  C   UNL A   1      39.495  23.585  26.447  1.00  0.00     0.016 A 
ATOM     34  C   UNL A   1      41.210  22.581  27.861  1.00  0.00     0.016 A 
ATOM     35  C   UNL A   1      39.790  24.833  26.972  1.00  0.00     0.010 A 
ATOM     36  C   UNL A   1      41.495  23.829  28.399  1.00  0.00     0.010 A 
ATOM     37  C   UNL A   1      40.826  24.960  27.905  1.00  0.00    -0.014 A 
BRANCH  37  38
ATOM     38  C   UNL A   1      41.413  26.292  28.128  1.00  0.00     0.031 A 
ATOM     39  C   UNL A   1      42.781  26.538  27.557  1.00  0.00     0.074 A 
ATOM     40  C   UNL A   1      40.744  27.243  28.797  1.00  0.00     0.049 A 
ATOM     41  N   UNL A   1      43.519  27.612  27.608  1.00  0.00    -0.248 NA
ATOM     42  C   UNL A   1      43.404  25.414  26.831  1.00  0.00     0.031 C 
ATOM     43  C   UNL A   1      39.412  27.092  29.380  1.00  0.00     0.029 A 
ATOM     44  N   UNL A   1      41.113  28.522  29.110  1.00  0.00    -0.354 N 
ATOM     45  C   UNL A   1      44.696  27.287  26.947  1.00  0.00     0.074 A 
ATOM     46  C   UNL A   1      44.590  25.911  26.522  1.00  0.00     0.031 C 
ATOM     47  C   UNL A   1      39.083  28.235  30.008  1.00  0.00     0.029 A 
ATOM     48  C   UNL A   1      40.190  29.182  29.884  1.00  0.00     0.049 A 
ATOM     49  H   UNL A   1      41.957  28.930  28.810  1.00  0.00     0.167 HD
ATOM     50  C   UNL A   1      45.766  28.074  26.700  1.00  0.00     0.034 A 
ATOM     51  C   UNL A   1      40.255  30.407  30.439  1.00  0.00     0.034 A 
ATOM     52  C   UNL A   1      45.853  29.441  27.123  1.00  0.00     0.049 A 
ATOM     53  C   UNL A   1      41.471  31.257  30.171  1.00  0.00     0.074 A 
ATOM     54  C   UNL A   1      46.871  30.348  26.901  1.00  0.00     0.029 A 
ATOM     55  N   UNL A   1      44.886  30.091  27.875  1.00  0.00    -0.354 N 
ATOM     56  N   UNL A   1      42.531  30.981  29.447  1.00  0.00    -0.248 NA
ATOM     57  C   UNL A   1      41.486  32.599  30.767  1.00  0.00     0.031 C 
ATOM     58  C   UNL A   1      46.533  31.540  27.551  1.00  0.00     0.029 A 
ATOM     59  C   UNL A   1      45.288  31.386  28.142  1.00  0.00     0.049 A 
ATOM     60  H   UNL A   1      44.039  29.690  28.176  1.00  0.00     0.167 HD
ATOM     61  C   UNL A   1      43.320  32.126  29.470  1.00  0.00     0.074 A 
ATOM     62  C   UNL A   1      42.604  33.105  30.264  1.00  0.00     0.031 C 
ATOM     63  C   UNL A   1      44.531  32.350  28.900  1.00  0.00     0.034 A 
BRANCH  50  64
ATOM     64  C   UNL A   1      46.912  27.468  25.936  1.00  0.00     0.023 A 
ATOM     65  C   UNL A   1      47.758  26.530  26.564  1.00  0.00     0.012 A 
ATOM     66  C   UNL A   1      47.139  27.812  24.591  1.00  0.00     0.148 A 
ATOM     67  C   UNL A   1      48.832  25.968  25.874  1.00  0.00     0.002 A 
ATOM     68  C   UNL A   1      48.180  27.212  23.895  1.00  0.00     0.091 A 
ATOM     69  F   UNL A   1      46.344  28.731  24.023  1.00  0.00    -0.205 F 
ATOM     70  C   UNL A   1      49.035  26.301  24.537  1.00  0.00     0.022 A 
BRANCH  68  71
ATOM     71  S   UNL A   1      48.480  27.517  22.151  1.00  0.00     0.127 S 
ATOM     72  O   UNL A   1      49.466  28.596  22.206  1.00  0.00    -0.237 OA
ATOM     73  O   UNL A   1      49.011  26.229  21.703  1.00  0.00    -0.237 OA
ATOM     74  O   UNL A   1      47.192  27.879  21.578  1.00  0.00    -0.744 OA
ENDBRANCH  68  71
ENDBRANCH  50  64
BRANCH  51  75
ATOM     75  C   UNL A   1      39.129  30.911  31.274  1.00  0.00     0.023 A 
ATOM     76  C   UNL A   1      39.202  30.817  32.677  1.00  0.00     0.012 A 
ATOM     77  C   UNL A   1      37.992  31.498  30.683  1.00  0.00     0.148 A 
ATOM     78  C   UNL A   1      38.149  31.266  33.475  1.00  0.00     0.002 A 
ATOM     79  C   UNL A   1      36.971  31.992  31.486  1.00  0.00     0.091 A 
ATOM     80  F   UNL A   1      37.936  31.566  29.346  1.00  0.00    -0.205 F 
ATOM     81  C   UNL A   1      37.038  31.862  32.881  1.00  0.00     0.022 A 
BRANCH  79  82
ATOM     82  S   UNL A   1      35.559  32.876  30.814  1.00  0.00     0.127 S 
ATOM     83  O   UNL A   1      34.700  33.004  31.990  1.00  0.00    -0.237 OA
ATOM     84  O   UNL A   1      36.172  34.124  30.361  1.00  0.00    -0.237 OA
ATOM     85  O   UNL A   1      35.040  32.036  29.743  1.00  0.00    -0.744 OA
ENDBRANCH  79  82
ENDBRANCH  51  75
BRANCH  63  86
ATOM     86  C   UNL A   1      45.142  33.714  29.079  1.00  0.00     0.023 A 
ATOM     87  C   UNL A   1      44.852  34.741  28.159  1.00  0.00     0.012 A 
ATOM     88  C   UNL A   1      45.938  33.997  30.206  1.00  0.00     0.148 A 
ATOM     89  C   UNL A   1      45.380  36.019  28.337  1.00  0.00     0.002 A 
ATOM     90  C   UNL A   1      46.414  35.286  30.406  1.00  0.00     0.091 A 
ATOM     91  F   UNL A   1      46.213  33.002  31.062  1.00  0.00    -0.205 F 
ATOM     92  C   UNL A   1      46.149  36.294  29.465  1.00  0.00     0.022 A 
BRANCH  90  93
ATOM     93  S   UNL A   1      47.323  35.757  31.882  1.00  0.00     0.127 S 
ATOM     94  O   UNL A   1      48.707  35.595  31.443  1.00  0.00    -0.237 OA
ATOM     95  O   UNL A   1      46.902  37.145  32.074  1.00  0.00    -0.237 OA
ATOM     96  O   UNL A   1      46.888  34.844  32.930  1.00  0.00    -0.744 OA
ENDBRANCH  90  93
ENDBRANCH  63  86
ENDBRANCH  37  38
ENDBRANCH  30  32
ENDBRANCH  29  30
ENDBRANCH  28  29
ENDBRANCH  27  28
ENDBRANCH  26  27
ENDBRANCH  25  26
ENDBRANCH   1  25
TORSDOF 25
ENDMDL
MODEL 3
REMARK VINA RESULT:      -9.2      5.351     10.581
REMARK SMILES CCc1cc(OCCC(=O)OCCOCCOCCOC(=O)c2ccc(-c3c4nc(c(-c5cccc(S(=O)(=O)[O-])c5F)c5ccc([nH]5)c(-c5cccc(S(=O)(=O)[O-])c5F)c5nc(c(-c6cccc(S(=O)(=O)[O-])c6F)c6ccc3[nH]6)C=C5)C=C4)cc2)nc(-c2cnccn2)n1
REMARK SMILES IDX 15 1 14 2 13 3 12 4 11 5 9 6 10 7 8 8 7 9 6 10 5 11 3 12
REMARK SMILES IDX 4 13 94 14 87 15 86 16 2 17 1 18 88 19 89 20 93 21 90 22
REMARK SMILES IDX 92 23 91 24 16 25 17 26 18 27 19 28 20 29 21 30 22 31 23 32
REMARK SMILES IDX 24 33 85 34 25 35 84 36 26 37 27 38 28 39 78 40 29 41 83 42
REMARK SMILES IDX 77 43 79 44 30 45 82 46 76 47 75 48 31 50 63 51 43 52 62 53
REMARK SMILES IDX 44 54 47 55 61 56 80 57 45 58 46 59 60 61 81 62 48 63 32 64
REMARK SMILES IDX 33 65 41 66 34 67 36 68 42 69 35 70 37 71 38 72 39 73 40 74
REMARK SMILES IDX 64 75 65 76 73 77 66 78 68 79 74 80 67 81 69 82 70 83 71 84
REMARK SMILES IDX 72 85 49 86 50 87 58 88 51 89 53 90 59 91 52 92 54 93 55 94
REMARK SMILES IDX 56 95 57 96
REMARK H PARENT 79 49 47 60
REMARK Flexibility Score: inf
ROOT
ATOM      1  C   UNL A   1      32.855  28.625  25.630  1.00  0.00     0.188 C 
ENDROOT
BRANCH   1   2
ATOM      2  O   UNL A   1      32.893  29.153  24.299  1.00  0.00    -0.376 OA
BRANCH   2   3
ATOM      3  C   UNL A   1      33.918  28.682  23.427  1.00  0.00     0.202 C 
BRANCH   3   4
ATOM      4  C   UNL A   1      33.493  27.675  22.349  1.00  0.00     0.261 C 
BRANCH   4   5
ATOM      5  O   UNL A   1      32.473  26.782  22.830  1.00  0.00    -0.463 OA
BRANCH   5   6
ATOM      6  C   UNL A   1      32.885  25.628  23.403  1.00  0.00     0.309 C 
ATOM      7  O   UNL A   1      33.912  25.501  24.058  1.00  0.00    -0.252 OA
BRANCH   6   8
ATOM      8  C   UNL A   1      31.952  24.474  23.121  1.00  0.00     0.164 C 
BRANCH   8   9
ATOM      9  C   UNL A   1      32.573  23.200  22.541  1.00  0.00     0.243 C 
BRANCH   9  10
ATOM     10  O   UNL A   1      31.898  22.021  22.993  1.00  0.00    -0.477 OA
BRANCH  10  11
ATOM     11  C   UNL A   1      32.610  21.032  23.619  1.00  0.00     0.217 A 
ATOM     12  C   UNL A   1      33.184  18.774  24.095  1.00  0.00     0.048 A 
ATOM     13  C   UNL A   1      32.272  19.695  23.610  1.00  0.00     0.092 A 
ATOM     14  N   UNL A   1      34.353  19.173  24.596  1.00  0.00    -0.231 NA
ATOM     15  C   UNL A   1      34.604  20.496  24.578  1.00  0.00     0.183 A 
ATOM     16  N   UNL A   1      33.776  21.455  24.123  1.00  0.00    -0.192 NA
BRANCH  12  17
ATOM     17  C   UNL A   1      32.982  17.289  23.933  1.00  0.00     0.053 C 
ATOM     18  C   UNL A   1      34.179  16.519  23.396  1.00  0.00     0.011 C 
ENDBRANCH  12  17
BRANCH  15  19
ATOM     19  C   UNL A   1      35.925  20.877  25.048  1.00  0.00     0.126 A 
ATOM     20  C   UNL A   1      37.011  20.021  24.931  1.00  0.00     0.143 A 
ATOM     21  N   UNL A   1      36.076  22.160  25.492  1.00  0.00    -0.250 NA
ATOM     22  N   UNL A   1      38.281  20.400  25.232  1.00  0.00    -0.261 NA
ATOM     23  C   UNL A   1      37.332  22.536  25.792  1.00  0.00     0.132 A 
ATOM     24  C   UNL A   1      38.409  21.679  25.657  1.00  0.00     0.131 A 
ENDBRANCH  15  19
ENDBRANCH  10  11
ENDBRANCH   9  10
ENDBRANCH   8   9
ENDBRANCH   6   8
ENDBRANCH   5   6
ENDBRANCH   4   5
ENDBRANCH   3   4
ENDBRANCH   2   3
ENDBRANCH   1   2
BRANCH   1  25
ATOM     25  C   UNL A   1      31.810  29.268  26.568  1.00  0.00     0.188 C 
BRANCH  25  26
ATOM     26  O   UNL A   1      32.255  30.567  27.017  1.00  0.00    -0.376 OA
BRANCH  26  27
ATOM     27  C   UNL A   1      31.512  31.681  26.492  1.00  0.00     0.202 C 
BRANCH  27  28
ATOM     28  C   UNL A   1      31.967  33.094  26.867  1.00  0.00     0.261 C 
BRANCH  28  29
ATOM     29  O   UNL A   1      32.644  33.103  28.110  1.00  0.00    -0.460 OA
BRANCH  29  30
ATOM     30  C   UNL A   1      33.614  34.055  28.158  1.00  0.00     0.338 C 
ATOM     31  O   UNL A   1      33.557  35.185  27.727  1.00  0.00    -0.246 OA
BRANCH  30  32
ATOM     32  C   UNL A   1      34.677  33.552  29.047  1.00  0.00     0.060 A 
ATOM     33  C   UNL A   1      35.904  34.224  29.009  1.00  0.00     0.016 A 
ATOM     34  C   UNL A   1      34.448  32.510  29.953  1.00  0.00     0.016 A 
ATOM     35  C   UNL A   1      36.938  33.801  29.830  1.00  0.00     0.010 A 
ATOM     36  C   UNL A   1      35.479  32.096  30.786  1.00  0.00     0.010 A 
ATOM     37  C   UNL A   1      36.740  32.702  30.675  1.00  0.00    -0.014 A 
BRANCH  37  38
ATOM     38  C   UNL A   1      37.921  32.000  31.205  1.00  0.00     0.031 A 
ATOM     39  C   UNL A   1      38.275  32.255  32.642  1.00  0.00     0.074 A 
ATOM     40  C   UNL A   1      38.630  31.159  30.439  1.00  0.00     0.049 A 
ATOM     41  N   UNL A   1      39.256  31.769  33.352  1.00  0.00    -0.248 NA
ATOM     42  C   UNL A   1      37.406  33.191  33.380  1.00  0.00     0.031 C 
ATOM     43  C   UNL A   1      38.354  30.849  29.037  1.00  0.00     0.029 A 
ATOM     44  N   UNL A   1      39.746  30.426  30.738  1.00  0.00    -0.354 N 
ATOM     45  C   UNL A   1      39.136  32.357  34.605  1.00  0.00     0.074 A 
ATOM     46  C   UNL A   1      38.005  33.252  34.558  1.00  0.00     0.031 C 
ATOM     47  C   UNL A   1      39.299  30.003  28.587  1.00  0.00     0.029 A 
ATOM     48  C   UNL A   1      40.249  29.733  29.664  1.00  0.00     0.049 A 
ATOM     49  H   UNL A   1      40.149  30.397  31.636  1.00  0.00     0.167 HD
ATOM     50  C   UNL A   1      39.894  32.153  35.704  1.00  0.00     0.034 A 
ATOM     51  C   UNL A   1      41.365  28.985  29.571  1.00  0.00     0.034 A 
ATOM     52  C   UNL A   1      41.011  31.254  35.736  1.00  0.00     0.049 A 
ATOM     53  C   UNL A   1      42.208  28.794  30.807  1.00  0.00     0.074 A 
ATOM     54  C   UNL A   1      41.831  30.938  36.801  1.00  0.00     0.029 A 
ATOM     55  N   UNL A   1      41.473  30.540  34.641  1.00  0.00    -0.354 N 
ATOM     56  N   UNL A   1      42.022  29.263  32.018  1.00  0.00    -0.248 NA
ATOM     57  C   UNL A   1      43.398  27.943  30.670  1.00  0.00     0.031 C 
ATOM     58  C   UNL A   1      42.814  30.057  36.339  1.00  0.00     0.029 A 
ATOM     59  C   UNL A   1      42.580  29.794  34.997  1.00  0.00     0.049 A 
ATOM     60  H   UNL A   1      41.074  30.562  33.741  1.00  0.00     0.167 HD
ATOM     61  C   UNL A   1      43.047  28.735  32.796  1.00  0.00     0.074 A 
ATOM     62  C   UNL A   1      43.839  27.894  31.921  1.00  0.00     0.031 C 
ATOM     63  C   UNL A   1      43.321  28.932  34.111  1.00  0.00     0.034 A 
BRANCH  50  64
ATOM     64  C   UNL A   1      39.528  32.913  36.950  1.00  0.00     0.023 A 
ATOM     65  C   UNL A   1      40.142  34.153  37.223  1.00  0.00     0.012 A 
ATOM     66  C   UNL A   1      38.562  32.409  37.840  1.00  0.00     0.148 A 
ATOM     67  C   UNL A   1      39.822  34.865  38.379  1.00  0.00     0.002 A 
ATOM     68  C   UNL A   1      38.213  33.145  38.964  1.00  0.00     0.091 A 
ATOM     69  F   UNL A   1      38.016  31.212  37.579  1.00  0.00    -0.205 F 
ATOM     70  C   UNL A   1      38.851  34.365  39.243  1.00  0.00     0.022 A 
BRANCH  68  71
ATOM     71  S   UNL A   1      36.921  32.625  40.099  1.00  0.00     0.127 S 
ATOM     72  O   UNL A   1      35.760  32.557  39.211  1.00  0.00    -0.237 OA
ATOM     73  O   UNL A   1      37.419  31.325  40.551  1.00  0.00    -0.237 OA
ATOM     74  O   UNL A   1      36.857  33.648  41.132  1.00  0.00    -0.744 OA
ENDBRANCH  68  71
ENDBRANCH  50  64
BRANCH  51  75
ATOM     75  C   UNL A   1      41.729  28.342  28.279  1.00  0.00     0.023 A 
ATOM     76  C   UNL A   1      42.353  29.102  27.271  1.00  0.00     0.012 A 
ATOM     77  C   UNL A   1      41.475  26.975  28.050  1.00  0.00     0.148 A 
ATOM     78  C   UNL A   1      42.684  28.522  26.046  1.00  0.00     0.002 A 
ATOM     79  C   UNL A   1      41.856  26.391  26.848  1.00  0.00     0.091 A 
ATOM     80  F   UNL A   1      40.868  26.272  29.017  1.00  0.00    -0.205 F 
ATOM     81  C   UNL A   1      42.446  27.165  25.838  1.00  0.00     0.022 A 
BRANCH  79  82
ATOM     82  S   UNL A   1      41.693  24.629  26.538  1.00  0.00     0.127 S 
ATOM     83  O   UNL A   1      40.242  24.476  26.445  1.00  0.00    -0.237 OA
ATOM     84  O   UNL A   1      42.410  24.476  25.273  1.00  0.00    -0.237 OA
ATOM     85  O   UNL A   1      42.324  23.968  27.672  1.00  0.00    -0.744 OA
ENDBRANCH  79  82
ENDBRANCH  51  75
BRANCH  63  86
ATOM     86  C   UNL A   1      44.500  28.200  34.693  1.00  0.00     0.023 A 
ATOM     87  C   UNL A   1      45.775  28.798  34.680  1.00  0.00     0.012 A 
ATOM     88  C   UNL A   1      44.325  26.954  35.326  1.00  0.00     0.148 A 
ATOM     89  C   UNL A   1      46.867  28.147  35.253  1.00  0.00     0.002 A 
ATOM     90  C   UNL A   1      45.405  26.337  35.942  1.00  0.00     0.091 A 
ATOM     91  F   UNL A   1      43.105  26.396  35.315  1.00  0.00    -0.205 F 
ATOM     92  C   UNL A   1      46.679  26.925  35.894  1.00  0.00     0.022 A 
BRANCH  90  93
ATOM     93  S   UNL A   1      45.236  24.815  36.881  1.00  0.00     0.127 S 
ATOM     94  O   UNL A   1      44.867  23.861  35.837  1.00  0.00    -0.237 OA
ATOM     95  O   UNL A   1      46.584  24.635  37.423  1.00  0.00    -0.237 OA
ATOM     96  O   UNL A   1      44.212  25.073  37.884  1.00  0.00    -0.744 OA
ENDBRANCH  90  93
ENDBRANCH  63  86
ENDBRANCH  37  38
ENDBRANCH  30  32
ENDBRANCH  29  30
ENDBRANCH  28  29
ENDBRANCH  27  28
ENDBRANCH  26  27
ENDBRANCH  25  26
ENDBRANCH   1  25
TORSDOF 25
ENDMDL
