MODEL 1
REMARK VINA RESULT:      -9.6      0.000      0.000
REMARK SMILES Cc1ccc(CNC(=O)NC[C@@H](CC(C)C)C(=O)OCCOCCOCCOC(=O)c2ccc(-c3c4nc(c(-c5cccc(S(=O)(=O)[O-])c5F)c5ccc([nH]5)c(-c5cccc(S(=O)(=O)[O-])c5F)c5nc(c(-c6cccc(S(=O)(=O)[O-])c6F)c6ccc3[nH]6)C=C5)C=C4)cc2)s1
REMARK SMILES IDX 23 1 22 2 21 3 20 4 19 5 17 6 18 7 12 8 11 9 10 10 7 11 8 12
REMARK SMILES IDX 9 14 6 16 5 17 1 18 2 19 3 20 94 21 4 22 13 23 14 24 15 25
REMARK SMILES IDX 16 26 24 27 25 28 26 29 27 30 28 31 29 32 30 33 31 34 32 35
REMARK SMILES IDX 93 36 33 37 92 38 34 39 35 40 36 41 86 42 37 43 91 44 85 45
REMARK SMILES IDX 87 46 38 47 90 48 84 49 83 50 39 52 71 53 51 54 70 55 52 56
REMARK SMILES IDX 55 57 69 58 88 59 53 60 54 61 68 63 89 64 56 65 40 66 41 67
REMARK SMILES IDX 49 68 42 69 44 70 50 71 43 72 45 73 46 74 47 75 48 76 72 77
REMARK SMILES IDX 73 78 81 79 74 80 76 81 82 82 75 83 77 84 78 85 79 86 80 87
REMARK SMILES IDX 57 88 58 89 66 90 59 91 61 92 67 93 60 94 62 95 63 96 64 97
REMARK SMILES IDX 65 98
REMARK H PARENT 7 13 10 15 87 51 55 62
REMARK Flexibility Score: inf
ROOT
ATOM      1  C   UNL A   1      36.434  22.901  24.553  1.00  0.00     0.188 C 
ENDROOT
BRANCH   1   2
ATOM      2  O   UNL A   1      35.559  23.238  25.618  1.00  0.00    -0.376 OA
BRANCH   2   3
ATOM      3  C   UNL A   1      34.575  24.232  25.350  1.00  0.00     0.202 C 
BRANCH   3   4
ATOM      4  C   UNL A   1      33.397  24.327  26.327  1.00  0.00     0.261 C 
BRANCH   4   5
ATOM      5  O   UNL A   1      32.086  24.036  25.778  1.00  0.00    -0.463 OA
BRANCH   5   6
ATOM      6  C   UNL A   1      31.266  25.115  25.668  1.00  0.00     0.310 C 
ATOM      7  O   UNL A   1      30.647  25.604  26.609  1.00  0.00    -0.252 OA
BRANCH   6   8
ATOM      8  C   UNL A   1      31.058  25.636  24.255  1.00  0.00     0.119 C 
BRANCH   8   9
ATOM      9  C   UNL A   1      30.844  24.628  23.113  1.00  0.00     0.133 C 
BRANCH   9  10
ATOM     10  N   UNL A   1      32.114  24.387  22.402  1.00  0.00    -0.337 N 
ATOM     11  N   UNL A   1      32.765  22.105  22.421  1.00  0.00    -0.333 N 
ATOM     12  C   UNL A   1      32.895  23.369  22.036  1.00  0.00     0.315 C 
ATOM     13  H   UNL A   1      33.300  21.478  21.883  1.00  0.00     0.165 HD
ATOM     14  O   UNL A   1      33.821  23.636  21.264  1.00  0.00    -0.249 OA
ATOM     15  H   UNL A   1      32.506  25.240  22.103  1.00  0.00     0.165 HD
BRANCH  11  16
ATOM     16  C   UNL A   1      32.009  21.464  23.455  1.00  0.00     0.164 C 
BRANCH  16  17
ATOM     17  C   UNL A   1      32.512  20.081  23.712  1.00  0.00     0.024 A 
ATOM     18  C   UNL A   1      35.165  17.355  24.651  1.00  0.00     0.056 C 
ATOM     19  C   UNL A   1      34.004  18.181  24.221  1.00  0.00     0.002 A 
ATOM     20  C   UNL A   1      32.911  17.797  23.475  1.00  0.00     0.015 A 
ATOM     21  S   UNL A   1      33.937  19.838  24.631  1.00  0.00    -0.144 S 
ATOM     22  C   UNL A   1      32.035  18.888  23.202  1.00  0.00     0.017 A 
ENDBRANCH  16  17
ENDBRANCH  11  16
ENDBRANCH   9  10
ENDBRANCH   8   9
BRANCH   8  23
ATOM     23  C   UNL A   1      30.048  26.803  24.333  1.00  0.00     0.020 C 
BRANCH  23  24
ATOM     24  C   UNL A   1      30.257  28.038  23.432  1.00  0.00    -0.017 C 
ATOM     25  C   UNL A   1      28.989  28.573  22.771  1.00  0.00     0.007 C 
ATOM     26  C   UNL A   1      30.874  29.155  24.283  1.00  0.00     0.007 C 
ENDBRANCH  23  24
ENDBRANCH   8  23
ENDBRANCH   6   8
ENDBRANCH   5   6
ENDBRANCH   4   5
ENDBRANCH   3   4
ENDBRANCH   2   3
ENDBRANCH   1   2
BRANCH   1  27
ATOM     27  C   UNL A   1      37.567  21.929  24.885  1.00  0.00     0.188 C 
BRANCH  27  28
ATOM     28  O   UNL A   1      37.391  20.590  24.436  1.00  0.00    -0.376 OA
BRANCH  28  29
ATOM     29  C   UNL A   1      38.208  19.615  25.096  1.00  0.00     0.202 C 
BRANCH  29  30
ATOM     30  C   UNL A   1      39.478  20.179  25.774  1.00  0.00     0.261 C 
BRANCH  30  31
ATOM     31  O   UNL A   1      40.698  19.520  25.368  1.00  0.00    -0.460 OA
BRANCH  31  32
ATOM     32  C   UNL A   1      41.677  19.518  26.297  1.00  0.00     0.338 C 
ATOM     33  O   UNL A   1      42.199  18.528  26.777  1.00  0.00    -0.246 OA
BRANCH  32  34
ATOM     34  C   UNL A   1      42.235  20.878  26.446  1.00  0.00     0.060 A 
ATOM     35  C   UNL A   1      42.503  21.328  27.745  1.00  0.00     0.016 A 
ATOM     36  C   UNL A   1      42.480  21.710  25.358  1.00  0.00     0.016 A 
ATOM     37  C   UNL A   1      42.947  22.625  27.979  1.00  0.00     0.010 A 
ATOM     38  C   UNL A   1      42.920  23.018  25.589  1.00  0.00     0.010 A 
ATOM     39  C   UNL A   1      43.114  23.495  26.901  1.00  0.00    -0.014 A 
BRANCH  39  40
ATOM     40  C   UNL A   1      43.295  24.945  27.153  1.00  0.00     0.031 A 
ATOM     41  C   UNL A   1      44.622  25.565  26.809  1.00  0.00     0.074 A 
ATOM     42  C   UNL A   1      42.303  25.708  27.645  1.00  0.00     0.049 A 
ATOM     43  N   UNL A   1      45.056  26.777  27.038  1.00  0.00    -0.248 NA
ATOM     44  C   UNL A   1      45.587  24.700  26.110  1.00  0.00     0.031 C 
ATOM     45  C   UNL A   1      40.951  25.247  27.955  1.00  0.00     0.029 A 
ATOM     46  N   UNL A   1      42.293  27.038  27.987  1.00  0.00    -0.354 N 
ATOM     47  C   UNL A   1      46.359  26.805  26.558  1.00  0.00     0.074 A 
ATOM     48  C   UNL A   1      46.645  25.493  26.020  1.00  0.00     0.031 C 
ATOM     49  C   UNL A   1      40.247  26.274  28.463  1.00  0.00     0.029 A 
ATOM     50  C   UNL A   1      41.111  27.450  28.554  1.00  0.00     0.049 A 
ATOM     51  H   UNL A   1      43.059  27.638  27.840  1.00  0.00     0.167 HD
ATOM     52  C   UNL A   1      47.240  27.832  26.554  1.00  0.00     0.034 A 
ATOM     53  C   UNL A   1      40.777  28.633  29.110  1.00  0.00     0.034 A 
ATOM     54  C   UNL A   1      46.949  29.146  27.055  1.00  0.00     0.049 A 
ATOM     55  C   UNL A   1      41.790  29.748  29.139  1.00  0.00     0.074 A 
ATOM     56  C   UNL A   1      47.775  30.255  27.095  1.00  0.00     0.029 A 
ATOM     57  N   UNL A   1      45.736  29.531  27.602  1.00  0.00    -0.354 N 
ATOM     58  N   UNL A   1      43.004  29.777  28.642  1.00  0.00    -0.248 NA
ATOM     59  C   UNL A   1      41.381  31.003  29.789  1.00  0.00     0.031 C 
ATOM     60  C   UNL A   1      47.062  31.309  27.676  1.00  0.00     0.029 A 
ATOM     61  C   UNL A   1      45.787  30.860  27.984  1.00  0.00     0.049 A 
ATOM     62  H   UNL A   1      44.950  28.944  27.704  1.00  0.00     0.167 HD
ATOM     63  C   UNL A   1      43.488  31.058  28.887  1.00  0.00     0.074 A 
ATOM     64  C   UNL A   1      42.430  31.782  29.562  1.00  0.00     0.031 C 
ATOM     65  C   UNL A   1      44.704  31.585  28.596  1.00  0.00     0.034 A 
BRANCH  52  66
ATOM     66  C   UNL A   1      48.603  27.568  25.977  1.00  0.00     0.023 A 
ATOM     67  C   UNL A   1      49.664  27.204  26.830  1.00  0.00     0.012 A 
ATOM     68  C   UNL A   1      48.831  27.666  24.592  1.00  0.00     0.148 A 
ATOM     69  C   UNL A   1      50.939  26.972  26.317  1.00  0.00     0.002 A 
ATOM     70  C   UNL A   1      50.095  27.395  24.082  1.00  0.00     0.091 A 
ATOM     71  F   UNL A   1      47.817  28.048  23.801  1.00  0.00    -0.205 F 
ATOM     72  C   UNL A   1      51.152  27.058  24.943  1.00  0.00     0.022 A 
BRANCH  70  73
ATOM     73  S   UNL A   1      50.441  27.420  22.320  1.00  0.00     0.127 S 
ATOM     74  O   UNL A   1      50.293  28.841  22.010  1.00  0.00    -0.237 OA
ATOM     75  O   UNL A   1      51.818  26.925  22.266  1.00  0.00    -0.237 OA
ATOM     76  O   UNL A   1      49.459  26.534  21.711  1.00  0.00    -0.744 OA
ENDBRANCH  70  73
ENDBRANCH  52  66
BRANCH  53  77
ATOM     77  C   UNL A   1      39.411  28.835  29.671  1.00  0.00     0.023 A 
ATOM     78  C   UNL A   1      39.144  28.449  31.000  1.00  0.00     0.012 A 
ATOM     79  C   UNL A   1      38.380  29.414  28.905  1.00  0.00     0.148 A 
ATOM     80  C   UNL A   1      37.870  28.614  31.546  1.00  0.00     0.002 A 
ATOM     81  C   UNL A   1      37.128  29.624  29.473  1.00  0.00     0.091 A 
ATOM     82  F   UNL A   1      38.646  29.752  27.635  1.00  0.00    -0.205 F 
ATOM     83  C   UNL A   1      36.867  29.211  30.787  1.00  0.00     0.022 A 
BRANCH  81  84
ATOM     84  S   UNL A   1      35.813  30.491  28.609  1.00  0.00     0.127 S 
ATOM     85  O   UNL A   1      35.196  31.252  29.693  1.00  0.00    -0.237 OA
ATOM     86  O   UNL A   1      36.564  31.293  27.643  1.00  0.00    -0.237 OA
ATOM     87  O   UNL A   1      34.985  29.452  28.013  1.00  0.00    -0.744 OA
ENDBRANCH  81  84
ENDBRANCH  53  77
BRANCH  65  88
ATOM     88  C   UNL A   1      44.954  33.024  28.964  1.00  0.00     0.023 A 
ATOM     89  C   UNL A   1      45.537  33.336  30.208  1.00  0.00     0.012 A 
ATOM     90  C   UNL A   1      44.686  34.058  28.046  1.00  0.00     0.148 A 
ATOM     91  C   UNL A   1      45.826  34.659  30.543  1.00  0.00     0.002 A 
ATOM     92  C   UNL A   1      45.019  35.370  28.369  1.00  0.00     0.091 A 
ATOM     93  F   UNL A   1      44.112  33.745  26.876  1.00  0.00    -0.205 F 
ATOM     94  C   UNL A   1      45.579  35.673  29.621  1.00  0.00     0.022 A 
BRANCH  92  95
ATOM     95  S   UNL A   1      44.819  36.721  27.201  1.00  0.00     0.127 S 
ATOM     96  O   UNL A   1      45.345  37.854  27.961  1.00  0.00    -0.237 OA
ATOM     97  O   UNL A   1      45.661  36.296  26.082  1.00  0.00    -0.237 OA
ATOM     98  O   UNL A   1      43.396  36.772  26.894  1.00  0.00    -0.744 OA
ENDBRANCH  92  95
ENDBRANCH  65  88
ENDBRANCH  39  40
ENDBRANCH  32  34
ENDBRANCH  31  32
ENDBRANCH  30  31
ENDBRANCH  29  30
ENDBRANCH  28  29
ENDBRANCH  27  28
ENDBRANCH   1  27
TORSDOF 26
ENDMDL
MODEL 2
REMARK VINA RESULT:      -9.5      2.202      4.349
REMARK SMILES Cc1ccc(CNC(=O)NC[C@@H](CC(C)C)C(=O)OCCOCCOCCOC(=O)c2ccc(-c3c4nc(c(-c5cccc(S(=O)(=O)[O-])c5F)c5ccc([nH]5)c(-c5cccc(S(=O)(=O)[O-])c5F)c5nc(c(-c6cccc(S(=O)(=O)[O-])c6F)c6ccc3[nH]6)C=C5)C=C4)cc2)s1
REMARK SMILES IDX 23 1 22 2 21 3 20 4 19 5 17 6 18 7 12 8 11 9 10 10 7 11 8 12
REMARK SMILES IDX 9 14 6 16 5 17 1 18 2 19 3 20 94 21 4 22 13 23 14 24 15 25
REMARK SMILES IDX 16 26 24 27 25 28 26 29 27 30 28 31 29 32 30 33 31 34 32 35
REMARK SMILES IDX 93 36 33 37 92 38 34 39 35 40 36 41 86 42 37 43 91 44 85 45
REMARK SMILES IDX 87 46 38 47 90 48 84 49 83 50 39 52 71 53 51 54 70 55 52 56
REMARK SMILES IDX 55 57 69 58 88 59 53 60 54 61 68 63 89 64 56 65 40 66 41 67
REMARK SMILES IDX 49 68 42 69 44 70 50 71 43 72 45 73 46 74 47 75 48 76 72 77
REMARK SMILES IDX 73 78 81 79 74 80 76 81 82 82 75 83 77 84 78 85 79 86 80 87
REMARK SMILES IDX 57 88 58 89 66 90 59 91 61 92 67 93 60 94 62 95 63 96 64 97
REMARK SMILES IDX 65 98
REMARK H PARENT 7 13 10 15 87 51 55 62
REMARK Flexibility Score: inf
ROOT
ATOM      1  C   UNL A   1      35.759  21.578  24.889  1.00  0.00     0.188 C 
ENDROOT
BRANCH   1   2
ATOM      2  O   UNL A   1      35.617  22.908  25.361  1.00  0.00    -0.376 OA
BRANCH   2   3
ATOM      3  C   UNL A   1      34.953  23.080  26.608  1.00  0.00     0.202 C 
BRANCH   3   4
ATOM      4  C   UNL A   1      33.420  23.037  26.593  1.00  0.00     0.261 C 
BRANCH   4   5
ATOM      5  O   UNL A   1      32.743  24.306  26.778  1.00  0.00    -0.463 OA
BRANCH   5   6
ATOM      6  C   UNL A   1      31.451  24.325  26.354  1.00  0.00     0.310 C 
ATOM      7  O   UNL A   1      30.559  23.639  26.847  1.00  0.00    -0.252 OA
BRANCH   6   8
ATOM      8  C   UNL A   1      31.178  25.179  25.126  1.00  0.00     0.119 C 
BRANCH   8   9
ATOM      9  C   UNL A   1      30.687  26.623  25.318  1.00  0.00     0.133 C 
BRANCH   9  10
ATOM     10  N   UNL A   1      31.767  27.576  24.999  1.00  0.00    -0.337 N 
ATOM     11  N   UNL A   1      30.964  29.613  24.083  1.00  0.00    -0.333 N 
ATOM     12  C   UNL A   1      31.921  28.826  24.562  1.00  0.00     0.315 C 
ATOM     13  H   UNL A   1      31.234  30.556  24.013  1.00  0.00     0.165 HD
ATOM     14  O   UNL A   1      33.064  29.291  24.614  1.00  0.00    -0.249 OA
ATOM     15  H   UNL A   1      32.646  27.161  25.160  1.00  0.00     0.165 HD
BRANCH  11  16
ATOM     16  C   UNL A   1      29.620  29.373  23.647  1.00  0.00     0.164 C 
BRANCH  16  17
ATOM     17  C   UNL A   1      29.014  30.608  23.065  1.00  0.00     0.024 A 
ATOM     18  C   UNL A   1      27.620  32.912  20.220  1.00  0.00     0.056 C 
ATOM     19  C   UNL A   1      28.136  32.259  21.453  1.00  0.00     0.002 A 
ATOM     20  C   UNL A   1      28.583  32.854  22.613  1.00  0.00     0.015 A 
ATOM     21  S   UNL A   1      28.252  30.556  21.533  1.00  0.00    -0.144 S 
ATOM     22  C   UNL A   1      29.068  31.900  23.556  1.00  0.00     0.017 A 
ENDBRANCH  16  17
ENDBRANCH  11  16
ENDBRANCH   9  10
ENDBRANCH   8   9
BRANCH   8  23
ATOM     23  C   UNL A   1      32.360  24.984  24.150  1.00  0.00     0.020 C 
BRANCH  23  24
ATOM     24  C   UNL A   1      32.068  24.591  22.687  1.00  0.00    -0.017 C 
ATOM     25  C   UNL A   1      31.863  25.768  21.736  1.00  0.00     0.007 C 
ATOM     26  C   UNL A   1      33.239  23.745  22.173  1.00  0.00     0.007 C 
ENDBRANCH  23  24
ENDBRANCH   8  23
ENDBRANCH   6   8
ENDBRANCH   5   6
ENDBRANCH   4   5
ENDBRANCH   3   4
ENDBRANCH   2   3
ENDBRANCH   1   2
BRANCH   1  27
ATOM     27  C   UNL A   1      37.185  21.032  24.808  1.00  0.00     0.188 C 
BRANCH  27  28
ATOM     28  O   UNL A   1      37.314  19.616  24.864  1.00  0.00    -0.376 OA
BRANCH  28  29
ATOM     29  C   UNL A   1      38.589  19.139  25.312  1.00  0.00     0.202 C 
BRANCH  29  30
ATOM     30  C   UNL A   1      39.446  20.179  26.070  1.00  0.00     0.261 C 
BRANCH  30  31
ATOM     31  O   UNL A   1      40.863  20.066  25.814  1.00  0.00    -0.460 OA
BRANCH  31  32
ATOM     32  C   UNL A   1      41.649  20.220  26.901  1.00  0.00     0.338 C 
ATOM     33  O   UNL A   1      42.421  19.388  27.343  1.00  0.00    -0.246 OA
BRANCH  32  34
ATOM     34  C   UNL A   1      41.662  21.637  27.319  1.00  0.00     0.060 A 
ATOM     35  C   UNL A   1      41.138  22.579  26.424  1.00  0.00     0.016 A 
ATOM     36  C   UNL A   1      42.182  22.052  28.541  1.00  0.00     0.016 A 
ATOM     37  C   UNL A   1      41.191  23.941  26.703  1.00  0.00     0.010 A 
ATOM     38  C   UNL A   1      42.243  23.422  28.823  1.00  0.00     0.010 A 
ATOM     39  C   UNL A   1      41.788  24.373  27.887  1.00  0.00    -0.014 A 
BRANCH  39  40
ATOM     40  C   UNL A   1      42.116  25.810  28.059  1.00  0.00     0.031 A 
ATOM     41  C   UNL A   1      43.477  26.284  27.627  1.00  0.00     0.074 A 
ATOM     42  C   UNL A   1      41.225  26.686  28.555  1.00  0.00     0.049 A 
ATOM     43  N   UNL A   1      44.034  27.457  27.776  1.00  0.00    -0.248 NA
ATOM     44  C   UNL A   1      44.323  25.299  26.930  1.00  0.00     0.031 C 
ATOM     45  C   UNL A   1      39.853  26.371  28.945  1.00  0.00     0.029 A 
ATOM     46  N   UNL A   1      41.356  28.024  28.829  1.00  0.00    -0.354 N 
ATOM     47  C   UNL A   1      45.309  27.338  27.238  1.00  0.00     0.074 A 
ATOM     48  C   UNL A   1      45.444  25.981  26.755  1.00  0.00     0.031 C 
ATOM     49  C   UNL A   1      39.273  27.482  29.432  1.00  0.00     0.029 A 
ATOM     50  C   UNL A   1      40.246  28.573  29.427  1.00  0.00     0.049 A 
ATOM     51  H   UNL A   1      42.167  28.541  28.620  1.00  0.00     0.167 HD
ATOM     52  C   UNL A   1      46.281  28.275  27.145  1.00  0.00     0.034 A 
ATOM     53  C   UNL A   1      40.051  29.806  29.937  1.00  0.00     0.034 A 
ATOM     54  C   UNL A   1      46.139  29.633  27.593  1.00  0.00     0.049 A 
ATOM     55  C   UNL A   1      41.165  30.820  29.866  1.00  0.00     0.074 A 
ATOM     56  C   UNL A   1      47.066  30.658  27.541  1.00  0.00     0.029 A 
ATOM     57  N   UNL A   1      44.994  30.156  28.172  1.00  0.00    -0.354 N 
ATOM     58  N   UNL A   1      42.351  30.710  29.316  1.00  0.00    -0.248 NA
ATOM     59  C   UNL A   1      40.907  32.136  30.469  1.00  0.00     0.031 C 
ATOM     60  C   UNL A   1      46.484  31.800  28.100  1.00  0.00     0.029 A 
ATOM     61  C   UNL A   1      45.188  31.490  28.485  1.00  0.00     0.049 A 
ATOM     62  H   UNL A   1      44.163  29.652  28.337  1.00  0.00     0.167 HD
ATOM     63  C   UNL A   1      42.964  31.949  29.475  1.00  0.00     0.074 A 
ATOM     64  C   UNL A   1      42.012  32.800  30.159  1.00  0.00     0.031 C 
ATOM     65  C   UNL A   1      44.209  32.342  29.106  1.00  0.00     0.034 A 
BRANCH  52  66
ATOM     66  C   UNL A   1      47.584  27.855  26.524  1.00  0.00     0.023 A 
ATOM     67  C   UNL A   1      48.678  27.527  27.349  1.00  0.00     0.012 A 
ATOM     68  C   UNL A   1      47.722  27.772  25.126  1.00  0.00     0.148 A 
ATOM     69  C   UNL A   1      49.900  27.153  26.791  1.00  0.00     0.002 A 
ATOM     70  C   UNL A   1      48.931  27.361  24.577  1.00  0.00     0.091 A 
ATOM     71  F   UNL A   1      46.680  28.123  24.357  1.00  0.00    -0.205 F 
ATOM     72  C   UNL A   1      50.023  27.060  25.407  1.00  0.00     0.022 A 
BRANCH  70  73
ATOM     73  S   UNL A   1      49.157  27.153  22.808  1.00  0.00     0.127 S 
ATOM     74  O   UNL A   1      48.695  28.442  22.298  1.00  0.00    -0.237 OA
ATOM     75  O   UNL A   1      50.601  26.936  22.701  1.00  0.00    -0.237 OA
ATOM     76  O   UNL A   1      48.347  26.000  22.438  1.00  0.00    -0.744 OA
ENDBRANCH  70  73
ENDBRANCH  52  66
BRANCH  53  77
ATOM     77  C   UNL A   1      38.739  30.164  30.546  1.00  0.00     0.023 A 
ATOM     78  C   UNL A   1      38.466  29.783  31.875  1.00  0.00     0.012 A 
ATOM     79  C   UNL A   1      37.766  30.885  29.825  1.00  0.00     0.148 A 
ATOM     80  C   UNL A   1      37.239  30.093  32.466  1.00  0.00     0.002 A 
ATOM     81  C   UNL A   1      36.568  31.235  30.438  1.00  0.00     0.091 A 
ATOM     82  F   UNL A   1      38.034  31.215  28.554  1.00  0.00    -0.205 F 
ATOM     83  C   UNL A   1      36.296  30.827  31.752  1.00  0.00     0.022 A 
BRANCH  81  84
ATOM     84  S   UNL A   1      35.346  32.278  29.634  1.00  0.00     0.127 S 
ATOM     85  O   UNL A   1      34.900  31.424  28.535  1.00  0.00    -0.237 OA
ATOM     86  O   UNL A   1      34.365  32.472  30.701  1.00  0.00    -0.237 OA
ATOM     87  O   UNL A   1      36.059  33.487  29.247  1.00  0.00    -0.744 OA
ENDBRANCH  81  84
ENDBRANCH  53  77
BRANCH  65  88
ATOM     88  C   UNL A   1      44.609  33.766  29.391  1.00  0.00     0.023 A 
ATOM     89  C   UNL A   1      45.202  34.091  30.626  1.00  0.00     0.012 A 
ATOM     90  C   UNL A   1      44.473  34.763  28.404  1.00  0.00     0.148 A 
ATOM     91  C   UNL A   1      45.630  35.394  30.886  1.00  0.00     0.002 A 
ATOM     92  C   UNL A   1      44.942  36.049  28.654  1.00  0.00     0.091 A 
ATOM     93  F   UNL A   1      43.887  34.440  27.243  1.00  0.00    -0.205 F 
ATOM     94  C   UNL A   1      45.511  36.367  29.898  1.00  0.00     0.022 A 
BRANCH  92  95
ATOM     95  S   UNL A   1      44.913  37.336  27.401  1.00  0.00     0.127 S 
ATOM     96  O   UNL A   1      45.374  38.500  28.157  1.00  0.00    -0.237 OA
ATOM     97  O   UNL A   1      45.869  36.835  26.413  1.00  0.00    -0.237 OA
ATOM     98  O   UNL A   1      43.537  37.395  26.927  1.00  0.00    -0.744 OA
ENDBRANCH  92  95
ENDBRANCH  65  88
ENDBRANCH  39  40
ENDBRANCH  32  34
ENDBRANCH  31  32
ENDBRANCH  30  31
ENDBRANCH  29  30
ENDBRANCH  28  29
ENDBRANCH  27  28
ENDBRANCH   1  27
TORSDOF 26
ENDMDL
MODEL 3
REMARK VINA RESULT:      -9.3      2.339      8.528
REMARK SMILES Cc1ccc(CNC(=O)NC[C@@H](CC(C)C)C(=O)OCCOCCOCCOC(=O)c2ccc(-c3c4nc(c(-c5cccc(S(=O)(=O)[O-])c5F)c5ccc([nH]5)c(-c5cccc(S(=O)(=O)[O-])c5F)c5nc(c(-c6cccc(S(=O)(=O)[O-])c6F)c6ccc3[nH]6)C=C5)C=C4)cc2)s1
REMARK SMILES IDX 23 1 22 2 21 3 20 4 19 5 17 6 18 7 12 8 11 9 10 10 7 11 8 12
REMARK SMILES IDX 9 14 6 16 5 17 1 18 2 19 3 20 94 21 4 22 13 23 14 24 15 25
REMARK SMILES IDX 16 26 24 27 25 28 26 29 27 30 28 31 29 32 30 33 31 34 32 35
REMARK SMILES IDX 93 36 33 37 92 38 34 39 35 40 36 41 86 42 37 43 91 44 85 45
REMARK SMILES IDX 87 46 38 47 90 48 84 49 83 50 39 52 71 53 51 54 70 55 52 56
REMARK SMILES IDX 55 57 69 58 88 59 53 60 54 61 68 63 89 64 56 65 40 66 41 67
REMARK SMILES IDX 49 68 42 69 44 70 50 71 43 72 45 73 46 74 47 75 48 76 72 77
REMARK SMILES IDX 73 78 81 79 74 80 76 81 82 82 75 83 77 84 78 85 79 86 80 87
REMARK SMILES IDX 57 88 58 89 66 90 59 91 61 92 67 93 60 94 62 95 63 96 64 97
REMARK SMILES IDX 65 98
REMARK H PARENT 7 13 10 15 87 51 55 62
REMARK Flexibility Score: inf
ROOT
ATOM      1  C   UNL A   1      36.736  22.262  24.000  1.00  0.00     0.188 C 
ENDROOT
BRANCH   1   2
ATOM      2  O   UNL A   1      36.072  23.478  23.692  1.00  0.00    -0.376 OA
BRANCH   2   3
ATOM      3  C   UNL A   1      35.266  24.047  24.718  1.00  0.00     0.202 C 
BRANCH   3   4
ATOM      4  C   UNL A   1      34.375  25.233  24.328  1.00  0.00     0.261 C 
BRANCH   4   5
ATOM      5  O   UNL A   1      32.953  25.064  24.551  1.00  0.00    -0.463 OA
BRANCH   5   6
ATOM      6  C   UNL A   1      32.454  25.783  25.592  1.00  0.00     0.310 C 
ATOM      7  O   UNL A   1      33.135  26.513  26.308  1.00  0.00    -0.252 OA
BRANCH   6   8
ATOM      8  C   UNL A   1      30.987  25.544  25.908  1.00  0.00     0.119 C 
BRANCH   8   9
ATOM      9  C   UNL A   1      29.917  26.138  24.976  1.00  0.00     0.133 C 
BRANCH   9  10
ATOM     10  N   UNL A   1      30.401  26.142  23.582  1.00  0.00    -0.337 N 
ATOM     11  N   UNL A   1      31.299  28.237  22.922  1.00  0.00    -0.333 N 
ATOM     12  C   UNL A   1      31.031  26.950  22.730  1.00  0.00     0.315 C 
ATOM     13  H   UNL A   1      31.948  28.599  22.278  1.00  0.00     0.165 HD
ATOM     14  O   UNL A   1      31.402  26.446  21.665  1.00  0.00    -0.249 OA
ATOM     15  H   UNL A   1      30.195  25.282  23.148  1.00  0.00     0.165 HD
BRANCH  11  16
ATOM     16  C   UNL A   1      30.839  29.206  23.871  1.00  0.00     0.164 C 
BRANCH  16  17
ATOM     17  C   UNL A   1      29.754  30.054  23.292  1.00  0.00     0.024 A 
ATOM     18  C   UNL A   1      27.920  32.111  20.507  1.00  0.00     0.056 C 
ATOM     19  C   UNL A   1      28.437  31.442  21.731  1.00  0.00     0.002 A 
ATOM     20  C   UNL A   1      28.158  31.736  23.049  1.00  0.00     0.015 A 
ATOM     21  S   UNL A   1      29.545  30.149  21.594  1.00  0.00    -0.144 S 
ATOM     22  C   UNL A   1      28.898  30.918  23.952  1.00  0.00     0.017 A 
ENDBRANCH  16  17
ENDBRANCH  11  16
ENDBRANCH   9  10
ENDBRANCH   8   9
BRANCH   8  23
ATOM     23  C   UNL A   1      30.825  24.050  26.268  1.00  0.00     0.020 C 
BRANCH  23  24
ATOM     24  C   UNL A   1      32.068  23.137  26.259  1.00  0.00    -0.017 C 
ATOM     25  C   UNL A   1      32.569  22.720  27.640  1.00  0.00     0.007 C 
ATOM     26  C   UNL A   1      31.730  21.873  25.459  1.00  0.00     0.007 C 
ENDBRANCH  23  24
ENDBRANCH   8  23
ENDBRANCH   6   8
ENDBRANCH   5   6
ENDBRANCH   4   5
ENDBRANCH   3   4
ENDBRANCH   2   3
ENDBRANCH   1   2
BRANCH   1  27
ATOM     27  C   UNL A   1      35.977  21.279  24.893  1.00  0.00     0.188 C 
BRANCH  27  28
ATOM     28  O   UNL A   1      36.563  19.990  25.039  1.00  0.00    -0.376 OA
BRANCH  28  29
ATOM     29  C   UNL A   1      37.929  19.892  24.619  1.00  0.00     0.202 C 
BRANCH  29  30
ATOM     30  C   UNL A   1      38.902  19.341  25.687  1.00  0.00     0.261 C 
BRANCH  30  31
ATOM     31  O   UNL A   1      39.853  20.317  26.168  1.00  0.00    -0.460 OA
BRANCH  31  32
ATOM     32  C   UNL A   1      41.144  19.925  26.112  1.00  0.00     0.338 C 
ATOM     33  O   UNL A   1      41.542  18.846  25.710  1.00  0.00    -0.246 OA
BRANCH  32  34
ATOM     34  C   UNL A   1      42.033  21.083  26.334  1.00  0.00     0.060 A 
ATOM     35  C   UNL A   1      42.380  21.388  27.657  1.00  0.00     0.016 A 
ATOM     36  C   UNL A   1      42.512  21.870  25.291  1.00  0.00     0.016 A 
ATOM     37  C   UNL A   1      43.142  22.511  27.960  1.00  0.00     0.010 A 
ATOM     38  C   UNL A   1      43.273  23.006  25.591  1.00  0.00     0.010 A 
ATOM     39  C   UNL A   1      43.554  23.355  26.928  1.00  0.00    -0.014 A 
BRANCH  39  40
ATOM     40  C   UNL A   1      44.102  24.695  27.253  1.00  0.00     0.031 A 
ATOM     41  C   UNL A   1      43.156  25.740  27.777  1.00  0.00     0.074 A 
ATOM     42  C   UNL A   1      45.410  24.977  27.121  1.00  0.00     0.049 A 
ATOM     43  N   UNL A   1      43.371  27.006  28.026  1.00  0.00    -0.248 NA
ATOM     44  C   UNL A   1      41.780  25.295  28.062  1.00  0.00     0.031 C 
ATOM     45  C   UNL A   1      46.442  24.035  26.691  1.00  0.00     0.029 A 
ATOM     46  N   UNL A   1      46.088  26.153  27.322  1.00  0.00    -0.354 N 
ATOM     47  C   UNL A   1      42.151  27.518  28.446  1.00  0.00     0.074 A 
ATOM     48  C   UNL A   1      41.200  26.429  28.425  1.00  0.00     0.031 C 
ATOM     49  C   UNL A   1      47.622  24.678  26.639  1.00  0.00     0.029 A 
ATOM     50  C   UNL A   1      47.420  26.083  26.989  1.00  0.00     0.049 A 
ATOM     51  H   UNL A   1      45.662  26.969  27.671  1.00  0.00     0.167 HD
ATOM     52  C   UNL A   1      41.847  28.781  28.825  1.00  0.00     0.034 A 
ATOM     53  C   UNL A   1      48.359  27.049  26.944  1.00  0.00     0.034 A 
ATOM     54  C   UNL A   1      42.797  29.858  28.881  1.00  0.00     0.049 A 
ATOM     55  C   UNL A   1      47.987  28.460  27.324  1.00  0.00     0.074 A 
ATOM     56  C   UNL A   1      42.586  31.174  29.253  1.00  0.00     0.029 A 
ATOM     57  N   UNL A   1      44.138  29.743  28.556  1.00  0.00    -0.354 N 
ATOM     58  N   UNL A   1      46.841  28.924  27.763  1.00  0.00    -0.248 NA
ATOM     59  C   UNL A   1      49.044  29.478  27.223  1.00  0.00     0.031 C 
ATOM     60  C   UNL A   1      43.802  31.857  29.144  1.00  0.00     0.029 A 
ATOM     61  C   UNL A   1      44.772  30.963  28.719  1.00  0.00     0.049 A 
ATOM     62  H   UNL A   1      44.578  28.914  28.255  1.00  0.00     0.167 HD
ATOM     63  C   UNL A   1      47.048  30.275  28.022  1.00  0.00     0.074 A 
ATOM     64  C   UNL A   1      48.435  30.552  27.707  1.00  0.00     0.031 C 
ATOM     65  C   UNL A   1      46.167  31.208  28.463  1.00  0.00     0.034 A 
BRANCH  52  66
ATOM     66  C   UNL A   1      40.423  29.057  29.220  1.00  0.00     0.023 A 
ATOM     67  C   UNL A   1      39.482  29.415  28.234  1.00  0.00     0.012 A 
ATOM     68  C   UNL A   1      40.013  28.950  30.562  1.00  0.00     0.148 A 
ATOM     69  C   UNL A   1      38.160  29.692  28.583  1.00  0.00     0.002 A 
ATOM     70  C   UNL A   1      38.685  29.189  30.897  1.00  0.00     0.091 A 
ATOM     71  F   UNL A   1      40.931  28.643  31.490  1.00  0.00    -0.205 F 
ATOM     72  C   UNL A   1      37.761  29.570  29.911  1.00  0.00     0.022 A 
BRANCH  70  73
ATOM     73  S   UNL A   1      38.071  28.992  32.573  1.00  0.00     0.127 S 
ATOM     74  O   UNL A   1      39.048  29.766  33.338  1.00  0.00    -0.237 OA
ATOM     75  O   UNL A   1      36.742  29.599  32.491  1.00  0.00    -0.237 OA
ATOM     76  O   UNL A   1      38.063  27.558  32.826  1.00  0.00    -0.744 OA
ENDBRANCH  70  73
ENDBRANCH  52  66
BRANCH  53  77
ATOM     77  C   UNL A   1      49.755  26.717  26.540  1.00  0.00     0.023 A 
ATOM     78  C   UNL A   1      50.580  26.000  27.429  1.00  0.00     0.012 A 
ATOM     79  C   UNL A   1      50.267  27.096  25.283  1.00  0.00     0.148 A 
ATOM     80  C   UNL A   1      51.896  25.687  27.083  1.00  0.00     0.002 A 
ATOM     81  C   UNL A   1      51.561  26.736  24.925  1.00  0.00     0.091 A 
ATOM     82  F   UNL A   1      49.476  27.800  24.462  1.00  0.00    -0.205 F 
ATOM     83  C   UNL A   1      52.382  26.045  25.828  1.00  0.00     0.022 A 
BRANCH  81  84
ATOM     84  S   UNL A   1      52.229  27.052  23.288  1.00  0.00     0.127 S 
ATOM     85  O   UNL A   1      52.674  28.439  23.410  1.00  0.00    -0.237 OA
ATOM     86  O   UNL A   1      53.305  26.065  23.204  1.00  0.00    -0.237 OA
ATOM     87  O   UNL A   1      51.128  26.820  22.365  1.00  0.00    -0.744 OA
ENDBRANCH  81  84
ENDBRANCH  53  77
BRANCH  65  88
ATOM     88  C   UNL A   1      46.676  32.610  28.676  1.00  0.00     0.023 A 
ATOM     89  C   UNL A   1      47.140  32.998  29.948  1.00  0.00     0.012 A 
ATOM     90  C   UNL A   1      46.770  33.513  27.599  1.00  0.00     0.148 A 
ATOM     91  C   UNL A   1      47.665  34.275  30.151  1.00  0.00     0.002 A 
ATOM     92  C   UNL A   1      47.336  34.767  27.799  1.00  0.00     0.091 A 
ATOM     93  F   UNL A   1      46.304  33.133  26.401  1.00  0.00    -0.205 F 
ATOM     94  C   UNL A   1      47.775  35.153  29.077  1.00  0.00     0.022 A 
BRANCH  92  95
ATOM     95  S   UNL A   1      47.600  35.922  26.448  1.00  0.00     0.127 S 
ATOM     96  O   UNL A   1      46.233  36.328  26.130  1.00  0.00    -0.237 OA
ATOM     97  O   UNL A   1      48.414  36.963  27.079  1.00  0.00    -0.237 OA
ATOM     98  O   UNL A   1      48.292  35.167  25.412  1.00  0.00    -0.744 OA
ENDBRANCH  92  95
ENDBRANCH  65  88
ENDBRANCH  39  40
ENDBRANCH  32  34
ENDBRANCH  31  32
ENDBRANCH  30  31
ENDBRANCH  29  30
ENDBRANCH  28  29
ENDBRANCH  27  28
ENDBRANCH   1  27
TORSDOF 26
ENDMDL
