MODEL 1
REMARK VINA RESULT:     -10.3      0.000      0.000
REMARK SMILES COc1cccc(C[N@@H+]2C[C@H](C(=O)OCCOCCOCCOC(=O)c3ccc(-c4c5nc(c(-c6cccc(S(=O)(=O)[O-])c6F)c6ccc([nH]6)c(-c6cccc(S(=O)(=O)[O-])c6F)c6nc(c(-c7cccc(S(=O)(=O)[O-])c7F)c7ccc4[nH]7)C=C6)C=C5)cc3)C3(CC[NH+](C)CC3)C2)c1
REMARK SMILES IDX 18 1 17 2 16 3 15 4 14 5 12 6 13 7 11 8 9 9 10 10 96 11
REMARK SMILES IDX 89 13 90 14 95 15 91 16 94 17 92 18 93 19 8 21 7 22 3 23
REMARK SMILES IDX 4 24 97 25 5 26 6 27 2 28 1 29 19 30 20 31 21 32 22 33 23 34
REMARK SMILES IDX 24 35 25 36 26 37 27 38 88 39 28 40 87 41 29 42 30 43 31 44
REMARK SMILES IDX 81 45 32 46 86 47 80 48 82 49 33 50 85 51 79 52 78 53 34 55
REMARK SMILES IDX 66 56 46 57 65 58 47 59 50 60 64 61 83 62 48 63 49 64 63 66
REMARK SMILES IDX 84 67 51 68 35 69 36 70 44 71 37 72 39 73 45 74 38 75 40 76
REMARK SMILES IDX 41 77 42 78 43 79 67 80 68 81 76 82 69 83 71 84 77 85 70 86
REMARK SMILES IDX 72 87 73 88 74 89 75 90 52 91 53 92 61 93 54 94 56 95 62 96
REMARK SMILES IDX 55 97 57 98 58 99 59 100 60 101
REMARK H PARENT 9 12 92 20 82 54 50 65
REMARK Flexibility Score: inf
ROOT
ATOM      1  C   UNL A   1      33.626  28.979  25.590  1.00  0.00     0.188 C 
ENDROOT
BRANCH   1   2
ATOM      2  O   UNL A   1      34.067  28.055  24.614  1.00  0.00    -0.376 OA
BRANCH   2   3
ATOM      3  C   UNL A   1      34.364  28.592  23.324  1.00  0.00     0.202 C 
BRANCH   3   4
ATOM      4  C   UNL A   1      33.520  28.062  22.162  1.00  0.00     0.261 C 
BRANCH   4   5
ATOM      5  O   UNL A   1      33.064  26.706  22.422  1.00  0.00    -0.463 OA
BRANCH   5   6
ATOM      6  C   UNL A   1      31.825  26.392  22.013  1.00  0.00     0.315 C 
ATOM      7  O   UNL A   1      31.522  26.312  20.823  1.00  0.00    -0.252 OA
BRANCH   6   8
ATOM      8  C   UNL A   1      30.784  26.116  23.096  1.00  0.00     0.166 C 
ATOM      9  N   UNL A   1      30.607  24.963  25.161  1.00  0.00    -0.330 N 
ATOM     10  C   UNL A   1      31.485  25.133  24.025  1.00  0.00     0.278 C 
ATOM     11  C   UNL A   1      29.830  26.179  25.349  1.00  0.00     0.271 C 
ATOM     12  H   UNL A   1      29.937  24.219  24.964  1.00  0.00     0.348 HD
ATOM     13  C   UNL A   1      30.012  27.072  24.069  1.00  0.00     0.049 C 
ATOM     14  C   UNL A   1      28.634  27.445  23.473  1.00  0.00     0.075 C 
ATOM     15  C   UNL A   1      30.603  28.405  24.572  1.00  0.00     0.075 C 
ATOM     16  C   UNL A   1      28.763  28.523  22.391  1.00  0.00     0.262 C 
ATOM     17  C   UNL A   1      30.640  29.550  23.566  1.00  0.00     0.262 C 
ATOM     18  N   UNL A   1      29.389  29.772  22.836  1.00  0.00    -0.337 N 
ATOM     19  C   UNL A   1      28.489  30.637  23.588  1.00  0.00     0.332 C 
ATOM     20  H   UNL A   1      29.618  30.267  21.975  1.00  0.00     0.347 HD
BRANCH   9  21
ATOM     21  C   UNL A   1      31.269  24.418  26.351  1.00  0.00     0.299 C 
BRANCH  21  22
ATOM     22  C   UNL A   1      32.273  23.296  26.122  1.00  0.00     0.010 A 
ATOM     23  C   UNL A   1      32.663  20.342  25.203  1.00  0.00     0.119 A 
ATOM     24  C   UNL A   1      34.439  20.545  25.278  1.00  0.00     0.046 A 
ATOM     25  C   UNL A   1      31.634  21.701  25.625  1.00  0.00     0.056 A 
ATOM     26  C   UNL A   1      35.171  22.344  25.863  1.00  0.00     0.004 A 
ATOM     27  C   UNL A   1      34.001  23.651  26.240  1.00  0.00     0.010 A 
BRANCH  23  28
ATOM     28  O   UNL A   1      32.191  19.101  24.913  1.00  0.00    -0.497 OA
ATOM     29  C   UNL A   1      32.474  18.780  23.560  1.00  0.00     0.278 C 
ENDBRANCH  23  28
ENDBRANCH  21  22
ENDBRANCH   9  21
ENDBRANCH   6   8
ENDBRANCH   5   6
ENDBRANCH   4   5
ENDBRANCH   3   4
ENDBRANCH   2   3
ENDBRANCH   1   2
BRANCH   1  30
ATOM     30  C   UNL A   1      34.430  29.038  26.884  1.00  0.00     0.188 C 
BRANCH  30  31
ATOM     31  O   UNL A   1      34.235  30.133  27.772  1.00  0.00    -0.376 OA
BRANCH  31  32
ATOM     32  C   UNL A   1      33.305  31.122  27.327  1.00  0.00     0.202 C 
BRANCH  32  33
ATOM     33  C   UNL A   1      33.777  32.566  27.540  1.00  0.00     0.261 C 
BRANCH  33  34
ATOM     34  O   UNL A   1      32.737  33.355  28.114  1.00  0.00    -0.460 OA
BRANCH  34  35
ATOM     35  C   UNL A   1      33.191  34.437  28.788  1.00  0.00     0.338 C 
ATOM     36  O   UNL A   1      32.680  35.538  28.884  1.00  0.00    -0.246 OA
BRANCH  35  37
ATOM     37  C   UNL A   1      34.330  33.988  29.578  1.00  0.00     0.060 A 
ATOM     38  C   UNL A   1      35.991  34.327  28.979  1.00  0.00     0.016 A 
ATOM     39  C   UNL A   1      34.135  33.048  31.060  1.00  0.00     0.016 A 
ATOM     40  C   UNL A   1      37.541  33.529  30.011  1.00  0.00     0.010 A 
ATOM     41  C   UNL A   1      35.502  32.368  31.967  1.00  0.00     0.010 A 
ATOM     42  C   UNL A   1      37.179  32.578  31.483  1.00  0.00    -0.014 A 
BRANCH  42  43
ATOM     43  C   UNL A   1      38.300  31.903  32.111  1.00  0.00     0.031 A 
ATOM     44  C   UNL A   1      38.921  30.768  31.380  1.00  0.00     0.074 A 
ATOM     45  C   UNL A   1      38.836  32.456  33.208  1.00  0.00     0.049 A 
ATOM     46  N   UNL A   1      40.057  30.174  31.608  1.00  0.00    -0.248 NA
ATOM     47  C   UNL A   1      38.213  30.272  30.189  1.00  0.00     0.031 C 
ATOM     48  C   UNL A   1      38.316  33.632  33.909  1.00  0.00     0.029 A 
ATOM     49  N   UNL A   1      39.936  32.095  33.931  1.00  0.00    -0.354 N 
ATOM     50  C   UNL A   1      40.212  29.268  30.570  1.00  0.00     0.074 A 
ATOM     51  C   UNL A   1      39.073  29.397  29.697  1.00  0.00     0.031 C 
ATOM     52  C   UNL A   1      39.075  33.871  34.990  1.00  0.00     0.029 A 
ATOM     53  C   UNL A   1      40.093  32.833  35.078  1.00  0.00     0.049 A 
ATOM     54  H   UNL A   1      40.555  31.379  33.658  1.00  0.00     0.167 HD
ATOM     55  C   UNL A   1      41.207  28.377  30.392  1.00  0.00     0.034 A 
ATOM     56  C   UNL A   1      40.927  32.627  36.112  1.00  0.00     0.034 A 
ATOM     57  C   UNL A   1      42.221  28.157  31.379  1.00  0.00     0.049 A 
ATOM     58  C   UNL A   1      41.895  31.485  35.993  1.00  0.00     0.074 A 
ATOM     59  C   UNL A   1      43.223  27.209  31.391  1.00  0.00     0.029 A 
ATOM     60  N   UNL A   1      42.303  28.855  32.578  1.00  0.00    -0.354 N 
ATOM     61  N   UNL A   1      42.078  30.665  34.984  1.00  0.00    -0.248 NA
ATOM     62  C   UNL A   1      42.782  31.247  37.135  1.00  0.00     0.031 C 
ATOM     63  C   UNL A   1      43.858  27.280  32.634  1.00  0.00     0.029 A 
ATOM     64  C   UNL A   1      43.309  28.330  33.361  1.00  0.00     0.049 A 
ATOM     65  H   UNL A   1      41.727  29.613  32.832  1.00  0.00     0.167 HD
ATOM     66  C   UNL A   1      43.123  29.832  35.351  1.00  0.00     0.074 A 
ATOM     67  C   UNL A   1      43.541  30.262  36.673  1.00  0.00     0.031 C 
ATOM     68  C   UNL A   1      43.691  28.807  34.667  1.00  0.00     0.034 A 
BRANCH  55  69
ATOM     69  C   UNL A   1      41.151  27.518  29.162  1.00  0.00     0.023 A 
ATOM     70  C   UNL A   1      40.296  26.398  29.115  1.00  0.00     0.012 A 
ATOM     71  C   UNL A   1      41.964  27.818  28.055  1.00  0.00     0.148 A 
ATOM     72  C   UNL A   1      40.261  25.583  27.984  1.00  0.00     0.002 A 
ATOM     73  C   UNL A   1      41.894  27.028  26.917  1.00  0.00     0.091 A 
ATOM     74  F   UNL A   1      42.805  28.858  28.147  1.00  0.00    -0.205 F 
ATOM     75  C   UNL A   1      41.051  25.904  26.882  1.00  0.00     0.022 A 
BRANCH  73  76
ATOM     76  S   UNL A   1      42.835  27.389  25.433  1.00  0.00     0.127 S 
ATOM     77  O   UNL A   1      42.561  26.208  24.615  1.00  0.00    -0.237 OA
ATOM     78  O   UNL A   1      42.198  28.619  24.964  1.00  0.00    -0.237 OA
ATOM     79  O   UNL A   1      44.220  27.537  25.857  1.00  0.00    -0.744 OA
ENDBRANCH  73  76
ENDBRANCH  55  69
BRANCH  56  80
ATOM     80  C   UNL A   1      40.820  33.463  37.338  1.00  0.00     0.023 A 
ATOM     81  C   UNL A   1      39.904  33.133  38.352  1.00  0.00     0.012 A 
ATOM     82  C   UNL A   1      41.659  34.583  37.508  1.00  0.00     0.148 A 
ATOM     83  C   UNL A   1      39.808  33.921  39.503  1.00  0.00     0.002 A 
ATOM     84  C   UNL A   1      41.599  35.328  38.678  1.00  0.00     0.091 A 
ATOM     85  F   UNL A   1      42.514  34.892  36.522  1.00  0.00    -0.205 F 
ATOM     86  C   UNL A   1      40.662  35.009  39.671  1.00  0.00     0.022 A 
BRANCH  84  87
ATOM     87  S   UNL A   1      42.744  36.668  39.024  1.00  0.00     0.127 S 
ATOM     88  O   UNL A   1      42.077  37.351  40.130  1.00  0.00    -0.237 OA
ATOM     89  O   UNL A   1      43.958  35.938  39.392  1.00  0.00    -0.237 OA
ATOM     90  O   UNL A   1      42.851  37.429  37.787  1.00  0.00    -0.744 OA
ENDBRANCH  84  87
ENDBRANCH  56  80
BRANCH  68  91
ATOM     91  C   UNL A   1      44.856  28.123  35.321  1.00  0.00     0.023 A 
ATOM     92  C   UNL A   1      46.173  28.540  35.051  1.00  0.00     0.012 A 
ATOM     93  C   UNL A   1      44.623  27.101  36.261  1.00  0.00     0.148 A 
ATOM     94  C   UNL A   1      47.249  27.912  35.675  1.00  0.00     0.002 A 
ATOM     95  C   UNL A   1      45.693  26.529  36.928  1.00  0.00     0.091 A 
ATOM     96  F   UNL A   1      43.359  26.717  36.489  1.00  0.00    -0.205 F 
ATOM     97  C   UNL A   1      47.008  26.917  36.622  1.00  0.00     0.022 A 
BRANCH  95  98
ATOM     98  S   UNL A   1      45.470  25.327  38.240  1.00  0.00     0.127 S 
ATOM     99  O   UNL A   1      44.874  24.205  37.515  1.00  0.00    -0.237 OA
ATOM    100  O   UNL A   1      46.845  25.105  38.689  1.00  0.00    -0.237 OA
ATOM    101  O   UNL A   1      44.604  25.959  39.226  1.00  0.00    -0.744 OA
ENDBRANCH  95  98
ENDBRANCH  68  91
ENDBRANCH  42  43
ENDBRANCH  35  37
ENDBRANCH  34  35
ENDBRANCH  33  34
ENDBRANCH  32  33
ENDBRANCH  31  32
ENDBRANCH  30  31
ENDBRANCH   1  30
TORSDOF 23
ENDMDL
MODEL 2
REMARK VINA RESULT:     -10.2      2.546      7.967
REMARK SMILES COc1cccc(C[N@@H+]2C[C@H](C(=O)OCCOCCOCCOC(=O)c3ccc(-c4c5nc(c(-c6cccc(S(=O)(=O)[O-])c6F)c6ccc([nH]6)c(-c6cccc(S(=O)(=O)[O-])c6F)c6nc(c(-c7cccc(S(=O)(=O)[O-])c7F)c7ccc4[nH]7)C=C6)C=C5)cc3)C3(CC[NH+](C)CC3)C2)c1
REMARK SMILES IDX 18 1 17 2 16 3 15 4 14 5 12 6 13 7 11 8 9 9 10 10 96 11
REMARK SMILES IDX 89 13 90 14 95 15 91 16 94 17 92 18 93 19 8 21 7 22 3 23
REMARK SMILES IDX 4 24 97 25 5 26 6 27 2 28 1 29 19 30 20 31 21 32 22 33 23 34
REMARK SMILES IDX 24 35 25 36 26 37 27 38 88 39 28 40 87 41 29 42 30 43 31 44
REMARK SMILES IDX 81 45 32 46 86 47 80 48 82 49 33 50 85 51 79 52 78 53 34 55
REMARK SMILES IDX 66 56 46 57 65 58 47 59 50 60 64 61 83 62 48 63 49 64 63 66
REMARK SMILES IDX 84 67 51 68 35 69 36 70 44 71 37 72 39 73 45 74 38 75 40 76
REMARK SMILES IDX 41 77 42 78 43 79 67 80 68 81 76 82 69 83 71 84 77 85 70 86
REMARK SMILES IDX 72 87 73 88 74 89 75 90 52 91 53 92 61 93 54 94 56 95 62 96
REMARK SMILES IDX 55 97 57 98 58 99 59 100 60 101
REMARK H PARENT 9 12 92 20 82 54 50 65
REMARK Flexibility Score: inf
ROOT
ATOM      1  C   UNL A   1      33.631  28.706  25.909  1.00  0.00     0.188 C 
ENDROOT
BRANCH   1   2
ATOM      2  O   UNL A   1      33.865  27.768  24.877  1.00  0.00    -0.376 OA
BRANCH   2   3
ATOM      3  C   UNL A   1      34.331  28.297  23.635  1.00  0.00     0.202 C 
BRANCH   3   4
ATOM      4  C   UNL A   1      33.507  27.935  22.397  1.00  0.00     0.261 C 
BRANCH   4   5
ATOM      5  O   UNL A   1      33.002  26.575  22.484  1.00  0.00    -0.463 OA
BRANCH   5   6
ATOM      6  C   UNL A   1      31.769  26.351  22.002  1.00  0.00     0.315 C 
ATOM      7  O   UNL A   1      31.521  26.351  20.797  1.00  0.00    -0.252 OA
BRANCH   6   8
ATOM      8  C   UNL A   1      30.663  26.077  23.019  1.00  0.00     0.166 C 
ATOM      9  N   UNL A   1      30.320  24.816  24.998  1.00  0.00    -0.330 N 
ATOM     10  C   UNL A   1      31.259  24.998  23.914  1.00  0.00     0.278 C 
ATOM     11  C   UNL A   1      29.609  26.065  25.228  1.00  0.00     0.271 C 
ATOM     12  H   UNL A   1      29.616  24.129  24.726  1.00  0.00     0.348 HD
ATOM     13  C   UNL A   1      29.905  27.020  24.015  1.00  0.00     0.049 C 
ATOM     14  C   UNL A   1      28.582  27.514  23.385  1.00  0.00     0.075 C 
ATOM     15  C   UNL A   1      30.551  28.281  24.626  1.00  0.00     0.075 C 
ATOM     16  C   UNL A   1      28.826  28.644  22.379  1.00  0.00     0.262 C 
ATOM     17  C   UNL A   1      30.703  29.479  23.696  1.00  0.00     0.262 C 
ATOM     18  N   UNL A   1      29.504  29.822  22.927  1.00  0.00    -0.337 N 
ATOM     19  C   UNL A   1      28.623  30.695  23.692  1.00  0.00     0.332 C 
ATOM     20  H   UNL A   1      29.803  30.353  22.110  1.00  0.00     0.347 HD
BRANCH   9  21
ATOM     21  C   UNL A   1      30.891  24.160  26.179  1.00  0.00     0.299 C 
BRANCH  21  22
ATOM     22  C   UNL A   1      32.072  23.230  25.942  1.00  0.00     0.010 A 
ATOM     23  C   UNL A   1      35.160  22.878  26.197  1.00  0.00     0.119 A 
ATOM     24  C   UNL A   1      35.013  21.164  25.706  1.00  0.00     0.046 A 
ATOM     25  C   UNL A   1      33.707  23.860  26.299  1.00  0.00     0.056 A 
ATOM     26  C   UNL A   1      33.164  20.447  25.278  1.00  0.00     0.004 A 
ATOM     27  C   UNL A   1      31.766  21.559  25.449  1.00  0.00     0.010 A 
BRANCH  23  28
ATOM     28  O   UNL A   1      36.415  23.367  26.376  1.00  0.00    -0.497 OA
ATOM     29  C   UNL A   1      36.955  23.779  25.129  1.00  0.00     0.278 C 
ENDBRANCH  23  28
ENDBRANCH  21  22
ENDBRANCH   9  21
ENDBRANCH   6   8
ENDBRANCH   5   6
ENDBRANCH   4   5
ENDBRANCH   3   4
ENDBRANCH   2   3
ENDBRANCH   1   2
BRANCH   1  30
ATOM     30  C   UNL A   1      34.777  28.943  26.887  1.00  0.00     0.188 C 
BRANCH  30  31
ATOM     31  O   UNL A   1      35.049  30.268  27.329  1.00  0.00    -0.376 OA
BRANCH  31  32
ATOM     32  C   UNL A   1      33.900  31.054  27.647  1.00  0.00     0.202 C 
BRANCH  32  33
ATOM     33  C   UNL A   1      34.223  32.494  28.067  1.00  0.00     0.261 C 
BRANCH  33  34
ATOM     34  O   UNL A   1      33.833  32.722  29.420  1.00  0.00    -0.460 OA
BRANCH  34  35
ATOM     35  C   UNL A   1      34.755  33.402  30.139  1.00  0.00     0.338 C 
ATOM     36  O   UNL A   1      34.615  34.439  30.762  1.00  0.00    -0.246 OA
BRANCH  35  37
ATOM     37  C   UNL A   1      35.933  32.549  30.219  1.00  0.00     0.060 A 
ATOM     38  C   UNL A   1      35.892  31.109  31.295  1.00  0.00     0.016 A 
ATOM     39  C   UNL A   1      37.430  32.927  29.361  1.00  0.00     0.016 A 
ATOM     40  C   UNL A   1      37.607  30.054  31.517  1.00  0.00     0.010 A 
ATOM     41  C   UNL A   1      38.924  31.985  29.549  1.00  0.00     0.010 A 
ATOM     42  C   UNL A   1      39.050  30.579  30.596  1.00  0.00    -0.014 A 
BRANCH  42  43
ATOM     43  C   UNL A   1      40.293  29.889  30.891  1.00  0.00     0.031 A 
ATOM     44  C   UNL A   1      41.057  30.325  32.089  1.00  0.00     0.074 A 
ATOM     45  C   UNL A   1      40.582  28.782  30.194  1.00  0.00     0.049 A 
ATOM     46  N   UNL A   1      42.044  29.726  32.690  1.00  0.00    -0.248 NA
ATOM     47  C   UNL A   1      40.615  31.564  32.750  1.00  0.00     0.031 C 
ATOM     48  C   UNL A   1      39.806  28.260  29.067  1.00  0.00     0.029 A 
ATOM     49  N   UNL A   1      41.615  27.900  30.328  1.00  0.00    -0.354 N 
ATOM     50  C   UNL A   1      42.311  30.494  33.813  1.00  0.00     0.074 A 
ATOM     51  C   UNL A   1      41.375  31.590  33.831  1.00  0.00     0.031 C 
ATOM     52  C   UNL A   1      40.417  27.166  28.584  1.00  0.00     0.029 A 
ATOM     53  C   UNL A   1      41.647  26.953  29.333  1.00  0.00     0.049 A 
ATOM     54  H   UNL A   1      42.269  27.937  31.062  1.00  0.00     0.167 HD
ATOM     55  C   UNL A   1      43.285  30.314  34.726  1.00  0.00     0.034 A 
ATOM     56  C   UNL A   1      42.614  26.070  29.034  1.00  0.00     0.034 A 
ATOM     57  C   UNL A   1      44.305  29.320  34.568  1.00  0.00     0.049 A 
ATOM     58  C   UNL A   1      43.808  26.028  29.944  1.00  0.00     0.074 A 
ATOM     59  C   UNL A   1      45.420  29.097  35.349  1.00  0.00     0.029 A 
ATOM     60  N   UNL A   1      44.367  28.433  33.501  1.00  0.00    -0.354 N 
ATOM     61  N   UNL A   1      44.029  26.716  31.040  1.00  0.00    -0.248 NA
ATOM     62  C   UNL A   1      44.873  25.083  29.597  1.00  0.00     0.031 C 
ATOM     63  C   UNL A   1      46.200  28.131  34.706  1.00  0.00     0.029 A 
ATOM     64  C   UNL A   1      45.527  27.690  33.572  1.00  0.00     0.049 A 
ATOM     65  H   UNL A   1      43.685  28.348  32.795  1.00  0.00     0.167 HD
ATOM     66  C   UNL A   1      45.243  26.267  31.536  1.00  0.00     0.074 A 
ATOM     67  C   UNL A   1      45.699  25.234  30.624  1.00  0.00     0.031 C 
ATOM     68  C   UNL A   1      45.925  26.664  32.640  1.00  0.00     0.034 A 
BRANCH  55  69
ATOM     69  C   UNL A   1      43.345  31.282  35.871  1.00  0.00     0.023 A 
ATOM     70  C   UNL A   1      42.663  31.003  37.074  1.00  0.00     0.012 A 
ATOM     71  C   UNL A   1      44.067  32.482  35.744  1.00  0.00     0.148 A 
ATOM     72  C   UNL A   1      42.695  31.914  38.131  1.00  0.00     0.002 A 
ATOM     73  C   UNL A   1      44.129  33.363  36.813  1.00  0.00     0.091 A 
ATOM     74  F   UNL A   1      44.661  32.745  34.572  1.00  0.00    -0.205 F 
ATOM     75  C   UNL A   1      43.436  33.087  38.004  1.00  0.00     0.022 A 
BRANCH  73  76
ATOM     76  S   UNL A   1      45.095  34.874  36.764  1.00  0.00     0.127 S 
ATOM     77  O   UNL A   1      44.285  35.713  35.882  1.00  0.00    -0.237 OA
ATOM     78  O   UNL A   1      45.092  35.280  38.169  1.00  0.00    -0.237 OA
ATOM     79  O   UNL A   1      46.400  34.503  36.234  1.00  0.00    -0.744 OA
ENDBRANCH  73  76
ENDBRANCH  55  69
BRANCH  56  80
ATOM     80  C   UNL A   1      42.514  25.237  27.805  1.00  0.00     0.023 A 
ATOM     81  C   UNL A   1      42.926  25.744  26.560  1.00  0.00     0.012 A 
ATOM     82  C   UNL A   1      42.027  23.916  27.882  1.00  0.00     0.148 A 
ATOM     83  C   UNL A   1      42.830  24.958  25.409  1.00  0.00     0.002 A 
ATOM     84  C   UNL A   1      41.989  23.120  26.745  1.00  0.00     0.091 A 
ATOM     85  F   UNL A   1      41.622  23.456  29.074  1.00  0.00    -0.205 F 
ATOM     86  C   UNL A   1      42.374  23.644  25.502  1.00  0.00     0.022 A 
BRANCH  84  87
ATOM     87  S   UNL A   1      41.529  21.385  26.801  1.00  0.00     0.127 S 
ATOM     88  O   UNL A   1      40.112  21.463  27.148  1.00  0.00    -0.237 OA
ATOM     89  O   UNL A   1      41.806  20.957  25.429  1.00  0.00    -0.237 OA
ATOM     90  O   UNL A   1      42.391  20.778  27.806  1.00  0.00    -0.744 OA
ENDBRANCH  84  87
ENDBRANCH  56  80
BRANCH  68  91
ATOM     91  C   UNL A   1      47.204  25.938  32.942  1.00  0.00     0.023 A 
ATOM     92  C   UNL A   1      48.427  26.397  32.417  1.00  0.00     0.012 A 
ATOM     93  C   UNL A   1      47.185  24.830  33.810  1.00  0.00     0.148 A 
ATOM     94  C   UNL A   1      49.612  25.729  32.716  1.00  0.00     0.002 A 
ATOM     95  C   UNL A   1      48.375  24.213  34.156  1.00  0.00     0.091 A 
ATOM     96  F   UNL A   1      46.004  24.409  34.284  1.00  0.00    -0.205 F 
ATOM     97  C   UNL A   1      49.587  24.647  33.594  1.00  0.00     0.022 A 
BRANCH  95  98
ATOM     98  S   UNL A   1      48.449  22.891  35.365  1.00  0.00     0.127 S 
ATOM     99  O   UNL A   1      49.796  22.366  35.147  1.00  0.00    -0.237 OA
ATOM    100  O   UNL A   1      48.271  23.617  36.623  1.00  0.00    -0.237 OA
ATOM    101  O   UNL A   1      47.365  21.976  35.034  1.00  0.00    -0.744 OA
ENDBRANCH  95  98
ENDBRANCH  68  91
ENDBRANCH  42  43
ENDBRANCH  35  37
ENDBRANCH  34  35
ENDBRANCH  33  34
ENDBRANCH  32  33
ENDBRANCH  31  32
ENDBRANCH  30  31
ENDBRANCH   1  30
TORSDOF 23
ENDMDL
MODEL 3
REMARK VINA RESULT:     -10.2      4.597      9.290
REMARK SMILES COc1cccc(C[N@@H+]2C[C@H](C(=O)OCCOCCOCCOC(=O)c3ccc(-c4c5nc(c(-c6cccc(S(=O)(=O)[O-])c6F)c6ccc([nH]6)c(-c6cccc(S(=O)(=O)[O-])c6F)c6nc(c(-c7cccc(S(=O)(=O)[O-])c7F)c7ccc4[nH]7)C=C6)C=C5)cc3)C3(CC[NH+](C)CC3)C2)c1
REMARK SMILES IDX 18 1 17 2 16 3 15 4 14 5 12 6 13 7 11 8 9 9 10 10 96 11
REMARK SMILES IDX 89 13 90 14 95 15 91 16 94 17 92 18 93 19 8 21 7 22 3 23
REMARK SMILES IDX 4 24 97 25 5 26 6 27 2 28 1 29 19 30 20 31 21 32 22 33 23 34
REMARK SMILES IDX 24 35 25 36 26 37 27 38 88 39 28 40 87 41 29 42 30 43 31 44
REMARK SMILES IDX 81 45 32 46 86 47 80 48 82 49 33 50 85 51 79 52 78 53 34 55
REMARK SMILES IDX 66 56 46 57 65 58 47 59 50 60 64 61 83 62 48 63 49 64 63 66
REMARK SMILES IDX 84 67 51 68 35 69 36 70 44 71 37 72 39 73 45 74 38 75 40 76
REMARK SMILES IDX 41 77 42 78 43 79 67 80 68 81 76 82 69 83 71 84 77 85 70 86
REMARK SMILES IDX 72 87 73 88 74 89 75 90 52 91 53 92 61 93 54 94 56 95 62 96
REMARK SMILES IDX 55 97 57 98 58 99 59 100 60 101
REMARK H PARENT 9 12 92 20 82 54 50 65
REMARK Flexibility Score: inf
ROOT
ATOM      1  C   UNL A   1      38.673  22.184  26.125  1.00  0.00     0.188 C 
ENDROOT
BRANCH   1   2
ATOM      2  O   UNL A   1      37.319  22.286  25.728  1.00  0.00    -0.376 OA
BRANCH   2   3
ATOM      3  C   UNL A   1      37.078  22.400  24.325  1.00  0.00     0.202 C 
BRANCH   3   4
ATOM      4  C   UNL A   1      36.117  23.510  23.893  1.00  0.00     0.261 C 
BRANCH   4   5
ATOM      5  O   UNL A   1      35.232  23.053  22.835  1.00  0.00    -0.463 OA
BRANCH   5   6
ATOM      6  C   UNL A   1      33.912  23.161  23.056  1.00  0.00     0.315 C 
ATOM      7  O   UNL A   1      33.104  23.364  22.151  1.00  0.00    -0.252 OA
BRANCH   6   8
ATOM      8  C   UNL A   1      33.434  23.008  24.499  1.00  0.00     0.166 C 
ATOM      9  N   UNL A   1      31.853  23.978  25.976  1.00  0.00    -0.330 N 
ATOM     10  C   UNL A   1      32.465  24.168  24.680  1.00  0.00     0.278 C 
ATOM     11  C   UNL A   1      31.823  22.556  26.285  1.00  0.00     0.271 C 
ATOM     12  H   UNL A   1      32.432  24.417  26.693  1.00  0.00     0.348 HD
ATOM     13  C   UNL A   1      32.743  21.817  25.248  1.00  0.00     0.049 C 
ATOM     14  C   UNL A   1      33.801  20.960  25.984  1.00  0.00     0.075 C 
ATOM     15  C   UNL A   1      31.832  20.798  24.534  1.00  0.00     0.075 C 
ATOM     16  C   UNL A   1      34.539  20.027  25.018  1.00  0.00     0.262 C 
ATOM     17  C   UNL A   1      32.531  19.766  23.655  1.00  0.00     0.262 C 
ATOM     18  N   UNL A   1      33.678  19.100  24.277  1.00  0.00    -0.337 N 
ATOM     19  C   UNL A   1      33.253  17.949  25.062  1.00  0.00     0.332 C 
ATOM     20  H   UNL A   1      34.268  18.740  23.528  1.00  0.00     0.347 HD
BRANCH   9  21
ATOM     21  C   UNL A   1      30.598  24.715  26.159  1.00  0.00     0.299 C 
BRANCH  21  22
ATOM     22  C   UNL A   1      30.508  26.087  25.504  1.00  0.00     0.010 A 
ATOM     23  C   UNL A   1      31.532  29.031  25.551  1.00  0.00     0.119 A 
ATOM     24  C   UNL A   1      30.670  29.365  24.020  1.00  0.00     0.046 A 
ATOM     25  C   UNL A   1      31.431  27.424  26.251  1.00  0.00     0.056 A 
ATOM     26  C   UNL A   1      29.603  27.859  23.177  1.00  0.00     0.004 A 
ATOM     27  C   UNL A   1      29.609  26.260  23.991  1.00  0.00     0.010 A 
BRANCH  23  28
ATOM     28  O   UNL A   1      32.152  30.079  26.156  1.00  0.00    -0.497 OA
ATOM     29  C   UNL A   1      33.536  29.801  26.307  1.00  0.00     0.278 C 
ENDBRANCH  23  28
ENDBRANCH  21  22
ENDBRANCH   9  21
ENDBRANCH   6   8
ENDBRANCH   5   6
ENDBRANCH   4   5
ENDBRANCH   3   4
ENDBRANCH   2   3
ENDBRANCH   1   2
BRANCH   1  30
ATOM     30  C   UNL A   1      39.314  20.805  26.008  1.00  0.00     0.188 C 
BRANCH  30  31
ATOM     31  O   UNL A   1      40.187  20.357  27.039  1.00  0.00    -0.376 OA
BRANCH  31  32
ATOM     32  C   UNL A   1      41.308  21.203  27.301  1.00  0.00     0.202 C 
BRANCH  32  33
ATOM     33  C   UNL A   1      42.321  21.273  26.151  1.00  0.00     0.261 C 
BRANCH  33  34
ATOM     34  O   UNL A   1      42.163  22.485  25.416  1.00  0.00    -0.460 OA
BRANCH  34  35
ATOM     35  C   UNL A   1      43.331  22.995  24.961  1.00  0.00     0.338 C 
ATOM     36  O   UNL A   1      43.989  22.639  24.000  1.00  0.00    -0.246 OA
BRANCH  35  37
ATOM     37  C   UNL A   1      43.573  24.218  25.714  1.00  0.00     0.060 A 
ATOM     38  C   UNL A   1      44.079  24.094  27.435  1.00  0.00     0.016 A 
ATOM     39  C   UNL A   1      43.303  25.819  25.021  1.00  0.00     0.016 A 
ATOM     40  C   UNL A   1      44.228  25.813  28.496  1.00  0.00     0.010 A 
ATOM     41  C   UNL A   1      43.453  27.323  25.955  1.00  0.00     0.010 A 
ATOM     42  C   UNL A   1      43.898  27.359  27.655  1.00  0.00    -0.014 A 
BRANCH  42  43
ATOM     43  C   UNL A   1      43.873  28.553  28.480  1.00  0.00     0.031 A 
ATOM     44  C   UNL A   1      45.153  29.279  28.684  1.00  0.00     0.074 A 
ATOM     45  C   UNL A   1      42.680  29.042  28.848  1.00  0.00     0.049 A 
ATOM     46  N   UNL A   1      45.347  30.474  29.163  1.00  0.00    -0.248 NA
ATOM     47  C   UNL A   1      46.381  28.612  28.223  1.00  0.00     0.031 C 
ATOM     48  C   UNL A   1      41.385  28.411  28.587  1.00  0.00     0.029 A 
ATOM     49  N   UNL A   1      42.366  30.183  29.528  1.00  0.00    -0.354 N 
ATOM     50  C   UNL A   1      46.707  30.709  29.026  1.00  0.00     0.074 A 
ATOM     51  C   UNL A   1      47.294  29.551  28.401  1.00  0.00     0.031 C 
ATOM     52  C   UNL A   1      40.415  29.155  29.139  1.00  0.00     0.029 A 
ATOM     53  C   UNL A   1      41.031  30.277  29.834  1.00  0.00     0.049 A 
ATOM     54  H   UNL A   1      43.028  30.869  29.772  1.00  0.00     0.167 HD
ATOM     55  C   UNL A   1      47.404  31.789  29.430  1.00  0.00     0.034 A 
ATOM     56  C   UNL A   1      40.408  31.141  30.653  1.00  0.00     0.034 A 
ATOM     57  C   UNL A   1      46.810  32.833  30.210  1.00  0.00     0.049 A 
ATOM     58  C   UNL A   1      41.246  32.221  31.275  1.00  0.00     0.074 A 
ATOM     59  C   UNL A   1      47.417  33.928  30.789  1.00  0.00     0.029 A 
ATOM     60  N   UNL A   1      45.473  32.857  30.587  1.00  0.00    -0.354 N 
ATOM     61  N   UNL A   1      42.522  32.475  31.096  1.00  0.00    -0.248 NA
ATOM     62  C   UNL A   1      40.568  33.143  32.189  1.00  0.00     0.031 C 
ATOM     63  C   UNL A   1      46.462  34.569  31.585  1.00  0.00     0.029 A 
ATOM     64  C   UNL A   1      45.241  33.923  31.431  1.00  0.00     0.049 A 
ATOM     65  H   UNL A   1      44.791  32.209  30.296  1.00  0.00     0.167 HD
ATOM     66  C   UNL A   1      42.797  33.607  31.848  1.00  0.00     0.074 A 
ATOM     67  C   UNL A   1      41.545  33.995  32.472  1.00  0.00     0.031 C 
ATOM     68  C   UNL A   1      43.969  34.269  32.014  1.00  0.00     0.034 A 
BRANCH  55  69
ATOM     69  C   UNL A   1      48.876  31.807  29.138  1.00  0.00     0.023 A 
ATOM     70  C   UNL A   1      49.782  31.170  30.011  1.00  0.00     0.012 A 
ATOM     71  C   UNL A   1      49.361  32.475  27.999  1.00  0.00     0.148 A 
ATOM     72  C   UNL A   1      51.153  31.208  29.756  1.00  0.00     0.002 A 
ATOM     73  C   UNL A   1      50.722  32.472  27.730  1.00  0.00     0.091 A 
ATOM     74  F   UNL A   1      48.483  33.116  27.216  1.00  0.00    -0.205 F 
ATOM     75  C   UNL A   1      51.621  31.849  28.611  1.00  0.00     0.022 A 
BRANCH  73  76
ATOM     76  S   UNL A   1      51.414  33.228  26.257  1.00  0.00     0.127 S 
ATOM     77  O   UNL A   1      52.834  32.908  26.401  1.00  0.00    -0.237 OA
ATOM     78  O   UNL A   1      50.727  32.499  25.192  1.00  0.00    -0.237 OA
ATOM     79  O   UNL A   1      51.091  34.646  26.339  1.00  0.00    -0.744 OA
ENDBRANCH  73  76
ENDBRANCH  55  69
BRANCH  56  80
ATOM     80  C   UNL A   1      38.965  30.964  30.971  1.00  0.00     0.023 A 
ATOM     81  C   UNL A   1      38.558  30.060  31.968  1.00  0.00     0.012 A 
ATOM     82  C   UNL A   1      37.990  31.723  30.292  1.00  0.00     0.148 A 
ATOM     83  C   UNL A   1      37.201  29.897  32.264  1.00  0.00     0.002 A 
ATOM     84  C   UNL A   1      36.650  31.599  30.630  1.00  0.00     0.091 A 
ATOM     85  F   UNL A   1      38.397  32.566  29.332  1.00  0.00    -0.205 F 
ATOM     86  C   UNL A   1      36.250  30.673  31.605  1.00  0.00     0.022 A 
BRANCH  84  87
ATOM     87  S   UNL A   1      35.377  32.646  29.915  1.00  0.00     0.127 S 
ATOM     88  O   UNL A   1      35.090  31.952  28.662  1.00  0.00    -0.237 OA
ATOM     89  O   UNL A   1      34.320  32.563  30.924  1.00  0.00    -0.237 OA
ATOM     90  O   UNL A   1      35.978  33.966  29.781  1.00  0.00    -0.744 OA
ENDBRANCH  84  87
ENDBRANCH  56  80
BRANCH  68  91
ATOM     91  C   UNL A   1      43.930  35.508  32.861  1.00  0.00     0.023 A 
ATOM     92  C   UNL A   1      43.652  36.761  32.283  1.00  0.00     0.012 A 
ATOM     93  C   UNL A   1      44.108  35.403  34.254  1.00  0.00     0.148 A 
ATOM     94  C   UNL A   1      43.599  37.904  33.078  1.00  0.00     0.002 A 
ATOM     95  C   UNL A   1      43.987  36.532  35.046  1.00  0.00     0.091 A 
ATOM     96  F   UNL A   1      44.383  34.198  34.774  1.00  0.00    -0.205 F 
ATOM     97  C   UNL A   1      43.754  37.787  34.459  1.00  0.00     0.022 A 
BRANCH  95  98
ATOM     98  S   UNL A   1      44.057  36.456  36.836  1.00  0.00     0.127 S 
ATOM     99  O   UNL A   1      42.974  35.520  37.134  1.00  0.00    -0.237 OA
ATOM    100  O   UNL A   1      45.402  35.929  37.067  1.00  0.00    -0.237 OA
ATOM    101  O   UNL A   1      43.849  37.818  37.309  1.00  0.00    -0.744 OA
ENDBRANCH  95  98
ENDBRANCH  68  91
ENDBRANCH  42  43
ENDBRANCH  35  37
ENDBRANCH  34  35
ENDBRANCH  33  34
ENDBRANCH  32  33
ENDBRANCH  31  32
ENDBRANCH  30  31
ENDBRANCH   1  30
TORSDOF 23
ENDMDL
