MODEL 1
REMARK VINA RESULT:     -10.6      0.000      0.000
REMARK SMILES Cc1ccc(-c2cc(C[C@H]3CCCC3=O)ccc2[C@@H](C)C(=O)OCCOCCOCCOC(=O)c2ccc(-c3c4nc(c(-c5cccc(S(=O)(=O)[O-])c5F)c5ccc([nH]5)c(-c5cccc(S(=O)(=O)[O-])c5F)c5nc(c(-c6cccc(S(=O)(=O)[O-])c6F)c6ccc3[nH]6)C=C5)C=C4)cc2)cc1
REMARK SMILES IDX 27 1 26 2 25 3 24 4 23 5 21 6 22 7 19 8 20 9 18 10 6 11 7 12
REMARK SMILES IDX 8 13 17 14 16 15 5 16 1 17 2 18 3 19 99 20 4 21 98 22 9 23
REMARK SMILES IDX 10 24 11 25 14 26 12 27 13 28 15 29 28 30 29 31 30 32 31 33
REMARK SMILES IDX 32 34 33 35 34 36 35 37 36 38 97 39 37 40 96 41 38 42 39 43
REMARK SMILES IDX 40 44 90 45 41 46 95 47 89 48 91 49 42 50 94 51 88 52 87 53
REMARK SMILES IDX 43 55 75 56 55 57 74 58 56 59 59 60 73 61 92 62 57 63 58 64
REMARK SMILES IDX 72 66 93 67 60 68 44 69 45 70 53 71 46 72 48 73 54 74 47 75
REMARK SMILES IDX 49 76 50 77 51 78 52 79 76 80 77 81 85 82 78 83 80 84 86 85
REMARK SMILES IDX 79 86 81 87 82 88 83 89 84 90 61 91 62 92 70 93 63 94 65 95
REMARK SMILES IDX 71 96 64 97 66 98 67 99 68 100 69 101
REMARK H PARENT 91 54 59 65
REMARK Flexibility Score: inf
ROOT
ATOM      1  C   UNL A   1      33.310  30.958  27.521  1.00  0.00     0.188 C 
ENDROOT
BRANCH   1   2
ATOM      2  O   UNL A   1      34.564  30.493  27.042  1.00  0.00    -0.376 OA
BRANCH   2   3
ATOM      3  C   UNL A   1      34.729  29.024  27.077  1.00  0.00     0.202 C 
BRANCH   3   4
ATOM      4  C   UNL A   1      33.989  28.347  25.883  1.00  0.00     0.261 C 
BRANCH   4   5
ATOM      5  O   UNL A   1      33.215  27.014  25.601  1.00  0.00    -0.463 OA
BRANCH   5   6
ATOM      6  C   UNL A   1      32.755  26.414  24.403  1.00  0.00     0.313 C 
ATOM      7  O   UNL A   1      31.645  26.807  24.017  1.00  0.00    -0.252 OA
BRANCH   6   8
ATOM      8  C   UNL A   1      33.477  25.368  23.351  1.00  0.00     0.127 C 
ATOM      9  C   UNL A   1      33.407  25.997  21.921  1.00  0.00     0.025 C 
BRANCH   8  10
ATOM     10  C   UNL A   1      33.291  23.788  23.184  1.00  0.00    -0.026 A 
ATOM     11  C   UNL A   1      34.048  22.867  23.939  1.00  0.00    -0.014 A 
ATOM     12  C   UNL A   1      33.655  21.500  24.040  1.00  0.00     0.012 A 
ATOM     13  C   UNL A   1      32.569  20.966  23.334  1.00  0.00    -0.047 A 
ATOM     14  C   UNL A   1      32.336  23.187  22.321  1.00  0.00     0.005 A 
ATOM     15  C   UNL A   1      31.957  21.820  22.417  1.00  0.00     0.004 A 
BRANCH  11  16
ATOM     16  C   UNL A   1      35.319  23.263  24.529  1.00  0.00    -0.018 A 
ATOM     17  C   UNL A   1      39.022  23.744  26.619  1.00  0.00     0.044 C 
ATOM     18  C   UNL A   1      37.741  23.733  25.842  1.00  0.00    -0.051 A 
ATOM     19  C   UNL A   1      37.726  23.286  24.514  1.00  0.00     0.004 A 
ATOM     20  C   UNL A   1      36.536  24.015  26.490  1.00  0.00     0.004 A 
ATOM     21  C   UNL A   1      36.520  23.053  23.858  1.00  0.00     0.009 A 
ATOM     22  C   UNL A   1      35.332  23.788  25.834  1.00  0.00     0.009 A 
ENDBRANCH  11  16
BRANCH  13  23
ATOM     23  C   UNL A   1      32.230  19.489  23.428  1.00  0.00     0.047 C 
BRANCH  23  24
ATOM     24  C   UNL A   1      33.072  18.491  24.241  1.00  0.00     0.060 C 
ATOM     25  C   UNL A   1      32.551  18.032  25.598  1.00  0.00     0.012 C 
ATOM     26  C   UNL A   1      33.433  17.187  23.576  1.00  0.00     0.136 C 
ATOM     27  C   UNL A   1      33.256  16.705  25.903  1.00  0.00     0.009 C 
ATOM     28  C   UNL A   1      33.731  16.110  24.583  1.00  0.00     0.076 C 
ATOM     29  O   UNL A   1      33.610  17.045  22.374  1.00  0.00    -0.299 OA
ENDBRANCH  23  24
ENDBRANCH  13  23
ENDBRANCH   8  10
ENDBRANCH   6   8
ENDBRANCH   5   6
ENDBRANCH   4   5
ENDBRANCH   3   4
ENDBRANCH   2   3
ENDBRANCH   1   2
BRANCH   1  30
ATOM     30  C   UNL A   1      33.222  32.491  27.628  1.00  0.00     0.188 C 
BRANCH  30  31
ATOM     31  O   UNL A   1      34.291  33.146  28.313  1.00  0.00    -0.376 OA
BRANCH  31  32
ATOM     32  C   UNL A   1      34.401  34.560  28.174  1.00  0.00     0.202 C 
BRANCH  32  33
ATOM     33  C   UNL A   1      33.243  35.472  28.657  1.00  0.00     0.261 C 
BRANCH  33  34
ATOM     34  O   UNL A   1      32.655  35.025  29.897  1.00  0.00    -0.460 OA
BRANCH  34  35
ATOM     35  C   UNL A   1      32.916  35.805  30.979  1.00  0.00     0.338 C 
ATOM     36  O   UNL A   1      32.692  37.007  31.029  1.00  0.00    -0.246 OA
BRANCH  35  37
ATOM     37  C   UNL A   1      33.765  35.061  31.986  1.00  0.00     0.060 A 
ATOM     38  C   UNL A   1      34.256  35.819  33.001  1.00  0.00     0.016 A 
ATOM     39  C   UNL A   1      34.334  33.781  31.871  1.00  0.00     0.016 A 
ATOM     40  C   UNL A   1      35.455  35.396  33.616  1.00  0.00     0.010 A 
ATOM     41  C   UNL A   1      35.565  33.402  32.532  1.00  0.00     0.010 A 
ATOM     42  C   UNL A   1      36.270  34.276  33.353  1.00  0.00    -0.014 A 
BRANCH  42  43
ATOM     43  C   UNL A   1      37.827  34.055  33.676  1.00  0.00     0.031 A 
ATOM     44  C   UNL A   1      38.757  33.537  32.613  1.00  0.00     0.074 A 
ATOM     45  C   UNL A   1      38.615  34.358  34.797  1.00  0.00     0.049 A 
ATOM     46  N   UNL A   1      39.964  33.109  32.870  1.00  0.00    -0.248 NA
ATOM     47  C   UNL A   1      38.386  33.354  31.212  1.00  0.00     0.031 C 
ATOM     48  C   UNL A   1      39.899  35.086  34.753  1.00  0.00     0.029 A 
ATOM     49  N   UNL A   1      38.474  34.234  36.192  1.00  0.00    -0.354 N 
ATOM     50  C   UNL A   1      40.607  33.075  31.663  1.00  0.00     0.074 A 
ATOM     51  C   UNL A   1      39.545  32.912  30.704  1.00  0.00     0.031 C 
ATOM     52  C   UNL A   1      40.398  35.269  35.994  1.00  0.00     0.029 A 
ATOM     53  C   UNL A   1      39.557  34.613  36.976  1.00  0.00     0.049 A 
ATOM     54  H   UNL A   1      37.644  33.893  36.596  1.00  0.00     0.167 HD
ATOM     55  C   UNL A   1      41.901  33.496  31.555  1.00  0.00     0.034 A 
ATOM     56  C   UNL A   1      39.818  34.123  38.236  1.00  0.00     0.034 A 
ATOM     57  C   UNL A   1      42.594  33.698  32.843  1.00  0.00     0.049 A 
ATOM     58  C   UNL A   1      41.194  33.520  38.267  1.00  0.00     0.074 A 
ATOM     59  C   UNL A   1      43.172  34.813  33.429  1.00  0.00     0.029 A 
ATOM     60  N   UNL A   1      42.687  32.678  33.795  1.00  0.00    -0.354 N 
ATOM     61  N   UNL A   1      42.077  33.737  37.336  1.00  0.00    -0.248 NA
ATOM     62  C   UNL A   1      41.649  32.509  39.225  1.00  0.00     0.031 C 
ATOM     63  C   UNL A   1      43.566  34.474  34.751  1.00  0.00     0.029 A 
ATOM     64  C   UNL A   1      43.277  33.139  34.971  1.00  0.00     0.049 A 
ATOM     65  H   UNL A   1      42.377  31.756  33.652  1.00  0.00     0.167 HD
ATOM     66  C   UNL A   1      42.895  32.642  37.292  1.00  0.00     0.074 A 
ATOM     67  C   UNL A   1      42.734  32.025  38.597  1.00  0.00     0.031 C 
ATOM     68  C   UNL A   1      43.486  32.251  36.123  1.00  0.00     0.034 A 
BRANCH  55  69
ATOM     69  C   UNL A   1      42.511  33.963  30.231  1.00  0.00     0.023 A 
ATOM     70  C   UNL A   1      42.491  35.343  29.938  1.00  0.00     0.012 A 
ATOM     71  C   UNL A   1      43.034  33.131  29.209  1.00  0.00     0.148 A 
ATOM     72  C   UNL A   1      42.997  35.860  28.734  1.00  0.00     0.002 A 
ATOM     73  C   UNL A   1      43.660  33.654  28.078  1.00  0.00     0.091 A 
ATOM     74  F   UNL A   1      42.813  31.812  29.224  1.00  0.00    -0.205 F 
ATOM     75  C   UNL A   1      43.625  35.022  27.822  1.00  0.00     0.022 A 
BRANCH  73  76
ATOM     76  S   UNL A   1      44.606  32.593  26.969  1.00  0.00     0.127 S 
ATOM     77  O   UNL A   1      43.749  32.532  25.786  1.00  0.00    -0.237 OA
ATOM     78  O   UNL A   1      45.847  33.346  26.786  1.00  0.00    -0.237 OA
ATOM     79  O   UNL A   1      44.777  31.335  27.690  1.00  0.00    -0.744 OA
ENDBRANCH  73  76
ENDBRANCH  55  69
BRANCH  56  80
ATOM     80  C   UNL A   1      38.652  33.649  39.093  1.00  0.00     0.023 A 
ATOM     81  C   UNL A   1      38.062  32.411  38.750  1.00  0.00     0.012 A 
ATOM     82  C   UNL A   1      38.300  34.195  40.345  1.00  0.00     0.148 A 
ATOM     83  C   UNL A   1      37.355  31.639  39.687  1.00  0.00     0.002 A 
ATOM     84  C   UNL A   1      37.638  33.403  41.295  1.00  0.00     0.091 A 
ATOM     85  F   UNL A   1      38.719  35.428  40.653  1.00  0.00    -0.205 F 
ATOM     86  C   UNL A   1      37.200  32.109  40.979  1.00  0.00     0.022 A 
BRANCH  84  87
ATOM     87  S   UNL A   1      37.583  33.821  43.048  1.00  0.00     0.127 S 
ATOM     88  O   UNL A   1      38.998  33.987  43.373  1.00  0.00    -0.237 OA
ATOM     89  O   UNL A   1      36.824  35.065  43.017  1.00  0.00    -0.237 OA
ATOM     90  O   UNL A   1      36.933  32.698  43.718  1.00  0.00    -0.744 OA
ENDBRANCH  84  87
ENDBRANCH  56  80
BRANCH  68  91
ATOM     91  C   UNL A   1      44.310  30.995  35.973  1.00  0.00     0.023 A 
ATOM     92  C   UNL A   1      45.719  30.982  35.971  1.00  0.00     0.012 A 
ATOM     93  C   UNL A   1      43.658  29.743  35.895  1.00  0.00     0.148 A 
ATOM     94  C   UNL A   1      46.444  29.797  35.797  1.00  0.00     0.002 A 
ATOM     95  C   UNL A   1      44.385  28.559  35.839  1.00  0.00     0.091 A 
ATOM     96  F   UNL A   1      42.319  29.691  35.840  1.00  0.00    -0.205 F 
ATOM     97  C   UNL A   1      45.777  28.579  35.748  1.00  0.00     0.022 A 
BRANCH  95  98
ATOM     98  S   UNL A   1      43.546  26.983  36.028  1.00  0.00     0.127 S 
ATOM     99  O   UNL A   1      42.807  27.173  37.273  1.00  0.00    -0.237 OA
ATOM    100  O   UNL A   1      42.710  26.919  34.828  1.00  0.00    -0.237 OA
ATOM    101  O   UNL A   1      44.621  25.998  36.054  1.00  0.00    -0.744 OA
ENDBRANCH  95  98
ENDBRANCH  68  91
ENDBRANCH  42  43
ENDBRANCH  35  37
ENDBRANCH  34  35
ENDBRANCH  33  34
ENDBRANCH  32  33
ENDBRANCH  31  32
ENDBRANCH  30  31
ENDBRANCH   1  30
TORSDOF 24
ENDMDL
MODEL 2
REMARK VINA RESULT:     -10.3      4.936     10.149
REMARK SMILES Cc1ccc(-c2cc(C[C@H]3CCCC3=O)ccc2[C@@H](C)C(=O)OCCOCCOCCOC(=O)c2ccc(-c3c4nc(c(-c5cccc(S(=O)(=O)[O-])c5F)c5ccc([nH]5)c(-c5cccc(S(=O)(=O)[O-])c5F)c5nc(c(-c6cccc(S(=O)(=O)[O-])c6F)c6ccc3[nH]6)C=C5)C=C4)cc2)cc1
REMARK SMILES IDX 27 1 26 2 25 3 24 4 23 5 21 6 22 7 19 8 20 9 18 10 6 11 7 12
REMARK SMILES IDX 8 13 17 14 16 15 5 16 1 17 2 18 3 19 99 20 4 21 98 22 9 23
REMARK SMILES IDX 10 24 11 25 14 26 12 27 13 28 15 29 28 30 29 31 30 32 31 33
REMARK SMILES IDX 32 34 33 35 34 36 35 37 36 38 97 39 37 40 96 41 38 42 39 43
REMARK SMILES IDX 40 44 90 45 41 46 95 47 89 48 91 49 42 50 94 51 88 52 87 53
REMARK SMILES IDX 43 55 75 56 55 57 74 58 56 59 59 60 73 61 92 62 57 63 58 64
REMARK SMILES IDX 72 66 93 67 60 68 44 69 45 70 53 71 46 72 48 73 54 74 47 75
REMARK SMILES IDX 49 76 50 77 51 78 52 79 76 80 77 81 85 82 78 83 80 84 86 85
REMARK SMILES IDX 79 86 81 87 82 88 83 89 84 90 61 91 62 92 70 93 63 94 65 95
REMARK SMILES IDX 71 96 64 97 66 98 67 99 68 100 69 101
REMARK H PARENT 91 54 59 65
REMARK Flexibility Score: inf
ROOT
ATOM      1  C   UNL A   1      36.323  33.562  33.650  1.00  0.00     0.188 C 
ENDROOT
BRANCH   1   2
ATOM      2  O   UNL A   1      36.032  34.951  33.589  1.00  0.00    -0.376 OA
BRANCH   2   3
ATOM      3  C   UNL A   1      34.591  35.276  33.522  1.00  0.00     0.202 C 
BRANCH   3   4
ATOM      4  C   UNL A   1      34.045  35.106  32.072  1.00  0.00     0.261 C 
BRANCH   4   5
ATOM      5  O   UNL A   1      33.835  33.947  31.037  1.00  0.00    -0.463 OA
BRANCH   5   6
ATOM      6  C   UNL A   1      34.206  33.805  29.677  1.00  0.00     0.313 C 
ATOM      7  O   UNL A   1      34.096  34.834  28.996  1.00  0.00    -0.252 OA
BRANCH   6   8
ATOM      8  C   UNL A   1      34.877  32.545  28.849  1.00  0.00     0.127 C 
ATOM      9  C   UNL A   1      36.037  33.111  27.967  1.00  0.00     0.025 C 
BRANCH   8  10
ATOM     10  C   UNL A   1      34.174  31.376  28.014  1.00  0.00    -0.026 A 
ATOM     11  C   UNL A   1      34.638  30.044  28.067  1.00  0.00    -0.014 A 
ATOM     12  C   UNL A   1      33.827  28.964  27.607  1.00  0.00     0.012 A 
ATOM     13  C   UNL A   1      32.581  29.154  26.995  1.00  0.00    -0.047 A 
ATOM     14  C   UNL A   1      33.020  31.558  27.207  1.00  0.00     0.005 A 
ATOM     15  C   UNL A   1      32.222  30.477  26.740  1.00  0.00     0.004 A 
BRANCH  11  16
ATOM     16  C   UNL A   1      36.005  29.753  28.474  1.00  0.00    -0.018 A 
ATOM     17  C   UNL A   1      39.809  28.160  29.614  1.00  0.00     0.044 C 
ATOM     18  C   UNL A   1      38.537  28.865  29.257  1.00  0.00    -0.051 A 
ATOM     19  C   UNL A   1      38.299  29.265  27.935  1.00  0.00     0.004 A 
ATOM     20  C   UNL A   1      37.519  28.979  30.207  1.00  0.00     0.004 A 
ATOM     21  C   UNL A   1      37.039  29.710  27.545  1.00  0.00     0.009 A 
ATOM     22  C   UNL A   1      36.262  29.428  29.819  1.00  0.00     0.009 A 
ENDBRANCH  11  16
BRANCH  13  23
ATOM     23  C   UNL A   1      31.786  27.974  26.466  1.00  0.00     0.047 C 
BRANCH  23  24
ATOM     24  C   UNL A   1      32.434  26.809  25.699  1.00  0.00     0.060 C 
ATOM     25  C   UNL A   1      33.933  26.860  25.424  1.00  0.00     0.012 C 
ATOM     26  C   UNL A   1      32.257  25.424  26.266  1.00  0.00     0.136 C 
ATOM     27  C   UNL A   1      34.373  25.413  25.171  1.00  0.00     0.009 C 
ATOM     28  C   UNL A   1      33.343  24.489  25.808  1.00  0.00     0.076 C 
ATOM     29  O   UNL A   1      31.280  25.052  26.901  1.00  0.00    -0.299 OA
ENDBRANCH  23  24
ENDBRANCH  13  23
ENDBRANCH   8  10
ENDBRANCH   6   8
ENDBRANCH   5   6
ENDBRANCH   4   5
ENDBRANCH   3   4
ENDBRANCH   2   3
ENDBRANCH   1   2
BRANCH   1  30
ATOM     30  C   UNL A   1      36.919  33.000  32.347  1.00  0.00     0.188 C 
BRANCH  30  31
ATOM     31  O   UNL A   1      37.490  31.693  32.417  1.00  0.00    -0.376 OA
BRANCH  31  32
ATOM     32  C   UNL A   1      37.345  30.969  33.635  1.00  0.00     0.202 C 
BRANCH  32  33
ATOM     33  C   UNL A   1      38.476  31.014  34.696  1.00  0.00     0.261 C 
BRANCH  33  34
ATOM     34  O   UNL A   1      39.763  31.342  34.131  1.00  0.00    -0.460 OA
BRANCH  34  35
ATOM     35  C   UNL A   1      40.414  32.376  34.729  1.00  0.00     0.338 C 
ATOM     36  O   UNL A   1      40.506  32.521  35.940  1.00  0.00    -0.246 OA
BRANCH  35  37
ATOM     37  C   UNL A   1      40.755  33.451  33.720  1.00  0.00     0.060 A 
ATOM     38  C   UNL A   1      40.335  33.208  32.451  1.00  0.00     0.016 A 
ATOM     39  C   UNL A   1      41.667  34.512  33.851  1.00  0.00     0.016 A 
ATOM     40  C   UNL A   1      41.059  33.801  31.394  1.00  0.00     0.010 A 
ATOM     41  C   UNL A   1      42.377  35.086  32.728  1.00  0.00     0.010 A 
ATOM     42  C   UNL A   1      42.191  34.641  31.423  1.00  0.00    -0.014 A 
BRANCH  42  43
ATOM     43  C   UNL A   1      43.288  34.907  30.280  1.00  0.00     0.031 A 
ATOM     44  C   UNL A   1      44.508  34.031  30.180  1.00  0.00     0.074 A 
ATOM     45  C   UNL A   1      43.324  35.786  29.187  1.00  0.00     0.049 A 
ATOM     46  N   UNL A   1      45.543  34.334  29.443  1.00  0.00    -0.248 NA
ATOM     47  C   UNL A   1      44.718  32.818  30.966  1.00  0.00     0.031 C 
ATOM     48  C   UNL A   1      43.636  35.392  27.798  1.00  0.00     0.029 A 
ATOM     49  N   UNL A   1      43.007  37.140  28.971  1.00  0.00    -0.354 N 
ATOM     50  C   UNL A   1      46.257  33.175  29.317  1.00  0.00     0.074 A 
ATOM     51  C   UNL A   1      45.905  32.417  30.491  1.00  0.00     0.031 C 
ATOM     52  C   UNL A   1      43.545  36.446  26.960  1.00  0.00     0.029 A 
ATOM     53  C   UNL A   1      43.255  37.657  27.706  1.00  0.00     0.049 A 
ATOM     54  H   UNL A   1      42.626  37.699  29.686  1.00  0.00     0.167 HD
ATOM     55  C   UNL A   1      46.813  32.829  28.120  1.00  0.00     0.034 A 
ATOM     56  C   UNL A   1      43.496  38.986  27.438  1.00  0.00     0.034 A 
ATOM     57  C   UNL A   1      46.823  33.907  27.111  1.00  0.00     0.049 A 
ATOM     58  C   UNL A   1      44.819  39.127  26.739  1.00  0.00     0.074 A 
ATOM     59  C   UNL A   1      46.253  34.015  25.852  1.00  0.00     0.029 A 
ATOM     60  N   UNL A   1      47.410  35.149  27.369  1.00  0.00    -0.354 N 
ATOM     61  N   UNL A   1      45.443  38.118  26.206  1.00  0.00    -0.248 NA
ATOM     62  C   UNL A   1      45.632  40.346  26.716  1.00  0.00     0.031 C 
ATOM     63  C   UNL A   1      46.457  35.338  25.377  1.00  0.00     0.029 A 
ATOM     64  C   UNL A   1      47.191  36.039  26.318  1.00  0.00     0.049 A 
ATOM     65  H   UNL A   1      47.913  35.367  28.186  1.00  0.00     0.167 HD
ATOM     66  C   UNL A   1      46.779  38.406  26.241  1.00  0.00     0.074 A 
ATOM     67  C   UNL A   1      46.829  39.853  26.356  1.00  0.00     0.031 C 
ATOM     68  C   UNL A   1      47.712  37.412  26.354  1.00  0.00     0.034 A 
BRANCH  55  69
ATOM     69  C   UNL A   1      47.168  31.386  27.759  1.00  0.00     0.023 A 
ATOM     70  C   UNL A   1      48.492  30.949  27.980  1.00  0.00     0.012 A 
ATOM     71  C   UNL A   1      46.312  30.441  27.139  1.00  0.00     0.148 A 
ATOM     72  C   UNL A   1      48.919  29.653  27.649  1.00  0.00     0.002 A 
ATOM     73  C   UNL A   1      46.696  29.115  26.938  1.00  0.00     0.091 A 
ATOM     74  F   UNL A   1      45.156  30.827  26.589  1.00  0.00    -0.205 F 
ATOM     75  C   UNL A   1      48.010  28.719  27.170  1.00  0.00     0.022 A 
BRANCH  73  76
ATOM     76  S   UNL A   1      45.489  27.863  26.463  1.00  0.00     0.127 S 
ATOM     77  O   UNL A   1      45.261  28.167  25.052  1.00  0.00    -0.237 OA
ATOM     78  O   UNL A   1      46.209  26.613  26.710  1.00  0.00    -0.237 OA
ATOM     79  O   UNL A   1      44.346  28.072  27.347  1.00  0.00    -0.744 OA
ENDBRANCH  73  76
ENDBRANCH  55  69
BRANCH  56  80
ATOM     80  C   UNL A   1      42.892  40.038  28.358  1.00  0.00     0.023 A 
ATOM     81  C   UNL A   1      41.568  40.450  28.084  1.00  0.00     0.012 A 
ATOM     82  C   UNL A   1      43.432  40.423  29.603  1.00  0.00     0.148 A 
ATOM     83  C   UNL A   1      40.740  41.002  29.076  1.00  0.00     0.002 A 
ATOM     84  C   UNL A   1      42.592  40.927  30.606  1.00  0.00     0.091 A 
ATOM     85  F   UNL A   1      44.725  40.180  29.849  1.00  0.00    -0.205 F 
ATOM     86  C   UNL A   1      41.236  41.180  30.356  1.00  0.00     0.022 A 
BRANCH  84  87
ATOM     87  S   UNL A   1      43.069  40.982  32.344  1.00  0.00     0.127 S 
ATOM     88  O   UNL A   1      43.428  39.591  32.613  1.00  0.00    -0.237 OA
ATOM     89  O   UNL A   1      44.205  41.896  32.296  1.00  0.00    -0.237 OA
ATOM     90  O   UNL A   1      41.900  41.461  33.077  1.00  0.00    -0.744 OA
ENDBRANCH  84  87
ENDBRANCH  56  80
BRANCH  68  91
ATOM     91  C   UNL A   1      49.193  37.658  26.509  1.00  0.00     0.023 A 
ATOM     92  C   UNL A   1      49.746  38.481  27.510  1.00  0.00     0.012 A 
ATOM     93  C   UNL A   1      50.101  36.988  25.658  1.00  0.00     0.148 A 
ATOM     94  C   UNL A   1      51.125  38.708  27.599  1.00  0.00     0.002 A 
ATOM     95  C   UNL A   1      51.474  37.127  25.823  1.00  0.00     0.091 A 
ATOM     96  F   UNL A   1      49.637  36.232  24.652  1.00  0.00    -0.205 F 
ATOM     97  C   UNL A   1      51.994  38.016  26.764  1.00  0.00     0.022 A 
BRANCH  95  98
ATOM     98  S   UNL A   1      52.597  36.053  24.924  1.00  0.00     0.127 S 
ATOM     99  O   UNL A   1      52.117  34.724  25.292  1.00  0.00    -0.237 OA
ATOM    100  O   UNL A   1      52.351  36.425  23.530  1.00  0.00    -0.237 OA
ATOM    101  O   UNL A   1      53.922  36.422  25.410  1.00  0.00    -0.744 OA
ENDBRANCH  95  98
ENDBRANCH  68  91
ENDBRANCH  42  43
ENDBRANCH  35  37
ENDBRANCH  34  35
ENDBRANCH  33  34
ENDBRANCH  32  33
ENDBRANCH  31  32
ENDBRANCH  30  31
ENDBRANCH   1  30
TORSDOF 24
ENDMDL
MODEL 3
REMARK VINA RESULT:      -9.2      7.167     13.029
REMARK SMILES Cc1ccc(-c2cc(C[C@H]3CCCC3=O)ccc2[C@@H](C)C(=O)OCCOCCOCCOC(=O)c2ccc(-c3c4nc(c(-c5cccc(S(=O)(=O)[O-])c5F)c5ccc([nH]5)c(-c5cccc(S(=O)(=O)[O-])c5F)c5nc(c(-c6cccc(S(=O)(=O)[O-])c6F)c6ccc3[nH]6)C=C5)C=C4)cc2)cc1
REMARK SMILES IDX 27 1 26 2 25 3 24 4 23 5 21 6 22 7 19 8 20 9 18 10 6 11 7 12
REMARK SMILES IDX 8 13 17 14 16 15 5 16 1 17 2 18 3 19 99 20 4 21 98 22 9 23
REMARK SMILES IDX 10 24 11 25 14 26 12 27 13 28 15 29 28 30 29 31 30 32 31 33
REMARK SMILES IDX 32 34 33 35 34 36 35 37 36 38 97 39 37 40 96 41 38 42 39 43
REMARK SMILES IDX 40 44 90 45 41 46 95 47 89 48 91 49 42 50 94 51 88 52 87 53
REMARK SMILES IDX 43 55 75 56 55 57 74 58 56 59 59 60 73 61 92 62 57 63 58 64
REMARK SMILES IDX 72 66 93 67 60 68 44 69 45 70 53 71 46 72 48 73 54 74 47 75
REMARK SMILES IDX 49 76 50 77 51 78 52 79 76 80 77 81 85 82 78 83 80 84 86 85
REMARK SMILES IDX 79 86 81 87 82 88 83 89 84 90 61 91 62 92 70 93 63 94 65 95
REMARK SMILES IDX 71 96 64 97 66 98 67 99 68 100 69 101
REMARK H PARENT 91 54 59 65
REMARK Flexibility Score: inf
ROOT
ATOM      1  C   UNL A   1      48.688  34.178  27.926  1.00  0.00     0.188 C 
ENDROOT
BRANCH   1   2
ATOM      2  O   UNL A   1      47.527  34.379  28.719  1.00  0.00    -0.376 OA
BRANCH   2   3
ATOM      3  C   UNL A   1      46.313  34.733  27.953  1.00  0.00     0.202 C 
BRANCH   3   4
ATOM      4  C   UNL A   1      45.522  33.456  27.534  1.00  0.00     0.261 C 
BRANCH   4   5
ATOM      5  O   UNL A   1      44.447  32.500  28.155  1.00  0.00    -0.463 OA
BRANCH   5   6
ATOM      6  C   UNL A   1      43.396  32.720  29.079  1.00  0.00     0.313 C 
ATOM      7  O   UNL A   1      43.050  33.903  29.204  1.00  0.00    -0.252 OA
BRANCH   6   8
ATOM      8  C   UNL A   1      42.455  31.673  29.941  1.00  0.00     0.127 C 
ATOM      9  C   UNL A   1      42.683  30.236  29.369  1.00  0.00     0.025 C 
BRANCH   8  10
ATOM     10  C   UNL A   1      40.913  31.781  30.354  1.00  0.00    -0.026 A 
ATOM     11  C   UNL A   1      40.474  32.668  31.359  1.00  0.00    -0.014 A 
ATOM     12  C   UNL A   1      39.095  33.007  31.490  1.00  0.00     0.012 A 
ATOM     13  C   UNL A   1      38.090  32.422  30.708  1.00  0.00    -0.047 A 
ATOM     14  C   UNL A   1      39.870  31.050  29.727  1.00  0.00     0.005 A 
ATOM     15  C   UNL A   1      38.495  31.384  29.871  1.00  0.00     0.004 A 
BRANCH  11  16
ATOM     16  C   UNL A   1      41.402  33.159  32.369  1.00  0.00    -0.018 A 
ATOM     17  C   UNL A   1      43.524  34.554  35.813  1.00  0.00     0.044 C 
ATOM     18  C   UNL A   1      42.914  34.107  34.519  1.00  0.00    -0.051 A 
ATOM     19  C   UNL A   1      42.994  32.763  34.130  1.00  0.00     0.004 A 
ATOM     20  C   UNL A   1      42.127  34.995  33.782  1.00  0.00     0.004 A 
ATOM     21  C   UNL A   1      42.243  32.291  33.057  1.00  0.00     0.009 A 
ATOM     22  C   UNL A   1      41.381  34.525  32.708  1.00  0.00     0.009 A 
ENDBRANCH  11  16
BRANCH  13  23
ATOM     23  C   UNL A   1      36.629  32.771  30.930  1.00  0.00     0.047 C 
BRANCH  23  24
ATOM     24  C   UNL A   1      35.861  33.754  30.030  1.00  0.00     0.060 C 
ATOM     25  C   UNL A   1      35.920  33.559  28.519  1.00  0.00     0.012 C 
ATOM     26  C   UNL A   1      34.383  33.910  30.279  1.00  0.00     0.136 C 
ATOM     27  C   UNL A   1      34.694  34.279  27.945  1.00  0.00     0.009 C 
ATOM     28  C   UNL A   1      33.661  34.410  29.056  1.00  0.00     0.076 C 
ATOM     29  O   UNL A   1      33.845  33.792  31.370  1.00  0.00    -0.299 OA
ENDBRANCH  23  24
ENDBRANCH  13  23
ENDBRANCH   8  10
ENDBRANCH   6   8
ENDBRANCH   5   6
ENDBRANCH   4   5
ENDBRANCH   3   4
ENDBRANCH   2   3
ENDBRANCH   1   2
BRANCH   1  30
ATOM     30  C   UNL A   1      49.287  32.766  28.059  1.00  0.00     0.188 C 
BRANCH  30  31
ATOM     31  O   UNL A   1      48.360  31.689  28.205  1.00  0.00    -0.376 OA
BRANCH  31  32
ATOM     32  C   UNL A   1      48.544  30.538  27.387  1.00  0.00     0.202 C 
BRANCH  32  33
ATOM     33  C   UNL A   1      48.154  29.139  27.930  1.00  0.00     0.261 C 
BRANCH  33  34
ATOM     34  O   UNL A   1      47.027  28.561  27.238  1.00  0.00    -0.460 OA
BRANCH  34  35
ATOM     35  C   UNL A   1      47.183  27.267  26.853  1.00  0.00     0.338 C 
ATOM     36  O   UNL A   1      47.329  26.908  25.692  1.00  0.00    -0.246 OA
BRANCH  35  37
ATOM     37  C   UNL A   1      46.871  26.325  27.995  1.00  0.00     0.060 A 
ATOM     38  C   UNL A   1      45.559  26.006  28.141  1.00  0.00     0.016 A 
ATOM     39  C   UNL A   1      47.695  25.961  29.074  1.00  0.00     0.016 A 
ATOM     40  C   UNL A   1      45.109  25.647  29.431  1.00  0.00     0.010 A 
ATOM     41  C   UNL A   1      47.176  25.594  30.375  1.00  0.00     0.010 A 
ATOM     42  C   UNL A   1      45.812  25.555  30.649  1.00  0.00    -0.014 A 
BRANCH  42  43
ATOM     43  C   UNL A   1      45.254  25.640  32.153  1.00  0.00     0.031 A 
ATOM     44  C   UNL A   1      44.623  26.908  32.658  1.00  0.00     0.074 A 
ATOM     45  C   UNL A   1      45.114  24.679  33.166  1.00  0.00     0.049 A 
ATOM     46  N   UNL A   1      44.373  27.124  33.922  1.00  0.00    -0.248 NA
ATOM     47  C   UNL A   1      44.323  28.069  31.823  1.00  0.00     0.031 C 
ATOM     48  C   UNL A   1      43.875  24.439  33.933  1.00  0.00     0.029 A 
ATOM     49  N   UNL A   1      45.909  23.644  33.692  1.00  0.00    -0.354 N 
ATOM     50  C   UNL A   1      43.497  28.174  33.949  1.00  0.00     0.074 A 
ATOM     51  C   UNL A   1      43.764  28.886  32.726  1.00  0.00     0.031 C 
ATOM     52  C   UNL A   1      44.032  23.421  34.806  1.00  0.00     0.029 A 
ATOM     53  C   UNL A   1      45.400  22.941  34.777  1.00  0.00     0.049 A 
ATOM     54  H   UNL A   1      46.789  23.427  33.308  1.00  0.00     0.167 HD
ATOM     55  C   UNL A   1      42.439  28.171  34.811  1.00  0.00     0.034 A 
ATOM     56  C   UNL A   1      46.170  22.285  35.713  1.00  0.00     0.034 A 
ATOM     57  C   UNL A   1      42.497  27.130  35.856  1.00  0.00     0.049 A 
ATOM     58  C   UNL A   1      45.846  22.807  37.085  1.00  0.00     0.074 A 
ATOM     59  C   UNL A   1      41.662  26.068  36.166  1.00  0.00     0.029 A 
ATOM     60  N   UNL A   1      43.590  27.016  36.720  1.00  0.00    -0.354 N 
ATOM     61  N   UNL A   1      44.786  23.520  37.333  1.00  0.00    -0.248 NA
ATOM     62  C   UNL A   1      46.737  22.730  38.245  1.00  0.00     0.031 C 
ATOM     63  C   UNL A   1      42.279  25.290  37.182  1.00  0.00     0.029 A 
ATOM     64  C   UNL A   1      43.474  25.892  37.536  1.00  0.00     0.049 A 
ATOM     65  H   UNL A   1      44.344  27.648  36.748  1.00  0.00     0.167 HD
ATOM     66  C   UNL A   1      45.082  24.326  38.397  1.00  0.00     0.074 A 
ATOM     67  C   UNL A   1      46.193  23.658  39.052  1.00  0.00     0.031 C 
ATOM     68  C   UNL A   1      44.501  25.557  38.531  1.00  0.00     0.034 A 
BRANCH  55  69
ATOM     69  C   UNL A   1      41.177  29.004  34.575  1.00  0.00     0.023 A 
ATOM     70  C   UNL A   1      40.459  28.801  33.377  1.00  0.00     0.012 A 
ATOM     71  C   UNL A   1      40.684  30.036  35.412  1.00  0.00     0.148 A 
ATOM     72  C   UNL A   1      39.309  29.542  33.058  1.00  0.00     0.002 A 
ATOM     73  C   UNL A   1      39.469  30.674  35.162  1.00  0.00     0.091 A 
ATOM     74  F   UNL A   1      41.442  30.539  36.392  1.00  0.00    -0.205 F 
ATOM     75  C   UNL A   1      38.785  30.447  33.971  1.00  0.00     0.022 A 
BRANCH  73  76
ATOM     76  S   UNL A   1      38.706  31.733  36.406  1.00  0.00     0.127 S 
ATOM     77  O   UNL A   1      38.124  32.801  35.595  1.00  0.00    -0.237 OA
ATOM     78  O   UNL A   1      37.730  30.841  37.032  1.00  0.00    -0.237 OA
ATOM     79  O   UNL A   1      39.795  32.135  37.293  1.00  0.00    -0.744 OA
ENDBRANCH  73  76
ENDBRANCH  55  69
BRANCH  56  80
ATOM     80  C   UNL A   1      47.532  21.751  35.295  1.00  0.00     0.023 A 
ATOM     81  C   UNL A   1      47.581  20.431  34.793  1.00  0.00     0.012 A 
ATOM     82  C   UNL A   1      48.684  22.544  35.108  1.00  0.00     0.148 A 
ATOM     83  C   UNL A   1      48.612  19.995  33.944  1.00  0.00     0.002 A 
ATOM     84  C   UNL A   1      49.687  22.127  34.221  1.00  0.00     0.091 A 
ATOM     85  F   UNL A   1      48.740  23.749  35.689  1.00  0.00    -0.205 F 
ATOM     86  C   UNL A   1      49.632  20.867  33.607  1.00  0.00     0.022 A 
BRANCH  84  87
ATOM     87  S   UNL A   1      50.925  23.251  33.545  1.00  0.00     0.127 S 
ATOM     88  O   UNL A   1      51.467  22.481  32.428  1.00  0.00    -0.237 OA
ATOM     89  O   UNL A   1      50.092  24.380  33.148  1.00  0.00    -0.237 OA
ATOM     90  O   UNL A   1      51.876  23.510  34.622  1.00  0.00    -0.744 OA
ENDBRANCH  84  87
ENDBRANCH  56  80
BRANCH  68  91
ATOM     91  C   UNL A   1      44.859  26.545  39.615  1.00  0.00     0.023 A 
ATOM     92  C   UNL A   1      44.382  26.459  40.938  1.00  0.00     0.012 A 
ATOM     93  C   UNL A   1      45.774  27.585  39.331  1.00  0.00     0.148 A 
ATOM     94  C   UNL A   1      44.714  27.415  41.905  1.00  0.00     0.002 A 
ATOM     95  C   UNL A   1      46.189  28.464  40.325  1.00  0.00     0.091 A 
ATOM     96  F   UNL A   1      46.224  27.753  38.079  1.00  0.00    -0.205 F 
ATOM     97  C   UNL A   1      45.633  28.412  41.604  1.00  0.00     0.022 A 
BRANCH  95  98
ATOM     98  S   UNL A   1      47.555  29.587  40.012  1.00  0.00     0.127 S 
ATOM     99  O   UNL A   1      47.733  30.229  41.311  1.00  0.00    -0.237 OA
ATOM    100  O   UNL A   1      48.637  28.679  39.629  1.00  0.00    -0.237 OA
ATOM    101  O   UNL A   1      47.085  30.439  38.926  1.00  0.00    -0.744 OA
ENDBRANCH  95  98
ENDBRANCH  68  91
ENDBRANCH  42  43
ENDBRANCH  35  37
ENDBRANCH  34  35
ENDBRANCH  33  34
ENDBRANCH  32  33
ENDBRANCH  31  32
ENDBRANCH  30  31
ENDBRANCH   1  30
TORSDOF 24
ENDMDL
