MODEL 1
REMARK VINA RESULT:      -9.1      0.000      0.000
REMARK SMILES O=C(CNc1ccccc1C(=O)N1CCCC1)OCCOCCOCCOC(=O)c1ccc(-c2c3nc(c(-c4cccc(S(=O)(=O)[O-])c4F)c4ccc([nH]4)c(-c4cccc(S(=O)(=O)[O-])c4F)c4nc(c(-c5cccc(S(=O)(=O)[O-])c5F)c5ccc2[nH]5)C=C4)C=C3)cc1
REMARK SMILES IDX 22 1 21 2 20 3 19 4 18 5 2 6 1 7 3 8 4 9 5 11 6 12 10 13
REMARK SMILES IDX 7 14 9 15 8 16 11 17 12 18 13 19 14 20 17 21 15 22 16 23
REMARK SMILES IDX 23 24 24 25 25 26 26 27 27 28 28 29 29 30 30 31 31 32 92 33
REMARK SMILES IDX 32 34 91 35 33 36 34 37 35 38 85 39 36 40 90 41 84 42 86 43
REMARK SMILES IDX 37 44 89 45 83 46 82 47 38 49 70 50 50 51 69 52 51 53 54 54
REMARK SMILES IDX 68 55 87 56 52 57 53 58 67 60 88 61 55 62 39 63 40 64 48 65
REMARK SMILES IDX 41 66 43 67 49 68 42 69 44 70 45 71 46 72 47 73 71 74 72 75
REMARK SMILES IDX 80 76 73 77 75 78 81 79 74 80 76 81 77 82 78 83 79 84 56 85
REMARK SMILES IDX 57 86 65 87 58 88 60 89 66 90 59 91 61 92 62 93 63 94 64 95
REMARK H PARENT 4 10 86 48 54 59
REMARK Flexibility Score: inf
ROOT
ATOM      1  C   UNL A   1      39.970  22.994  27.005  1.00  0.00     0.188 C 
ENDROOT
BRANCH   1   2
ATOM      2  O   UNL A   1      38.908  22.881  26.065  1.00  0.00    -0.376 OA
BRANCH   2   3
ATOM      3  C   UNL A   1      38.205  21.648  25.970  1.00  0.00     0.202 C 
BRANCH   3   4
ATOM      4  C   UNL A   1      37.595  21.208  24.632  1.00  0.00     0.261 C 
BRANCH   4   5
ATOM      5  O   UNL A   1      36.257  21.620  24.321  1.00  0.00    -0.462 OA
BRANCH   5   6
ATOM      6  C   UNL A   1      35.937  22.858  23.874  1.00  0.00     0.325 C 
ATOM      7  O   UNL A   1      36.263  23.205  22.739  1.00  0.00    -0.250 OA
BRANCH   6   8
ATOM      8  C   UNL A   1      35.290  23.822  24.845  1.00  0.00     0.236 C 
BRANCH   8   9
ATOM      9  N   UNL A   1      33.971  24.254  24.431  1.00  0.00    -0.374 N 
ATOM     10  H   UNL A   1      33.878  24.714  23.565  1.00  0.00     0.161 HD
BRANCH   9  11
ATOM     11  C   UNL A   1      32.833  24.052  25.198  1.00  0.00     0.047 A 
ATOM     12  C   UNL A   1      31.929  25.138  25.179  1.00  0.00     0.026 A 
ATOM     13  C   UNL A   1      32.497  22.925  25.984  1.00  0.00     0.063 A 
ATOM     14  C   UNL A   1      30.699  25.099  25.833  1.00  0.00     0.002 A 
ATOM     15  C   UNL A   1      31.268  22.930  26.687  1.00  0.00     0.016 A 
ATOM     16  C   UNL A   1      30.370  23.993  26.597  1.00  0.00     0.001 A 
BRANCH  13  17
ATOM     17  C   UNL A   1      33.162  21.584  25.963  1.00  0.00     0.255 C 
ATOM     18  O   UNL A   1      33.917  21.322  26.906  1.00  0.00    -0.269 OA
ATOM     19  N   UNL A   1      32.837  20.602  25.045  1.00  0.00    -0.339 N 
ATOM     20  C   UNL A   1      32.746  20.728  23.606  1.00  0.00     0.120 C 
ATOM     21  C   UNL A   1      33.047  19.228  25.425  1.00  0.00     0.120 C 
ATOM     22  C   UNL A   1      32.257  19.360  23.133  1.00  0.00     0.023 C 
ATOM     23  C   UNL A   1      32.471  18.395  24.300  1.00  0.00     0.023 C 
ENDBRANCH  13  17
ENDBRANCH   9  11
ENDBRANCH   8   9
ENDBRANCH   6   8
ENDBRANCH   5   6
ENDBRANCH   4   5
ENDBRANCH   3   4
ENDBRANCH   2   3
ENDBRANCH   1   2
BRANCH   1  24
ATOM     24  C   UNL A   1      41.230  22.336  26.440  1.00  0.00     0.188 C 
BRANCH  24  25
ATOM     25  O   UNL A   1      41.802  21.333  27.283  1.00  0.00    -0.376 OA
BRANCH  25  26
ATOM     26  C   UNL A   1      41.443  19.985  26.995  1.00  0.00     0.202 C 
BRANCH  26  27
ATOM     27  C   UNL A   1      42.454  19.152  26.201  1.00  0.00     0.261 C 
BRANCH  27  28
ATOM     28  O   UNL A   1      42.910  19.736  24.974  1.00  0.00    -0.460 OA
BRANCH  28  29
ATOM     29  C   UNL A   1      44.257  19.843  24.859  1.00  0.00     0.338 C 
ATOM     30  O   UNL A   1      45.042  18.954  24.577  1.00  0.00    -0.246 OA
BRANCH  29  31
ATOM     31  C   UNL A   1      44.688  21.242  25.070  1.00  0.00     0.060 A 
ATOM     32  C   UNL A   1      45.143  21.621  26.339  1.00  0.00     0.016 A 
ATOM     33  C   UNL A   1      44.536  22.198  24.062  1.00  0.00     0.016 A 
ATOM     34  C   UNL A   1      45.441  22.962  26.606  1.00  0.00     0.010 A 
ATOM     35  C   UNL A   1      44.815  23.542  24.337  1.00  0.00     0.010 A 
ATOM     36  C   UNL A   1      45.254  23.936  25.612  1.00  0.00    -0.014 A 
BRANCH  36  37
ATOM     37  C   UNL A   1      45.354  25.382  25.937  1.00  0.00     0.031 A 
ATOM     38  C   UNL A   1      46.717  26.009  25.973  1.00  0.00     0.074 A 
ATOM     39  C   UNL A   1      44.276  26.111  26.284  1.00  0.00     0.049 A 
ATOM     40  N   UNL A   1      47.058  27.226  26.307  1.00  0.00    -0.248 NA
ATOM     41  C   UNL A   1      47.847  25.144  25.599  1.00  0.00     0.031 C 
ATOM     42  C   UNL A   1      42.907  25.614  26.331  1.00  0.00     0.029 A 
ATOM     43  N   UNL A   1      44.170  27.414  26.710  1.00  0.00    -0.354 N 
ATOM     44  C   UNL A   1      48.442  27.264  26.217  1.00  0.00     0.074 A 
ATOM     45  C   UNL A   1      48.877  25.953  25.783  1.00  0.00     0.031 C 
ATOM     46  C   UNL A   1      42.097  26.582  26.787  1.00  0.00     0.029 A 
ATOM     47  C   UNL A   1      42.899  27.758  27.113  1.00  0.00     0.049 A 
ATOM     48  H   UNL A   1      44.928  28.041  26.724  1.00  0.00     0.167 HD
ATOM     49  C   UNL A   1      49.281  28.293  26.482  1.00  0.00     0.034 A 
ATOM     50  C   UNL A   1      42.435  28.868  27.723  1.00  0.00     0.034 A 
ATOM     51  C   UNL A   1      48.856  29.584  26.945  1.00  0.00     0.049 A 
ATOM     52  C   UNL A   1      43.387  29.993  28.025  1.00  0.00     0.074 A 
ATOM     53  C   UNL A   1      49.629  30.704  27.189  1.00  0.00     0.029 A 
ATOM     54  N   UNL A   1      47.552  29.917  27.274  1.00  0.00    -0.354 N 
ATOM     55  N   UNL A   1      44.672  30.071  27.782  1.00  0.00    -0.248 NA
ATOM     56  C   UNL A   1      42.825  31.193  28.663  1.00  0.00     0.031 C 
ATOM     57  C   UNL A   1      48.796  31.704  27.703  1.00  0.00     0.029 A 
ATOM     58  C   UNL A   1      47.499  31.218  27.741  1.00  0.00     0.049 A 
ATOM     59  H   UNL A   1      46.777  29.315  27.188  1.00  0.00     0.167 HD
ATOM     60  C   UNL A   1      45.068  31.333  28.208  1.00  0.00     0.074 A 
ATOM     61  C   UNL A   1      43.882  31.994  28.713  1.00  0.00     0.031 C 
ATOM     62  C   UNL A   1      46.305  31.888  28.192  1.00  0.00     0.034 A 
BRANCH  49  63
ATOM     63  C   UNL A   1      50.750  28.044  26.280  1.00  0.00     0.023 A 
ATOM     64  C   UNL A   1      51.296  28.105  24.983  1.00  0.00     0.012 A 
ATOM     65  C   UNL A   1      51.586  27.754  27.374  1.00  0.00     0.148 A 
ATOM     66  C   UNL A   1      52.648  27.839  24.772  1.00  0.00     0.002 A 
ATOM     67  C   UNL A   1      52.941  27.533  27.162  1.00  0.00     0.091 A 
ATOM     68  F   UNL A   1      51.040  27.671  28.595  1.00  0.00    -0.205 F 
ATOM     69  C   UNL A   1      53.471  27.562  25.861  1.00  0.00     0.022 A 
BRANCH  67  70
ATOM     70  S   UNL A   1      54.088  27.240  28.511  1.00  0.00     0.127 S 
ATOM     71  O   UNL A   1      53.385  26.213  29.279  1.00  0.00    -0.237 OA
ATOM     72  O   UNL A   1      55.281  26.766  27.808  1.00  0.00    -0.237 OA
ATOM     73  O   UNL A   1      54.253  28.524  29.178  1.00  0.00    -0.744 OA
ENDBRANCH  67  70
ENDBRANCH  49  63
BRANCH  50  74
ATOM     74  C   UNL A   1      40.990  28.966  28.079  1.00  0.00     0.023 A 
ATOM     75  C   UNL A   1      40.038  29.191  27.065  1.00  0.00     0.012 A 
ATOM     76  C   UNL A   1      40.550  28.793  29.407  1.00  0.00     0.148 A 
ATOM     77  C   UNL A   1      38.678  29.263  27.370  1.00  0.00     0.002 A 
ATOM     78  C   UNL A   1      39.191  28.807  29.694  1.00  0.00     0.091 A 
ATOM     79  F   UNL A   1      41.473  28.591  30.358  1.00  0.00    -0.205 F 
ATOM     80  C   UNL A   1      38.254  29.059  28.681  1.00  0.00     0.022 A 
BRANCH  78  81
ATOM     81  S   UNL A   1      38.539  28.416  31.322  1.00  0.00     0.127 S 
ATOM     82  O   UNL A   1      38.835  26.990  31.430  1.00  0.00    -0.237 OA
ATOM     83  O   UNL A   1      39.349  29.282  32.181  1.00  0.00    -0.237 OA
ATOM     84  O   UNL A   1      37.125  28.762  31.277  1.00  0.00    -0.744 OA
ENDBRANCH  78  81
ENDBRANCH  50  74
BRANCH  62  85
ATOM     85  C   UNL A   1      46.456  33.300  28.691  1.00  0.00     0.023 A 
ATOM     86  C   UNL A   1      46.851  33.538  30.021  1.00  0.00     0.012 A 
ATOM     87  C   UNL A   1      46.323  34.386  27.802  1.00  0.00     0.148 A 
ATOM     88  C   UNL A   1      47.098  34.839  30.463  1.00  0.00     0.002 A 
ATOM     89  C   UNL A   1      46.616  35.673  28.236  1.00  0.00     0.091 A 
ATOM     90  F   UNL A   1      45.926  34.136  26.545  1.00  0.00    -0.205 F 
ATOM     91  C   UNL A   1      46.995  35.903  29.568  1.00  0.00     0.022 A 
BRANCH  89  92
ATOM     92  S   UNL A   1      46.610  37.087  27.129  1.00  0.00     0.127 S 
ATOM     93  O   UNL A   1      47.214  38.123  27.966  1.00  0.00    -0.237 OA
ATOM     94  O   UNL A   1      47.455  36.623  26.028  1.00  0.00    -0.237 OA
ATOM     95  O   UNL A   1      45.217  37.315  26.769  1.00  0.00    -0.744 OA
ENDBRANCH  89  92
ENDBRANCH  62  85
ENDBRANCH  36  37
ENDBRANCH  29  31
ENDBRANCH  28  29
ENDBRANCH  27  28
ENDBRANCH  26  27
ENDBRANCH  25  26
ENDBRANCH  24  25
ENDBRANCH   1  24
TORSDOF 23
ENDMDL
MODEL 2
REMARK VINA RESULT:      -9.0      2.011      3.080
REMARK SMILES O=C(CNc1ccccc1C(=O)N1CCCC1)OCCOCCOCCOC(=O)c1ccc(-c2c3nc(c(-c4cccc(S(=O)(=O)[O-])c4F)c4ccc([nH]4)c(-c4cccc(S(=O)(=O)[O-])c4F)c4nc(c(-c5cccc(S(=O)(=O)[O-])c5F)c5ccc2[nH]5)C=C4)C=C3)cc1
REMARK SMILES IDX 22 1 21 2 20 3 19 4 18 5 2 6 1 7 3 8 4 9 5 11 6 12 10 13
REMARK SMILES IDX 7 14 9 15 8 16 11 17 12 18 13 19 14 20 17 21 15 22 16 23
REMARK SMILES IDX 23 24 24 25 25 26 26 27 27 28 28 29 29 30 30 31 31 32 92 33
REMARK SMILES IDX 32 34 91 35 33 36 34 37 35 38 85 39 36 40 90 41 84 42 86 43
REMARK SMILES IDX 37 44 89 45 83 46 82 47 38 49 70 50 50 51 69 52 51 53 54 54
REMARK SMILES IDX 68 55 87 56 52 57 53 58 67 60 88 61 55 62 39 63 40 64 48 65
REMARK SMILES IDX 41 66 43 67 49 68 42 69 44 70 45 71 46 72 47 73 71 74 72 75
REMARK SMILES IDX 80 76 73 77 75 78 81 79 74 80 76 81 77 82 78 83 79 84 56 85
REMARK SMILES IDX 57 86 65 87 58 88 60 89 66 90 59 91 61 92 62 93 63 94 64 95
REMARK H PARENT 4 10 86 48 54 59
REMARK Flexibility Score: inf
ROOT
ATOM      1  C   UNL A   1      40.413  22.686  27.593  1.00  0.00     0.188 C 
ENDROOT
BRANCH   1   2
ATOM      2  O   UNL A   1      39.392  23.342  26.849  1.00  0.00    -0.376 OA
BRANCH   2   3
ATOM      3  C   UNL A   1      38.463  22.552  26.118  1.00  0.00     0.202 C 
BRANCH   3   4
ATOM      4  C   UNL A   1      37.296  23.220  25.377  1.00  0.00     0.261 C 
BRANCH   4   5
ATOM      5  O   UNL A   1      36.004  23.229  26.001  1.00  0.00    -0.462 OA
BRANCH   5   6
ATOM      6  C   UNL A   1      34.866  23.592  25.363  1.00  0.00     0.325 C 
ATOM      7  O   UNL A   1      34.026  22.741  25.073  1.00  0.00    -0.250 OA
BRANCH   6   8
ATOM      8  C   UNL A   1      34.724  25.033  24.920  1.00  0.00     0.236 C 
BRANCH   8   9
ATOM      9  N   UNL A   1      33.355  25.506  24.936  1.00  0.00    -0.374 N 
ATOM     10  H   UNL A   1      32.661  24.950  24.513  1.00  0.00     0.161 HD
BRANCH   9  11
ATOM     11  C   UNL A   1      32.976  26.708  25.519  1.00  0.00     0.047 A 
ATOM     12  C   UNL A   1      34.016  27.354  26.225  1.00  0.00     0.026 A 
ATOM     13  C   UNL A   1      31.705  27.325  25.499  1.00  0.00     0.063 A 
ATOM     14  C   UNL A   1      33.850  28.602  26.821  1.00  0.00     0.002 A 
ATOM     15  C   UNL A   1      31.544  28.567  26.162  1.00  0.00     0.016 A 
ATOM     16  C   UNL A   1      32.606  29.208  26.797  1.00  0.00     0.001 A 
BRANCH  13  17
ATOM     17  C   UNL A   1      30.542  26.963  24.629  1.00  0.00     0.255 C 
ATOM     18  O   UNL A   1      30.072  25.828  24.769  1.00  0.00    -0.269 OA
ATOM     19  N   UNL A   1      29.895  27.883  23.825  1.00  0.00    -0.339 N 
ATOM     20  C   UNL A   1      30.487  28.807  22.880  1.00  0.00     0.120 C 
ATOM     21  C   UNL A   1      28.510  27.644  23.506  1.00  0.00     0.120 C 
ATOM     22  C   UNL A   1      29.309  29.633  22.365  1.00  0.00     0.023 C 
ATOM     23  C   UNL A   1      28.041  28.870  22.753  1.00  0.00     0.023 C 
ENDBRANCH  13  17
ENDBRANCH   9  11
ENDBRANCH   8   9
ENDBRANCH   6   8
ENDBRANCH   5   6
ENDBRANCH   4   5
ENDBRANCH   3   4
ENDBRANCH   2   3
ENDBRANCH   1   2
BRANCH   1  24
ATOM     24  C   UNL A   1      41.331  21.919  26.641  1.00  0.00     0.188 C 
BRANCH  24  25
ATOM     25  O   UNL A   1      41.955  20.769  27.219  1.00  0.00    -0.376 OA
BRANCH  25  26
ATOM     26  C   UNL A   1      41.634  19.513  26.632  1.00  0.00     0.202 C 
BRANCH  26  27
ATOM     27  C   UNL A   1      42.741  18.816  25.834  1.00  0.00     0.261 C 
BRANCH  27  28
ATOM     28  O   UNL A   1      43.155  19.484  24.636  1.00  0.00    -0.460 OA
BRANCH  28  29
ATOM     29  C   UNL A   1      44.495  19.659  24.515  1.00  0.00     0.338 C 
ATOM     30  O   UNL A   1      45.314  18.827  24.166  1.00  0.00    -0.246 OA
BRANCH  29  31
ATOM     31  C   UNL A   1      44.866  21.059  24.814  1.00  0.00     0.060 A 
ATOM     32  C   UNL A   1      45.368  21.363  26.085  1.00  0.00     0.016 A 
ATOM     33  C   UNL A   1      44.615  22.079  23.893  1.00  0.00     0.016 A 
ATOM     34  C   UNL A   1      45.612  22.694  26.443  1.00  0.00     0.010 A 
ATOM     35  C   UNL A   1      44.840  23.411  24.260  1.00  0.00     0.010 A 
ATOM     36  C   UNL A   1      45.326  23.730  25.539  1.00  0.00    -0.014 A 
BRANCH  36  37
ATOM     37  C   UNL A   1      45.370  25.151  25.972  1.00  0.00     0.031 A 
ATOM     38  C   UNL A   1      46.680  25.878  25.884  1.00  0.00     0.074 A 
ATOM     39  C   UNL A   1      44.303  25.763  26.519  1.00  0.00     0.049 A 
ATOM     40  N   UNL A   1      46.980  27.089  26.275  1.00  0.00    -0.248 NA
ATOM     41  C   UNL A   1      47.804  25.136  25.293  1.00  0.00     0.031 C 
ATOM     42  C   UNL A   1      42.991  25.158  26.701  1.00  0.00     0.029 A 
ATOM     43  N   UNL A   1      44.168  27.018  27.065  1.00  0.00    -0.354 N 
ATOM     44  C   UNL A   1      48.333  27.243  26.008  1.00  0.00     0.074 A 
ATOM     45  C   UNL A   1      48.793  26.007  25.410  1.00  0.00     0.031 C 
ATOM     46  C   UNL A   1      42.186  26.021  27.341  1.00  0.00     0.029 A 
ATOM     47  C   UNL A   1      42.944  27.228  27.659  1.00  0.00     0.049 A 
ATOM     48  H   UNL A   1      44.877  27.700  27.034  1.00  0.00     0.167 HD
ATOM     49  C   UNL A   1      49.128  28.311  26.249  1.00  0.00     0.034 A 
ATOM     50  C   UNL A   1      42.493  28.248  28.418  1.00  0.00     0.034 A 
ATOM     51  C   UNL A   1      48.684  29.525  26.874  1.00  0.00     0.049 A 
ATOM     52  C   UNL A   1      43.399  29.419  28.689  1.00  0.00     0.074 A 
ATOM     53  C   UNL A   1      49.406  30.681  27.111  1.00  0.00     0.029 A 
ATOM     54  N   UNL A   1      47.417  29.728  27.398  1.00  0.00    -0.354 N 
ATOM     55  N   UNL A   1      44.630  29.616  28.289  1.00  0.00    -0.248 NA
ATOM     56  C   UNL A   1      42.849  30.518  29.497  1.00  0.00     0.031 C 
ATOM     57  C   UNL A   1      48.584  31.570  27.813  1.00  0.00     0.029 A 
ATOM     58  C   UNL A   1      47.341  30.982  27.978  1.00  0.00     0.049 A 
ATOM     59  H   UNL A   1      46.681  29.076  27.362  1.00  0.00     0.167 HD
ATOM     60  C   UNL A   1      44.994  30.869  28.767  1.00  0.00     0.074 A 
ATOM     61  C   UNL A   1      43.846  31.394  29.477  1.00  0.00     0.031 C 
ATOM     62  C   UNL A   1      46.177  31.519  28.637  1.00  0.00     0.034 A 
BRANCH  49  63
ATOM     63  C   UNL A   1      50.570  28.195  25.837  1.00  0.00     0.023 A 
ATOM     64  C   UNL A   1      50.962  28.606  24.548  1.00  0.00     0.012 A 
ATOM     65  C   UNL A   1      51.532  27.683  26.727  1.00  0.00     0.148 A 
ATOM     66  C   UNL A   1      52.286  28.470  24.134  1.00  0.00     0.002 A 
ATOM     67  C   UNL A   1      52.858  27.591  26.323  1.00  0.00     0.091 A 
ATOM     68  F   UNL A   1      51.132  27.270  27.938  1.00  0.00    -0.205 F 
ATOM     69  C   UNL A   1      53.235  27.971  25.024  1.00  0.00     0.022 A 
BRANCH  67  70
ATOM     70  S   UNL A   1      54.159  27.028  27.425  1.00  0.00     0.127 S 
ATOM     71  O   UNL A   1      53.957  25.580  27.406  1.00  0.00    -0.237 OA
ATOM     72  O   UNL A   1      55.368  27.484  26.737  1.00  0.00    -0.237 OA
ATOM     73  O   UNL A   1      53.910  27.682  28.702  1.00  0.00    -0.744 OA
ENDBRANCH  67  70
ENDBRANCH  49  63
BRANCH  50  74
ATOM     74  C   UNL A   1      41.107  28.205  28.966  1.00  0.00     0.023 A 
ATOM     75  C   UNL A   1      40.845  27.471  30.140  1.00  0.00     0.012 A 
ATOM     76  C   UNL A   1      40.058  28.924  28.359  1.00  0.00     0.148 A 
ATOM     77  C   UNL A   1      39.561  27.436  30.685  1.00  0.00     0.002 A 
ATOM     78  C   UNL A   1      38.795  28.933  28.940  1.00  0.00     0.091 A 
ATOM     79  F   UNL A   1      40.325  29.608  27.237  1.00  0.00    -0.205 F 
ATOM     80  C   UNL A   1      38.540  28.175  30.093  1.00  0.00     0.022 A 
BRANCH  78  81
ATOM     81  S   UNL A   1      37.455  29.964  28.335  1.00  0.00     0.127 S 
ATOM     82  O   UNL A   1      36.315  29.449  29.089  1.00  0.00    -0.237 OA
ATOM     83  O   UNL A   1      37.905  31.299  28.732  1.00  0.00    -0.237 OA
ATOM     84  O   UNL A   1      37.405  29.747  26.896  1.00  0.00    -0.744 OA
ENDBRANCH  78  81
ENDBRANCH  50  74
BRANCH  62  85
ATOM     85  C   UNL A   1      46.298  32.897  29.232  1.00  0.00     0.023 A 
ATOM     86  C   UNL A   1      46.790  33.057  30.542  1.00  0.00     0.012 A 
ATOM     87  C   UNL A   1      46.038  34.037  28.445  1.00  0.00     0.148 A 
ATOM     88  C   UNL A   1      47.008  34.333  31.064  1.00  0.00     0.002 A 
ATOM     89  C   UNL A   1      46.302  35.302  28.954  1.00  0.00     0.091 A 
ATOM     90  F   UNL A   1      45.552  33.859  27.207  1.00  0.00    -0.205 F 
ATOM     91  C   UNL A   1      46.778  35.453  30.266  1.00  0.00     0.022 A 
BRANCH  89  92
ATOM     92  S   UNL A   1      46.135  36.792  27.966  1.00  0.00     0.127 S 
ATOM     93  O   UNL A   1      47.094  36.546  26.890  1.00  0.00    -0.237 OA
ATOM     94  O   UNL A   1      44.731  36.737  27.556  1.00  0.00    -0.237 OA
ATOM     95  O   UNL A   1      46.464  37.903  28.849  1.00  0.00    -0.744 OA
ENDBRANCH  89  92
ENDBRANCH  62  85
ENDBRANCH  36  37
ENDBRANCH  29  31
ENDBRANCH  28  29
ENDBRANCH  27  28
ENDBRANCH  26  27
ENDBRANCH  25  26
ENDBRANCH  24  25
ENDBRANCH   1  24
TORSDOF 23
ENDMDL
MODEL 3
REMARK VINA RESULT:      -8.8      2.175      3.129
REMARK SMILES O=C(CNc1ccccc1C(=O)N1CCCC1)OCCOCCOCCOC(=O)c1ccc(-c2c3nc(c(-c4cccc(S(=O)(=O)[O-])c4F)c4ccc([nH]4)c(-c4cccc(S(=O)(=O)[O-])c4F)c4nc(c(-c5cccc(S(=O)(=O)[O-])c5F)c5ccc2[nH]5)C=C4)C=C3)cc1
REMARK SMILES IDX 22 1 21 2 20 3 19 4 18 5 2 6 1 7 3 8 4 9 5 11 6 12 10 13
REMARK SMILES IDX 7 14 9 15 8 16 11 17 12 18 13 19 14 20 17 21 15 22 16 23
REMARK SMILES IDX 23 24 24 25 25 26 26 27 27 28 28 29 29 30 30 31 31 32 92 33
REMARK SMILES IDX 32 34 91 35 33 36 34 37 35 38 85 39 36 40 90 41 84 42 86 43
REMARK SMILES IDX 37 44 89 45 83 46 82 47 38 49 70 50 50 51 69 52 51 53 54 54
REMARK SMILES IDX 68 55 87 56 52 57 53 58 67 60 88 61 55 62 39 63 40 64 48 65
REMARK SMILES IDX 41 66 43 67 49 68 42 69 44 70 45 71 46 72 47 73 71 74 72 75
REMARK SMILES IDX 80 76 73 77 75 78 81 79 74 80 76 81 77 82 78 83 79 84 56 85
REMARK SMILES IDX 57 86 65 87 58 88 60 89 66 90 59 91 61 92 62 93 63 94 64 95
REMARK H PARENT 4 10 86 48 54 59
REMARK Flexibility Score: inf
ROOT
ATOM      1  C   UNL A   1      40.749  22.508  27.881  1.00  0.00     0.188 C 
ENDROOT
BRANCH   1   2
ATOM      2  O   UNL A   1      39.625  22.724  27.036  1.00  0.00    -0.376 OA
BRANCH   2   3
ATOM      3  C   UNL A   1      39.317  21.753  26.044  1.00  0.00     0.202 C 
BRANCH   3   4
ATOM      4  C   UNL A   1      37.985  21.821  25.284  1.00  0.00     0.261 C 
BRANCH   4   5
ATOM      5  O   UNL A   1      36.817  21.256  25.897  1.00  0.00    -0.462 OA
BRANCH   5   6
ATOM      6  C   UNL A   1      35.581  21.799  25.797  1.00  0.00     0.325 C 
ATOM      7  O   UNL A   1      34.588  21.072  25.806  1.00  0.00    -0.250 OA
BRANCH   6   8
ATOM      8  C   UNL A   1      35.473  23.290  25.554  1.00  0.00     0.236 C 
BRANCH   8   9
ATOM      9  N   UNL A   1      34.396  23.915  26.295  1.00  0.00    -0.374 N 
ATOM     10  H   UNL A   1      34.598  24.308  27.175  1.00  0.00     0.161 HD
BRANCH   9  11
ATOM     11  C   UNL A   1      33.093  23.984  25.823  1.00  0.00     0.047 A 
ATOM     12  C   UNL A   1      32.136  23.432  26.704  1.00  0.00     0.026 A 
ATOM     13  C   UNL A   1      32.636  24.511  24.594  1.00  0.00     0.063 A 
ATOM     14  C   UNL A   1      30.768  23.467  26.439  1.00  0.00     0.002 A 
ATOM     15  C   UNL A   1      31.246  24.483  24.319  1.00  0.00     0.016 A 
ATOM     16  C   UNL A   1      30.322  23.988  25.237  1.00  0.00     0.001 A 
BRANCH  13  17
ATOM     17  C   UNL A   1      33.413  25.353  23.631  1.00  0.00     0.255 C 
ATOM     18  O   UNL A   1      33.954  24.765  22.687  1.00  0.00    -0.269 OA
ATOM     19  N   UNL A   1      33.403  26.735  23.669  1.00  0.00    -0.339 N 
ATOM     20  C   UNL A   1      33.633  27.593  24.812  1.00  0.00     0.120 C 
ATOM     21  C   UNL A   1      33.651  27.444  22.440  1.00  0.00     0.120 C 
ATOM     22  C   UNL A   1      33.398  29.007  24.282  1.00  0.00     0.023 C 
ATOM     23  C   UNL A   1      33.431  28.909  22.756  1.00  0.00     0.023 C 
ENDBRANCH  13  17
ENDBRANCH   9  11
ENDBRANCH   8   9
ENDBRANCH   6   8
ENDBRANCH   5   6
ENDBRANCH   4   5
ENDBRANCH   3   4
ENDBRANCH   2   3
ENDBRANCH   1   2
BRANCH   1  24
ATOM     24  C   UNL A   1      41.860  21.813  27.092  1.00  0.00     0.188 C 
BRANCH  24  25
ATOM     25  O   UNL A   1      42.317  20.587  27.669  1.00  0.00    -0.376 OA
BRANCH  25  26
ATOM     26  C   UNL A   1      41.808  19.389  27.093  1.00  0.00     0.202 C 
BRANCH  26  27
ATOM     27  C   UNL A   1      42.725  18.642  26.120  1.00  0.00     0.261 C 
BRANCH  27  28
ATOM     28  O   UNL A   1      42.998  19.316  24.885  1.00  0.00    -0.460 OA
BRANCH  28  29
ATOM     29  C   UNL A   1      44.314  19.521  24.626  1.00  0.00     0.338 C 
ATOM     30  O   UNL A   1      45.118  18.702  24.218  1.00  0.00    -0.246 OA
BRANCH  29  31
ATOM     31  C   UNL A   1      44.673  20.938  24.854  1.00  0.00     0.060 A 
ATOM     32  C   UNL A   1      45.348  21.279  26.032  1.00  0.00     0.016 A 
ATOM     33  C   UNL A   1      44.249  21.935  23.972  1.00  0.00     0.016 A 
ATOM     34  C   UNL A   1      45.593  22.623  26.337  1.00  0.00     0.010 A 
ATOM     35  C   UNL A   1      44.477  23.280  24.288  1.00  0.00     0.010 A 
ATOM     36  C   UNL A   1      45.136  23.634  25.477  1.00  0.00    -0.014 A 
BRANCH  36  37
ATOM     37  C   UNL A   1      45.192  25.062  25.885  1.00  0.00     0.031 A 
ATOM     38  C   UNL A   1      46.502  25.783  25.766  1.00  0.00     0.074 A 
ATOM     39  C   UNL A   1      44.135  25.688  26.437  1.00  0.00     0.049 A 
ATOM     40  N   UNL A   1      46.812  27.000  26.132  1.00  0.00    -0.248 NA
ATOM     41  C   UNL A   1      47.615  25.027  25.170  1.00  0.00     0.031 C 
ATOM     42  C   UNL A   1      42.823  25.090  26.649  1.00  0.00     0.029 A 
ATOM     43  N   UNL A   1      44.013  26.951  26.964  1.00  0.00    -0.354 N 
ATOM     44  C   UNL A   1      48.162  27.143  25.843  1.00  0.00     0.074 A 
ATOM     45  C   UNL A   1      48.609  25.897  25.259  1.00  0.00     0.031 C 
ATOM     46  C   UNL A   1      42.032  25.967  27.286  1.00  0.00     0.029 A 
ATOM     47  C   UNL A   1      42.798  27.176  27.573  1.00  0.00     0.049 A 
ATOM     48  H   UNL A   1      44.723  27.630  26.911  1.00  0.00     0.167 HD
ATOM     49  C   UNL A   1      48.964  28.213  26.054  1.00  0.00     0.034 A 
ATOM     50  C   UNL A   1      42.361  28.210  28.321  1.00  0.00     0.034 A 
ATOM     51  C   UNL A   1      48.534  29.439  26.665  1.00  0.00     0.049 A 
ATOM     52  C   UNL A   1      43.275  29.382  28.559  1.00  0.00     0.074 A 
ATOM     53  C   UNL A   1      49.263  30.596  26.871  1.00  0.00     0.029 A 
ATOM     54  N   UNL A   1      47.275  29.655  27.204  1.00  0.00    -0.354 N 
ATOM     55  N   UNL A   1      44.501  29.568  28.137  1.00  0.00    -0.248 NA
ATOM     56  C   UNL A   1      42.741  30.497  29.356  1.00  0.00     0.031 C 
ATOM     57  C   UNL A   1      48.455  31.500  27.570  1.00  0.00     0.029 A 
ATOM     58  C   UNL A   1      47.212  30.919  27.764  1.00  0.00     0.049 A 
ATOM     59  H   UNL A   1      46.536  29.005  27.189  1.00  0.00     0.167 HD
ATOM     60  C   UNL A   1      44.876  30.828  28.589  1.00  0.00     0.074 A 
ATOM     61  C   UNL A   1      43.741  31.369  29.306  1.00  0.00     0.031 C 
ATOM     62  C   UNL A   1      46.059  31.472  28.430  1.00  0.00     0.034 A 
BRANCH  49  63
ATOM     63  C   UNL A   1      50.399  28.084  25.623  1.00  0.00     0.023 A 
ATOM     64  C   UNL A   1      51.412  27.968  26.595  1.00  0.00     0.012 A 
ATOM     65  C   UNL A   1      50.742  28.076  24.258  1.00  0.00     0.148 A 
ATOM     66  C   UNL A   1      52.751  27.887  26.217  1.00  0.00     0.002 A 
ATOM     67  C   UNL A   1      52.074  27.951  23.887  1.00  0.00     0.091 A 
ATOM     68  F   UNL A   1      49.766  28.218  23.350  1.00  0.00    -0.205 F 
ATOM     69  C   UNL A   1      53.081  27.869  24.864  1.00  0.00     0.022 A 
BRANCH  67  70
ATOM     70  S   UNL A   1      52.585  27.848  22.169  1.00  0.00     0.127 S 
ATOM     71  O   UNL A   1      51.784  26.724  21.689  1.00  0.00    -0.237 OA
ATOM     72  O   UNL A   1      52.180  29.153  21.645  1.00  0.00    -0.237 OA
ATOM     73  O   UNL A   1      54.025  27.630  22.195  1.00  0.00    -0.744 OA
ENDBRANCH  67  70
ENDBRANCH  49  63
BRANCH  50  74
ATOM     74  C   UNL A   1      40.983  28.182  28.890  1.00  0.00     0.023 A 
ATOM     75  C   UNL A   1      40.733  27.453  30.069  1.00  0.00     0.012 A 
ATOM     76  C   UNL A   1      39.932  28.909  28.297  1.00  0.00     0.148 A 
ATOM     77  C   UNL A   1      39.457  27.431  30.634  1.00  0.00     0.002 A 
ATOM     78  C   UNL A   1      38.679  28.931  28.897  1.00  0.00     0.091 A 
ATOM     79  F   UNL A   1      40.188  29.587  27.169  1.00  0.00    -0.205 F 
ATOM     80  C   UNL A   1      38.434  28.179  30.055  1.00  0.00     0.022 A 
BRANCH  78  81
ATOM     81  S   UNL A   1      37.339  29.972  28.308  1.00  0.00     0.127 S 
ATOM     82  O   UNL A   1      36.228  29.539  29.153  1.00  0.00    -0.237 OA
ATOM     83  O   UNL A   1      37.853  31.311  28.604  1.00  0.00    -0.237 OA
ATOM     84  O   UNL A   1      37.200  29.678  26.889  1.00  0.00    -0.744 OA
ENDBRANCH  78  81
ENDBRANCH  50  74
BRANCH  62  85
ATOM     85  C   UNL A   1      46.194  32.858  29.001  1.00  0.00     0.023 A 
ATOM     86  C   UNL A   1      46.753  33.042  30.280  1.00  0.00     0.012 A 
ATOM     87  C   UNL A   1      45.878  33.984  28.214  1.00  0.00     0.148 A 
ATOM     88  C   UNL A   1      46.981  34.328  30.773  1.00  0.00     0.002 A 
ATOM     89  C   UNL A   1      46.152  35.259  28.692  1.00  0.00     0.091 A 
ATOM     90  F   UNL A   1      45.329  33.784  27.006  1.00  0.00    -0.205 F 
ATOM     91  C   UNL A   1      46.695  35.434  29.974  1.00  0.00     0.022 A 
BRANCH  89  92
ATOM     92  S   UNL A   1      45.912  36.734  27.695  1.00  0.00     0.127 S 
ATOM     93  O   UNL A   1      44.467  36.929  27.793  1.00  0.00    -0.237 OA
ATOM     94  O   UNL A   1      46.712  37.727  28.413  1.00  0.00    -0.237 OA
ATOM     95  O   UNL A   1      46.406  36.408  26.364  1.00  0.00    -0.744 OA
ENDBRANCH  89  92
ENDBRANCH  62  85
ENDBRANCH  36  37
ENDBRANCH  29  31
ENDBRANCH  28  29
ENDBRANCH  27  28
ENDBRANCH  26  27
ENDBRANCH  25  26
ENDBRANCH  24  25
ENDBRANCH   1  24
TORSDOF 23
ENDMDL
