MODEL 1
REMARK VINA RESULT:      -8.1      0.000      0.000
REMARK SMILES C/C(=N\NC(N)=S)c1nnn(-c2ccc(C(=O)OCCOCCOCCOC(=O)c3ccc(-c4c5nc(c(-c6cccc(S(=O)(=O)[O-])c6F)c6ccc([nH]6)c(-c6cccc(S(=O)(=O)[O-])c6F)c6nc(c(-c7cccc(S(=O)(=O)[O-])c7F)c7ccc4[nH]7)C=C6)C=C5)cc3)cc2)c1C
REMARK SMILES IDX 22 1 21 2 20 3 19 4 18 5 16 6 17 7 15 8 12 9 13 10 94 11
REMARK SMILES IDX 14 12 93 13 11 14 8 15 9 16 95 17 10 18 96 19 2 20 1 21 3 22
REMARK SMILES IDX 4 23 5 25 7 26 6 27 23 30 24 31 25 32 26 33 27 34 28 35
REMARK SMILES IDX 29 36 30 37 31 38 92 39 32 40 91 41 33 42 34 43 35 44 85 45
REMARK SMILES IDX 36 46 90 47 84 48 86 49 37 50 89 51 83 52 82 53 38 55 70 56
REMARK SMILES IDX 50 57 69 58 51 59 54 60 68 61 87 62 52 63 53 64 67 66 88 67
REMARK SMILES IDX 55 68 39 69 40 70 48 71 41 72 43 73 49 74 42 75 44 76 45 77
REMARK SMILES IDX 46 78 47 79 71 80 72 81 80 82 73 83 75 84 81 85 74 86 76 87
REMARK SMILES IDX 77 88 78 89 79 90 56 91 57 92 65 93 58 94 60 95 66 96 59 97
REMARK SMILES IDX 61 98 62 99 63 100 64 101
REMARK H PARENT 4 24 6 28 6 29 86 54 54 65
REMARK Flexibility Score: inf
ROOT
ATOM      1  C   UNL A   1      36.034  33.040  32.597  1.00  0.00     0.188 C 
ENDROOT
BRANCH   1   2
ATOM      2  O   UNL A   1      36.106  32.630  33.958  1.00  0.00    -0.376 OA
BRANCH   2   3
ATOM      3  C   UNL A   1      37.360  32.286  34.534  1.00  0.00     0.202 C 
BRANCH   3   4
ATOM      4  C   UNL A   1      38.657  32.791  33.879  1.00  0.00     0.261 C 
BRANCH   4   5
ATOM      5  O   UNL A   1      39.706  33.113  34.804  1.00  0.00    -0.460 OA
BRANCH   5   6
ATOM      6  C   UNL A   1      40.899  32.523  34.579  1.00  0.00     0.338 C 
ATOM      7  O   UNL A   1      41.335  31.510  35.114  1.00  0.00    -0.246 OA
BRANCH   6   8
ATOM      8  C   UNL A   1      41.605  33.197  33.468  1.00  0.00     0.060 A 
ATOM      9  C   UNL A   1      42.673  34.632  31.348  1.00  0.00     0.067 A 
ATOM     10  C   UNL A   1      42.505  35.269  32.580  1.00  0.00     0.029 A 
ATOM     11  C   UNL A   1      42.453  33.255  31.212  1.00  0.00     0.029 A 
ATOM     12  C   UNL A   1      41.940  34.551  33.631  1.00  0.00     0.018 A 
ATOM     13  C   UNL A   1      41.926  32.531  32.280  1.00  0.00     0.018 A 
BRANCH   9  14
ATOM     14  N   UNL A   1      42.814  35.437  30.197  1.00  0.00    -0.217 N 
ATOM     15  C   UNL A   1      43.707  36.344  28.428  1.00  0.00     0.132 A 
ATOM     16  N   UNL A   1      42.390  36.082  28.167  1.00  0.00    -0.128 NA
ATOM     17  C   UNL A   1      44.015  35.935  29.710  1.00  0.00     0.071 A 
ATOM     18  N   UNL A   1      41.872  35.479  29.228  1.00  0.00    -0.061 NA
ATOM     19  C   UNL A   1      45.328  35.785  30.384  1.00  0.00     0.069 C 
BRANCH  15  20
ATOM     20  C   UNL A   1      44.636  36.753  27.395  1.00  0.00     0.087 C 
ATOM     21  C   UNL A   1      45.535  35.678  26.836  1.00  0.00     0.071 C 
ATOM     22  N   UNL A   1      44.603  38.010  27.059  1.00  0.00    -0.176 NA
BRANCH  22  23
ATOM     23  N   UNL A   1      45.436  38.458  26.076  1.00  0.00    -0.254 N 
ATOM     24  H   UNL A   1      45.092  38.440  25.153  1.00  0.00     0.193 HD
BRANCH  23  25
ATOM     25  C   UNL A   1      46.718  38.937  26.258  1.00  0.00     0.184 C 
ATOM     26  S   UNL A   1      47.210  40.428  26.808  1.00  0.00    -0.040 S 
BRANCH  25  27
ATOM     27  N   UNL A   1      47.670  38.010  25.941  1.00  0.00    -0.375 N 
ATOM     28  H   UNL A   1      47.984  37.925  25.012  1.00  0.00     0.159 HD
ATOM     29  H   UNL A   1      48.041  37.426  26.641  1.00  0.00     0.159 HD
ENDBRANCH  25  27
ENDBRANCH  23  25
ENDBRANCH  22  23
ENDBRANCH  15  20
ENDBRANCH   9  14
ENDBRANCH   6   8
ENDBRANCH   5   6
ENDBRANCH   4   5
ENDBRANCH   3   4
ENDBRANCH   2   3
ENDBRANCH   1   2
BRANCH   1  30
ATOM     30  C   UNL A   1      34.716  33.589  32.005  1.00  0.00     0.188 C 
BRANCH  30  31
ATOM     31  O   UNL A   1      34.179  32.827  30.936  1.00  0.00    -0.376 OA
BRANCH  31  32
ATOM     32  C   UNL A   1      34.435  33.280  29.614  1.00  0.00     0.202 C 
BRANCH  32  33
ATOM     33  C   UNL A   1      35.882  33.571  29.215  1.00  0.00     0.261 C 
BRANCH  33  34
ATOM     34  O   UNL A   1      36.434  32.686  28.254  1.00  0.00    -0.460 OA
BRANCH  34  35
ATOM     35  C   UNL A   1      36.214  31.378  28.465  1.00  0.00     0.338 C 
ATOM     36  O   UNL A   1      35.290  30.705  28.015  1.00  0.00    -0.246 OA
BRANCH  35  37
ATOM     37  C   UNL A   1      37.245  30.879  29.376  1.00  0.00     0.060 A 
ATOM     38  C   UNL A   1      38.404  31.642  29.534  1.00  0.00     0.016 A 
ATOM     39  C   UNL A   1      37.154  29.558  29.841  1.00  0.00     0.016 A 
ATOM     40  C   UNL A   1      39.546  31.010  29.975  1.00  0.00     0.010 A 
ATOM     41  C   UNL A   1      38.298  28.924  30.260  1.00  0.00     0.010 A 
ATOM     42  C   UNL A   1      39.494  29.637  30.233  1.00  0.00    -0.014 A 
BRANCH  42  43
ATOM     43  C   UNL A   1      40.747  28.929  30.368  1.00  0.00     0.031 A 
ATOM     44  C   UNL A   1      41.248  28.764  31.742  1.00  0.00     0.074 A 
ATOM     45  C   UNL A   1      41.333  28.356  29.298  1.00  0.00     0.049 A 
ATOM     46  N   UNL A   1      42.342  29.236  32.242  1.00  0.00    -0.248 NA
ATOM     47  C   UNL A   1      40.382  28.070  32.705  1.00  0.00     0.031 C 
ATOM     48  C   UNL A   1      40.750  28.169  27.965  1.00  0.00     0.029 A 
ATOM     49  N   UNL A   1      42.511  27.677  29.228  1.00  0.00    -0.354 N 
ATOM     50  C   UNL A   1      42.409  28.704  33.524  1.00  0.00     0.074 A 
ATOM     51  C   UNL A   1      41.112  28.152  33.816  1.00  0.00     0.031 C 
ATOM     52  C   UNL A   1      41.453  27.217  27.312  1.00  0.00     0.029 A 
ATOM     53  C   UNL A   1      42.588  26.829  28.132  1.00  0.00     0.049 A 
ATOM     54  H   UNL A   1      43.235  27.776  29.888  1.00  0.00     0.167 HD
ATOM     55  C   UNL A   1      43.596  28.524  34.160  1.00  0.00     0.034 A 
ATOM     56  C   UNL A   1      43.463  25.811  27.964  1.00  0.00     0.034 A 
ATOM     57  C   UNL A   1      44.670  29.255  33.543  1.00  0.00     0.049 A 
ATOM     58  C   UNL A   1      44.595  26.027  28.895  1.00  0.00     0.074 A 
ATOM     59  C   UNL A   1      44.918  30.580  33.255  1.00  0.00     0.029 A 
ATOM     60  N   UNL A   1      45.582  28.527  32.819  1.00  0.00    -0.354 N 
ATOM     61  N   UNL A   1      45.477  26.979  28.772  1.00  0.00    -0.248 NA
ATOM     62  C   UNL A   1      44.557  25.378  30.196  1.00  0.00     0.031 C 
ATOM     63  C   UNL A   1      45.686  30.566  32.055  1.00  0.00     0.029 A 
ATOM     64  C   UNL A   1      45.868  29.233  31.682  1.00  0.00     0.049 A 
ATOM     65  H   UNL A   1      45.961  27.655  33.073  1.00  0.00     0.167 HD
ATOM     66  C   UNL A   1      45.791  27.337  30.077  1.00  0.00     0.074 A 
ATOM     67  C   UNL A   1      45.313  26.227  30.895  1.00  0.00     0.031 C 
ATOM     68  C   UNL A   1      46.134  28.622  30.396  1.00  0.00     0.034 A 
BRANCH  55  69
ATOM     69  C   UNL A   1      43.858  27.411  35.138  1.00  0.00     0.023 A 
ATOM     70  C   UNL A   1      44.200  27.768  36.459  1.00  0.00     0.012 A 
ATOM     71  C   UNL A   1      44.034  26.060  34.767  1.00  0.00     0.148 A 
ATOM     72  C   UNL A   1      44.710  26.828  37.359  1.00  0.00     0.002 A 
ATOM     73  C   UNL A   1      44.448  25.111  35.693  1.00  0.00     0.091 A 
ATOM     74  F   UNL A   1      43.940  25.698  33.482  1.00  0.00    -0.205 F 
ATOM     75  C   UNL A   1      44.817  25.494  36.983  1.00  0.00     0.022 A 
BRANCH  73  76
ATOM     76  S   UNL A   1      44.503  23.371  35.256  1.00  0.00     0.127 S 
ATOM     77  O   UNL A   1      45.487  23.366  34.179  1.00  0.00    -0.237 OA
ATOM     78  O   UNL A   1      44.947  22.752  36.505  1.00  0.00    -0.237 OA
ATOM     79  O   UNL A   1      43.131  23.041  34.888  1.00  0.00    -0.744 OA
ENDBRANCH  73  76
ENDBRANCH  55  69
BRANCH  56  80
ATOM     80  C   UNL A   1      43.292  24.548  27.211  1.00  0.00     0.023 A 
ATOM     81  C   UNL A   1      42.068  23.858  27.289  1.00  0.00     0.012 A 
ATOM     82  C   UNL A   1      44.229  24.136  26.236  1.00  0.00     0.148 A 
ATOM     83  C   UNL A   1      41.776  22.808  26.411  1.00  0.00     0.002 A 
ATOM     84  C   UNL A   1      43.943  23.077  25.379  1.00  0.00     0.091 A 
ATOM     85  F   UNL A   1      45.359  24.839  26.081  1.00  0.00    -0.205 F 
ATOM     86  C   UNL A   1      42.711  22.419  25.456  1.00  0.00     0.022 A 
BRANCH  84  87
ATOM     87  S   UNL A   1      45.116  22.521  24.135  1.00  0.00     0.127 S 
ATOM     88  O   UNL A   1      45.957  23.706  23.953  1.00  0.00    -0.237 OA
ATOM     89  O   UNL A   1      45.770  21.405  24.810  1.00  0.00    -0.237 OA
ATOM     90  O   UNL A   1      44.314  22.181  22.966  1.00  0.00    -0.744 OA
ENDBRANCH  84  87
ENDBRANCH  56  80
BRANCH  68  91
ATOM     91  C   UNL A   1      46.498  29.564  29.274  1.00  0.00     0.023 A 
ATOM     92  C   UNL A   1      47.798  29.604  28.730  1.00  0.00     0.012 A 
ATOM     93  C   UNL A   1      45.476  30.294  28.640  1.00  0.00     0.148 A 
ATOM     94  C   UNL A   1      48.081  30.379  27.603  1.00  0.00     0.002 A 
ATOM     95  C   UNL A   1      45.751  31.026  27.490  1.00  0.00     0.091 A 
ATOM     96  F   UNL A   1      44.239  30.244  29.159  1.00  0.00    -0.205 F 
ATOM     97  C   UNL A   1      47.056  31.081  26.975  1.00  0.00     0.022 A 
BRANCH  95  98
ATOM     98  S   UNL A   1      44.442  31.832  26.561  1.00  0.00     0.127 S 
ATOM     99  O   UNL A   1      45.162  32.358  25.404  1.00  0.00    -0.237 OA
ATOM    100  O   UNL A   1      43.531  30.725  26.261  1.00  0.00    -0.237 OA
ATOM    101  O   UNL A   1      43.879  32.828  27.466  1.00  0.00    -0.744 OA
ENDBRANCH  95  98
ENDBRANCH  68  91
ENDBRANCH  42  43
ENDBRANCH  35  37
ENDBRANCH  34  35
ENDBRANCH  33  34
ENDBRANCH  32  33
ENDBRANCH  31  32
ENDBRANCH  30  31
ENDBRANCH   1  30
TORSDOF 25
ENDMDL
MODEL 2
REMARK VINA RESULT:      -7.9      1.726      2.063
REMARK SMILES C/C(=N\NC(N)=S)c1nnn(-c2ccc(C(=O)OCCOCCOCCOC(=O)c3ccc(-c4c5nc(c(-c6cccc(S(=O)(=O)[O-])c6F)c6ccc([nH]6)c(-c6cccc(S(=O)(=O)[O-])c6F)c6nc(c(-c7cccc(S(=O)(=O)[O-])c7F)c7ccc4[nH]7)C=C6)C=C5)cc3)cc2)c1C
REMARK SMILES IDX 22 1 21 2 20 3 19 4 18 5 16 6 17 7 15 8 12 9 13 10 94 11
REMARK SMILES IDX 14 12 93 13 11 14 8 15 9 16 95 17 10 18 96 19 2 20 1 21 3 22
REMARK SMILES IDX 4 23 5 25 7 26 6 27 23 30 24 31 25 32 26 33 27 34 28 35
REMARK SMILES IDX 29 36 30 37 31 38 92 39 32 40 91 41 33 42 34 43 35 44 85 45
REMARK SMILES IDX 36 46 90 47 84 48 86 49 37 50 89 51 83 52 82 53 38 55 70 56
REMARK SMILES IDX 50 57 69 58 51 59 54 60 68 61 87 62 52 63 53 64 67 66 88 67
REMARK SMILES IDX 55 68 39 69 40 70 48 71 41 72 43 73 49 74 42 75 44 76 45 77
REMARK SMILES IDX 46 78 47 79 71 80 72 81 80 82 73 83 75 84 81 85 74 86 76 87
REMARK SMILES IDX 77 88 78 89 79 90 56 91 57 92 65 93 58 94 60 95 66 96 59 97
REMARK SMILES IDX 61 98 62 99 63 100 64 101
REMARK H PARENT 4 24 6 28 6 29 86 54 54 65
REMARK Flexibility Score: inf
ROOT
ATOM      1  C   UNL A   1      35.477  33.785  32.515  1.00  0.00     0.188 C 
ENDROOT
BRANCH   1   2
ATOM      2  O   UNL A   1      35.289  33.689  33.922  1.00  0.00    -0.376 OA
BRANCH   2   3
ATOM      3  C   UNL A   1      36.406  33.767  34.798  1.00  0.00     0.202 C 
BRANCH   3   4
ATOM      4  C   UNL A   1      37.502  32.691  34.723  1.00  0.00     0.261 C 
BRANCH   4   5
ATOM      5  O   UNL A   1      38.797  33.127  35.163  1.00  0.00    -0.460 OA
BRANCH   5   6
ATOM      6  C   UNL A   1      39.198  34.338  34.722  1.00  0.00     0.338 C 
ATOM      7  O   UNL A   1      38.864  35.432  35.161  1.00  0.00    -0.246 OA
BRANCH   6   8
ATOM      8  C   UNL A   1      40.234  34.188  33.677  1.00  0.00     0.060 A 
ATOM      9  C   UNL A   1      42.112  34.198  31.636  1.00  0.00     0.067 A 
ATOM     10  C   UNL A   1      42.364  34.943  32.791  1.00  0.00     0.029 A 
ATOM     11  C   UNL A   1      41.010  33.337  31.559  1.00  0.00     0.029 A 
ATOM     12  C   UNL A   1      41.403  34.958  33.799  1.00  0.00     0.018 A 
ATOM     13  C   UNL A   1      40.071  33.324  32.589  1.00  0.00     0.018 A 
BRANCH   9  14
ATOM     14  N   UNL A   1      42.835  34.520  30.467  1.00  0.00    -0.217 N 
ATOM     15  C   UNL A   1      43.397  35.526  28.618  1.00  0.00     0.132 A 
ATOM     16  N   UNL A   1      44.533  35.249  29.326  1.00  0.00    -0.128 NA
ATOM     17  C   UNL A   1      42.293  35.085  29.320  1.00  0.00     0.071 A 
ATOM     18  N   UNL A   1      44.177  34.689  30.474  1.00  0.00    -0.061 NA
ATOM     19  C   UNL A   1      40.849  35.343  29.107  1.00  0.00     0.069 C 
BRANCH  15  20
ATOM     20  C   UNL A   1      43.403  36.375  27.444  1.00  0.00     0.087 C 
ATOM     21  C   UNL A   1      42.922  35.746  26.158  1.00  0.00     0.071 C 
ATOM     22  N   UNL A   1      43.827  37.593  27.618  1.00  0.00    -0.176 NA
BRANCH  22  23
ATOM     23  N   UNL A   1      43.838  38.452  26.558  1.00  0.00    -0.254 N 
ATOM     24  H   UNL A   1      44.332  38.167  25.755  1.00  0.00     0.193 HD
BRANCH  23  25
ATOM     25  C   UNL A   1      43.217  39.683  26.509  1.00  0.00     0.184 C 
ATOM     26  S   UNL A   1      41.767  40.151  27.178  1.00  0.00    -0.040 S 
BRANCH  25  27
ATOM     27  N   UNL A   1      43.946  40.607  25.815  1.00  0.00    -0.375 N 
ATOM     28  H   UNL A   1      44.412  41.329  26.297  1.00  0.00     0.159 HD
ATOM     29  H   UNL A   1      44.003  40.553  24.834  1.00  0.00     0.159 HD
ENDBRANCH  25  27
ENDBRANCH  23  25
ENDBRANCH  22  23
ENDBRANCH  15  20
ENDBRANCH   9  14
ENDBRANCH   6   8
ENDBRANCH   5   6
ENDBRANCH   4   5
ENDBRANCH   3   4
ENDBRANCH   2   3
ENDBRANCH   1   2
BRANCH   1  30
ATOM     30  C   UNL A   1      34.311  34.194  31.586  1.00  0.00     0.188 C 
BRANCH  30  31
ATOM     31  O   UNL A   1      34.064  33.302  30.511  1.00  0.00    -0.376 OA
BRANCH  31  32
ATOM     32  C   UNL A   1      34.266  33.792  29.192  1.00  0.00     0.202 C 
BRANCH  32  33
ATOM     33  C   UNL A   1      35.681  33.753  28.614  1.00  0.00     0.261 C 
BRANCH  33  34
ATOM     34  O   UNL A   1      35.881  32.817  27.568  1.00  0.00    -0.460 OA
BRANCH  34  35
ATOM     35  C   UNL A   1      35.619  31.534  27.868  1.00  0.00     0.338 C 
ATOM     36  O   UNL A   1      34.672  30.863  27.464  1.00  0.00    -0.246 OA
BRANCH  35  37
ATOM     37  C   UNL A   1      36.633  31.066  28.813  1.00  0.00     0.060 A 
ATOM     38  C   UNL A   1      37.711  31.910  29.089  1.00  0.00     0.016 A 
ATOM     39  C   UNL A   1      36.628  29.715  29.195  1.00  0.00     0.016 A 
ATOM     40  C   UNL A   1      38.875  31.347  29.566  1.00  0.00     0.010 A 
ATOM     41  C   UNL A   1      37.794  29.152  29.650  1.00  0.00     0.010 A 
ATOM     42  C   UNL A   1      38.924  29.961  29.741  1.00  0.00    -0.014 A 
BRANCH  42  43
ATOM     43  C   UNL A   1      40.223  29.350  29.915  1.00  0.00     0.031 A 
ATOM     44  C   UNL A   1      40.762  29.366  31.285  1.00  0.00     0.074 A 
ATOM     45  C   UNL A   1      40.823  28.704  28.897  1.00  0.00     0.049 A 
ATOM     46  N   UNL A   1      41.834  29.955  31.702  1.00  0.00    -0.248 NA
ATOM     47  C   UNL A   1      39.964  28.726  32.339  1.00  0.00     0.031 C 
ATOM     48  C   UNL A   1      40.226  28.339  27.607  1.00  0.00     0.029 A 
ATOM     49  N   UNL A   1      42.041  28.096  28.866  1.00  0.00    -0.354 N 
ATOM     50  C   UNL A   1      41.962  29.569  33.031  1.00  0.00     0.074 A 
ATOM     51  C   UNL A   1      40.709  28.972  33.415  1.00  0.00     0.031 C 
ATOM     52  C   UNL A   1      40.975  27.369  27.039  1.00  0.00     0.029 A 
ATOM     53  C   UNL A   1      42.149  27.142  27.864  1.00  0.00     0.049 A 
ATOM     54  H   UNL A   1      42.770  28.310  29.492  1.00  0.00     0.167 HD
ATOM     55  C   UNL A   1      43.171  29.532  33.649  1.00  0.00     0.034 A 
ATOM     56  C   UNL A   1      43.086  26.168  27.781  1.00  0.00     0.034 A 
ATOM     57  C   UNL A   1      44.182  30.258  32.929  1.00  0.00     0.049 A 
ATOM     58  C   UNL A   1      44.220  26.552  28.652  1.00  0.00     0.074 A 
ATOM     59  C   UNL A   1      44.338  31.558  32.496  1.00  0.00     0.029 A 
ATOM     60  N   UNL A   1      45.124  29.515  32.261  1.00  0.00    -0.354 N 
ATOM     61  N   UNL A   1      45.035  27.539  28.405  1.00  0.00    -0.248 NA
ATOM     62  C   UNL A   1      44.251  26.045  30.015  1.00  0.00     0.031 C 
ATOM     63  C   UNL A   1      45.079  31.463  31.284  1.00  0.00     0.029 A 
ATOM     64  C   UNL A   1      45.340  30.112  31.049  1.00  0.00     0.049 A 
ATOM     65  H   UNL A   1      45.564  28.700  32.595  1.00  0.00     0.167 HD
ATOM     66  C   UNL A   1      45.353  28.053  29.656  1.00  0.00     0.074 A 
ATOM     67  C   UNL A   1      44.965  27.010  30.599  1.00  0.00     0.031 C 
ATOM     68  C   UNL A   1      45.618  29.384  29.827  1.00  0.00     0.034 A 
BRANCH  55  69
ATOM     69  C   UNL A   1      43.525  28.549  34.732  1.00  0.00     0.023 A 
ATOM     70  C   UNL A   1      43.958  29.067  35.970  1.00  0.00     0.012 A 
ATOM     71  C   UNL A   1      43.696  27.164  34.514  1.00  0.00     0.148 A 
ATOM     72  C   UNL A   1      44.551  28.248  36.935  1.00  0.00     0.002 A 
ATOM     73  C   UNL A   1      44.194  26.339  35.514  1.00  0.00     0.091 A 
ATOM     74  F   UNL A   1      43.511  26.647  33.294  1.00  0.00    -0.205 F 
ATOM     75  C   UNL A   1      44.652  26.879  36.717  1.00  0.00     0.022 A 
BRANCH  73  76
ATOM     76  S   UNL A   1      44.246  24.559  35.287  1.00  0.00     0.127 S 
ATOM     77  O   UNL A   1      45.679  24.296  35.330  1.00  0.00    -0.237 OA
ATOM     78  O   UNL A   1      43.491  24.078  36.445  1.00  0.00    -0.237 OA
ATOM     79  O   UNL A   1      43.577  24.331  34.011  1.00  0.00    -0.744 OA
ENDBRANCH  73  76
ENDBRANCH  55  69
BRANCH  56  80
ATOM     80  C   UNL A   1      42.981  24.823  27.170  1.00  0.00     0.023 A 
ATOM     81  C   UNL A   1      41.739  24.160  27.169  1.00  0.00     0.012 A 
ATOM     82  C   UNL A   1      44.025  24.285  26.384  1.00  0.00     0.148 A 
ATOM     83  C   UNL A   1      41.537  23.013  26.393  1.00  0.00     0.002 A 
ATOM     84  C   UNL A   1      43.826  23.132  25.632  1.00  0.00     0.091 A 
ATOM     85  F   UNL A   1      45.184  24.953  26.296  1.00  0.00    -0.205 F 
ATOM     86  C   UNL A   1      42.578  22.500  25.624  1.00  0.00     0.022 A 
BRANCH  84  87
ATOM     87  S   UNL A   1      45.135  22.415  24.630  1.00  0.00     0.127 S 
ATOM     88  O   UNL A   1      44.411  21.409  23.849  1.00  0.00    -0.237 OA
ATOM     89  O   UNL A   1      45.598  23.567  23.864  1.00  0.00    -0.237 OA
ATOM     90  O   UNL A   1      46.090  21.853  25.578  1.00  0.00    -0.744 OA
ENDBRANCH  84  87
ENDBRANCH  56  80
BRANCH  68  91
ATOM     91  C   UNL A   1      45.897  30.221  28.603  1.00  0.00     0.023 A 
ATOM     92  C   UNL A   1      44.859  30.790  27.838  1.00  0.00     0.012 A 
ATOM     93  C   UNL A   1      47.226  30.588  28.318  1.00  0.00     0.148 A 
ATOM     94  C   UNL A   1      45.137  31.674  26.793  1.00  0.00     0.002 A 
ATOM     95  C   UNL A   1      47.496  31.506  27.309  1.00  0.00     0.091 A 
ATOM     96  F   UNL A   1      48.209  30.050  29.056  1.00  0.00    -0.205 F 
ATOM     97  C   UNL A   1      46.454  32.042  26.536  1.00  0.00     0.022 A 
BRANCH  95  98
ATOM     98  S   UNL A   1      49.159  32.123  27.029  1.00  0.00     0.127 S 
ATOM     99  O   UNL A   1      49.541  32.595  28.358  1.00  0.00    -0.237 OA
ATOM    100  O   UNL A   1      49.875  30.927  26.578  1.00  0.00    -0.237 OA
ATOM    101  O   UNL A   1      49.027  33.151  26.003  1.00  0.00    -0.744 OA
ENDBRANCH  95  98
ENDBRANCH  68  91
ENDBRANCH  42  43
ENDBRANCH  35  37
ENDBRANCH  34  35
ENDBRANCH  33  34
ENDBRANCH  32  33
ENDBRANCH  31  32
ENDBRANCH  30  31
ENDBRANCH   1  30
TORSDOF 25
ENDMDL
MODEL 3
REMARK VINA RESULT:      -7.3      5.105     11.187
REMARK SMILES C/C(=N\NC(N)=S)c1nnn(-c2ccc(C(=O)OCCOCCOCCOC(=O)c3ccc(-c4c5nc(c(-c6cccc(S(=O)(=O)[O-])c6F)c6ccc([nH]6)c(-c6cccc(S(=O)(=O)[O-])c6F)c6nc(c(-c7cccc(S(=O)(=O)[O-])c7F)c7ccc4[nH]7)C=C6)C=C5)cc3)cc2)c1C
REMARK SMILES IDX 22 1 21 2 20 3 19 4 18 5 16 6 17 7 15 8 12 9 13 10 94 11
REMARK SMILES IDX 14 12 93 13 11 14 8 15 9 16 95 17 10 18 96 19 2 20 1 21 3 22
REMARK SMILES IDX 4 23 5 25 7 26 6 27 23 30 24 31 25 32 26 33 27 34 28 35
REMARK SMILES IDX 29 36 30 37 31 38 92 39 32 40 91 41 33 42 34 43 35 44 85 45
REMARK SMILES IDX 36 46 90 47 84 48 86 49 37 50 89 51 83 52 82 53 38 55 70 56
REMARK SMILES IDX 50 57 69 58 51 59 54 60 68 61 87 62 52 63 53 64 67 66 88 67
REMARK SMILES IDX 55 68 39 69 40 70 48 71 41 72 43 73 49 74 42 75 44 76 45 77
REMARK SMILES IDX 46 78 47 79 71 80 72 81 80 82 73 83 75 84 81 85 74 86 76 87
REMARK SMILES IDX 77 88 78 89 79 90 56 91 57 92 65 93 58 94 60 95 66 96 59 97
REMARK SMILES IDX 61 98 62 99 63 100 64 101
REMARK H PARENT 4 24 6 28 6 29 86 54 54 65
REMARK Flexibility Score: inf
ROOT
ATOM      1  C   UNL A   1      34.519  33.169  29.785  1.00  0.00     0.188 C 
ENDROOT
BRANCH   1   2
ATOM      2  O   UNL A   1      34.153  32.602  28.532  1.00  0.00    -0.376 OA
BRANCH   2   3
ATOM      3  C   UNL A   1      34.930  31.553  27.968  1.00  0.00     0.202 C 
BRANCH   3   4
ATOM      4  C   UNL A   1      34.270  30.560  26.997  1.00  0.00     0.261 C 
BRANCH   4   5
ATOM      5  O   UNL A   1      33.157  29.840  27.546  1.00  0.00    -0.460 OA
BRANCH   5   6
ATOM      6  C   UNL A   1      32.226  29.421  26.662  1.00  0.00     0.338 C 
ATOM      7  O   UNL A   1      31.407  30.111  26.068  1.00  0.00    -0.246 OA
BRANCH   6   8
ATOM      8  C   UNL A   1      32.397  27.978  26.381  1.00  0.00     0.060 A 
ATOM      9  C   UNL A   1      32.812  25.358  25.571  1.00  0.00     0.067 A 
ATOM     10  C   UNL A   1      33.919  26.175  25.817  1.00  0.00     0.029 A 
ATOM     11  C   UNL A   1      31.515  25.793  25.869  1.00  0.00     0.029 A 
ATOM     12  C   UNL A   1      33.703  27.497  26.194  1.00  0.00     0.018 A 
ATOM     13  C   UNL A   1      31.306  27.107  26.286  1.00  0.00     0.018 A 
BRANCH   9  14
ATOM     14  N   UNL A   1      33.001  24.201  24.784  1.00  0.00    -0.217 N 
ATOM     15  C   UNL A   1      32.993  22.106  24.187  1.00  0.00     0.132 A 
ATOM     16  N   UNL A   1      32.649  22.869  23.105  1.00  0.00    -0.128 NA
ATOM     17  C   UNL A   1      33.214  22.922  25.279  1.00  0.00     0.071 A 
ATOM     18  N   UNL A   1      32.602  24.136  23.493  1.00  0.00    -0.061 NA
ATOM     19  C   UNL A   1      33.380  22.587  26.714  1.00  0.00     0.069 C 
BRANCH  15  20
ATOM     20  C   UNL A   1      32.879  20.662  24.185  1.00  0.00     0.087 C 
ATOM     21  C   UNL A   1      32.103  20.050  23.044  1.00  0.00     0.071 C 
ATOM     22  N   UNL A   1      33.454  20.039  25.173  1.00  0.00    -0.176 NA
BRANCH  22  23
ATOM     23  N   UNL A   1      33.405  18.677  25.221  1.00  0.00    -0.254 N 
ATOM     24  H   UNL A   1      32.667  18.273  25.734  1.00  0.00     0.193 HD
BRANCH  23  25
ATOM     25  C   UNL A   1      34.294  17.813  24.614  1.00  0.00     0.184 C 
ATOM     26  S   UNL A   1      33.982  16.408  23.778  1.00  0.00    -0.040 S 
BRANCH  25  27
ATOM     27  N   UNL A   1      35.590  18.228  24.737  1.00  0.00    -0.375 N 
ATOM     28  H   UNL A   1      35.868  18.746  25.527  1.00  0.00     0.159 HD
ATOM     29  H   UNL A   1      36.245  18.010  24.036  1.00  0.00     0.159 HD
ENDBRANCH  25  27
ENDBRANCH  23  25
ENDBRANCH  22  23
ENDBRANCH  15  20
ENDBRANCH   9  14
ENDBRANCH   6   8
ENDBRANCH   5   6
ENDBRANCH   4   5
ENDBRANCH   3   4
ENDBRANCH   2   3
ENDBRANCH   1   2
BRANCH   1  30
ATOM     30  C   UNL A   1      34.746  32.272  31.023  1.00  0.00     0.188 C 
BRANCH  30  31
ATOM     31  O   UNL A   1      34.038  32.670  32.186  1.00  0.00    -0.376 OA
BRANCH  31  32
ATOM     32  C   UNL A   1      34.736  33.455  33.143  1.00  0.00     0.202 C 
BRANCH  32  33
ATOM     33  C   UNL A   1      36.199  33.116  33.429  1.00  0.00     0.261 C 
BRANCH  33  34
ATOM     34  O   UNL A   1      37.146  34.034  32.906  1.00  0.00    -0.460 OA
BRANCH  34  35
ATOM     35  C   UNL A   1      38.093  34.453  33.762  1.00  0.00     0.338 C 
ATOM     36  O   UNL A   1      37.927  34.812  34.925  1.00  0.00    -0.246 OA
BRANCH  35  37
ATOM     37  C   UNL A   1      39.376  34.462  33.059  1.00  0.00     0.060 A 
ATOM     38  C   UNL A   1      39.361  34.355  31.666  1.00  0.00     0.016 A 
ATOM     39  C   UNL A   1      40.556  34.312  33.804  1.00  0.00     0.016 A 
ATOM     40  C   UNL A   1      40.495  33.891  31.035  1.00  0.00     0.010 A 
ATOM     41  C   UNL A   1      41.679  33.830  33.177  1.00  0.00     0.010 A 
ATOM     42  C   UNL A   1      41.600  33.542  31.816  1.00  0.00    -0.014 A 
BRANCH  42  43
ATOM     43  C   UNL A   1      42.642  32.756  31.195  1.00  0.00     0.031 A 
ATOM     44  C   UNL A   1      43.643  33.511  30.423  1.00  0.00     0.074 A 
ATOM     45  C   UNL A   1      42.741  31.433  31.429  1.00  0.00     0.049 A 
ATOM     46  N   UNL A   1      43.885  33.428  29.156  1.00  0.00    -0.248 NA
ATOM     47  C   UNL A   1      44.403  34.553  31.126  1.00  0.00     0.031 C 
ATOM     48  C   UNL A   1      42.013  30.657  32.440  1.00  0.00     0.029 A 
ATOM     49  N   UNL A   1      43.630  30.536  30.920  1.00  0.00    -0.354 N 
ATOM     50  C   UNL A   1      44.987  34.249  28.947  1.00  0.00     0.074 A 
ATOM     51  C   UNL A   1      45.148  35.044  30.137  1.00  0.00     0.031 C 
ATOM     52  C   UNL A   1      42.664  29.491  32.646  1.00  0.00     0.029 A 
ATOM     53  C   UNL A   1      43.765  29.398  31.703  1.00  0.00     0.049 A 
ATOM     54  H   UNL A   1      44.128  30.681  30.083  1.00  0.00     0.167 HD
ATOM     55  C   UNL A   1      45.845  34.040  27.916  1.00  0.00     0.034 A 
ATOM     56  C   UNL A   1      44.774  28.498  31.644  1.00  0.00     0.034 A 
ATOM     57  C   UNL A   1      45.302  33.165  26.913  1.00  0.00     0.049 A 
ATOM     58  C   UNL A   1      45.453  28.661  30.337  1.00  0.00     0.074 A 
ATOM     59  C   UNL A   1      44.185  33.169  26.105  1.00  0.00     0.029 A 
ATOM     60  N   UNL A   1      45.808  31.889  26.862  1.00  0.00    -0.354 N 
ATOM     61  N   UNL A   1      44.924  28.341  29.190  1.00  0.00    -0.248 NA
ATOM     62  C   UNL A   1      46.622  29.523  30.265  1.00  0.00     0.031 C 
ATOM     63  C   UNL A   1      43.833  31.799  25.943  1.00  0.00     0.029 A 
ATOM     64  C   UNL A   1      44.759  31.035  26.655  1.00  0.00     0.049 A 
ATOM     65  H   UNL A   1      46.754  31.635  26.956  1.00  0.00     0.167 HD
ATOM     66  C   UNL A   1      45.414  29.291  28.301  1.00  0.00     0.074 A 
ATOM     67  C   UNL A   1      46.556  29.888  28.984  1.00  0.00     0.031 C 
ATOM     68  C   UNL A   1      44.670  29.708  27.231  1.00  0.00     0.034 A 
BRANCH  55  69
ATOM     69  C   UNL A   1      47.316  34.353  27.978  1.00  0.00     0.023 A 
ATOM     70  C   UNL A   1      47.943  34.301  29.240  1.00  0.00     0.012 A 
ATOM     71  C   UNL A   1      48.043  34.937  26.917  1.00  0.00     0.148 A 
ATOM     72  C   UNL A   1      49.225  34.823  29.438  1.00  0.00     0.002 A 
ATOM     73  C   UNL A   1      49.353  35.364  27.096  1.00  0.00     0.091 A 
ATOM     74  F   UNL A   1      47.435  35.216  25.758  1.00  0.00    -0.205 F 
ATOM     75  C   UNL A   1      49.940  35.338  28.362  1.00  0.00     0.022 A 
BRANCH  73  76
ATOM     76  S   UNL A   1      50.323  35.944  25.703  1.00  0.00     0.127 S 
ATOM     77  O   UNL A   1      49.655  37.198  25.376  1.00  0.00    -0.237 OA
ATOM     78  O   UNL A   1      51.656  36.084  26.291  1.00  0.00    -0.237 OA
ATOM     79  O   UNL A   1      50.224  34.874  24.715  1.00  0.00    -0.744 OA
ENDBRANCH  73  76
ENDBRANCH  55  69
BRANCH  56  80
ATOM     80  C   UNL A   1      45.333  27.651  32.721  1.00  0.00     0.023 A 
ATOM     81  C   UNL A   1      46.250  28.208  33.633  1.00  0.00     0.012 A 
ATOM     82  C   UNL A   1      44.802  26.372  33.007  1.00  0.00     0.148 A 
ATOM     83  C   UNL A   1      46.608  27.526  34.801  1.00  0.00     0.002 A 
ATOM     84  C   UNL A   1      45.178  25.688  34.159  1.00  0.00     0.091 A 
ATOM     85  F   UNL A   1      43.857  25.865  32.203  1.00  0.00    -0.205 F 
ATOM     86  C   UNL A   1      46.072  26.268  35.066  1.00  0.00     0.022 A 
BRANCH  84  87
ATOM     87  S   UNL A   1      44.530  24.057  34.547  1.00  0.00     0.127 S 
ATOM     88  O   UNL A   1      44.952  23.272  33.384  1.00  0.00    -0.237 OA
ATOM     89  O   UNL A   1      45.231  23.737  35.786  1.00  0.00    -0.237 OA
ATOM     90  O   UNL A   1      43.086  24.225  34.655  1.00  0.00    -0.744 OA
ENDBRANCH  84  87
ENDBRANCH  56  80
BRANCH  68  91
ATOM     91  C   UNL A   1      43.467  28.888  26.832  1.00  0.00     0.023 A 
ATOM     92  C   UNL A   1      43.565  27.824  25.913  1.00  0.00     0.012 A 
ATOM     93  C   UNL A   1      42.256  29.077  27.523  1.00  0.00     0.148 A 
ATOM     94  C   UNL A   1      42.474  26.989  25.662  1.00  0.00     0.002 A 
ATOM     95  C   UNL A   1      41.187  28.214  27.306  1.00  0.00     0.091 A 
ATOM     96  F   UNL A   1      42.173  30.086  28.403  1.00  0.00    -0.205 F 
ATOM     97  C   UNL A   1      41.288  27.176  26.367  1.00  0.00     0.022 A 
BRANCH  95  98
ATOM     98  S   UNL A   1      39.688  28.321  28.289  1.00  0.00     0.127 S 
ATOM     99  O   UNL A   1      39.002  27.078  27.943  1.00  0.00    -0.237 OA
ATOM    100  O   UNL A   1      40.203  28.373  29.658  1.00  0.00    -0.237 OA
ATOM    101  O   UNL A   1      39.028  29.550  27.861  1.00  0.00    -0.744 OA
ENDBRANCH  95  98
ENDBRANCH  68  91
ENDBRANCH  42  43
ENDBRANCH  35  37
ENDBRANCH  34  35
ENDBRANCH  33  34
ENDBRANCH  32  33
ENDBRANCH  31  32
ENDBRANCH  30  31
ENDBRANCH   1  30
TORSDOF 25
ENDMDL
