MODEL 1
REMARK VINA RESULT:      -9.3      0.000      0.000
REMARK SMILES COC(=O)c1c(NC(=O)[C@@H]2C[C@@H]2C(=O)OCCOCCOCCOC(=O)c2ccc(-c3c4nc(c(-c5cccc(S(=O)(=O)[O-])c5F)c5ccc([nH]5)c(-c5cccc(S(=O)(=O)[O-])c5F)c5nc(c(-c6cccc(S(=O)(=O)[O-])c6F)c6ccc3[nH]6)C=C5)C=C4)cc2)sc2c1CC[N@@H+](Cc1ccccc1)C2
REMARK SMILES IDX 19 1 18 2 17 3 16 4 15 5 13 6 14 7 12 8 10 9 11 10 8 11 7 12
REMARK SMILES IDX 9 14 6 15 5 16 92 17 90 18 91 19 93 20 103 21 94 22 95 23
REMARK SMILES IDX 3 25 4 26 2 27 1 28 96 29 97 30 98 31 102 32 99 33 101 34
REMARK SMILES IDX 100 35 20 36 21 37 22 38 23 39 24 40 25 41 26 42 27 43 28 44
REMARK SMILES IDX 89 45 29 46 88 47 30 48 31 49 32 50 82 51 33 52 87 53 81 54
REMARK SMILES IDX 83 55 34 56 86 57 80 58 79 59 35 61 67 62 47 63 66 64 48 65
REMARK SMILES IDX 51 66 65 67 84 68 49 69 50 70 64 72 85 73 52 74 36 75 37 76
REMARK SMILES IDX 45 77 38 78 40 79 46 80 39 81 41 82 42 83 43 84 44 85 68 86
REMARK SMILES IDX 69 87 77 88 70 89 72 90 78 91 71 92 73 93 74 94 75 95 76 96
REMARK SMILES IDX 53 97 54 98 62 99 55 100 57 101 63 102 56 103 58 104 59 105
REMARK SMILES IDX 60 106 61 107
REMARK H PARENT 7 13 95 24 83 60 51 71
REMARK Flexibility Score: inf
ROOT
ATOM      1  C   UNL A   1      36.997  29.334  30.048  1.00  0.00     0.188 C 
ENDROOT
BRANCH   1   2
ATOM      2  O   UNL A   1      35.635  29.904  28.671  1.00  0.00    -0.376 OA
BRANCH   2   3
ATOM      3  C   UNL A   1      35.004  29.597  27.273  1.00  0.00     0.202 C 
BRANCH   3   4
ATOM      4  C   UNL A   1      33.476  29.811  26.775  1.00  0.00     0.261 C 
BRANCH   4   5
ATOM      5  O   UNL A   1      33.181  29.798  25.332  1.00  0.00    -0.463 OA
BRANCH   5   6
ATOM      6  C   UNL A   1      33.024  28.582  24.737  1.00  0.00     0.309 C 
ATOM      7  O   UNL A   1      33.819  27.660  24.862  1.00  0.00    -0.252 OA
BRANCH   6   8
ATOM      8  C   UNL A   1      31.688  28.266  24.107  1.00  0.00     0.112 C 
ATOM      9  C   UNL A   1      30.699  27.789  25.173  1.00  0.00     0.094 C 
ATOM     10  C   UNL A   1      30.628  27.224  23.835  1.00  0.00     0.030 C 
BRANCH   9  11
ATOM     11  C   UNL A   1      31.122  26.921  26.293  1.00  0.00     0.229 C 
ATOM     12  N   UNL A   1      31.629  25.653  26.201  1.00  0.00    -0.317 N 
ATOM     13  H   UNL A   1      31.986  25.400  27.084  1.00  0.00     0.170 HD
ATOM     14  O   UNL A   1      31.143  27.442  27.410  1.00  0.00    -0.274 OA
BRANCH  12  15
ATOM     15  C   UNL A   1      31.829  24.596  25.337  1.00  0.00     0.110 A 
ATOM     16  C   UNL A   1      32.335  24.162  24.100  1.00  0.00     0.098 A 
ATOM     17  C   UNL A   1      32.063  22.734  23.947  1.00  0.00    -0.006 A 
ATOM     18  S   UNL A   1      31.157  23.261  26.230  1.00  0.00    -0.116 S 
ATOM     19  C   UNL A   1      31.843  22.157  25.178  1.00  0.00     0.065 A 
ATOM     20  C   UNL A   1      32.269  21.854  22.747  1.00  0.00     0.099 C 
ATOM     21  C   UNL A   1      32.108  20.736  25.533  1.00  0.00     0.310 C 
ATOM     22  C   UNL A   1      32.367  20.358  23.170  1.00  0.00     0.267 C 
ATOM     23  N   UNL A   1      32.937  20.127  24.502  1.00  0.00    -0.326 N 
ATOM     24  H   UNL A   1      32.890  19.109  24.551  1.00  0.00     0.348 HD
BRANCH  16  25
ATOM     25  C   UNL A   1      33.030  24.890  23.028  1.00  0.00     0.341 C 
ATOM     26  O   UNL A   1      34.241  25.077  23.016  1.00  0.00    -0.246 OA
BRANCH  25  27
ATOM     27  O   UNL A   1      32.167  25.335  22.062  1.00  0.00    -0.465 OA
ATOM     28  C   UNL A   1      32.679  25.588  20.741  1.00  0.00     0.282 C 
ENDBRANCH  25  27
ENDBRANCH  16  25
BRANCH  23  29
ATOM     29  C   UNL A   1      34.376  19.997  24.762  1.00  0.00     0.299 C 
BRANCH  29  30
ATOM     30  C   UNL A   1      35.454  21.099  24.869  1.00  0.00     0.006 A 
ATOM     31  C   UNL A   1      37.122  20.405  24.831  1.00  0.00     0.009 A 
ATOM     32  C   UNL A   1      35.258  22.805  25.438  1.00  0.00     0.009 A 
ATOM     33  C   UNL A   1      38.543  21.321  25.404  1.00  0.00     0.001 A 
ATOM     34  C   UNL A   1      36.746  23.752  26.080  1.00  0.00     0.001 A 
ATOM     35  C   UNL A   1      38.367  22.974  26.069  1.00  0.00     0.000 A 
ENDBRANCH  29  30
ENDBRANCH  23  29
ENDBRANCH  12  15
ENDBRANCH   9  11
ENDBRANCH   6   8
ENDBRANCH   5   6
ENDBRANCH   4   5
ENDBRANCH   3   4
ENDBRANCH   2   3
ENDBRANCH   1   2
BRANCH   1  36
ATOM     36  C   UNL A   1      38.319  28.514  29.933  1.00  0.00     0.188 C 
BRANCH  36  37
ATOM     37  O   UNL A   1      39.122  28.543  28.776  1.00  0.00    -0.376 OA
BRANCH  37  38
ATOM     38  C   UNL A   1      39.277  27.315  28.062  1.00  0.00     0.202 C 
BRANCH  38  39
ATOM     39  C   UNL A   1      39.978  26.073  28.587  1.00  0.00     0.261 C 
BRANCH  39  40
ATOM     40  O   UNL A   1      41.376  26.253  28.739  1.00  0.00    -0.460 OA
BRANCH  40  41
ATOM     41  C   UNL A   1      42.093  25.864  27.658  1.00  0.00     0.338 C 
ATOM     42  O   UNL A   1      42.250  24.711  27.300  1.00  0.00    -0.246 OA
BRANCH  41  43
ATOM     43  C   UNL A   1      42.881  27.022  27.209  1.00  0.00     0.060 A 
ATOM     44  C   UNL A   1      44.038  27.185  27.943  1.00  0.00     0.016 A 
ATOM     45  C   UNL A   1      42.254  28.085  26.517  1.00  0.00     0.016 A 
ATOM     46  C   UNL A   1      44.235  28.452  28.398  1.00  0.00     0.010 A 
ATOM     47  C   UNL A   1      42.511  29.350  26.892  1.00  0.00     0.010 A 
ATOM     48  C   UNL A   1      43.354  29.453  27.965  1.00  0.00    -0.014 A 
BRANCH  48  49
ATOM     49  C   UNL A   1      43.344  30.694  28.654  1.00  0.00     0.031 A 
ATOM     50  C   UNL A   1      44.127  31.647  27.883  1.00  0.00     0.074 A 
ATOM     51  C   UNL A   1      42.687  30.857  29.808  1.00  0.00     0.049 A 
ATOM     52  N   UNL A   1      45.414  31.727  27.924  1.00  0.00    -0.248 NA
ATOM     53  C   UNL A   1      43.511  32.237  26.688  1.00  0.00     0.031 C 
ATOM     54  C   UNL A   1      41.630  30.043  30.417  1.00  0.00     0.029 A 
ATOM     55  N   UNL A   1      42.796  31.905  30.644  1.00  0.00    -0.354 N 
ATOM     56  C   UNL A   1      45.707  32.675  26.968  1.00  0.00     0.074 A 
ATOM     57  C   UNL A   1      44.603  32.661  26.047  1.00  0.00     0.031 C 
ATOM     58  C   UNL A   1      41.037  30.769  31.397  1.00  0.00     0.029 A 
ATOM     59  C   UNL A   1      41.777  32.008  31.571  1.00  0.00     0.049 A 
ATOM     60  H   UNL A   1      43.541  32.546  30.599  1.00  0.00     0.167 HD
ATOM     61  C   UNL A   1      46.582  33.664  27.285  1.00  0.00     0.034 A 
ATOM     62  C   UNL A   1      41.552  33.112  32.320  1.00  0.00     0.034 A 
ATOM     63  C   UNL A   1      47.301  33.340  28.501  1.00  0.00     0.049 A 
ATOM     64  C   UNL A   1      42.831  33.875  32.349  1.00  0.00     0.074 A 
ATOM     65  C   UNL A   1      48.172  32.346  28.900  1.00  0.00     0.029 A 
ATOM     66  N   UNL A   1      46.765  33.886  29.646  1.00  0.00    -0.354 N 
ATOM     67  N   UNL A   1      43.925  33.427  32.907  1.00  0.00    -0.248 NA
ATOM     68  C   UNL A   1      43.030  34.946  31.380  1.00  0.00     0.031 C 
ATOM     69  C   UNL A   1      47.900  32.129  30.284  1.00  0.00     0.029 A 
ATOM     70  C   UNL A   1      46.910  33.024  30.699  1.00  0.00     0.049 A 
ATOM     71  H   UNL A   1      46.338  34.772  29.699  1.00  0.00     0.167 HD
ATOM     72  C   UNL A   1      44.945  33.822  32.048  1.00  0.00     0.074 A 
ATOM     73  C   UNL A   1      44.356  34.877  31.229  1.00  0.00     0.031 C 
ATOM     74  C   UNL A   1      46.058  33.045  31.878  1.00  0.00     0.034 A 
BRANCH  61  75
ATOM     75  C   UNL A   1      46.429  35.090  26.823  1.00  0.00     0.023 A 
ATOM     76  C   UNL A   1      47.571  35.683  26.254  1.00  0.00     0.012 A 
ATOM     77  C   UNL A   1      45.353  35.952  27.151  1.00  0.00     0.148 A 
ATOM     78  C   UNL A   1      47.657  37.064  26.066  1.00  0.00     0.002 A 
ATOM     79  C   UNL A   1      45.408  37.310  26.883  1.00  0.00     0.091 A 
ATOM     80  F   UNL A   1      44.315  35.511  27.860  1.00  0.00    -0.205 F 
ATOM     81  C   UNL A   1      46.571  37.878  26.370  1.00  0.00     0.022 A 
BRANCH  79  82
ATOM     82  S   UNL A   1      44.011  38.387  27.231  1.00  0.00     0.127 S 
ATOM     83  O   UNL A   1      44.013  38.403  28.691  1.00  0.00    -0.237 OA
ATOM     84  O   UNL A   1      44.435  39.632  26.592  1.00  0.00    -0.237 OA
ATOM     85  O   UNL A   1      42.855  37.757  26.602  1.00  0.00    -0.744 OA
ENDBRANCH  79  82
ENDBRANCH  61  75
BRANCH  62  86
ATOM     86  C   UNL A   1      40.257  33.725  32.688  1.00  0.00     0.023 A 
ATOM     87  C   UNL A   1      39.519  34.404  31.700  1.00  0.00     0.012 A 
ATOM     88  C   UNL A   1      39.610  33.394  33.900  1.00  0.00     0.148 A 
ATOM     89  C   UNL A   1      38.166  34.705  31.895  1.00  0.00     0.002 A 
ATOM     90  C   UNL A   1      38.267  33.703  34.092  1.00  0.00     0.091 A 
ATOM     91  F   UNL A   1      40.282  32.695  34.825  1.00  0.00    -0.205 F 
ATOM     92  C   UNL A   1      37.538  34.345  33.084  1.00  0.00     0.022 A 
BRANCH  90  93
ATOM     93  S   UNL A   1      37.381  33.247  35.589  1.00  0.00     0.127 S 
ATOM     94  O   UNL A   1      36.056  33.815  35.338  1.00  0.00    -0.237 OA
ATOM     95  O   UNL A   1      37.441  31.789  35.544  1.00  0.00    -0.237 OA
ATOM     96  O   UNL A   1      38.104  33.875  36.688  1.00  0.00    -0.744 OA
ENDBRANCH  90  93
ENDBRANCH  62  86
BRANCH  74  97
ATOM     97  C   UNL A   1      46.331  31.991  32.922  1.00  0.00     0.023 A 
ATOM     98  C   UNL A   1      46.946  32.269  34.160  1.00  0.00     0.012 A 
ATOM     99  C   UNL A   1      45.828  30.699  32.689  1.00  0.00     0.148 A 
ATOM    100  C   UNL A   1      47.075  31.272  35.134  1.00  0.00     0.002 A 
ATOM    101  C   UNL A   1      45.916  29.725  33.674  1.00  0.00     0.091 A 
ATOM    102  F   UNL A   1      45.248  30.451  31.505  1.00  0.00    -0.205 F 
ATOM    103  C   UNL A   1      46.548  30.003  34.895  1.00  0.00     0.022 A 
BRANCH 101 104
ATOM    104  S   UNL A   1      45.151  28.116  33.467  1.00  0.00     0.127 S 
ATOM    105  O   UNL A   1      45.906  27.561  32.346  1.00  0.00    -0.237 OA
ATOM    106  O   UNL A   1      45.410  27.476  34.757  1.00  0.00    -0.237 OA
ATOM    107  O   UNL A   1      43.740  28.374  33.207  1.00  0.00    -0.744 OA
ENDBRANCH 101 104
ENDBRANCH  74  97
ENDBRANCH  48  49
ENDBRANCH  41  43
ENDBRANCH  40  41
ENDBRANCH  39  40
ENDBRANCH  38  39
ENDBRANCH  37  38
ENDBRANCH  36  37
ENDBRANCH   1  36
TORSDOF 26
ENDMDL
MODEL 2
REMARK VINA RESULT:      -9.3      2.541      6.838
REMARK SMILES COC(=O)c1c(NC(=O)[C@@H]2C[C@@H]2C(=O)OCCOCCOCCOC(=O)c2ccc(-c3c4nc(c(-c5cccc(S(=O)(=O)[O-])c5F)c5ccc([nH]5)c(-c5cccc(S(=O)(=O)[O-])c5F)c5nc(c(-c6cccc(S(=O)(=O)[O-])c6F)c6ccc3[nH]6)C=C5)C=C4)cc2)sc2c1CC[N@@H+](Cc1ccccc1)C2
REMARK SMILES IDX 19 1 18 2 17 3 16 4 15 5 13 6 14 7 12 8 10 9 11 10 8 11 7 12
REMARK SMILES IDX 9 14 6 15 5 16 92 17 90 18 91 19 93 20 103 21 94 22 95 23
REMARK SMILES IDX 3 25 4 26 2 27 1 28 96 29 97 30 98 31 102 32 99 33 101 34
REMARK SMILES IDX 100 35 20 36 21 37 22 38 23 39 24 40 25 41 26 42 27 43 28 44
REMARK SMILES IDX 89 45 29 46 88 47 30 48 31 49 32 50 82 51 33 52 87 53 81 54
REMARK SMILES IDX 83 55 34 56 86 57 80 58 79 59 35 61 67 62 47 63 66 64 48 65
REMARK SMILES IDX 51 66 65 67 84 68 49 69 50 70 64 72 85 73 52 74 36 75 37 76
REMARK SMILES IDX 45 77 38 78 40 79 46 80 39 81 41 82 42 83 43 84 44 85 68 86
REMARK SMILES IDX 69 87 77 88 70 89 72 90 78 91 71 92 73 93 74 94 75 95 76 96
REMARK SMILES IDX 53 97 54 98 62 99 55 100 57 101 63 102 56 103 58 104 59 105
REMARK SMILES IDX 60 106 61 107
REMARK H PARENT 7 13 95 24 83 60 51 71
REMARK Flexibility Score: inf
ROOT
ATOM      1  C   UNL A   1      35.648  31.630  29.425  1.00  0.00     0.188 C 
ENDROOT
BRANCH   1   2
ATOM      2  O   UNL A   1      34.116  31.227  28.173  1.00  0.00    -0.376 OA
BRANCH   2   3
ATOM      3  C   UNL A   1      33.669  30.474  26.877  1.00  0.00     0.202 C 
BRANCH   3   4
ATOM      4  C   UNL A   1      33.976  28.947  26.429  1.00  0.00     0.261 C 
BRANCH   4   5
ATOM      5  O   UNL A   1      32.999  28.233  25.588  1.00  0.00    -0.463 OA
BRANCH   5   6
ATOM      6  C   UNL A   1      32.528  28.883  24.488  1.00  0.00     0.309 C 
ATOM      7  O   UNL A   1      33.233  29.211  23.541  1.00  0.00    -0.252 OA
BRANCH   6   8
ATOM      8  C   UNL A   1      31.032  28.977  24.304  1.00  0.00     0.112 C 
ATOM      9  C   UNL A   1      30.469  27.631  23.842  1.00  0.00     0.094 C 
ATOM     10  C   UNL A   1      29.859  28.860  23.357  1.00  0.00     0.030 C 
BRANCH   9  11
ATOM     11  C   UNL A   1      31.198  26.771  22.884  1.00  0.00     0.229 C 
ATOM     12  N   UNL A   1      31.933  25.655  23.182  1.00  0.00    -0.317 N 
ATOM     13  H   UNL A   1      32.145  25.193  22.337  1.00  0.00     0.170 HD
ATOM     14  O   UNL A   1      31.017  27.008  21.689  1.00  0.00    -0.274 OA
BRANCH  12  15
ATOM     15  C   UNL A   1      32.487  24.933  24.218  1.00  0.00     0.110 A 
ATOM     16  C   UNL A   1      32.268  24.078  25.311  1.00  0.00     0.098 A 
ATOM     17  C   UNL A   1      33.546  23.795  25.961  1.00  0.00    -0.006 A 
ATOM     18  S   UNL A   1      34.187  25.252  24.018  1.00  0.00    -0.116 S 
ATOM     19  C   UNL A   1      34.586  24.032  25.090  1.00  0.00     0.065 A 
ATOM     20  C   UNL A   1      33.814  23.064  27.246  1.00  0.00     0.099 C 
ATOM     21  C   UNL A   1      35.913  23.358  25.114  1.00  0.00     0.310 C 
ATOM     22  C   UNL A   1      35.277  22.530  27.284  1.00  0.00     0.267 C 
ATOM     23  N   UNL A   1      35.843  22.185  25.975  1.00  0.00    -0.326 N 
ATOM     24  H   UNL A   1      36.777  21.880  26.251  1.00  0.00     0.348 HD
BRANCH  16  25
ATOM     25  C   UNL A   1      31.031  23.488  25.848  1.00  0.00     0.341 C 
ATOM     26  O   UNL A   1      30.575  22.418  25.467  1.00  0.00    -0.246 OA
BRANCH  25  27
ATOM     27  O   UNL A   1      30.458  24.280  26.808  1.00  0.00    -0.465 OA
ATOM     28  C   UNL A   1      29.255  24.999  26.480  1.00  0.00     0.282 C 
ENDBRANCH  25  27
ENDBRANCH  16  25
BRANCH  23  29
ATOM     29  C   UNL A   1      35.685  20.872  25.338  1.00  0.00     0.299 C 
BRANCH  29  30
ATOM     30  C   UNL A   1      34.426  20.238  24.705  1.00  0.00     0.006 A 
ATOM     31  C   UNL A   1      34.559  18.438  24.618  1.00  0.00     0.009 A 
ATOM     32  C   UNL A   1      33.148  21.043  23.710  1.00  0.00     0.009 A 
ATOM     33  C   UNL A   1      33.528  17.462  23.535  1.00  0.00     0.001 A 
ATOM     34  C   UNL A   1      32.093  20.021  22.540  1.00  0.00     0.001 A 
ATOM     35  C   UNL A   1      32.324  18.240  22.462  1.00  0.00     0.000 A 
ENDBRANCH  29  30
ENDBRANCH  23  29
ENDBRANCH  12  15
ENDBRANCH   9  11
ENDBRANCH   6   8
ENDBRANCH   5   6
ENDBRANCH   4   5
ENDBRANCH   3   4
ENDBRANCH   2   3
ENDBRANCH   1   2
BRANCH   1  36
ATOM     36  C   UNL A   1      36.960  30.854  29.755  1.00  0.00     0.188 C 
BRANCH  36  37
ATOM     37  O   UNL A   1      38.015  30.735  28.829  1.00  0.00    -0.376 OA
BRANCH  37  38
ATOM     38  C   UNL A   1      37.967  29.625  27.929  1.00  0.00     0.202 C 
BRANCH  38  39
ATOM     39  C   UNL A   1      37.822  28.168  28.334  1.00  0.00     0.261 C 
BRANCH  39  40
ATOM     40  O   UNL A   1      39.001  27.638  28.915  1.00  0.00    -0.460 OA
BRANCH  40  41
ATOM     41  C   UNL A   1      39.759  26.925  28.049  1.00  0.00     0.338 C 
ATOM     42  O   UNL A   1      39.416  25.893  27.503  1.00  0.00    -0.246 OA
BRANCH  41  43
ATOM     43  C   UNL A   1      41.136  27.436  28.141  1.00  0.00     0.060 A 
ATOM     44  C   UNL A   1      41.803  26.949  29.246  1.00  0.00     0.016 A 
ATOM     45  C   UNL A   1      41.490  28.647  27.501  1.00  0.00     0.016 A 
ATOM     46  C   UNL A   1      42.429  27.903  29.985  1.00  0.00     0.010 A 
ATOM     47  C   UNL A   1      42.193  29.566  28.187  1.00  0.00     0.010 A 
ATOM     48  C   UNL A   1      42.457  29.213  29.483  1.00  0.00    -0.014 A 
BRANCH  48  49
ATOM     49  C   UNL A   1      42.820  30.269  30.359  1.00  0.00     0.031 A 
ATOM     50  C   UNL A   1      41.663  30.602  31.173  1.00  0.00     0.074 A 
ATOM     51  C   UNL A   1      44.051  30.795  30.359  1.00  0.00     0.049 A 
ATOM     52  N   UNL A   1      40.699  31.365  30.784  1.00  0.00    -0.248 NA
ATOM     53  C   UNL A   1      41.329  29.710  32.292  1.00  0.00     0.031 C 
ATOM     54  C   UNL A   1      45.305  30.266  29.814  1.00  0.00     0.029 A 
ATOM     55  N   UNL A   1      44.431  31.929  30.975  1.00  0.00    -0.354 N 
ATOM     56  C   UNL A   1      39.798  31.301  31.825  1.00  0.00     0.074 A 
ATOM     57  C   UNL A   1      40.054  30.054  32.492  1.00  0.00     0.031 C 
ATOM     58  C   UNL A   1      46.337  30.969  30.344  1.00  0.00     0.029 A 
ATOM     59  C   UNL A   1      45.797  32.072  31.122  1.00  0.00     0.049 A 
ATOM     60  H   UNL A   1      43.788  32.601  31.296  1.00  0.00     0.167 HD
ATOM     61  C   UNL A   1      39.264  32.459  32.290  1.00  0.00     0.034 A 
ATOM     62  C   UNL A   1      46.373  32.990  31.932  1.00  0.00     0.034 A 
ATOM     63  C   UNL A   1      39.513  33.546  31.363  1.00  0.00     0.049 A 
ATOM     64  C   UNL A   1      45.361  34.061  32.150  1.00  0.00     0.074 A 
ATOM     65  C   UNL A   1      39.170  33.830  30.057  1.00  0.00     0.029 A 
ATOM     66  N   UNL A   1      40.619  34.310  31.662  1.00  0.00    -0.354 N 
ATOM     67  N   UNL A   1      44.910  34.833  31.196  1.00  0.00    -0.248 NA
ATOM     68  C   UNL A   1      44.515  33.994  33.336  1.00  0.00     0.031 C 
ATOM     69  C   UNL A   1      40.279  34.548  29.515  1.00  0.00     0.029 A 
ATOM     70  C   UNL A   1      41.241  34.720  30.514  1.00  0.00     0.049 A 
ATOM     71  H   UNL A   1      40.919  34.531  32.574  1.00  0.00     0.167 HD
ATOM     72  C   UNL A   1      43.554  34.971  31.466  1.00  0.00     0.074 A 
ATOM     73  C   UNL A   1      43.408  34.574  32.863  1.00  0.00     0.031 C 
ATOM     74  C   UNL A   1      42.646  35.091  30.450  1.00  0.00     0.034 A 
BRANCH  61  75
ATOM     75  C   UNL A   1      38.987  32.723  33.748  1.00  0.00     0.023 A 
ATOM     76  C   UNL A   1      37.676  33.119  34.068  1.00  0.00     0.012 A 
ATOM     77  C   UNL A   1      39.969  32.870  34.759  1.00  0.00     0.148 A 
ATOM     78  C   UNL A   1      37.368  33.676  35.312  1.00  0.00     0.002 A 
ATOM     79  C   UNL A   1      39.643  33.342  36.019  1.00  0.00     0.091 A 
ATOM     80  F   UNL A   1      41.263  32.699  34.487  1.00  0.00    -0.205 F 
ATOM     81  C   UNL A   1      38.349  33.779  36.292  1.00  0.00     0.022 A 
BRANCH  79  82
ATOM     82  S   UNL A   1      40.877  33.456  37.322  1.00  0.00     0.127 S 
ATOM     83  O   UNL A   1      40.448  34.662  38.025  1.00  0.00    -0.237 OA
ATOM     84  O   UNL A   1      40.658  32.202  38.043  1.00  0.00    -0.237 OA
ATOM     85  O   UNL A   1      42.166  33.536  36.644  1.00  0.00    -0.744 OA
ENDBRANCH  79  82
ENDBRANCH  61  75
BRANCH  62  86
ATOM     86  C   UNL A   1      47.558  32.832  32.803  1.00  0.00     0.023 A 
ATOM     87  C   UNL A   1      48.646  33.710  32.639  1.00  0.00     0.012 A 
ATOM     88  C   UNL A   1      47.507  32.038  33.971  1.00  0.00     0.148 A 
ATOM     89  C   UNL A   1      49.630  33.827  33.628  1.00  0.00     0.002 A 
ATOM     90  C   UNL A   1      48.491  32.153  34.948  1.00  0.00     0.091 A 
ATOM     91  F   UNL A   1      46.447  31.242  34.169  1.00  0.00    -0.205 F 
ATOM     92  C   UNL A   1      49.547  33.058  34.785  1.00  0.00     0.022 A 
BRANCH  90  93
ATOM     93  S   UNL A   1      48.438  31.212  36.479  1.00  0.00     0.127 S 
ATOM     94  O   UNL A   1      48.764  29.863  36.015  1.00  0.00    -0.237 OA
ATOM     95  O   UNL A   1      49.484  31.858  37.267  1.00  0.00    -0.237 OA
ATOM     96  O   UNL A   1      47.081  31.358  36.992  1.00  0.00    -0.744 OA
ENDBRANCH  90  93
ENDBRANCH  62  86
BRANCH  74  97
ATOM     97  C   UNL A   1      43.177  35.474  29.090  1.00  0.00     0.023 A 
ATOM     98  C   UNL A   1      43.348  36.811  28.675  1.00  0.00     0.012 A 
ATOM     99  C   UNL A   1      43.638  34.440  28.257  1.00  0.00     0.148 A 
ATOM    100  C   UNL A   1      43.947  37.105  27.444  1.00  0.00     0.002 A 
ATOM    101  C   UNL A   1      44.273  34.736  27.059  1.00  0.00     0.091 A 
ATOM    102  F   UNL A   1      43.465  33.174  28.668  1.00  0.00    -0.205 F 
ATOM    103  C   UNL A   1      44.421  36.067  26.642  1.00  0.00     0.022 A 
BRANCH 101 104
ATOM    104  S   UNL A   1      45.007  33.448  26.048  1.00  0.00     0.127 S 
ATOM    105  O   UNL A   1      45.890  32.779  26.999  1.00  0.00    -0.237 OA
ATOM    106  O   UNL A   1      43.839  32.666  25.640  1.00  0.00    -0.237 OA
ATOM    107  O   UNL A   1      45.673  34.135  24.948  1.00  0.00    -0.744 OA
ENDBRANCH 101 104
ENDBRANCH  74  97
ENDBRANCH  48  49
ENDBRANCH  41  43
ENDBRANCH  40  41
ENDBRANCH  39  40
ENDBRANCH  38  39
ENDBRANCH  37  38
ENDBRANCH  36  37
ENDBRANCH   1  36
TORSDOF 26
ENDMDL
MODEL 3
REMARK VINA RESULT:      -9.2      4.286      9.003
REMARK SMILES COC(=O)c1c(NC(=O)[C@@H]2C[C@@H]2C(=O)OCCOCCOCCOC(=O)c2ccc(-c3c4nc(c(-c5cccc(S(=O)(=O)[O-])c5F)c5ccc([nH]5)c(-c5cccc(S(=O)(=O)[O-])c5F)c5nc(c(-c6cccc(S(=O)(=O)[O-])c6F)c6ccc3[nH]6)C=C5)C=C4)cc2)sc2c1CC[N@@H+](Cc1ccccc1)C2
REMARK SMILES IDX 19 1 18 2 17 3 16 4 15 5 13 6 14 7 12 8 10 9 11 10 8 11 7 12
REMARK SMILES IDX 9 14 6 15 5 16 92 17 90 18 91 19 93 20 103 21 94 22 95 23
REMARK SMILES IDX 3 25 4 26 2 27 1 28 96 29 97 30 98 31 102 32 99 33 101 34
REMARK SMILES IDX 100 35 20 36 21 37 22 38 23 39 24 40 25 41 26 42 27 43 28 44
REMARK SMILES IDX 89 45 29 46 88 47 30 48 31 49 32 50 82 51 33 52 87 53 81 54
REMARK SMILES IDX 83 55 34 56 86 57 80 58 79 59 35 61 67 62 47 63 66 64 48 65
REMARK SMILES IDX 51 66 65 67 84 68 49 69 50 70 64 72 85 73 52 74 36 75 37 76
REMARK SMILES IDX 45 77 38 78 40 79 46 80 39 81 41 82 42 83 43 84 44 85 68 86
REMARK SMILES IDX 69 87 77 88 70 89 72 90 78 91 71 92 73 93 74 94 75 95 76 96
REMARK SMILES IDX 53 97 54 98 62 99 55 100 57 101 63 102 56 103 58 104 59 105
REMARK SMILES IDX 60 106 61 107
REMARK H PARENT 7 13 95 24 83 60 51 71
REMARK Flexibility Score: inf
ROOT
ATOM      1  C   UNL A   1      36.679  31.282  30.071  1.00  0.00     0.188 C 
ENDROOT
BRANCH   1   2
ATOM      2  O   UNL A   1      35.129  31.385  28.783  1.00  0.00    -0.376 OA
BRANCH   2   3
ATOM      3  C   UNL A   1      34.583  30.960  27.380  1.00  0.00     0.202 C 
BRANCH   3   4
ATOM      4  C   UNL A   1      33.305  30.030  27.021  1.00  0.00     0.261 C 
BRANCH   4   5
ATOM      5  O   UNL A   1      32.644  30.187  25.715  1.00  0.00    -0.463 OA
BRANCH   5   6
ATOM      6  C   UNL A   1      32.741  29.150  24.836  1.00  0.00     0.309 C 
ATOM      7  O   UNL A   1      33.762  28.492  24.676  1.00  0.00    -0.252 OA
BRANCH   6   8
ATOM      8  C   UNL A   1      31.470  28.619  24.218  1.00  0.00     0.112 C 
ATOM      9  C   UNL A   1      30.620  27.913  25.277  1.00  0.00     0.094 C 
ATOM     10  C   UNL A   1      30.615  27.410  23.913  1.00  0.00     0.030 C 
BRANCH   9  11
ATOM     11  C   UNL A   1      31.232  27.086  26.341  1.00  0.00     0.229 C 
ATOM     12  N   UNL A   1      31.838  25.869  26.185  1.00  0.00    -0.317 N 
ATOM     13  H   UNL A   1      32.305  25.649  27.024  1.00  0.00     0.170 HD
ATOM     14  O   UNL A   1      31.322  27.608  27.454  1.00  0.00    -0.274 OA
BRANCH  12  15
ATOM     15  C   UNL A   1      32.040  24.834  25.296  1.00  0.00     0.110 A 
ATOM     16  C   UNL A   1      32.680  24.390  24.127  1.00  0.00     0.098 A 
ATOM     17  C   UNL A   1      32.259  23.020  23.842  1.00  0.00    -0.006 A 
ATOM     18  S   UNL A   1      31.070  23.563  25.986  1.00  0.00    -0.116 S 
ATOM     19  C   UNL A   1      31.772  22.424  24.984  1.00  0.00     0.065 A 
ATOM     20  C   UNL A   1      32.544  22.173  22.634  1.00  0.00     0.099 C 
ATOM     21  C   UNL A   1      31.796  20.967  25.283  1.00  0.00     0.310 C 
ATOM     22  C   UNL A   1      32.384  20.660  22.968  1.00  0.00     0.267 C 
ATOM     23  N   UNL A   1      32.697  20.297  24.355  1.00  0.00    -0.326 N 
ATOM     24  H   UNL A   1      32.515  19.293  24.330  1.00  0.00     0.348 HD
BRANCH  16  25
ATOM     25  C   UNL A   1      33.626  25.064  23.224  1.00  0.00     0.341 C 
ATOM     26  O   UNL A   1      34.821  24.796  23.179  1.00  0.00    -0.246 OA
BRANCH  25  27
ATOM     27  O   UNL A   1      33.016  26.022  22.459  1.00  0.00    -0.465 OA
ATOM     28  C   UNL A   1      32.449  25.637  21.194  1.00  0.00     0.282 C 
ENDBRANCH  25  27
ENDBRANCH  16  25
BRANCH  23  29
ATOM     29  C   UNL A   1      34.048  19.963  24.826  1.00  0.00     0.299 C 
BRANCH  29  30
ATOM     30  C   UNL A   1      35.310  20.852  24.884  1.00  0.00     0.006 A 
ATOM     31  C   UNL A   1      36.821  19.872  24.733  1.00  0.00     0.009 A 
ATOM     32  C   UNL A   1      35.457  22.550  25.490  1.00  0.00     0.009 A 
ATOM     33  C   UNL A   1      38.415  20.505  25.233  1.00  0.00     0.001 A 
ATOM     34  C   UNL A   1      37.126  23.199  26.056  1.00  0.00     0.001 A 
ATOM     35  C   UNL A   1      38.577  22.144  25.934  1.00  0.00     0.000 A 
ENDBRANCH  29  30
ENDBRANCH  23  29
ENDBRANCH  12  15
ENDBRANCH   9  11
ENDBRANCH   6   8
ENDBRANCH   5   6
ENDBRANCH   4   5
ENDBRANCH   3   4
ENDBRANCH   2   3
ENDBRANCH   1   2
BRANCH   1  36
ATOM     36  C   UNL A   1      38.083  30.609  29.966  1.00  0.00     0.188 C 
BRANCH  36  37
ATOM     37  O   UNL A   1      38.651  30.248  28.728  1.00  0.00    -0.376 OA
BRANCH  37  38
ATOM     38  C   UNL A   1      38.610  28.864  28.375  1.00  0.00     0.202 C 
BRANCH  38  39
ATOM     39  C   UNL A   1      38.975  27.709  29.292  1.00  0.00     0.261 C 
BRANCH  39  40
ATOM     40  O   UNL A   1      40.201  27.091  28.939  1.00  0.00    -0.460 OA
BRANCH  40  41
ATOM     41  C   UNL A   1      40.118  26.314  27.833  1.00  0.00     0.338 C 
ATOM     42  O   UNL A   1      39.332  25.397  27.679  1.00  0.00    -0.246 OA
BRANCH  41  43
ATOM     43  C   UNL A   1      41.320  26.565  27.024  1.00  0.00     0.060 A 
ATOM     44  C   UNL A   1      42.048  25.416  26.796  1.00  0.00     0.016 A 
ATOM     45  C   UNL A   1      41.892  27.859  26.980  1.00  0.00     0.016 A 
ATOM     46  C   UNL A   1      43.378  25.537  27.055  1.00  0.00     0.010 A 
ATOM     47  C   UNL A   1      43.221  27.990  27.142  1.00  0.00     0.010 A 
ATOM     48  C   UNL A   1      43.874  26.810  27.373  1.00  0.00    -0.014 A 
BRANCH  48  49
ATOM     49  C   UNL A   1      45.169  26.912  27.943  1.00  0.00     0.031 A 
ATOM     50  C   UNL A   1      45.091  26.474  29.327  1.00  0.00     0.074 A 
ATOM     51  C   UNL A   1      46.221  27.345  27.238  1.00  0.00     0.049 A 
ATOM     52  N   UNL A   1      44.691  27.219  30.301  1.00  0.00    -0.248 NA
ATOM     53  C   UNL A   1      45.024  25.030  29.589  1.00  0.00     0.031 C 
ATOM     54  C   UNL A   1      46.404  27.459  25.787  1.00  0.00     0.029 A 
ATOM     55  N   UNL A   1      47.423  27.690  27.732  1.00  0.00    -0.354 N 
ATOM     56  C   UNL A   1      44.682  26.361  31.380  1.00  0.00     0.074 A 
ATOM     57  C   UNL A   1      44.534  25.040  30.832  1.00  0.00     0.031 C 
ATOM     58  C   UNL A   1      47.726  27.613  25.530  1.00  0.00     0.029 A 
ATOM     59  C   UNL A   1      48.432  27.764  26.792  1.00  0.00     0.049 A 
ATOM     60  H   UNL A   1      47.572  27.875  28.688  1.00  0.00     0.167 HD
ATOM     61  C   UNL A   1      45.245  26.778  32.542  1.00  0.00     0.034 A 
ATOM     62  C   UNL A   1      49.746  27.832  27.104  1.00  0.00     0.034 A 
ATOM     63  C   UNL A   1      45.474  28.209  32.516  1.00  0.00     0.049 A 
ATOM     64  C   UNL A   1      49.826  28.340  28.502  1.00  0.00     0.074 A 
ATOM     65  C   UNL A   1      44.683  29.335  32.415  1.00  0.00     0.029 A 
ATOM     66  N   UNL A   1      46.746  28.578  32.141  1.00  0.00    -0.354 N 
ATOM     67  N   UNL A   1      49.433  29.535  28.858  1.00  0.00    -0.248 NA
ATOM     68  C   UNL A   1      49.932  27.378  29.591  1.00  0.00     0.031 C 
ATOM     69  C   UNL A   1      45.459  30.286  31.686  1.00  0.00     0.029 A 
ATOM     70  C   UNL A   1      46.711  29.733  31.407  1.00  0.00     0.049 A 
ATOM     71  H   UNL A   1      47.566  28.081  32.368  1.00  0.00     0.167 HD
ATOM     72  C   UNL A   1      48.818  29.350  30.092  1.00  0.00     0.074 A 
ATOM     73  C   UNL A   1      49.296  28.051  30.556  1.00  0.00     0.031 C 
ATOM     74  C   UNL A   1      47.750  30.118  30.464  1.00  0.00     0.034 A 
BRANCH  61  75
ATOM     75  C   UNL A   1      46.037  25.876  33.454  1.00  0.00     0.023 A 
ATOM     76  C   UNL A   1      47.406  25.742  33.158  1.00  0.00     0.012 A 
ATOM     77  C   UNL A   1      45.488  24.962  34.388  1.00  0.00     0.148 A 
ATOM     78  C   UNL A   1      48.176  24.723  33.725  1.00  0.00     0.002 A 
ATOM     79  C   UNL A   1      46.275  24.009  35.013  1.00  0.00     0.091 A 
ATOM     80  F   UNL A   1      44.172  24.894  34.586  1.00  0.00    -0.205 F 
ATOM     81  C   UNL A   1      47.614  23.862  34.660  1.00  0.00     0.022 A 
BRANCH  79  82
ATOM     82  S   UNL A   1      45.591  22.901  36.253  1.00  0.00     0.127 S 
ATOM     83  O   UNL A   1      46.775  22.149  36.657  1.00  0.00    -0.237 OA
ATOM     84  O   UNL A   1      45.085  23.849  37.246  1.00  0.00    -0.237 OA
ATOM     85  O   UNL A   1      44.550  22.137  35.575  1.00  0.00    -0.744 OA
ENDBRANCH  79  82
ENDBRANCH  61  75
BRANCH  62  86
ATOM     86  C   UNL A   1      50.884  27.161  26.439  1.00  0.00     0.023 A 
ATOM     87  C   UNL A   1      51.231  25.855  26.834  1.00  0.00     0.012 A 
ATOM     88  C   UNL A   1      51.431  27.666  25.237  1.00  0.00     0.148 A 
ATOM     89  C   UNL A   1      52.059  25.059  26.035  1.00  0.00     0.002 A 
ATOM     90  C   UNL A   1      52.260  26.873  24.450  1.00  0.00     0.091 A 
ATOM     91  F   UNL A   1      51.063  28.884  24.818  1.00  0.00    -0.205 F 
ATOM     92  C   UNL A   1      52.564  25.563  24.839  1.00  0.00     0.022 A 
BRANCH  90  93
ATOM     93  S   UNL A   1      52.927  27.444  22.881  1.00  0.00     0.127 S 
ATOM     94  O   UNL A   1      53.774  28.560  23.304  1.00  0.00    -0.237 OA
ATOM     95  O   UNL A   1      53.654  26.266  22.415  1.00  0.00    -0.237 OA
ATOM     96  O   UNL A   1      51.778  27.836  22.075  1.00  0.00    -0.744 OA
ENDBRANCH  90  93
ENDBRANCH  62  86
BRANCH  74  97
ATOM     97  C   UNL A   1      47.525  31.403  29.706  1.00  0.00     0.023 A 
ATOM     98  C   UNL A   1      48.244  32.589  29.963  1.00  0.00     0.012 A 
ATOM     99  C   UNL A   1      46.644  31.367  28.611  1.00  0.00     0.148 A 
ATOM    100  C   UNL A   1      48.069  33.719  29.156  1.00  0.00     0.002 A 
ATOM    101  C   UNL A   1      46.509  32.474  27.785  1.00  0.00     0.091 A 
ATOM    102  F   UNL A   1      45.967  30.232  28.383  1.00  0.00    -0.205 F 
ATOM    103  C   UNL A   1      47.211  33.657  28.058  1.00  0.00     0.022 A 
BRANCH 101 104
ATOM    104  S   UNL A   1      45.511  32.410  26.295  1.00  0.00     0.127 S 
ATOM    105  O   UNL A   1      44.154  32.437  26.834  1.00  0.00    -0.237 OA
ATOM    106  O   UNL A   1      45.916  33.629  25.593  1.00  0.00    -0.237 OA
ATOM    107  O   UNL A   1      45.892  31.180  25.612  1.00  0.00    -0.744 OA
ENDBRANCH 101 104
ENDBRANCH  74  97
ENDBRANCH  48  49
ENDBRANCH  41  43
ENDBRANCH  40  41
ENDBRANCH  39  40
ENDBRANCH  38  39
ENDBRANCH  37  38
ENDBRANCH  36  37
ENDBRANCH   1  36
TORSDOF 26
ENDMDL
