MODEL 1
REMARK VINA RESULT:      -9.5      0.000      0.000
REMARK SMILES C[C@@H](Nc1cccc(Cl)c1)[C@@H](C)C(=O)OCCOCCOCCOC(=O)c1ccc(-c2c3nc(c(-c4cccc(S(=O)(=O)[O-])c4F)c4ccc([nH]4)c(-c4cccc(S(=O)(=O)[O-])c4F)c4nc(c(-c5cccc(S(=O)(=O)[O-])c5F)c5ccc2[nH]5)C=C4)C=C3)cc1
REMARK SMILES IDX 19 1 18 2 17 3 16 4 15 5 13 6 14 7 11 8 12 9 2 10 1 11 3 12
REMARK SMILES IDX 4 14 5 15 10 16 6 17 8 18 7 19 9 20 20 21 21 22 22 23 23 24
REMARK SMILES IDX 24 25 25 26 26 27 27 28 28 29 89 30 29 31 88 32 30 33 31 34
REMARK SMILES IDX 32 35 82 36 33 37 87 38 81 39 83 40 34 41 86 42 80 43 79 44
REMARK SMILES IDX 35 46 67 47 47 48 66 49 48 50 51 51 65 52 84 53 49 54 50 55
REMARK SMILES IDX 64 57 85 58 52 59 36 60 37 61 45 62 38 63 40 64 46 65 39 66
REMARK SMILES IDX 41 67 42 68 43 69 44 70 68 71 69 72 77 73 70 74 72 75 78 76
REMARK SMILES IDX 71 77 73 78 74 79 75 80 76 81 53 82 54 83 62 84 55 85 57 86
REMARK SMILES IDX 63 87 56 88 58 89 59 90 60 91 61 92
REMARK H PARENT 3 13 83 45 51 56
REMARK Flexibility Score: inf
ROOT
ATOM      1  C   UNL A   1      32.059  28.392  26.097  1.00  0.00     0.188 C 
ENDROOT
BRANCH   1   2
ATOM      2  O   UNL A   1      31.319  27.227  25.725  1.00  0.00    -0.376 OA
BRANCH   2   3
ATOM      3  C   UNL A   1      31.094  27.144  24.309  1.00  0.00     0.202 C 
BRANCH   3   4
ATOM      4  C   UNL A   1      30.173  25.975  23.962  1.00  0.00     0.261 C 
BRANCH   4   5
ATOM      5  O   UNL A   1      30.202  24.917  24.941  1.00  0.00    -0.463 OA
BRANCH   5   6
ATOM      6  C   UNL A   1      30.955  23.824  24.640  1.00  0.00     0.310 C 
ATOM      7  O   UNL A   1      31.332  23.541  23.510  1.00  0.00    -0.252 OA
BRANCH   6   8
ATOM      8  C   UNL A   1      31.084  22.881  25.832  1.00  0.00     0.118 C 
ATOM      9  C   UNL A   1      30.092  23.403  26.882  1.00  0.00     0.022 C 
BRANCH   8  10
ATOM     10  C   UNL A   1      32.533  22.742  26.347  1.00  0.00     0.090 C 
ATOM     11  C   UNL A   1      32.604  22.248  27.804  1.00  0.00     0.031 C 
BRANCH  10  12
ATOM     12  N   UNL A   1      33.439  21.860  25.581  1.00  0.00    -0.382 N 
ATOM     13  H   UNL A   1      33.138  20.926  25.492  1.00  0.00     0.160 HD
BRANCH  12  14
ATOM     14  C   UNL A   1      34.644  22.146  24.973  1.00  0.00     0.036 A 
ATOM     15  C   UNL A   1      34.759  22.736  23.716  1.00  0.00     0.026 A 
ATOM     16  C   UNL A   1      35.838  21.868  25.648  1.00  0.00     0.046 A 
ATOM     17  C   UNL A   1      36.007  23.079  23.177  1.00  0.00     0.004 A 
ATOM     18  C   UNL A   1      37.085  22.234  25.135  1.00  0.00     0.043 A 
ATOM     19  C   UNL A   1      37.175  22.840  23.894  1.00  0.00     0.020 A 
ATOM     20  Cl  UNL A   1      38.508  21.986  26.069  1.00  0.00    -0.084 Cl
ENDBRANCH  12  14
ENDBRANCH  10  12
ENDBRANCH   8  10
ENDBRANCH   6   8
ENDBRANCH   5   6
ENDBRANCH   4   5
ENDBRANCH   3   4
ENDBRANCH   2   3
ENDBRANCH   1   2
BRANCH   1  21
ATOM     21  C   UNL A   1      31.872  29.538  25.092  1.00  0.00     0.188 C 
BRANCH  21  22
ATOM     22  O   UNL A   1      31.417  30.805  25.563  1.00  0.00    -0.376 OA
BRANCH  22  23
ATOM     23  C   UNL A   1      31.869  31.218  26.840  1.00  0.00     0.202 C 
BRANCH  23  24
ATOM     24  C   UNL A   1      31.783  32.711  27.186  1.00  0.00     0.261 C 
BRANCH  24  25
ATOM     25  O   UNL A   1      33.020  33.431  27.248  1.00  0.00    -0.460 OA
BRANCH  25  26
ATOM     26  C   UNL A   1      33.165  34.256  28.324  1.00  0.00     0.338 C 
ATOM     27  O   UNL A   1      32.478  35.210  28.619  1.00  0.00    -0.246 OA
BRANCH  26  28
ATOM     28  C   UNL A   1      34.330  33.795  29.117  1.00  0.00     0.060 A 
ATOM     29  C   UNL A   1      35.617  34.250  28.804  1.00  0.00     0.016 A 
ATOM     30  C   UNL A   1      34.140  32.913  30.184  1.00  0.00     0.016 A 
ATOM     31  C   UNL A   1      36.707  33.863  29.598  1.00  0.00     0.010 A 
ATOM     32  C   UNL A   1      35.228  32.521  30.968  1.00  0.00     0.010 A 
ATOM     33  C   UNL A   1      36.520  32.993  30.685  1.00  0.00    -0.014 A 
BRANCH  33  34
ATOM     34  C   UNL A   1      37.672  32.423  31.431  1.00  0.00     0.031 A 
ATOM     35  C   UNL A   1      38.394  31.249  30.831  1.00  0.00     0.074 A 
ATOM     36  C   UNL A   1      38.032  32.869  32.650  1.00  0.00     0.049 A 
ATOM     37  N   UNL A   1      39.416  30.579  31.293  1.00  0.00    -0.248 NA
ATOM     38  C   UNL A   1      37.887  30.764  29.536  1.00  0.00     0.031 C 
ATOM     39  C   UNL A   1      37.405  33.976  33.364  1.00  0.00     0.029 A 
ATOM     40  N   UNL A   1      38.998  32.418  33.519  1.00  0.00    -0.354 N 
ATOM     41  C   UNL A   1      39.674  29.593  30.351  1.00  0.00     0.074 A 
ATOM     42  C   UNL A   1      38.682  29.731  29.306  1.00  0.00     0.031 C 
ATOM     43  C   UNL A   1      37.971  34.096  34.579  1.00  0.00     0.029 A 
ATOM     44  C   UNL A   1      39.008  33.077  34.729  1.00  0.00     0.049 A 
ATOM     45  H   UNL A   1      39.624  31.692  33.297  1.00  0.00     0.167 HD
ATOM     46  C   UNL A   1      40.662  28.668  30.336  1.00  0.00     0.034 A 
ATOM     47  C   UNL A   1      39.769  32.878  35.825  1.00  0.00     0.034 A 
ATOM     48  C   UNL A   1      41.638  28.507  31.374  1.00  0.00     0.049 A 
ATOM     49  C   UNL A   1      40.843  31.814  35.799  1.00  0.00     0.074 A 
ATOM     50  C   UNL A   1      42.694  27.616  31.433  1.00  0.00     0.029 A 
ATOM     51  N   UNL A   1      41.663  29.238  32.551  1.00  0.00    -0.354 N 
ATOM     52  N   UNL A   1      41.196  31.016  34.819  1.00  0.00    -0.248 NA
ATOM     53  C   UNL A   1      41.655  31.653  37.017  1.00  0.00     0.031 C 
ATOM     54  C   UNL A   1      43.346  27.793  32.657  1.00  0.00     0.029 A 
ATOM     55  C   UNL A   1      42.708  28.811  33.350  1.00  0.00     0.049 A 
ATOM     56  H   UNL A   1      41.030  29.955  32.784  1.00  0.00     0.167 HD
ATOM     57  C   UNL A   1      42.298  30.302  35.283  1.00  0.00     0.074 A 
ATOM     58  C   UNL A   1      42.563  30.767  36.627  1.00  0.00     0.031 C 
ATOM     59  C   UNL A   1      43.016  29.338  34.655  1.00  0.00     0.034 A 
BRANCH  46  60
ATOM     60  C   UNL A   1      40.737  27.785  29.123  1.00  0.00     0.023 A 
ATOM     61  C   UNL A   1      39.950  26.616  29.076  1.00  0.00     0.012 A 
ATOM     62  C   UNL A   1      41.593  28.093  28.050  1.00  0.00     0.148 A 
ATOM     63  C   UNL A   1      40.048  25.739  27.998  1.00  0.00     0.002 A 
ATOM     64  C   UNL A   1      41.657  27.232  26.961  1.00  0.00     0.091 A 
ATOM     65  F   UNL A   1      42.347  29.198  28.128  1.00  0.00    -0.205 F 
ATOM     66  C   UNL A   1      40.897  26.050  26.939  1.00  0.00     0.022 A 
BRANCH  64  67
ATOM     67  S   UNL A   1      42.685  27.562  25.527  1.00  0.00     0.127 S 
ATOM     68  O   UNL A   1      42.076  28.784  25.003  1.00  0.00    -0.237 OA
ATOM     69  O   UNL A   1      44.004  27.750  26.133  1.00  0.00    -0.237 OA
ATOM     70  O   UNL A   1      42.571  26.391  24.671  1.00  0.00    -0.744 OA
ENDBRANCH  64  67
ENDBRANCH  46  60
BRANCH  47  71
ATOM     71  C   UNL A   1      39.613  33.743  37.034  1.00  0.00     0.023 A 
ATOM     72  C   UNL A   1      40.246  35.002  37.061  1.00  0.00     0.012 A 
ATOM     73  C   UNL A   1      38.892  33.314  38.164  1.00  0.00     0.148 A 
ATOM     74  C   UNL A   1      40.206  35.797  38.208  1.00  0.00     0.002 A 
ATOM     75  C   UNL A   1      38.818  34.132  39.288  1.00  0.00     0.091 A 
ATOM     76  F   UNL A   1      38.306  32.109  38.127  1.00  0.00    -0.205 F 
ATOM     77  C   UNL A   1      39.490  35.364  39.319  1.00  0.00     0.022 A 
BRANCH  75  78
ATOM     78  S   UNL A   1      37.842  33.706  40.736  1.00  0.00     0.127 S 
ATOM     79  O   UNL A   1      38.809  32.967  41.543  1.00  0.00    -0.237 OA
ATOM     80  O   UNL A   1      37.485  35.026  41.257  1.00  0.00    -0.237 OA
ATOM     81  O   UNL A   1      36.713  32.935  40.234  1.00  0.00    -0.744 OA
ENDBRANCH  75  78
ENDBRANCH  47  71
BRANCH  59  82
ATOM     82  C   UNL A   1      44.199  28.742  35.374  1.00  0.00     0.023 A 
ATOM     83  C   UNL A   1      45.474  29.323  35.231  1.00  0.00     0.012 A 
ATOM     84  C   UNL A   1      44.021  27.684  36.289  1.00  0.00     0.148 A 
ATOM     85  C   UNL A   1      46.556  28.851  35.975  1.00  0.00     0.002 A 
ATOM     86  C   UNL A   1      45.091  27.252  37.062  1.00  0.00     0.091 A 
ATOM     87  F   UNL A   1      42.804  27.129  36.395  1.00  0.00    -0.205 F 
ATOM     88  C   UNL A   1      46.361  27.829  36.901  1.00  0.00     0.022 A 
BRANCH  86  89
ATOM     89  S   UNL A   1      44.906  26.017  38.356  1.00  0.00     0.127 S 
ATOM     90  O   UNL A   1      46.295  25.793  38.756  1.00  0.00    -0.237 OA
ATOM     91  O   UNL A   1      44.094  26.723  39.348  1.00  0.00    -0.237 OA
ATOM     92  O   UNL A   1      44.243  24.881  37.733  1.00  0.00    -0.744 OA
ENDBRANCH  86  89
ENDBRANCH  59  82
ENDBRANCH  33  34
ENDBRANCH  26  28
ENDBRANCH  25  26
ENDBRANCH  24  25
ENDBRANCH  23  24
ENDBRANCH  22  23
ENDBRANCH  21  22
ENDBRANCH   1  21
TORSDOF 23
ENDMDL
MODEL 2
REMARK VINA RESULT:      -9.4      2.623      3.630
REMARK SMILES C[C@@H](Nc1cccc(Cl)c1)[C@@H](C)C(=O)OCCOCCOCCOC(=O)c1ccc(-c2c3nc(c(-c4cccc(S(=O)(=O)[O-])c4F)c4ccc([nH]4)c(-c4cccc(S(=O)(=O)[O-])c4F)c4nc(c(-c5cccc(S(=O)(=O)[O-])c5F)c5ccc2[nH]5)C=C4)C=C3)cc1
REMARK SMILES IDX 19 1 18 2 17 3 16 4 15 5 13 6 14 7 11 8 12 9 2 10 1 11 3 12
REMARK SMILES IDX 4 14 5 15 10 16 6 17 8 18 7 19 9 20 20 21 21 22 22 23 23 24
REMARK SMILES IDX 24 25 25 26 26 27 27 28 28 29 89 30 29 31 88 32 30 33 31 34
REMARK SMILES IDX 32 35 82 36 33 37 87 38 81 39 83 40 34 41 86 42 80 43 79 44
REMARK SMILES IDX 35 46 67 47 47 48 66 49 48 50 51 51 65 52 84 53 49 54 50 55
REMARK SMILES IDX 64 57 85 58 52 59 36 60 37 61 45 62 38 63 40 64 46 65 39 66
REMARK SMILES IDX 41 67 42 68 43 69 44 70 68 71 69 72 77 73 70 74 72 75 78 76
REMARK SMILES IDX 71 77 73 78 74 79 75 80 76 81 53 82 54 83 62 84 55 85 57 86
REMARK SMILES IDX 63 87 56 88 58 89 59 90 60 91 61 92
REMARK H PARENT 3 13 83 45 51 56
REMARK Flexibility Score: inf
ROOT
ATOM      1  C   UNL A   1      31.936  25.073  26.721  1.00  0.00     0.188 C 
ENDROOT
BRANCH   1   2
ATOM      2  O   UNL A   1      31.505  23.896  27.409  1.00  0.00    -0.376 OA
BRANCH   2   3
ATOM      3  C   UNL A   1      30.450  23.208  26.719  1.00  0.00     0.202 C 
BRANCH   3   4
ATOM      4  C   UNL A   1      31.004  22.327  25.600  1.00  0.00     0.261 C 
BRANCH   4   5
ATOM      5  O   UNL A   1      32.203  21.618  25.973  1.00  0.00    -0.463 OA
BRANCH   5   6
ATOM      6  C   UNL A   1      32.689  20.720  25.074  1.00  0.00     0.310 C 
ATOM      7  O   UNL A   1      32.148  19.654  24.809  1.00  0.00    -0.252 OA
BRANCH   6   8
ATOM      8  C   UNL A   1      34.092  21.092  24.605  1.00  0.00     0.118 C 
ATOM      9  C   UNL A   1      34.959  19.852  24.867  1.00  0.00     0.022 C 
BRANCH   8  10
ATOM     10  C   UNL A   1      34.629  22.387  25.251  1.00  0.00     0.090 C 
ATOM     11  C   UNL A   1      36.103  22.662  24.900  1.00  0.00     0.031 C 
BRANCH  10  12
ATOM     12  N   UNL A   1      33.906  23.641  24.951  1.00  0.00    -0.382 N 
ATOM     13  H   UNL A   1      33.565  24.126  25.739  1.00  0.00     0.160 HD
BRANCH  12  14
ATOM     14  C   UNL A   1      33.635  24.235  23.736  1.00  0.00     0.036 A 
ATOM     15  C   UNL A   1      33.135  23.552  22.631  1.00  0.00     0.026 A 
ATOM     16  C   UNL A   1      33.835  25.613  23.585  1.00  0.00     0.046 A 
ATOM     17  C   UNL A   1      32.802  24.218  21.443  1.00  0.00     0.004 A 
ATOM     18  C   UNL A   1      33.477  26.292  22.418  1.00  0.00     0.043 A 
ATOM     19  C   UNL A   1      32.960  25.595  21.339  1.00  0.00     0.020 A 
ATOM     20  Cl  UNL A   1      33.623  28.004  22.337  1.00  0.00    -0.084 Cl
ENDBRANCH  12  14
ENDBRANCH  10  12
ENDBRANCH   8  10
ENDBRANCH   6   8
ENDBRANCH   5   6
ENDBRANCH   4   5
ENDBRANCH   3   4
ENDBRANCH   2   3
ENDBRANCH   1   2
BRANCH   1  21
ATOM     21  C   UNL A   1      30.751  25.927  26.244  1.00  0.00     0.188 C 
BRANCH  21  22
ATOM     22  O   UNL A   1      30.652  27.280  26.682  1.00  0.00    -0.376 OA
BRANCH  22  23
ATOM     23  C   UNL A   1      31.833  28.059  26.640  1.00  0.00     0.202 C 
BRANCH  23  24
ATOM     24  C   UNL A   1      31.739  29.479  26.063  1.00  0.00     0.261 C 
BRANCH  24  25
ATOM     25  O   UNL A   1      32.965  30.209  25.944  1.00  0.00    -0.460 OA
BRANCH  25  26
ATOM     26  C   UNL A   1      33.167  31.176  26.885  1.00  0.00     0.338 C 
ATOM     27  O   UNL A   1      32.455  32.125  27.131  1.00  0.00    -0.246 OA
BRANCH  26  28
ATOM     28  C   UNL A   1      34.435  30.881  27.596  1.00  0.00     0.060 A 
ATOM     29  C   UNL A   1      34.734  29.568  27.982  1.00  0.00     0.016 A 
ATOM     30  C   UNL A   1      35.335  31.914  27.872  1.00  0.00     0.016 A 
ATOM     31  C   UNL A   1      35.964  29.284  28.595  1.00  0.00     0.010 A 
ATOM     32  C   UNL A   1      36.554  31.630  28.491  1.00  0.00     0.010 A 
ATOM     33  C   UNL A   1      36.881  30.314  28.856  1.00  0.00    -0.014 A 
BRANCH  33  34
ATOM     34  C   UNL A   1      38.107  30.077  29.663  1.00  0.00     0.031 A 
ATOM     35  C   UNL A   1      39.127  29.107  29.135  1.00  0.00     0.074 A 
ATOM     36  C   UNL A   1      38.289  30.636  30.875  1.00  0.00     0.049 A 
ATOM     37  N   UNL A   1      40.264  28.732  29.659  1.00  0.00    -0.248 NA
ATOM     38  C   UNL A   1      38.815  28.472  27.844  1.00  0.00     0.031 C 
ATOM     39  C   UNL A   1      37.373  31.568  31.524  1.00  0.00     0.029 A 
ATOM     40  N   UNL A   1      39.299  30.470  31.794  1.00  0.00    -0.354 N 
ATOM     41  C   UNL A   1      40.803  27.817  28.766  1.00  0.00     0.074 A 
ATOM     42  C   UNL A   1      39.854  27.668  27.683  1.00  0.00     0.031 C 
ATOM     43  C   UNL A   1      37.838  31.864  32.752  1.00  0.00     0.029 A 
ATOM     44  C   UNL A   1      39.091  31.146  32.977  1.00  0.00     0.049 A 
ATOM     45  H   UNL A   1      40.097  29.921  31.623  1.00  0.00     0.167 HD
ATOM     46  C   UNL A   1      41.992  27.173  28.821  1.00  0.00     0.034 A 
ATOM     47  C   UNL A   1      39.829  31.179  34.106  1.00  0.00     0.034 A 
ATOM     48  C   UNL A   1      42.931  27.296  29.898  1.00  0.00     0.049 A 
ATOM     49  C   UNL A   1      41.137  30.421  34.159  1.00  0.00     0.074 A 
ATOM     50  C   UNL A   1      44.174  26.703  30.028  1.00  0.00     0.029 A 
ATOM     51  N   UNL A   1      42.720  28.044  31.045  1.00  0.00    -0.354 N 
ATOM     52  N   UNL A   1      41.722  29.711  33.224  1.00  0.00    -0.248 NA
ATOM     53  C   UNL A   1      41.910  30.508  35.409  1.00  0.00     0.031 C 
ATOM     54  C   UNL A   1      44.707  27.077  31.266  1.00  0.00     0.029 A 
ATOM     55  C   UNL A   1      43.803  27.919  31.896  1.00  0.00     0.049 A 
ATOM     56  H   UNL A   1      41.917  28.583  31.228  1.00  0.00     0.167 HD
ATOM     57  C   UNL A   1      42.947  29.314  33.753  1.00  0.00     0.074 A 
ATOM     58  C   UNL A   1      43.028  29.870  35.087  1.00  0.00     0.031 C 
ATOM     59  C   UNL A   1      43.912  28.546  33.189  1.00  0.00     0.034 A 
BRANCH  46  60
ATOM     60  C   UNL A   1      42.340  26.303  27.648  1.00  0.00     0.023 A 
ATOM     61  C   UNL A   1      43.022  26.870  26.552  1.00  0.00     0.012 A 
ATOM     62  C   UNL A   1      41.976  24.944  27.615  1.00  0.00     0.148 A 
ATOM     63  C   UNL A   1      43.298  26.108  25.418  1.00  0.00     0.002 A 
ATOM     64  C   UNL A   1      42.288  24.182  26.495  1.00  0.00     0.091 A 
ATOM     65  F   UNL A   1      41.308  24.435  28.659  1.00  0.00    -0.205 F 
ATOM     66  C   UNL A   1      42.935  24.765  25.392  1.00  0.00     0.022 A 
BRANCH  64  67
ATOM     67  S   UNL A   1      41.903  22.433  26.380  1.00  0.00     0.127 S 
ATOM     68  O   UNL A   1      40.448  22.459  26.239  1.00  0.00    -0.237 OA
ATOM     69  O   UNL A   1      42.626  22.039  25.170  1.00  0.00    -0.237 OA
ATOM     70  O   UNL A   1      42.401  21.830  27.608  1.00  0.00    -0.744 OA
ENDBRANCH  64  67
ENDBRANCH  46  60
BRANCH  47  71
ATOM     71  C   UNL A   1      39.407  32.011  35.273  1.00  0.00     0.023 A 
ATOM     72  C   UNL A   1      38.480  31.480  36.193  1.00  0.00     0.012 A 
ATOM     73  C   UNL A   1      39.872  33.327  35.453  1.00  0.00     0.148 A 
ATOM     74  C   UNL A   1      37.987  32.260  37.240  1.00  0.00     0.002 A 
ATOM     75  C   UNL A   1      39.411  34.084  36.526  1.00  0.00     0.091 A 
ATOM     76  F   UNL A   1      40.744  33.822  34.562  1.00  0.00    -0.205 F 
ATOM     77  C   UNL A   1      38.454  33.559  37.409  1.00  0.00     0.022 A 
BRANCH  75  78
ATOM     78  S   UNL A   1      40.023  35.735  36.884  1.00  0.00     0.127 S 
ATOM     79  O   UNL A   1      41.457  35.500  37.023  1.00  0.00    -0.237 OA
ATOM     80  O   UNL A   1      39.631  36.470  35.680  1.00  0.00    -0.237 OA
ATOM     81  O   UNL A   1      39.329  36.156  38.094  1.00  0.00    -0.744 OA
ENDBRANCH  75  78
ENDBRANCH  47  71
BRANCH  59  82
ATOM     82  C   UNL A   1      45.174  28.291  33.971  1.00  0.00     0.023 A 
ATOM     83  C   UNL A   1      46.293  29.128  33.793  1.00  0.00     0.012 A 
ATOM     84  C   UNL A   1      45.207  27.299  34.973  1.00  0.00     0.148 A 
ATOM     85  C   UNL A   1      47.428  28.973  34.588  1.00  0.00     0.002 A 
ATOM     86  C   UNL A   1      46.322  27.182  35.794  1.00  0.00     0.091 A 
ATOM     87  F   UNL A   1      44.141  26.496  35.113  1.00  0.00    -0.205 F 
ATOM     88  C   UNL A   1      47.437  28.013  35.597  1.00  0.00     0.022 A 
BRANCH  86  89
ATOM     89  S   UNL A   1      46.375  26.049  37.188  1.00  0.00     0.127 S 
ATOM     90  O   UNL A   1      47.812  25.811  37.325  1.00  0.00    -0.237 OA
ATOM     91  O   UNL A   1      45.786  26.848  38.263  1.00  0.00    -0.237 OA
ATOM     92  O   UNL A   1      45.583  24.893  36.794  1.00  0.00    -0.744 OA
ENDBRANCH  86  89
ENDBRANCH  59  82
ENDBRANCH  33  34
ENDBRANCH  26  28
ENDBRANCH  25  26
ENDBRANCH  24  25
ENDBRANCH  23  24
ENDBRANCH  22  23
ENDBRANCH  21  22
ENDBRANCH   1  21
TORSDOF 23
ENDMDL
MODEL 3
REMARK VINA RESULT:      -9.3      2.338      8.065
REMARK SMILES C[C@@H](Nc1cccc(Cl)c1)[C@@H](C)C(=O)OCCOCCOCCOC(=O)c1ccc(-c2c3nc(c(-c4cccc(S(=O)(=O)[O-])c4F)c4ccc([nH]4)c(-c4cccc(S(=O)(=O)[O-])c4F)c4nc(c(-c5cccc(S(=O)(=O)[O-])c5F)c5ccc2[nH]5)C=C4)C=C3)cc1
REMARK SMILES IDX 19 1 18 2 17 3 16 4 15 5 13 6 14 7 11 8 12 9 2 10 1 11 3 12
REMARK SMILES IDX 4 14 5 15 10 16 6 17 8 18 7 19 9 20 20 21 21 22 22 23 23 24
REMARK SMILES IDX 24 25 25 26 26 27 27 28 28 29 89 30 29 31 88 32 30 33 31 34
REMARK SMILES IDX 32 35 82 36 33 37 87 38 81 39 83 40 34 41 86 42 80 43 79 44
REMARK SMILES IDX 35 46 67 47 47 48 66 49 48 50 51 51 65 52 84 53 49 54 50 55
REMARK SMILES IDX 64 57 85 58 52 59 36 60 37 61 45 62 38 63 40 64 46 65 39 66
REMARK SMILES IDX 41 67 42 68 43 69 44 70 68 71 69 72 77 73 70 74 72 75 78 76
REMARK SMILES IDX 71 77 73 78 74 79 75 80 76 81 53 82 54 83 62 84 55 85 57 86
REMARK SMILES IDX 63 87 56 88 58 89 59 90 60 91 61 92
REMARK H PARENT 3 13 83 45 51 56
REMARK Flexibility Score: inf
ROOT
ATOM      1  C   UNL A   1      32.882  29.383  24.550  1.00  0.00     0.188 C 
ENDROOT
BRANCH   1   2
ATOM      2  O   UNL A   1      32.792  28.014  24.148  1.00  0.00    -0.376 OA
BRANCH   2   3
ATOM      3  C   UNL A   1      33.168  27.815  22.776  1.00  0.00     0.202 C 
BRANCH   3   4
ATOM      4  C   UNL A   1      33.735  26.414  22.556  1.00  0.00     0.261 C 
BRANCH   4   5
ATOM      5  O   UNL A   1      33.001  25.386  23.252  1.00  0.00    -0.463 OA
BRANCH   5   6
ATOM      6  C   UNL A   1      32.885  24.184  22.624  1.00  0.00     0.310 C 
ATOM      7  O   UNL A   1      33.362  23.935  21.524  1.00  0.00    -0.252 OA
BRANCH   6   8
ATOM      8  C   UNL A   1      31.908  23.261  23.347  1.00  0.00     0.118 C 
ATOM      9  C   UNL A   1      30.780  24.171  23.855  1.00  0.00     0.022 C 
BRANCH   8  10
ATOM     10  C   UNL A   1      32.575  22.406  24.446  1.00  0.00     0.090 C 
ATOM     11  C   UNL A   1      32.511  23.066  25.836  1.00  0.00     0.031 C 
BRANCH  10  12
ATOM     12  N   UNL A   1      32.066  21.030  24.632  1.00  0.00    -0.382 N 
ATOM     13  H   UNL A   1      31.207  20.963  25.110  1.00  0.00     0.160 HD
BRANCH  12  14
ATOM     14  C   UNL A   1      32.612  19.826  24.238  1.00  0.00     0.036 A 
ATOM     15  C   UNL A   1      32.034  18.984  23.292  1.00  0.00     0.026 A 
ATOM     16  C   UNL A   1      33.836  19.416  24.781  1.00  0.00     0.046 A 
ATOM     17  C   UNL A   1      32.671  17.809  22.868  1.00  0.00     0.004 A 
ATOM     18  C   UNL A   1      34.494  18.264  24.343  1.00  0.00     0.043 A 
ATOM     19  C   UNL A   1      33.912  17.453  23.385  1.00  0.00     0.020 A 
ATOM     20  Cl  UNL A   1      36.056  17.881  24.952  1.00  0.00    -0.084 Cl
ENDBRANCH  12  14
ENDBRANCH  10  12
ENDBRANCH   8  10
ENDBRANCH   6   8
ENDBRANCH   5   6
ENDBRANCH   4   5
ENDBRANCH   3   4
ENDBRANCH   2   3
ENDBRANCH   1   2
BRANCH   1  21
ATOM     21  C   UNL A   1      31.800  29.755  25.575  1.00  0.00     0.188 C 
BRANCH  21  22
ATOM     22  O   UNL A   1      31.097  30.986  25.425  1.00  0.00    -0.376 OA
BRANCH  22  23
ATOM     23  C   UNL A   1      30.980  31.805  26.574  1.00  0.00     0.202 C 
BRANCH  23  24
ATOM     24  C   UNL A   1      32.082  32.843  26.833  1.00  0.00     0.261 C 
BRANCH  24  25
ATOM     25  O   UNL A   1      33.202  32.412  27.615  1.00  0.00    -0.460 OA
BRANCH  25  26
ATOM     26  C   UNL A   1      34.213  33.319  27.741  1.00  0.00     0.338 C 
ATOM     27  O   UNL A   1      34.217  34.475  27.376  1.00  0.00    -0.246 OA
BRANCH  26  28
ATOM     28  C   UNL A   1      35.353  32.660  28.423  1.00  0.00     0.060 A 
ATOM     29  C   UNL A   1      36.638  33.209  28.332  1.00  0.00     0.016 A 
ATOM     30  C   UNL A   1      35.140  31.495  29.165  1.00  0.00     0.016 A 
ATOM     31  C   UNL A   1      37.701  32.618  29.034  1.00  0.00     0.010 A 
ATOM     32  C   UNL A   1      36.201  30.903  29.855  1.00  0.00     0.010 A 
ATOM     33  C   UNL A   1      37.489  31.460  29.798  1.00  0.00    -0.014 A 
BRANCH  33  34
ATOM     34  C   UNL A   1      38.622  30.710  30.402  1.00  0.00     0.031 A 
ATOM     35  C   UNL A   1      39.067  31.092  31.787  1.00  0.00     0.074 A 
ATOM     36  C   UNL A   1      39.304  29.767  29.724  1.00  0.00     0.049 A 
ATOM     37  N   UNL A   1      40.030  30.593  32.515  1.00  0.00    -0.248 NA
ATOM     38  C   UNL A   1      38.326  32.191  32.430  1.00  0.00     0.031 C 
ATOM     39  C   UNL A   1      39.004  29.317  28.368  1.00  0.00     0.029 A 
ATOM     40  N   UNL A   1      40.416  29.040  30.076  1.00  0.00    -0.354 N 
ATOM     41  C   UNL A   1      40.015  31.315  33.700  1.00  0.00     0.074 A 
ATOM     42  C   UNL A   1      38.969  32.309  33.581  1.00  0.00     0.031 C 
ATOM     43  C   UNL A   1      39.932  28.421  27.984  1.00  0.00     0.029 A 
ATOM     44  C   UNL A   1      40.891  28.226  29.071  1.00  0.00     0.049 A 
ATOM     45  H   UNL A   1      40.836  29.095  30.965  1.00  0.00     0.167 HD
ATOM     46  C   UNL A   1      40.781  31.156  34.804  1.00  0.00     0.034 A 
ATOM     47  C   UNL A   1      41.972  27.420  29.036  1.00  0.00     0.034 A 
ATOM     48  C   UNL A   1      41.834  30.190  34.927  1.00  0.00     0.049 A 
ATOM     49  C   UNL A   1      42.836  27.285  30.269  1.00  0.00     0.074 A 
ATOM     50  C   UNL A   1      42.647  29.937  36.018  1.00  0.00     0.029 A 
ATOM     51  N   UNL A   1      42.240  29.335  33.916  1.00  0.00    -0.354 N 
ATOM     52  N   UNL A   1      42.689  27.839  31.449  1.00  0.00    -0.248 NA
ATOM     53  C   UNL A   1      43.992  26.377  30.180  1.00  0.00     0.031 C 
ATOM     54  C   UNL A   1      43.560  28.941  35.658  1.00  0.00     0.029 A 
ATOM     55  C   UNL A   1      43.300  28.560  34.350  1.00  0.00     0.049 A 
ATOM     56  H   UNL A   1      41.834  29.286  33.020  1.00  0.00     0.167 HD
ATOM     57  C   UNL A   1      43.696  27.308  32.251  1.00  0.00     0.074 A 
ATOM     58  C   UNL A   1      44.442  26.380  31.429  1.00  0.00     0.031 C 
ATOM     59  C   UNL A   1      43.984  27.576  33.549  1.00  0.00     0.034 A 
BRANCH  46  60
ATOM     60  C   UNL A   1      40.466  32.042  35.975  1.00  0.00     0.023 A 
ATOM     61  C   UNL A   1      41.344  33.099  36.292  1.00  0.00     0.012 A 
ATOM     62  C   UNL A   1      39.326  31.821  36.770  1.00  0.00     0.148 A 
ATOM     63  C   UNL A   1      41.118  33.896  37.412  1.00  0.00     0.002 A 
ATOM     64  C   UNL A   1      39.088  32.644  37.864  1.00  0.00     0.091 A 
ATOM     65  F   UNL A   1      38.519  30.796  36.461  1.00  0.00    -0.205 F 
ATOM     66  C   UNL A   1      39.988  33.671  38.194  1.00  0.00     0.022 A 
BRANCH  64  67
ATOM     67  S   UNL A   1      37.640  32.466  38.909  1.00  0.00     0.127 S 
ATOM     68  O   UNL A   1      37.928  33.421  39.977  1.00  0.00    -0.237 OA
ATOM     69  O   UNL A   1      36.559  32.868  38.007  1.00  0.00    -0.237 OA
ATOM     70  O   UNL A   1      37.605  31.068  39.314  1.00  0.00    -0.744 OA
ENDBRANCH  64  67
ENDBRANCH  46  60
BRANCH  47  71
ATOM     71  C   UNL A   1      42.281  26.605  27.822  1.00  0.00     0.023 A 
ATOM     72  C   UNL A   1      42.864  27.236  26.704  1.00  0.00     0.012 A 
ATOM     73  C   UNL A   1      41.962  25.236  27.746  1.00  0.00     0.148 A 
ATOM     74  C   UNL A   1      43.078  26.533  25.518  1.00  0.00     0.002 A 
ATOM     75  C   UNL A   1      42.220  24.530  26.575  1.00  0.00     0.091 A 
ATOM     76  F   UNL A   1      41.397  24.654  28.813  1.00  0.00    -0.205 F 
ATOM     77  C   UNL A   1      42.760  25.180  25.454  1.00  0.00     0.022 A 
BRANCH  75  78
ATOM     78  S   UNL A   1      41.934  22.762  26.424  1.00  0.00     0.127 S 
ATOM     79  O   UNL A   1      42.501  22.476  25.110  1.00  0.00    -0.237 OA
ATOM     80  O   UNL A   1      42.699  22.235  27.555  1.00  0.00    -0.237 OA
ATOM     81  O   UNL A   1      40.492  22.587  26.543  1.00  0.00    -0.744 OA
ENDBRANCH  75  78
ENDBRANCH  47  71
BRANCH  59  82
ATOM     82  C   UNL A   1      45.119  26.829  34.201  1.00  0.00     0.023 A 
ATOM     83  C   UNL A   1      46.426  27.352  34.150  1.00  0.00     0.012 A 
ATOM     84  C   UNL A   1      44.866  25.674  34.969  1.00  0.00     0.148 A 
ATOM     85  C   UNL A   1      47.465  26.729  34.842  1.00  0.00     0.002 A 
ATOM     86  C   UNL A   1      45.896  25.088  35.695  1.00  0.00     0.091 A 
ATOM     87  F   UNL A   1      43.620  25.178  34.987  1.00  0.00    -0.205 F 
ATOM     88  C   UNL A   1      47.198  25.610  35.625  1.00  0.00     0.022 A 
BRANCH  86  89
ATOM     89  S   UNL A   1      45.620  23.710  36.816  1.00  0.00     0.127 S 
ATOM     90  O   UNL A   1      44.789  24.328  37.848  1.00  0.00    -0.237 OA
ATOM     91  O   UNL A   1      44.918  22.750  35.963  1.00  0.00    -0.237 OA
ATOM     92  O   UNL A   1      46.940  23.277  37.250  1.00  0.00    -0.744 OA
ENDBRANCH  86  89
ENDBRANCH  59  82
ENDBRANCH  33  34
ENDBRANCH  26  28
ENDBRANCH  25  26
ENDBRANCH  24  25
ENDBRANCH  23  24
ENDBRANCH  22  23
ENDBRANCH  21  22
ENDBRANCH   1  21
TORSDOF 23
ENDMDL
