MODEL 1
REMARK VINA RESULT:     -11.3      0.000      0.000
REMARK SMILES COc1ccc(-n2ccnc2C[N@@H+]2CCn3nc(C(=O)OCCOCCOCCOC(=O)c4ccc(-c5c6nc(c(-c7cccc(S(=O)(=O)[O-])c7F)c7ccc([nH]7)c(-c7cccc(S(=O)(=O)[O-])c7F)c7nc(c(-c8cccc(S(=O)(=O)[O-])c8F)c8ccc5[nH]8)C=C7)C=C6)cc4)cc3C2)cc1
REMARK SMILES IDX 25 1 24 2 23 3 22 4 21 5 19 6 20 7 18 8 13 9 14 10 98 11
REMARK SMILES IDX 15 13 97 14 16 15 96 16 17 17 12 18 11 19 7 20 8 21 9 22
REMARK SMILES IDX 10 23 6 24 3 25 4 26 100 27 5 28 99 29 2 30 1 31 26 32 27 33
REMARK SMILES IDX 28 34 29 35 30 36 31 37 32 38 33 39 34 40 95 41 35 42 94 43
REMARK SMILES IDX 36 44 37 45 38 46 88 47 39 48 93 49 87 50 89 51 40 52 92 53
REMARK SMILES IDX 86 54 85 55 41 57 73 58 53 59 72 60 54 61 57 62 71 63 90 64
REMARK SMILES IDX 55 65 56 66 70 68 91 69 58 70 42 71 43 72 51 73 44 74 46 75
REMARK SMILES IDX 52 76 45 77 47 78 48 79 49 80 50 81 74 82 75 83 83 84 76 85
REMARK SMILES IDX 78 86 84 87 77 88 79 89 80 90 81 91 82 92 59 93 60 94 68 95
REMARK SMILES IDX 61 96 63 97 69 98 62 99 64 100 65 101 66 102 67 103
REMARK H PARENT 13 12 89 56 57 67
REMARK Flexibility Score: inf
ROOT
ATOM      1  C   UNL A   1      37.891  21.329  25.341  1.00  0.00     0.188 C 
ENDROOT
BRANCH   1   2
ATOM      2  O   UNL A   1      36.645  21.994  25.425  1.00  0.00    -0.376 OA
BRANCH   2   3
ATOM      3  C   UNL A   1      36.667  23.354  24.950  1.00  0.00     0.202 C 
BRANCH   3   4
ATOM      4  C   UNL A   1      35.293  23.959  24.594  1.00  0.00     0.261 C 
BRANCH   4   5
ATOM      5  O   UNL A   1      34.947  24.172  23.188  1.00  0.00    -0.458 OA
BRANCH   5   6
ATOM      6  C   UNL A   1      33.696  23.958  22.685  1.00  0.00     0.358 C 
ATOM      7  O   UNL A   1      33.268  22.845  22.452  1.00  0.00    -0.244 OA
BRANCH   6   8
ATOM      8  C   UNL A   1      32.848  25.209  22.562  1.00  0.00     0.170 A 
ATOM      9  N   UNL A   1      31.418  25.558  25.714  1.00  0.00    -0.322 N 
ATOM     10  C   UNL A   1      30.051  25.898  25.365  1.00  0.00     0.286 C 
ATOM     11  C   UNL A   1      32.341  26.650  25.280  1.00  0.00     0.319 C 
ATOM     12  H   UNL A   1      31.466  25.493  26.731  1.00  0.00     0.348 HD
ATOM     13  C   UNL A   1      29.878  26.376  23.916  1.00  0.00     0.206 C 
ATOM     14  C   UNL A   1      32.300  26.819  23.794  1.00  0.00     0.094 A 
ATOM     15  N   UNL A   1      31.147  26.358  23.178  1.00  0.00    -0.257 N 
ATOM     16  C   UNL A   1      33.274  26.548  22.830  1.00  0.00     0.067 A 
ATOM     17  N   UNL A   1      31.503  25.281  22.412  1.00  0.00    -0.165 NA
BRANCH   9  18
ATOM     18  C   UNL A   1      31.845  24.197  25.282  1.00  0.00     0.339 C 
BRANCH  18  19
ATOM     19  C   UNL A   1      32.095  22.940  26.215  1.00  0.00     0.168 A 
ATOM     20  N   UNL A   1      32.868  21.727  26.025  1.00  0.00    -0.299 N 
ATOM     21  C   UNL A   1      33.628  21.604  27.180  1.00  0.00     0.113 A 
ATOM     22  C   UNL A   1      33.157  22.531  28.063  1.00  0.00     0.132 A 
ATOM     23  N   UNL A   1      32.131  23.237  27.517  1.00  0.00    -0.236 NA
BRANCH  20  24
ATOM     24  C   UNL A   1      32.824  20.582  25.135  1.00  0.00     0.047 A 
ATOM     25  C   UNL A   1      33.024  18.380  23.352  1.00  0.00     0.119 A 
ATOM     26  C   UNL A   1      33.550  18.287  24.630  1.00  0.00     0.048 A 
ATOM     27  C   UNL A   1      32.251  19.497  23.029  1.00  0.00     0.048 A 
ATOM     28  C   UNL A   1      33.369  19.342  25.536  1.00  0.00     0.030 A 
ATOM     29  C   UNL A   1      32.164  20.606  23.909  1.00  0.00     0.030 A 
BRANCH  25  30
ATOM     30  O   UNL A   1      33.239  17.304  22.535  1.00  0.00    -0.497 OA
ATOM     31  C   UNL A   1      34.139  16.331  23.061  1.00  0.00     0.278 C 
ENDBRANCH  25  30
ENDBRANCH  20  24
ENDBRANCH  18  19
ENDBRANCH   9  18
ENDBRANCH   6   8
ENDBRANCH   5   6
ENDBRANCH   4   5
ENDBRANCH   3   4
ENDBRANCH   2   3
ENDBRANCH   1   2
BRANCH   1  32
ATOM     32  C   UNL A   1      38.054  19.861  24.976  1.00  0.00     0.188 C 
BRANCH  32  33
ATOM     33  O   UNL A   1      39.236  19.209  25.381  1.00  0.00    -0.376 OA
BRANCH  33  34
ATOM     34  C   UNL A   1      40.129  19.956  26.203  1.00  0.00     0.202 C 
BRANCH  34  35
ATOM     35  C   UNL A   1      41.615  19.606  26.121  1.00  0.00     0.261 C 
BRANCH  35  36
ATOM     36  O   UNL A   1      42.415  20.707  25.691  1.00  0.00    -0.460 OA
BRANCH  36  37
ATOM     37  C   UNL A   1      43.673  20.390  25.321  1.00  0.00     0.338 C 
ATOM     38  O   UNL A   1      44.188  19.282  25.333  1.00  0.00    -0.246 OA
BRANCH  37  39
ATOM     39  C   UNL A   1      44.378  21.599  24.852  1.00  0.00     0.060 A 
ATOM     40  C   UNL A   1      45.635  21.786  25.440  1.00  0.00     0.016 A 
ATOM     41  C   UNL A   1      43.556  22.664  24.480  1.00  0.00     0.016 A 
ATOM     42  C   UNL A   1      45.836  22.972  26.097  1.00  0.00     0.010 A 
ATOM     43  C   UNL A   1      43.741  23.837  25.159  1.00  0.00     0.010 A 
ATOM     44  C   UNL A   1      44.798  23.902  26.065  1.00  0.00    -0.014 A 
BRANCH  44  45
ATOM     45  C   UNL A   1      44.812  24.961  27.044  1.00  0.00     0.031 A 
ATOM     46  C   UNL A   1      46.012  25.803  26.919  1.00  0.00     0.074 A 
ATOM     47  C   UNL A   1      43.765  25.158  27.868  1.00  0.00     0.049 A 
ATOM     48  N   UNL A   1      47.024  25.865  27.719  1.00  0.00    -0.248 NA
ATOM     49  C   UNL A   1      46.215  26.475  25.627  1.00  0.00     0.031 C 
ATOM     50  C   UNL A   1      42.449  24.507  27.830  1.00  0.00     0.029 A 
ATOM     51  N   UNL A   1      43.605  26.107  28.828  1.00  0.00    -0.354 N 
ATOM     52  C   UNL A   1      47.853  26.818  27.138  1.00  0.00     0.074 A 
ATOM     53  C   UNL A   1      47.464  26.914  25.759  1.00  0.00     0.031 C 
ATOM     54  C   UNL A   1      41.565  25.255  28.529  1.00  0.00     0.029 A 
ATOM     55  C   UNL A   1      42.275  26.357  29.155  1.00  0.00     0.049 A 
ATOM     56  H   UNL A   1      44.360  26.575  29.254  1.00  0.00     0.167 HD
ATOM     57  C   UNL A   1      48.511  27.722  27.911  1.00  0.00     0.034 A 
ATOM     58  C   UNL A   1      41.803  27.456  29.795  1.00  0.00     0.034 A 
ATOM     59  C   UNL A   1      48.612  27.273  29.279  1.00  0.00     0.049 A 
ATOM     60  C   UNL A   1      42.955  28.092  30.479  1.00  0.00     0.074 A 
ATOM     61  C   UNL A   1      49.121  26.153  29.904  1.00  0.00     0.029 A 
ATOM     62  N   UNL A   1      47.772  27.869  30.189  1.00  0.00    -0.354 N 
ATOM     63  N   UNL A   1      43.603  27.536  31.465  1.00  0.00    -0.248 NA
ATOM     64  C   UNL A   1      43.676  29.135  29.767  1.00  0.00     0.031 C 
ATOM     65  C   UNL A   1      48.222  25.890  30.981  1.00  0.00     0.029 A 
ATOM     66  C   UNL A   1      47.249  26.891  30.990  1.00  0.00     0.049 A 
ATOM     67  H   UNL A   1      47.581  28.833  30.253  1.00  0.00     0.167 HD
ATOM     68  C   UNL A   1      44.939  27.817  31.203  1.00  0.00     0.074 A 
ATOM     69  C   UNL A   1      44.912  28.896  30.215  1.00  0.00     0.031 C 
ATOM     70  C   UNL A   1      45.927  26.951  31.578  1.00  0.00     0.034 A 
BRANCH  57  71
ATOM     71  C   UNL A   1      48.660  29.181  27.535  1.00  0.00     0.023 A 
ATOM     72  C   UNL A   1      49.911  29.778  27.790  1.00  0.00     0.012 A 
ATOM     73  C   UNL A   1      47.590  30.055  27.217  1.00  0.00     0.148 A 
ATOM     74  C   UNL A   1      50.072  31.167  27.789  1.00  0.00     0.002 A 
ATOM     75  C   UNL A   1      47.774  31.427  27.132  1.00  0.00     0.091 A 
ATOM     76  F   UNL A   1      46.339  29.599  27.131  1.00  0.00    -0.205 F 
ATOM     77  C   UNL A   1      49.006  31.993  27.452  1.00  0.00     0.022 A 
BRANCH  75  78
ATOM     78  S   UNL A   1      46.428  32.523  26.661  1.00  0.00     0.127 S 
ATOM     79  O   UNL A   1      47.138  33.539  25.889  1.00  0.00    -0.237 OA
ATOM     80  O   UNL A   1      45.577  31.628  25.876  1.00  0.00    -0.237 OA
ATOM     81  O   UNL A   1      45.827  32.967  27.912  1.00  0.00    -0.744 OA
ENDBRANCH  75  78
ENDBRANCH  57  71
BRANCH  58  82
ATOM     82  C   UNL A   1      40.515  28.169  29.596  1.00  0.00     0.023 A 
ATOM     83  C   UNL A   1      39.935  28.231  28.313  1.00  0.00     0.012 A 
ATOM     84  C   UNL A   1      39.723  28.558  30.701  1.00  0.00     0.148 A 
ATOM     85  C   UNL A   1      38.609  28.648  28.138  1.00  0.00     0.002 A 
ATOM     86  C   UNL A   1      38.410  28.985  30.521  1.00  0.00     0.091 A 
ATOM     87  F   UNL A   1      40.224  28.423  31.934  1.00  0.00    -0.205 F 
ATOM     88  C   UNL A   1      37.845  29.021  29.241  1.00  0.00     0.022 A 
BRANCH  86  89
ATOM     89  S   UNL A   1      37.360  29.470  31.899  1.00  0.00     0.127 S 
ATOM     90  O   UNL A   1      37.530  28.344  32.818  1.00  0.00    -0.237 OA
ATOM     91  O   UNL A   1      37.987  30.715  32.336  1.00  0.00    -0.237 OA
ATOM     92  O   UNL A   1      36.015  29.599  31.353  1.00  0.00    -0.744 OA
ENDBRANCH  86  89
ENDBRANCH  58  82
BRANCH  70  93
ATOM     93  C   UNL A   1      45.550  25.799  32.481  1.00  0.00     0.023 A 
ATOM     94  C   UNL A   1      45.008  24.597  31.978  1.00  0.00     0.012 A 
ATOM     95  C   UNL A   1      45.920  25.860  33.834  1.00  0.00     0.148 A 
ATOM     96  C   UNL A   1      44.823  23.488  32.810  1.00  0.00     0.002 A 
ATOM     97  C   UNL A   1      45.777  24.743  34.648  1.00  0.00     0.091 A 
ATOM     98  F   UNL A   1      46.447  27.006  34.292  1.00  0.00    -0.205 F 
ATOM     99  C   UNL A   1      45.220  23.557  34.143  1.00  0.00     0.022 A 
BRANCH  97 100
ATOM    100  S   UNL A   1      46.381  24.719  36.337  1.00  0.00     0.127 S 
ATOM    101  O   UNL A   1      47.815  24.928  36.152  1.00  0.00    -0.237 OA
ATOM    102  O   UNL A   1      45.669  25.849  36.938  1.00  0.00    -0.237 OA
ATOM    103  O   UNL A   1      46.006  23.421  36.883  1.00  0.00    -0.744 OA
ENDBRANCH  97 100
ENDBRANCH  70  93
ENDBRANCH  44  45
ENDBRANCH  37  39
ENDBRANCH  36  37
ENDBRANCH  35  36
ENDBRANCH  34  35
ENDBRANCH  33  34
ENDBRANCH  32  33
ENDBRANCH   1  32
TORSDOF 24
ENDMDL
MODEL 2
REMARK VINA RESULT:     -10.5      1.783      4.181
REMARK SMILES COc1ccc(-n2ccnc2C[N@@H+]2CCn3nc(C(=O)OCCOCCOCCOC(=O)c4ccc(-c5c6nc(c(-c7cccc(S(=O)(=O)[O-])c7F)c7ccc([nH]7)c(-c7cccc(S(=O)(=O)[O-])c7F)c7nc(c(-c8cccc(S(=O)(=O)[O-])c8F)c8ccc5[nH]8)C=C7)C=C6)cc4)cc3C2)cc1
REMARK SMILES IDX 25 1 24 2 23 3 22 4 21 5 19 6 20 7 18 8 13 9 14 10 98 11
REMARK SMILES IDX 15 13 97 14 16 15 96 16 17 17 12 18 11 19 7 20 8 21 9 22
REMARK SMILES IDX 10 23 6 24 3 25 4 26 100 27 5 28 99 29 2 30 1 31 26 32 27 33
REMARK SMILES IDX 28 34 29 35 30 36 31 37 32 38 33 39 34 40 95 41 35 42 94 43
REMARK SMILES IDX 36 44 37 45 38 46 88 47 39 48 93 49 87 50 89 51 40 52 92 53
REMARK SMILES IDX 86 54 85 55 41 57 73 58 53 59 72 60 54 61 57 62 71 63 90 64
REMARK SMILES IDX 55 65 56 66 70 68 91 69 58 70 42 71 43 72 51 73 44 74 46 75
REMARK SMILES IDX 52 76 45 77 47 78 48 79 49 80 50 81 74 82 75 83 83 84 76 85
REMARK SMILES IDX 78 86 84 87 77 88 79 89 80 90 81 91 82 92 59 93 60 94 68 95
REMARK SMILES IDX 61 96 63 97 69 98 62 99 64 100 65 101 66 102 67 103
REMARK H PARENT 13 12 89 56 57 67
REMARK Flexibility Score: inf
ROOT
ATOM      1  C   UNL A   1      38.167  21.115  25.100  1.00  0.00     0.188 C 
ENDROOT
BRANCH   1   2
ATOM      2  O   UNL A   1      37.159  21.540  24.203  1.00  0.00    -0.376 OA
BRANCH   2   3
ATOM      3  C   UNL A   1      37.016  22.971  24.108  1.00  0.00     0.202 C 
BRANCH   3   4
ATOM      4  C   UNL A   1      35.670  23.541  24.602  1.00  0.00     0.261 C 
BRANCH   4   5
ATOM      5  O   UNL A   1      34.691  24.012  23.623  1.00  0.00    -0.458 OA
BRANCH   5   6
ATOM      6  C   UNL A   1      33.350  23.776  23.733  1.00  0.00     0.358 C 
ATOM      7  O   UNL A   1      32.878  23.094  24.621  1.00  0.00    -0.244 OA
BRANCH   6   8
ATOM      8  C   UNL A   1      32.497  24.536  22.737  1.00  0.00     0.170 A 
ATOM      9  N   UNL A   1      33.474  27.848  23.161  1.00  0.00    -0.322 N 
ATOM     10  C   UNL A   1      32.190  28.523  23.143  1.00  0.00     0.286 C 
ATOM     11  C   UNL A   1      33.750  27.242  21.823  1.00  0.00     0.319 C 
ATOM     12  H   UNL A   1      34.188  28.556  23.337  1.00  0.00     0.348 HD
ATOM     13  C   UNL A   1      31.050  27.681  22.549  1.00  0.00     0.206 C 
ATOM     14  C   UNL A   1      32.720  26.210  21.487  1.00  0.00     0.094 A 
ATOM     15  N   UNL A   1      31.509  26.346  22.149  1.00  0.00    -0.257 N 
ATOM     16  C   UNL A   1      32.838  24.823  21.377  1.00  0.00     0.067 A 
ATOM     17  N   UNL A   1      31.390  25.276  22.994  1.00  0.00    -0.165 NA
BRANCH   9  18
ATOM     18  C   UNL A   1      33.661  26.908  24.302  1.00  0.00     0.339 C 
BRANCH  18  19
ATOM     19  C   UNL A   1      33.178  27.122  25.797  1.00  0.00     0.168 A 
ATOM     20  N   UNL A   1      32.803  28.312  26.537  1.00  0.00    -0.299 N 
ATOM     21  C   UNL A   1      31.597  27.990  27.145  1.00  0.00     0.113 A 
ATOM     22  C   UNL A   1      31.413  26.649  26.969  1.00  0.00     0.132 A 
ATOM     23  N   UNL A   1      32.450  26.109  26.275  1.00  0.00    -0.236 NA
BRANCH  20  24
ATOM     24  C   UNL A   1      33.464  29.526  26.977  1.00  0.00     0.047 A 
ATOM     25  C   UNL A   1      34.777  31.780  28.102  1.00  0.00     0.119 A 
ATOM     26  C   UNL A   1      35.485  30.612  27.865  1.00  0.00     0.048 A 
ATOM     27  C   UNL A   1      33.471  31.878  27.618  1.00  0.00     0.048 A 
ATOM     28  C   UNL A   1      34.854  29.534  27.226  1.00  0.00     0.030 A 
ATOM     29  C   UNL A   1      32.806  30.750  27.073  1.00  0.00     0.030 A 
BRANCH  25  30
ATOM     30  O   UNL A   1      35.469  32.785  28.721  1.00  0.00    -0.497 OA
ATOM     31  C   UNL A   1      35.801  32.524  30.083  1.00  0.00     0.278 C 
ENDBRANCH  25  30
ENDBRANCH  20  24
ENDBRANCH  18  19
ENDBRANCH   9  18
ENDBRANCH   6   8
ENDBRANCH   5   6
ENDBRANCH   4   5
ENDBRANCH   3   4
ENDBRANCH   2   3
ENDBRANCH   1   2
BRANCH   1  32
ATOM     32  C   UNL A   1      38.526  19.659  25.357  1.00  0.00     0.188 C 
BRANCH  32  33
ATOM     33  O   UNL A   1      39.868  19.354  25.660  1.00  0.00    -0.376 OA
BRANCH  33  34
ATOM     34  C   UNL A   1      40.492  20.150  26.664  1.00  0.00     0.202 C 
BRANCH  34  35
ATOM     35  C   UNL A   1      42.020  20.198  26.668  1.00  0.00     0.261 C 
BRANCH  35  36
ATOM     36  O   UNL A   1      42.549  20.936  25.566  1.00  0.00    -0.460 OA
BRANCH  36  37
ATOM     37  C   UNL A   1      43.768  20.541  25.145  1.00  0.00     0.338 C 
ATOM     38  O   UNL A   1      44.179  19.394  25.050  1.00  0.00    -0.246 OA
BRANCH  37  39
ATOM     39  C   UNL A   1      44.575  21.717  24.765  1.00  0.00     0.060 A 
ATOM     40  C   UNL A   1      45.793  21.812  25.448  1.00  0.00     0.016 A 
ATOM     41  C   UNL A   1      43.845  22.840  24.369  1.00  0.00     0.016 A 
ATOM     42  C   UNL A   1      46.013  22.965  26.155  1.00  0.00     0.010 A 
ATOM     43  C   UNL A   1      44.047  23.980  25.097  1.00  0.00     0.010 A 
ATOM     44  C   UNL A   1      45.036  23.957  26.078  1.00  0.00    -0.014 A 
BRANCH  44  45
ATOM     45  C   UNL A   1      45.040  24.985  27.089  1.00  0.00     0.031 A 
ATOM     46  C   UNL A   1      46.238  25.833  27.000  1.00  0.00     0.074 A 
ATOM     47  C   UNL A   1      43.985  25.156  27.909  1.00  0.00     0.049 A 
ATOM     48  N   UNL A   1      47.243  25.873  27.811  1.00  0.00    -0.248 NA
ATOM     49  C   UNL A   1      46.452  26.544  25.731  1.00  0.00     0.031 C 
ATOM     50  C   UNL A   1      42.670  24.504  27.838  1.00  0.00     0.029 A 
ATOM     51  N   UNL A   1      43.814  26.075  28.895  1.00  0.00    -0.354 N 
ATOM     52  C   UNL A   1      48.076  26.844  27.267  1.00  0.00     0.074 A 
ATOM     53  C   UNL A   1      47.699  26.981  25.887  1.00  0.00     0.031 C 
ATOM     54  C   UNL A   1      41.778  25.229  28.552  1.00  0.00     0.029 A 
ATOM     55  C   UNL A   1      42.480  26.313  29.217  1.00  0.00     0.049 A 
ATOM     56  H   UNL A   1      44.564  26.531  29.342  1.00  0.00     0.167 HD
ATOM     57  C   UNL A   1      48.724  27.725  28.073  1.00  0.00     0.034 A 
ATOM     58  C   UNL A   1      42.000  27.392  29.885  1.00  0.00     0.034 A 
ATOM     59  C   UNL A   1      48.813  27.236  29.427  1.00  0.00     0.049 A 
ATOM     60  C   UNL A   1      43.144  28.008  30.600  1.00  0.00     0.074 A 
ATOM     61  C   UNL A   1      49.319  26.098  30.023  1.00  0.00     0.029 A 
ATOM     62  N   UNL A   1      47.965  27.802  30.347  1.00  0.00    -0.354 N 
ATOM     63  N   UNL A   1      43.785  27.424  31.574  1.00  0.00    -0.248 NA
ATOM     64  C   UNL A   1      43.870  29.074  29.925  1.00  0.00     0.031 C 
ATOM     65  C   UNL A   1      48.411  25.801  31.083  1.00  0.00     0.029 A 
ATOM     66  C   UNL A   1      47.436  26.799  31.114  1.00  0.00     0.049 A 
ATOM     67  H   UNL A   1      47.771  28.764  30.439  1.00  0.00     0.167 HD
ATOM     68  C   UNL A   1      45.123  27.715  31.333  1.00  0.00     0.074 A 
ATOM     69  C   UNL A   1      45.102  28.823  30.378  1.00  0.00     0.031 C 
ATOM     70  C   UNL A   1      46.109  26.839  31.691  1.00  0.00     0.034 A 
BRANCH  57  71
ATOM     71  C   UNL A   1      48.874  29.195  27.742  1.00  0.00     0.023 A 
ATOM     72  C   UNL A   1      50.175  29.733  27.814  1.00  0.00     0.012 A 
ATOM     73  C   UNL A   1      47.806  30.122  27.643  1.00  0.00     0.148 A 
ATOM     74  C   UNL A   1      50.394  31.114  27.848  1.00  0.00     0.002 A 
ATOM     75  C   UNL A   1      48.034  31.489  27.590  1.00  0.00     0.091 A 
ATOM     76  F   UNL A   1      46.539  29.716  27.745  1.00  0.00    -0.205 F 
ATOM     77  C   UNL A   1      49.325  31.994  27.728  1.00  0.00     0.022 A 
BRANCH  75  78
ATOM     78  S   UNL A   1      46.678  32.656  27.397  1.00  0.00     0.127 S 
ATOM     79  O   UNL A   1      45.743  32.184  28.414  1.00  0.00    -0.237 OA
ATOM     80  O   UNL A   1      47.335  33.928  27.697  1.00  0.00    -0.237 OA
ATOM     81  O   UNL A   1      46.243  32.525  26.012  1.00  0.00    -0.744 OA
ENDBRANCH  75  78
ENDBRANCH  57  71
BRANCH  58  82
ATOM     82  C   UNL A   1      40.713  28.107  29.697  1.00  0.00     0.023 A 
ATOM     83  C   UNL A   1      40.165  28.243  28.405  1.00  0.00     0.012 A 
ATOM     84  C   UNL A   1      39.890  28.426  30.802  1.00  0.00     0.148 A 
ATOM     85  C   UNL A   1      38.841  28.663  28.221  1.00  0.00     0.002 A 
ATOM     86  C   UNL A   1      38.579  28.856  30.614  1.00  0.00     0.091 A 
ATOM     87  F   UNL A   1      40.361  28.221  32.037  1.00  0.00    -0.205 F 
ATOM     88  C   UNL A   1      38.047  28.965  29.324  1.00  0.00     0.022 A 
BRANCH  86  89
ATOM     89  S   UNL A   1      37.491  29.252  31.991  1.00  0.00     0.127 S 
ATOM     90  O   UNL A   1      38.022  30.543  32.431  1.00  0.00    -0.237 OA
ATOM     91  O   UNL A   1      36.186  29.318  31.339  1.00  0.00    -0.237 OA
ATOM     92  O   UNL A   1      37.660  28.175  32.958  1.00  0.00    -0.744 OA
ENDBRANCH  86  89
ENDBRANCH  58  82
BRANCH  70  93
ATOM     93  C   UNL A   1      45.725  25.661  32.555  1.00  0.00     0.023 A 
ATOM     94  C   UNL A   1      44.900  24.618  32.081  1.00  0.00     0.012 A 
ATOM     95  C   UNL A   1      46.358  25.509  33.799  1.00  0.00     0.148 A 
ATOM     96  C   UNL A   1      44.696  23.461  32.839  1.00  0.00     0.002 A 
ATOM     97  C   UNL A   1      46.188  24.339  34.530  1.00  0.00     0.091 A 
ATOM     98  F   UNL A   1      47.150  26.503  34.229  1.00  0.00    -0.205 F 
ATOM     99  C   UNL A   1      45.351  23.316  34.059  1.00  0.00     0.022 A 
BRANCH  97 100
ATOM    100  S   UNL A   1      47.098  24.032  36.047  1.00  0.00     0.127 S 
ATOM    101  O   UNL A   1      47.068  22.574  36.131  1.00  0.00    -0.237 OA
ATOM    102  O   UNL A   1      48.412  24.601  35.742  1.00  0.00    -0.237 OA
ATOM    103  O   UNL A   1      46.375  24.732  37.101  1.00  0.00    -0.744 OA
ENDBRANCH  97 100
ENDBRANCH  70  93
ENDBRANCH  44  45
ENDBRANCH  37  39
ENDBRANCH  36  37
ENDBRANCH  35  36
ENDBRANCH  34  35
ENDBRANCH  33  34
ENDBRANCH  32  33
ENDBRANCH   1  32
TORSDOF 24
ENDMDL
MODEL 3
REMARK VINA RESULT:     -10.1      1.610      3.800
REMARK SMILES COc1ccc(-n2ccnc2C[N@@H+]2CCn3nc(C(=O)OCCOCCOCCOC(=O)c4ccc(-c5c6nc(c(-c7cccc(S(=O)(=O)[O-])c7F)c7ccc([nH]7)c(-c7cccc(S(=O)(=O)[O-])c7F)c7nc(c(-c8cccc(S(=O)(=O)[O-])c8F)c8ccc5[nH]8)C=C7)C=C6)cc4)cc3C2)cc1
REMARK SMILES IDX 25 1 24 2 23 3 22 4 21 5 19 6 20 7 18 8 13 9 14 10 98 11
REMARK SMILES IDX 15 13 97 14 16 15 96 16 17 17 12 18 11 19 7 20 8 21 9 22
REMARK SMILES IDX 10 23 6 24 3 25 4 26 100 27 5 28 99 29 2 30 1 31 26 32 27 33
REMARK SMILES IDX 28 34 29 35 30 36 31 37 32 38 33 39 34 40 95 41 35 42 94 43
REMARK SMILES IDX 36 44 37 45 38 46 88 47 39 48 93 49 87 50 89 51 40 52 92 53
REMARK SMILES IDX 86 54 85 55 41 57 73 58 53 59 72 60 54 61 57 62 71 63 90 64
REMARK SMILES IDX 55 65 56 66 70 68 91 69 58 70 42 71 43 72 51 73 44 74 46 75
REMARK SMILES IDX 52 76 45 77 47 78 48 79 49 80 50 81 74 82 75 83 83 84 76 85
REMARK SMILES IDX 78 86 84 87 77 88 79 89 80 90 81 91 82 92 59 93 60 94 68 95
REMARK SMILES IDX 61 96 63 97 69 98 62 99 64 100 65 101 66 102 67 103
REMARK H PARENT 13 12 89 56 57 67
REMARK Flexibility Score: inf
ROOT
ATOM      1  C   UNL A   1      38.606  21.953  25.632  1.00  0.00     0.188 C 
ENDROOT
BRANCH   1   2
ATOM      2  O   UNL A   1      37.433  22.507  25.067  1.00  0.00    -0.376 OA
BRANCH   2   3
ATOM      3  C   UNL A   1      36.751  23.446  25.922  1.00  0.00     0.202 C 
BRANCH   3   4
ATOM      4  C   UNL A   1      35.786  22.829  26.956  1.00  0.00     0.261 C 
BRANCH   4   5
ATOM      5  O   UNL A   1      34.422  23.346  27.059  1.00  0.00    -0.458 OA
BRANCH   5   6
ATOM      6  C   UNL A   1      33.325  22.542  27.180  1.00  0.00     0.358 C 
ATOM      7  O   UNL A   1      32.690  22.454  28.213  1.00  0.00    -0.244 OA
BRANCH   6   8
ATOM      8  C   UNL A   1      32.895  21.870  25.890  1.00  0.00     0.170 A 
ATOM      9  N   UNL A   1      33.174  24.390  23.508  1.00  0.00    -0.322 N 
ATOM     10  C   UNL A   1      31.948  24.199  22.754  1.00  0.00     0.286 C 
ATOM     11  C   UNL A   1      34.070  23.207  23.331  1.00  0.00     0.319 C 
ATOM     12  H   UNL A   1      33.648  25.204  23.116  1.00  0.00     0.348 HD
ATOM     13  C   UNL A   1      31.290  22.828  22.971  1.00  0.00     0.206 C 
ATOM     14  C   UNL A   1      33.422  21.967  23.860  1.00  0.00     0.094 A 
ATOM     15  N   UNL A   1      32.038  22.007  23.930  1.00  0.00    -0.257 N 
ATOM     16  C   UNL A   1      33.748  21.184  24.969  1.00  0.00     0.067 A 
ATOM     17  N   UNL A   1      31.703  21.989  25.257  1.00  0.00    -0.165 NA
BRANCH   9  18
ATOM     18  C   UNL A   1      32.967  24.786  24.929  1.00  0.00     0.339 C 
BRANCH  18  19
ATOM     19  C   UNL A   1      31.719  25.558  25.528  1.00  0.00     0.168 A 
ATOM     20  N   UNL A   1      30.532  26.116  24.909  1.00  0.00    -0.299 N 
ATOM     21  C   UNL A   1      29.475  25.652  25.679  1.00  0.00     0.113 A 
ATOM     22  C   UNL A   1      30.020  25.075  26.790  1.00  0.00     0.132 A 
ATOM     23  N   UNL A   1      31.377  25.155  26.755  1.00  0.00    -0.236 NA
BRANCH  20  24
ATOM     24  C   UNL A   1      30.242  27.165  23.950  1.00  0.00     0.047 A 
ATOM     25  C   UNL A   1      29.759  29.410  22.277  1.00  0.00     0.119 A 
ATOM     26  C   UNL A   1      31.059  29.030  22.568  1.00  0.00     0.048 A 
ATOM     27  C   UNL A   1      28.714  28.572  22.674  1.00  0.00     0.048 A 
ATOM     28  C   UNL A   1      31.293  27.868  23.319  1.00  0.00     0.030 A 
ATOM     29  C   UNL A   1      28.949  27.462  23.524  1.00  0.00     0.030 A 
BRANCH  25  30
ATOM     30  O   UNL A   1      29.620  30.550  21.533  1.00  0.00    -0.497 OA
ATOM     31  C   UNL A   1      28.269  30.932  21.281  1.00  0.00     0.278 C 
ENDBRANCH  25  30
ENDBRANCH  20  24
ENDBRANCH  18  19
ENDBRANCH   9  18
ENDBRANCH   6   8
ENDBRANCH   5   6
ENDBRANCH   4   5
ENDBRANCH   3   4
ENDBRANCH   2   3
ENDBRANCH   1   2
BRANCH   1  32
ATOM     32  C   UNL A   1      38.851  20.462  25.809  1.00  0.00     0.188 C 
BRANCH  32  33
ATOM     33  O   UNL A   1      40.162  19.982  25.623  1.00  0.00    -0.376 OA
BRANCH  33  34
ATOM     34  C   UNL A   1      40.871  19.591  26.796  1.00  0.00     0.202 C 
BRANCH  34  35
ATOM     35  C   UNL A   1      42.047  20.466  27.228  1.00  0.00     0.261 C 
BRANCH  35  36
ATOM     36  O   UNL A   1      42.522  21.305  26.175  1.00  0.00    -0.460 OA
BRANCH  36  37
ATOM     37  C   UNL A   1      43.621  20.855  25.535  1.00  0.00     0.338 C 
ATOM     38  O   UNL A   1      43.926  19.691  25.325  1.00  0.00    -0.246 OA
BRANCH  37  39
ATOM     39  C   UNL A   1      44.435  21.996  25.072  1.00  0.00     0.060 A 
ATOM     40  C   UNL A   1      45.638  22.153  25.770  1.00  0.00     0.016 A 
ATOM     41  C   UNL A   1      43.715  23.078  24.564  1.00  0.00     0.016 A 
ATOM     42  C   UNL A   1      45.843  23.363  26.379  1.00  0.00     0.010 A 
ATOM     43  C   UNL A   1      43.900  24.278  25.193  1.00  0.00     0.010 A 
ATOM     44  C   UNL A   1      44.868  24.343  26.194  1.00  0.00    -0.014 A 
BRANCH  44  45
ATOM     45  C   UNL A   1      44.849  25.456  27.111  1.00  0.00     0.031 A 
ATOM     46  C   UNL A   1      45.958  26.388  26.859  1.00  0.00     0.074 A 
ATOM     47  C   UNL A   1      43.843  25.612  27.992  1.00  0.00     0.049 A 
ATOM     48  N   UNL A   1      47.010  26.585  27.584  1.00  0.00    -0.248 NA
ATOM     49  C   UNL A   1      46.019  26.996  25.521  1.00  0.00     0.031 C 
ATOM     50  C   UNL A   1      42.590  24.849  28.078  1.00  0.00     0.029 A 
ATOM     51  N   UNL A   1      43.659  26.599  28.907  1.00  0.00    -0.354 N 
ATOM     52  C   UNL A   1      47.712  27.568  26.897  1.00  0.00     0.074 A 
ATOM     53  C   UNL A   1      47.231  27.548  25.544  1.00  0.00     0.031 C 
ATOM     54  C   UNL A   1      41.688  25.560  28.794  1.00  0.00     0.029 A 
ATOM     55  C   UNL A   1      42.335  26.754  29.309  1.00  0.00     0.049 A 
ATOM     56  H   UNL A   1      44.394  27.155  29.255  1.00  0.00     0.167 HD
ATOM     57  C   UNL A   1      48.334  28.569  27.574  1.00  0.00     0.034 A 
ATOM     58  C   UNL A   1      41.807  27.845  29.919  1.00  0.00     0.034 A 
ATOM     59  C   UNL A   1      48.560  28.214  28.954  1.00  0.00     0.049 A 
ATOM     60  C   UNL A   1      42.939  28.617  30.488  1.00  0.00     0.074 A 
ATOM     61  C   UNL A   1      49.205  27.182  29.604  1.00  0.00     0.029 A 
ATOM     62  N   UNL A   1      47.729  28.789  29.885  1.00  0.00    -0.354 N 
ATOM     63  N   UNL A   1      43.695  28.179  31.457  1.00  0.00    -0.248 NA
ATOM     64  C   UNL A   1      43.518  29.674  29.673  1.00  0.00     0.031 C 
ATOM     65  C   UNL A   1      48.403  26.908  30.751  1.00  0.00     0.029 A 
ATOM     66  C   UNL A   1      47.347  27.820  30.772  1.00  0.00     0.049 A 
ATOM     67  H   UNL A   1      47.457  29.736  29.910  1.00  0.00     0.167 HD
ATOM     68  C   UNL A   1      44.982  28.557  31.090  1.00  0.00     0.074 A 
ATOM     69  C   UNL A   1      44.796  29.568  30.049  1.00  0.00     0.031 C 
ATOM     70  C   UNL A   1      46.064  27.802  31.444  1.00  0.00     0.034 A 
BRANCH  57  71
ATOM     71  C   UNL A   1      48.328  30.011  27.109  1.00  0.00     0.023 A 
ATOM     72  C   UNL A   1      49.564  30.688  27.128  1.00  0.00     0.012 A 
ATOM     73  C   UNL A   1      47.168  30.805  26.930  1.00  0.00     0.148 A 
ATOM     74  C   UNL A   1      49.635  32.083  27.034  1.00  0.00     0.002 A 
ATOM     75  C   UNL A   1      47.249  32.179  26.751  1.00  0.00     0.091 A 
ATOM     76  F   UNL A   1      45.951  30.278  27.073  1.00  0.00    -0.205 F 
ATOM     77  C   UNL A   1      48.478  32.828  26.838  1.00  0.00     0.022 A 
BRANCH  75  78
ATOM     78  S   UNL A   1      45.778  33.171  26.456  1.00  0.00     0.127 S 
ATOM     79  O   UNL A   1      45.176  32.467  25.328  1.00  0.00    -0.237 OA
ATOM     80  O   UNL A   1      45.067  33.033  27.727  1.00  0.00    -0.237 OA
ATOM     81  O   UNL A   1      46.262  34.520  26.190  1.00  0.00    -0.744 OA
ENDBRANCH  75  78
ENDBRANCH  57  71
BRANCH  58  82
ATOM     82  C   UNL A   1      40.452  28.432  29.770  1.00  0.00     0.023 A 
ATOM     83  C   UNL A   1      39.785  28.357  28.530  1.00  0.00     0.012 A 
ATOM     84  C   UNL A   1      39.703  28.828  30.902  1.00  0.00     0.148 A 
ATOM     85  C   UNL A   1      38.418  28.649  28.426  1.00  0.00     0.002 A 
ATOM     86  C   UNL A   1      38.348  29.130  30.791  1.00  0.00     0.091 A 
ATOM     87  F   UNL A   1      40.295  28.821  32.102  1.00  0.00    -0.205 F 
ATOM     88  C   UNL A   1      37.699  29.031  29.555  1.00  0.00     0.022 A 
BRANCH  86  89
ATOM     89  S   UNL A   1      37.354  29.619  32.208  1.00  0.00     0.127 S 
ATOM     90  O   UNL A   1      36.071  29.938  31.580  1.00  0.00    -0.237 OA
ATOM     91  O   UNL A   1      37.353  28.401  33.014  1.00  0.00    -0.237 OA
ATOM     92  O   UNL A   1      38.033  30.766  32.798  1.00  0.00    -0.744 OA
ENDBRANCH  86  89
ENDBRANCH  58  82
BRANCH  70  93
ATOM     93  C   UNL A   1      45.849  26.679  32.432  1.00  0.00     0.023 A 
ATOM     94  C   UNL A   1      45.452  25.387  32.025  1.00  0.00     0.012 A 
ATOM     95  C   UNL A   1      46.232  26.880  33.767  1.00  0.00     0.148 A 
ATOM     96  C   UNL A   1      45.421  24.325  32.934  1.00  0.00     0.002 A 
ATOM     97  C   UNL A   1      46.242  25.813  34.658  1.00  0.00     0.091 A 
ATOM     98  F   UNL A   1      46.620  28.111  34.134  1.00  0.00    -0.205 F 
ATOM     99  C   UNL A   1      45.828  24.535  34.248  1.00  0.00     0.022 A 
BRANCH  97 100
ATOM    100  S   UNL A   1      46.873  25.982  36.329  1.00  0.00     0.127 S 
ATOM    101  O   UNL A   1      45.662  26.297  37.083  1.00  0.00    -0.237 OA
ATOM    102  O   UNL A   1      47.428  24.653  36.589  1.00  0.00    -0.237 OA
ATOM    103  O   UNL A   1      47.870  27.045  36.279  1.00  0.00    -0.744 OA
ENDBRANCH  97 100
ENDBRANCH  70  93
ENDBRANCH  44  45
ENDBRANCH  37  39
ENDBRANCH  36  37
ENDBRANCH  35  36
ENDBRANCH  34  35
ENDBRANCH  33  34
ENDBRANCH  32  33
ENDBRANCH   1  32
TORSDOF 24
ENDMDL
