MODEL 1
REMARK VINA RESULT:     -13.0      0.000      0.000
REMARK SMILES Cc1cccc(-c2cc(OCC(=O)OCCOCCOCCOC(=O)c3ccc(-c4c5nc(c(-c6cccc(S(=O)(=O)[O-])c6F)c6ccc([nH]6)c(-c6cccc(S(=O)(=O)[O-])c6F)c6nc(c(-c7cccc(S(=O)(=O)[O-])c7F)c7ccc4[nH]7)C=C6)C=C5)cc3)nc(Nc3ccccc3C)n2)c1
REMARK SMILES IDX 18 1 17 2 16 3 15 4 14 5 12 6 13 7 11 8 10 9 9 10 7 11 8 12
REMARK SMILES IDX 99 13 90 14 89 15 6 16 1 17 2 18 3 19 100 20 4 21 5 22 91 23
REMARK SMILES IDX 92 25 93 26 97 27 94 28 96 29 98 30 95 31 19 32 20 33 21 34
REMARK SMILES IDX 22 35 23 36 24 37 25 38 26 39 27 40 88 41 28 42 87 43 29 44
REMARK SMILES IDX 30 45 31 46 81 47 32 48 86 49 80 50 82 51 33 52 85 53 79 54
REMARK SMILES IDX 78 55 34 57 66 58 46 59 65 60 47 61 50 62 64 63 83 64 48 65
REMARK SMILES IDX 49 66 63 68 84 69 51 70 35 71 36 72 44 73 37 74 39 75 45 76
REMARK SMILES IDX 38 77 40 78 41 79 42 80 43 81 67 82 68 83 76 84 69 85 71 86
REMARK SMILES IDX 77 87 70 88 72 89 73 90 74 91 75 92 52 93 53 94 61 95 54 96
REMARK SMILES IDX 56 97 62 98 55 99 57 100 58 101 59 102 60 103
REMARK H PARENT 91 24 82 56 50 67
REMARK Flexibility Score: inf
ROOT
ATOM      1  C   UNL A   1      36.283  31.173  31.081  1.00  0.00     0.188 C 
ENDROOT
BRANCH   1   2
ATOM      2  O   UNL A   1      36.935  30.929  29.859  1.00  0.00    -0.376 OA
BRANCH   2   3
ATOM      3  C   UNL A   1      37.514  32.095  29.356  1.00  0.00     0.202 C 
BRANCH   3   4
ATOM      4  C   UNL A   1      36.562  33.017  28.576  1.00  0.00     0.261 C 
BRANCH   4   5
ATOM      5  O   UNL A   1      34.796  33.180  29.004  1.00  0.00    -0.461 OA
BRANCH   5   6
ATOM      6  C   UNL A   1      33.282  33.413  28.161  1.00  0.00     0.344 C 
ATOM      7  O   UNL A   1      32.955  34.570  27.985  1.00  0.00    -0.248 OA
BRANCH   6   8
ATOM      8  C   UNL A   1      32.288  31.989  27.314  1.00  0.00     0.353 C 
BRANCH   8   9
ATOM      9  O   UNL A   1      32.789  30.287  27.319  1.00  0.00    -0.466 OA
BRANCH   9  10
ATOM     10  C   UNL A   1      32.048  29.062  26.349  1.00  0.00     0.219 A 
ATOM     11  C   UNL A   1      33.054  26.124  25.263  1.00  0.00     0.080 A 
ATOM     12  C   UNL A   1      32.418  27.088  26.672  1.00  0.00     0.097 A 
ATOM     13  N   UNL A   1      32.971  26.881  23.706  1.00  0.00    -0.212 NA
ATOM     14  C   UNL A   1      32.329  28.469  23.474  1.00  0.00     0.231 A 
ATOM     15  N   UNL A   1      31.956  29.603  24.714  1.00  0.00    -0.177 NA
BRANCH  11  16
ATOM     16  C   UNL A   1      33.810  24.827  25.339  1.00  0.00     0.001 A 
ATOM     17  C   UNL A   1      36.328  22.842  23.178  1.00  0.00     0.044 C 
ATOM     18  C   UNL A   1      35.443  23.220  24.334  1.00  0.00    -0.050 A 
ATOM     19  C   UNL A   1      35.208  22.323  25.358  1.00  0.00     0.003 A 
ATOM     20  C   UNL A   1      34.803  24.469  24.414  1.00  0.00     0.013 A 
ATOM     21  C   UNL A   1      34.349  22.683  26.399  1.00  0.00     0.001 A 
ATOM     22  C   UNL A   1      33.638  23.904  26.375  1.00  0.00     0.010 A 
ENDBRANCH  11  16
BRANCH  14  23
ATOM     23  N   UNL A   1      31.336  28.528  22.419  1.00  0.00    -0.324 N 
ATOM     24  H   UNL A   1      31.665  28.683  21.504  1.00  0.00     0.170 HD
BRANCH  23  25
ATOM     25  C   UNL A   1      29.934  28.383  22.585  1.00  0.00     0.044 A 
ATOM     26  C   UNL A   1      29.518  27.212  23.236  1.00  0.00     0.026 A 
ATOM     27  C   UNL A   1      28.936  29.345  22.276  1.00  0.00    -0.027 A 
ATOM     28  C   UNL A   1      28.208  27.041  23.691  1.00  0.00     0.002 A 
ATOM     29  C   UNL A   1      27.653  29.213  22.867  1.00  0.00     0.005 A 
ATOM     30  C   UNL A   1      29.093  30.588  21.431  1.00  0.00     0.046 C 
ATOM     31  C   UNL A   1      27.294  28.076  23.577  1.00  0.00     0.000 A 
ENDBRANCH  23  25
ENDBRANCH  14  23
ENDBRANCH   9  10
ENDBRANCH   8   9
ENDBRANCH   6   8
ENDBRANCH   5   6
ENDBRANCH   4   5
ENDBRANCH   3   4
ENDBRANCH   2   3
ENDBRANCH   1   2
BRANCH   1  32
ATOM     32  C   UNL A   1      37.080  30.948  32.372  1.00  0.00     0.188 C 
BRANCH  32  33
ATOM     33  O   UNL A   1      36.634  31.589  33.550  1.00  0.00    -0.376 OA
BRANCH  33  34
ATOM     34  C   UNL A   1      37.700  31.943  34.440  1.00  0.00     0.202 C 
BRANCH  34  35
ATOM     35  C   UNL A   1      39.043  31.637  33.811  1.00  0.00     0.261 C 
BRANCH  35  36
ATOM     36  O   UNL A   1      40.102  31.061  34.681  1.00  0.00    -0.460 OA
BRANCH  36  37
ATOM     37  C   UNL A   1      40.997  30.493  35.491  1.00  0.00     0.338 C 
ATOM     38  O   UNL A   1      40.458  29.688  36.240  1.00  0.00    -0.246 OA
BRANCH  37  39
ATOM     39  C   UNL A   1      42.633  31.097  35.573  1.00  0.00     0.060 A 
ATOM     40  C   UNL A   1      43.356  32.549  36.782  1.00  0.00     0.016 A 
ATOM     41  C   UNL A   1      42.906  31.143  33.859  1.00  0.00     0.016 A 
ATOM     42  C   UNL A   1      43.819  34.043  35.882  1.00  0.00     0.010 A 
ATOM     43  C   UNL A   1      43.516  32.481  33.115  1.00  0.00     0.010 A 
ATOM     44  C   UNL A   1      43.896  33.927  33.954  1.00  0.00    -0.014 A 
BRANCH  44  45
ATOM     45  C   UNL A   1      44.373  35.250  32.702  1.00  0.00     0.031 A 
ATOM     46  C   UNL A   1      43.853  36.568  33.122  1.00  0.00     0.074 A 
ATOM     47  C   UNL A   1      45.088  35.114  31.346  1.00  0.00     0.049 A 
ATOM     48  N   UNL A   1      43.403  37.389  32.241  1.00  0.00    -0.248 NA
ATOM     49  C   UNL A   1      43.460  36.961  34.485  1.00  0.00     0.031 C 
ATOM     50  C   UNL A   1      46.153  35.902  30.644  1.00  0.00     0.029 A 
ATOM     51  N   UNL A   1      45.440  33.900  30.631  1.00  0.00    -0.354 N 
ATOM     52  C   UNL A   1      43.282  38.567  32.928  1.00  0.00     0.074 A 
ATOM     53  C   UNL A   1      42.937  38.172  34.258  1.00  0.00     0.031 C 
ATOM     54  C   UNL A   1      46.717  35.206  29.591  1.00  0.00     0.029 A 
ATOM     55  C   UNL A   1      46.106  33.881  29.453  1.00  0.00     0.049 A 
ATOM     56  H   UNL A   1      45.179  33.036  31.028  1.00  0.00     0.167 HD
ATOM     57  C   UNL A   1      43.958  39.640  32.438  1.00  0.00     0.034 A 
ATOM     58  C   UNL A   1      45.445  33.209  28.446  1.00  0.00     0.034 A 
ATOM     59  C   UNL A   1      44.635  39.270  31.163  1.00  0.00     0.049 A 
ATOM     60  C   UNL A   1      44.630  34.307  27.836  1.00  0.00     0.074 A 
ATOM     61  C   UNL A   1      45.952  39.141  30.755  1.00  0.00     0.029 A 
ATOM     62  N   UNL A   1      43.892  38.630  30.168  1.00  0.00    -0.354 N 
ATOM     63  N   UNL A   1      44.490  35.458  28.428  1.00  0.00    -0.248 NA
ATOM     64  C   UNL A   1      43.956  34.247  26.559  1.00  0.00     0.031 C 
ATOM     65  C   UNL A   1      45.957  38.547  29.441  1.00  0.00     0.029 A 
ATOM     66  C   UNL A   1      44.655  38.201  29.098  1.00  0.00     0.049 A 
ATOM     67  H   UNL A   1      42.919  38.496  30.224  1.00  0.00     0.167 HD
ATOM     68  C   UNL A   1      43.916  36.345  27.616  1.00  0.00     0.074 A 
ATOM     69  C   UNL A   1      43.436  35.489  26.525  1.00  0.00     0.031 C 
ATOM     70  C   UNL A   1      43.956  37.682  27.908  1.00  0.00     0.034 A 
BRANCH  57  71
ATOM     71  C   UNL A   1      44.224  40.935  33.192  1.00  0.00     0.023 A 
ATOM     72  C   UNL A   1      45.032  40.825  34.342  1.00  0.00     0.012 A 
ATOM     73  C   UNL A   1      43.809  42.252  32.856  1.00  0.00     0.148 A 
ATOM     74  C   UNL A   1      45.414  41.931  35.108  1.00  0.00     0.002 A 
ATOM     75  C   UNL A   1      44.197  43.363  33.615  1.00  0.00     0.091 A 
ATOM     76  F   UNL A   1      43.037  42.472  31.793  1.00  0.00    -0.205 F 
ATOM     77  C   UNL A   1      45.006  43.203  34.740  1.00  0.00     0.022 A 
BRANCH  75  78
ATOM     78  S   UNL A   1      43.716  45.057  33.205  1.00  0.00     0.127 S 
ATOM     79  O   UNL A   1      44.171  45.174  31.818  1.00  0.00    -0.237 OA
ATOM     80  O   UNL A   1      42.263  45.017  33.365  1.00  0.00    -0.237 OA
ATOM     81  O   UNL A   1      44.417  45.927  34.140  1.00  0.00    -0.744 OA
ENDBRANCH  75  78
ENDBRANCH  57  71
BRANCH  58  82
ATOM     82  C   UNL A   1      44.874  31.792  28.753  1.00  0.00     0.023 A 
ATOM     83  C   UNL A   1      43.885  31.720  29.767  1.00  0.00     0.012 A 
ATOM     84  C   UNL A   1      44.995  30.652  27.905  1.00  0.00     0.148 A 
ATOM     85  C   UNL A   1      42.904  30.718  29.763  1.00  0.00     0.002 A 
ATOM     86  C   UNL A   1      43.960  29.686  27.856  1.00  0.00     0.091 A 
ATOM     87  F   UNL A   1      46.007  30.596  27.029  1.00  0.00    -0.205 F 
ATOM     88  C   UNL A   1      42.893  29.755  28.762  1.00  0.00     0.022 A 
BRANCH  86  89
ATOM     89  S   UNL A   1      43.673  28.617  26.386  1.00  0.00     0.127 S 
ATOM     90  O   UNL A   1      42.667  29.375  25.647  1.00  0.00    -0.237 OA
ATOM     91  O   UNL A   1      44.992  28.592  25.741  1.00  0.00    -0.237 OA
ATOM     92  O   UNL A   1      43.240  27.315  26.876  1.00  0.00    -0.744 OA
ENDBRANCH  86  89
ENDBRANCH  58  82
BRANCH  70  93
ATOM     93  C   UNL A   1      43.224  38.651  27.052  1.00  0.00     0.023 A 
ATOM     94  C   UNL A   1      41.855  38.516  26.816  1.00  0.00     0.012 A 
ATOM     95  C   UNL A   1      43.880  39.754  26.472  1.00  0.00     0.148 A 
ATOM     96  C   UNL A   1      41.114  39.566  26.299  1.00  0.00     0.002 A 
ATOM     97  C   UNL A   1      43.162  40.758  25.873  1.00  0.00     0.091 A 
ATOM     98  F   UNL A   1      45.211  39.837  26.459  1.00  0.00    -0.205 F 
ATOM     99  C   UNL A   1      41.769  40.703  25.849  1.00  0.00     0.022 A 
BRANCH  97 100
ATOM    100  S   UNL A   1      43.983  42.117  25.054  1.00  0.00     0.127 S 
ATOM    101  O   UNL A   1      42.859  42.730  24.346  1.00  0.00    -0.237 OA
ATOM    102  O   UNL A   1      44.491  42.881  26.191  1.00  0.00    -0.237 OA
ATOM    103  O   UNL A   1      45.006  41.539  24.194  1.00  0.00    -0.744 OA
ENDBRANCH  97 100
ENDBRANCH  70  93
ENDBRANCH  44  45
ENDBRANCH  37  39
ENDBRANCH  36  37
ENDBRANCH  35  36
ENDBRANCH  34  35
ENDBRANCH  33  34
ENDBRANCH  32  33
ENDBRANCH   1  32
TORSDOF 25
ENDMDL
MODEL 2
REMARK VINA RESULT:     -12.8      4.361      6.264
REMARK SMILES Cc1cccc(-c2cc(OCC(=O)OCCOCCOCCOC(=O)c3ccc(-c4c5nc(c(-c6cccc(S(=O)(=O)[O-])c6F)c6ccc([nH]6)c(-c6cccc(S(=O)(=O)[O-])c6F)c6nc(c(-c7cccc(S(=O)(=O)[O-])c7F)c7ccc4[nH]7)C=C6)C=C5)cc3)nc(Nc3ccccc3C)n2)c1
REMARK SMILES IDX 18 1 17 2 16 3 15 4 14 5 12 6 13 7 11 8 10 9 9 10 7 11 8 12
REMARK SMILES IDX 99 13 90 14 89 15 6 16 1 17 2 18 3 19 100 20 4 21 5 22 91 23
REMARK SMILES IDX 92 25 93 26 97 27 94 28 96 29 98 30 95 31 19 32 20 33 21 34
REMARK SMILES IDX 22 35 23 36 24 37 25 38 26 39 27 40 88 41 28 42 87 43 29 44
REMARK SMILES IDX 30 45 31 46 81 47 32 48 86 49 80 50 82 51 33 52 85 53 79 54
REMARK SMILES IDX 78 55 34 57 66 58 46 59 65 60 47 61 50 62 64 63 83 64 48 65
REMARK SMILES IDX 49 66 63 68 84 69 51 70 35 71 36 72 44 73 37 74 39 75 45 76
REMARK SMILES IDX 38 77 40 78 41 79 42 80 43 81 67 82 68 83 76 84 69 85 71 86
REMARK SMILES IDX 77 87 70 88 72 89 73 90 74 91 75 92 52 93 53 94 61 95 54 96
REMARK SMILES IDX 56 97 62 98 55 99 57 100 58 101 59 102 60 103
REMARK H PARENT 91 24 82 56 50 67
REMARK Flexibility Score: inf
ROOT
ATOM      1  C   UNL A   1      39.552  35.383  35.687  1.00  0.00     0.188 C 
ENDROOT
BRANCH   1   2
ATOM      2  O   UNL A   1      38.740  34.567  36.495  1.00  0.00    -0.376 OA
BRANCH   2   3
ATOM      3  C   UNL A   1      38.338  33.421  35.808  1.00  0.00     0.202 C 
BRANCH   3   4
ATOM      4  C   UNL A   1      37.974  33.634  34.330  1.00  0.00     0.261 C 
BRANCH   4   5
ATOM      5  O   UNL A   1      36.260  33.494  33.719  1.00  0.00    -0.461 OA
BRANCH   5   6
ATOM      6  C   UNL A   1      35.402  32.605  32.483  1.00  0.00     0.344 C 
ATOM      7  O   UNL A   1      34.224  32.880  32.364  1.00  0.00    -0.248 OA
BRANCH   6   8
ATOM      8  C   UNL A   1      36.259  31.452  31.190  1.00  0.00     0.353 C 
BRANCH   8   9
ATOM      9  O   UNL A   1      36.086  29.687  31.163  1.00  0.00    -0.466 OA
BRANCH   9  10
ATOM     10  C   UNL A   1      37.408  28.592  30.957  1.00  0.00     0.219 A 
ATOM     11  C   UNL A   1      40.175  28.047  32.651  1.00  0.00     0.080 A 
ATOM     12  C   UNL A   1      38.374  27.787  32.555  1.00  0.00     0.097 A 
ATOM     13  N   UNL A   1      40.947  28.660  31.225  1.00  0.00    -0.212 NA
ATOM     14  C   UNL A   1      40.076  29.019  29.775  1.00  0.00     0.231 A 
ATOM     15  N   UNL A   1      38.364  29.096  29.613  1.00  0.00    -0.177 NA
BRANCH  11  16
ATOM     16  C   UNL A   1      41.023  27.966  33.890  1.00  0.00     0.001 A 
ATOM     17  C   UNL A   1      43.146  25.320  35.745  1.00  0.00     0.044 C 
ATOM     18  C   UNL A   1      42.509  26.639  35.403  1.00  0.00    -0.050 A 
ATOM     19  C   UNL A   1      42.570  27.697  36.289  1.00  0.00     0.003 A 
ATOM     20  C   UNL A   1      41.813  26.848  34.199  1.00  0.00     0.013 A 
ATOM     21  C   UNL A   1      41.936  28.898  35.965  1.00  0.00     0.001 A 
ATOM     22  C   UNL A   1      41.149  29.022  34.798  1.00  0.00     0.010 A 
ENDBRANCH  11  16
BRANCH  14  23
ATOM     23  N   UNL A   1      40.670  28.418  28.597  1.00  0.00    -0.324 N 
ATOM     24  H   UNL A   1      40.972  29.029  27.886  1.00  0.00     0.170 HD
BRANCH  23  25
ATOM     25  C   UNL A   1      40.855  27.028  28.374  1.00  0.00     0.044 A 
ATOM     26  C   UNL A   1      39.817  26.379  27.691  1.00  0.00     0.026 A 
ATOM     27  C   UNL A   1      42.022  26.269  28.657  1.00  0.00    -0.027 A 
ATOM     28  C   UNL A   1      39.957  25.085  27.182  1.00  0.00     0.002 A 
ATOM     29  C   UNL A   1      42.195  25.015  28.015  1.00  0.00     0.005 A 
ATOM     30  C   UNL A   1      43.190  26.675  29.526  1.00  0.00     0.046 C 
ATOM     31  C   UNL A   1      41.175  24.432  27.275  1.00  0.00     0.000 A 
ENDBRANCH  23  25
ENDBRANCH  14  23
ENDBRANCH   9  10
ENDBRANCH   8   9
ENDBRANCH   6   8
ENDBRANCH   5   6
ENDBRANCH   4   5
ENDBRANCH   3   4
ENDBRANCH   2   3
ENDBRANCH   1   2
BRANCH   1  32
ATOM     32  C   UNL A   1      40.631  36.224  36.381  1.00  0.00     0.188 C 
BRANCH  32  33
ATOM     33  O   UNL A   1      40.700  36.185  37.792  1.00  0.00    -0.376 OA
BRANCH  33  34
ATOM     34  C   UNL A   1      42.042  36.126  38.291  1.00  0.00     0.202 C 
BRANCH  34  35
ATOM     35  C   UNL A   1      42.362  34.736  38.797  1.00  0.00     0.261 C 
BRANCH  35  36
ATOM     36  O   UNL A   1      42.068  33.586  37.902  1.00  0.00    -0.460 OA
BRANCH  36  37
ATOM     37  C   UNL A   1      41.843  32.508  37.150  1.00  0.00     0.338 C 
ATOM     38  O   UNL A   1      40.952  31.819  37.631  1.00  0.00    -0.246 OA
BRANCH  37  39
ATOM     39  C   UNL A   1      42.920  32.095  35.840  1.00  0.00     0.060 A 
ATOM     40  C   UNL A   1      44.943  32.112  35.849  1.00  0.00     0.016 A 
ATOM     41  C   UNL A   1      42.026  32.910  34.594  1.00  0.00     0.016 A 
ATOM     42  C   UNL A   1      45.637  33.408  34.802  1.00  0.00     0.010 A 
ATOM     43  C   UNL A   1      42.756  33.943  33.538  1.00  0.00     0.010 A 
ATOM     44  C   UNL A   1      44.428  34.318  33.600  1.00  0.00    -0.014 A 
BRANCH  44  45
ATOM     45  C   UNL A   1      44.794  35.675  32.348  1.00  0.00     0.031 A 
ATOM     46  C   UNL A   1      44.260  36.970  32.820  1.00  0.00     0.074 A 
ATOM     47  C   UNL A   1      45.434  35.584  30.951  1.00  0.00     0.049 A 
ATOM     48  N   UNL A   1      43.738  37.792  31.982  1.00  0.00    -0.248 NA
ATOM     49  C   UNL A   1      43.934  37.327  34.211  1.00  0.00     0.031 C 
ATOM     50  C   UNL A   1      46.435  36.416  30.205  1.00  0.00     0.029 A 
ATOM     51  N   UNL A   1      45.781  34.393  30.195  1.00  0.00    -0.354 N 
ATOM     52  C   UNL A   1      43.622  38.953  32.696  1.00  0.00     0.074 A 
ATOM     53  C   UNL A   1      43.364  38.526  34.036  1.00  0.00     0.031 C 
ATOM     54  C   UNL A   1      46.958  35.754  29.109  1.00  0.00     0.029 A 
ATOM     55  C   UNL A   1      46.379  34.415  28.982  1.00  0.00     0.049 A 
ATOM     56  H   UNL A   1      45.568  33.515  30.590  1.00  0.00     0.167 HD
ATOM     57  C   UNL A   1      44.238  40.055  32.189  1.00  0.00     0.034 A 
ATOM     58  C   UNL A   1      45.681  33.740  28.001  1.00  0.00     0.034 A 
ATOM     59  C   UNL A   1      44.852  39.727  30.871  1.00  0.00     0.049 A 
ATOM     60  C   UNL A   1      44.802  34.823  27.458  1.00  0.00     0.074 A 
ATOM     61  C   UNL A   1      46.146  39.644  30.388  1.00  0.00     0.029 A 
ATOM     62  N   UNL A   1      44.072  39.082  29.908  1.00  0.00    -0.354 N 
ATOM     63  N   UNL A   1      44.662  35.959  28.078  1.00  0.00    -0.248 NA
ATOM     64  C   UNL A   1      44.059  34.764  26.221  1.00  0.00     0.031 C 
ATOM     65  C   UNL A   1      46.094  39.073  29.065  1.00  0.00     0.029 A 
ATOM     66  C   UNL A   1      44.786  38.694  28.789  1.00  0.00     0.049 A 
ATOM     67  H   UNL A   1      43.108  38.918  30.016  1.00  0.00     0.167 HD
ATOM     68  C   UNL A   1      44.018  36.842  27.316  1.00  0.00     0.074 A 
ATOM     69  C   UNL A   1      43.502  35.991  26.238  1.00  0.00     0.031 C 
ATOM     70  C   UNL A   1      44.036  38.174  27.631  1.00  0.00     0.034 A 
BRANCH  57  71
ATOM     71  C   UNL A   1      44.508  41.345  32.951  1.00  0.00     0.023 A 
ATOM     72  C   UNL A   1      45.598  41.317  33.844  1.00  0.00     0.012 A 
ATOM     73  C   UNL A   1      43.837  42.593  32.838  1.00  0.00     0.148 A 
ATOM     74  C   UNL A   1      46.009  42.437  34.572  1.00  0.00     0.002 A 
ATOM     75  C   UNL A   1      44.252  43.720  33.558  1.00  0.00     0.091 A 
ATOM     76  F   UNL A   1      42.789  42.731  32.028  1.00  0.00    -0.205 F 
ATOM     77  C   UNL A   1      45.343  43.643  34.423  1.00  0.00     0.022 A 
BRANCH  75  78
ATOM     78  S   UNL A   1      43.446  45.332  33.420  1.00  0.00     0.127 S 
ATOM     79  O   UNL A   1      43.411  45.530  31.970  1.00  0.00    -0.237 OA
ATOM     80  O   UNL A   1      42.140  45.082  34.030  1.00  0.00    -0.237 OA
ATOM     81  O   UNL A   1      44.289  46.281  34.135  1.00  0.00    -0.744 OA
ENDBRANCH  75  78
ENDBRANCH  57  71
BRANCH  58  82
ATOM     82  C   UNL A   1      45.170  32.302  28.314  1.00  0.00     0.023 A 
ATOM     83  C   UNL A   1      43.825  32.194  28.749  1.00  0.00     0.012 A 
ATOM     84  C   UNL A   1      45.796  31.093  27.888  1.00  0.00     0.148 A 
ATOM     85  C   UNL A   1      43.070  31.036  28.515  1.00  0.00     0.002 A 
ATOM     86  C   UNL A   1      45.012  29.953  27.582  1.00  0.00     0.091 A 
ATOM     87  F   UNL A   1      47.107  31.100  27.610  1.00  0.00    -0.205 F 
ATOM     88  C   UNL A   1      43.639  29.952  27.858  1.00  0.00     0.022 A 
BRANCH  86  89
ATOM     89  S   UNL A   1      45.580  28.645  26.419  1.00  0.00     0.127 S 
ATOM     90  O   UNL A   1      44.332  28.241  25.778  1.00  0.00    -0.237 OA
ATOM     91  O   UNL A   1      46.494  29.375  25.531  1.00  0.00    -0.237 OA
ATOM     92  O   UNL A   1      46.237  27.615  27.213  1.00  0.00    -0.744 OA
ENDBRANCH  86  89
ENDBRANCH  58  82
BRANCH  70  93
ATOM     93  C   UNL A   1      43.229  39.136  26.835  1.00  0.00     0.023 A 
ATOM     94  C   UNL A   1      41.843  39.000  26.727  1.00  0.00     0.012 A 
ATOM     95  C   UNL A   1      43.829  40.231  26.186  1.00  0.00     0.148 A 
ATOM     96  C   UNL A   1      41.059  40.045  26.270  1.00  0.00     0.002 A 
ATOM     97  C   UNL A   1      43.059  41.230  25.645  1.00  0.00     0.091 A 
ATOM     98  F   UNL A   1      45.153  40.312  26.049  1.00  0.00    -0.205 F 
ATOM     99  C   UNL A   1      41.670  41.177  25.750  1.00  0.00     0.022 A 
BRANCH  97 100
ATOM    100  S   UNL A   1      43.802  42.579  24.738  1.00  0.00     0.127 S 
ATOM    101  O   UNL A   1      44.418  43.335  25.828  1.00  0.00    -0.237 OA
ATOM    102  O   UNL A   1      44.737  41.868  23.869  1.00  0.00    -0.237 OA
ATOM    103  O   UNL A   1      42.723  43.271  24.047  1.00  0.00    -0.744 OA
ENDBRANCH  97 100
ENDBRANCH  70  93
ENDBRANCH  44  45
ENDBRANCH  37  39
ENDBRANCH  36  37
ENDBRANCH  35  36
ENDBRANCH  34  35
ENDBRANCH  33  34
ENDBRANCH  32  33
ENDBRANCH   1  32
TORSDOF 25
ENDMDL
MODEL 3
REMARK VINA RESULT:     -12.7      5.858     12.220
REMARK SMILES Cc1cccc(-c2cc(OCC(=O)OCCOCCOCCOC(=O)c3ccc(-c4c5nc(c(-c6cccc(S(=O)(=O)[O-])c6F)c6ccc([nH]6)c(-c6cccc(S(=O)(=O)[O-])c6F)c6nc(c(-c7cccc(S(=O)(=O)[O-])c7F)c7ccc4[nH]7)C=C6)C=C5)cc3)nc(Nc3ccccc3C)n2)c1
REMARK SMILES IDX 18 1 17 2 16 3 15 4 14 5 12 6 13 7 11 8 10 9 9 10 7 11 8 12
REMARK SMILES IDX 99 13 90 14 89 15 6 16 1 17 2 18 3 19 100 20 4 21 5 22 91 23
REMARK SMILES IDX 92 25 93 26 97 27 94 28 96 29 98 30 95 31 19 32 20 33 21 34
REMARK SMILES IDX 22 35 23 36 24 37 25 38 26 39 27 40 88 41 28 42 87 43 29 44
REMARK SMILES IDX 30 45 31 46 81 47 32 48 86 49 80 50 82 51 33 52 85 53 79 54
REMARK SMILES IDX 78 55 34 57 66 58 46 59 65 60 47 61 50 62 64 63 83 64 48 65
REMARK SMILES IDX 49 66 63 68 84 69 51 70 35 71 36 72 44 73 37 74 39 75 45 76
REMARK SMILES IDX 38 77 40 78 41 79 42 80 43 81 67 82 68 83 76 84 69 85 71 86
REMARK SMILES IDX 77 87 70 88 72 89 73 90 74 91 75 92 52 93 53 94 61 95 54 96
REMARK SMILES IDX 56 97 62 98 55 99 57 100 58 101 59 102 60 103
REMARK H PARENT 91 24 82 56 50 67
REMARK Flexibility Score: inf
ROOT
ATOM      1  C   UNL A   1      34.359  28.409  26.700  1.00  0.00     0.188 C 
ENDROOT
BRANCH   1   2
ATOM      2  O   UNL A   1      33.488  27.826  25.763  1.00  0.00    -0.376 OA
BRANCH   2   3
ATOM      3  C   UNL A   1      33.319  26.464  26.013  1.00  0.00     0.202 C 
BRANCH   3   4
ATOM      4  C   UNL A   1      33.913  25.523  24.952  1.00  0.00     0.261 C 
BRANCH   4   5
ATOM      5  O   UNL A   1      35.441  24.569  25.243  1.00  0.00    -0.461 OA
BRANCH   5   6
ATOM      6  C   UNL A   1      35.879  22.918  25.613  1.00  0.00     0.344 C 
ATOM      7  O   UNL A   1      35.255  22.403  26.520  1.00  0.00    -0.248 OA
BRANCH   6   8
ATOM      8  C   UNL A   1      37.068  21.847  24.529  1.00  0.00     0.353 C 
BRANCH   8   9
ATOM      9  O   UNL A   1      38.453  20.942  25.169  1.00  0.00    -0.466 OA
BRANCH   9  10
ATOM     10  C   UNL A   1      39.582  21.586  26.310  1.00  0.00     0.219 A 
ATOM     11  C   UNL A   1      40.552  24.642  27.047  1.00  0.00     0.080 A 
ATOM     12  C   UNL A   1      39.257  23.372  27.226  1.00  0.00     0.097 A 
ATOM     13  N   UNL A   1      42.072  24.114  26.405  1.00  0.00    -0.212 NA
ATOM     14  C   UNL A   1      42.370  22.473  25.944  1.00  0.00     0.231 A 
ATOM     15  N   UNL A   1      41.187  21.234  25.787  1.00  0.00    -0.177 NA
BRANCH  11  16
ATOM     16  C   UNL A   1      40.376  26.125  27.220  1.00  0.00     0.001 A 
ATOM     17  C   UNL A   1      41.952  29.380  25.853  1.00  0.00     0.044 C 
ATOM     18  C   UNL A   1      41.038  28.461  26.617  1.00  0.00    -0.050 A 
ATOM     19  C   UNL A   1      40.176  28.965  27.571  1.00  0.00     0.003 A 
ATOM     20  C   UNL A   1      41.038  27.069  26.419  1.00  0.00     0.013 A 
ATOM     21  C   UNL A   1      39.368  28.084  28.295  1.00  0.00     0.001 A 
ATOM     22  C   UNL A   1      39.488  26.684  28.145  1.00  0.00     0.010 A 
ENDBRANCH  11  16
BRANCH  14  23
ATOM     23  N   UNL A   1      43.591  21.940  26.517  1.00  0.00    -0.324 N 
ATOM     24  H   UNL A   1      43.631  20.966  26.657  1.00  0.00     0.170 HD
BRANCH  23  25
ATOM     25  C   UNL A   1      44.733  22.693  26.894  1.00  0.00     0.044 A 
ATOM     26  C   UNL A   1      45.689  22.892  25.887  1.00  0.00     0.026 A 
ATOM     27  C   UNL A   1      44.943  23.360  28.130  1.00  0.00    -0.027 A 
ATOM     28  C   UNL A   1      46.734  23.808  26.024  1.00  0.00     0.002 A 
ATOM     29  C   UNL A   1      45.924  24.383  28.197  1.00  0.00     0.005 A 
ATOM     30  C   UNL A   1      44.171  23.172  29.415  1.00  0.00     0.046 C 
ATOM     31  C   UNL A   1      46.806  24.613  27.150  1.00  0.00     0.000 A 
ENDBRANCH  23  25
ENDBRANCH  14  23
ENDBRANCH   9  10
ENDBRANCH   8   9
ENDBRANCH   6   8
ENDBRANCH   5   6
ENDBRANCH   4   5
ENDBRANCH   3   4
ENDBRANCH   2   3
ENDBRANCH   1   2
BRANCH   1  32
ATOM     32  C   UNL A   1      34.203  29.909  26.982  1.00  0.00     0.188 C 
BRANCH  32  33
ATOM     33  O   UNL A   1      34.985  30.478  28.012  1.00  0.00    -0.376 OA
BRANCH  33  34
ATOM     34  C   UNL A   1      36.371  30.598  27.669  1.00  0.00     0.202 C 
BRANCH  34  35
ATOM     35  C   UNL A   1      37.153  31.203  28.816  1.00  0.00     0.261 C 
BRANCH  35  36
ATOM     36  O   UNL A   1      36.547  31.155  30.172  1.00  0.00    -0.460 OA
BRANCH  36  37
ATOM     37  C   UNL A   1      36.057  31.165  31.412  1.00  0.00     0.338 C 
ATOM     38  O   UNL A   1      35.077  31.896  31.487  1.00  0.00    -0.246 OA
BRANCH  37  39
ATOM     39  C   UNL A   1      36.938  30.426  32.725  1.00  0.00     0.060 A 
ATOM     40  C   UNL A   1      38.114  31.339  34.095  1.00  0.00     0.016 A 
ATOM     41  C   UNL A   1      37.515  29.060  31.822  1.00  0.00     0.016 A 
ATOM     42  C   UNL A   1      39.862  30.932  33.900  1.00  0.00     0.010 A 
ATOM     43  C   UNL A   1      39.102  28.619  31.837  1.00  0.00     0.010 A 
ATOM     44  C   UNL A   1      40.304  29.479  32.706  1.00  0.00    -0.014 A 
BRANCH  44  45
ATOM     45  C   UNL A   1      41.992  28.755  32.289  1.00  0.00     0.031 A 
ATOM     46  C   UNL A   1      42.470  27.893  33.391  1.00  0.00     0.074 A 
ATOM     47  C   UNL A   1      42.909  29.020  31.083  1.00  0.00     0.049 A 
ATOM     48  N   UNL A   1      43.715  27.889  33.706  1.00  0.00    -0.248 NA
ATOM     49  C   UNL A   1      41.641  27.262  34.431  1.00  0.00     0.031 C 
ATOM     50  C   UNL A   1      43.759  28.149  30.206  1.00  0.00     0.029 A 
ATOM     51  N   UNL A   1      42.756  30.016  30.036  1.00  0.00    -0.354 N 
ATOM     52  C   UNL A   1      43.836  26.807  34.536  1.00  0.00     0.074 A 
ATOM     53  C   UNL A   1      42.585  26.744  35.226  1.00  0.00     0.031 C 
ATOM     54  C   UNL A   1      44.139  28.787  29.039  1.00  0.00     0.029 A 
ATOM     55  C   UNL A   1      43.602  30.149  28.988  1.00  0.00     0.049 A 
ATOM     56  H   UNL A   1      41.989  30.632  30.092  1.00  0.00     0.167 HD
ATOM     57  C   UNL A   1      44.732  25.850  34.177  1.00  0.00     0.034 A 
ATOM     58  C   UNL A   1      44.145  31.411  28.863  1.00  0.00     0.034 A 
ATOM     59  C   UNL A   1      45.459  26.275  32.947  1.00  0.00     0.049 A 
ATOM     60  C   UNL A   1      45.383  31.289  29.698  1.00  0.00     0.074 A 
ATOM     61  C   UNL A   1      45.515  25.825  31.639  1.00  0.00     0.029 A 
ATOM     62  N   UNL A   1      46.023  27.553  32.907  1.00  0.00    -0.354 N 
ATOM     63  N   UNL A   1      45.568  30.276  30.493  1.00  0.00    -0.248 NA
ATOM     64  C   UNL A   1      46.490  32.216  29.702  1.00  0.00     0.031 C 
ATOM     65  C   UNL A   1      46.251  26.795  30.865  1.00  0.00     0.029 A 
ATOM     66  C   UNL A   1      46.536  27.892  31.669  1.00  0.00     0.049 A 
ATOM     67  H   UNL A   1      46.052  28.154  33.686  1.00  0.00     0.167 HD
ATOM     68  C   UNL A   1      46.814  30.262  30.965  1.00  0.00     0.074 A 
ATOM     69  C   UNL A   1      47.295  31.594  30.586  1.00  0.00     0.031 C 
ATOM     70  C   UNL A   1      47.320  29.135  31.557  1.00  0.00     0.034 A 
BRANCH  57  71
ATOM     71  C   UNL A   1      44.805  24.445  34.759  1.00  0.00     0.023 A 
ATOM     72  C   UNL A   1      44.246  23.421  33.969  1.00  0.00     0.012 A 
ATOM     73  C   UNL A   1      45.413  24.023  35.973  1.00  0.00     0.148 A 
ATOM     74  C   UNL A   1      44.286  22.073  34.338  1.00  0.00     0.002 A 
ATOM     75  C   UNL A   1      45.464  22.674  36.341  1.00  0.00     0.091 A 
ATOM     76  F   UNL A   1      45.967  24.908  36.800  1.00  0.00    -0.205 F 
ATOM     77  C   UNL A   1      44.904  21.695  35.519  1.00  0.00     0.022 A 
BRANCH  75  78
ATOM     78  S   UNL A   1      46.254  22.093  37.859  1.00  0.00     0.127 S 
ATOM     79  O   UNL A   1      46.011  20.650  37.795  1.00  0.00    -0.237 OA
ATOM     80  O   UNL A   1      47.648  22.484  37.656  1.00  0.00    -0.237 OA
ATOM     81  O   UNL A   1      45.579  22.765  38.963  1.00  0.00    -0.744 OA
ENDBRANCH  75  78
ENDBRANCH  57  71
BRANCH  58  82
ATOM     82  C   UNL A   1      43.188  32.638  28.930  1.00  0.00     0.023 A 
ATOM     83  C   UNL A   1      42.359  32.726  30.077  1.00  0.00     0.012 A 
ATOM     84  C   UNL A   1      43.309  33.822  28.143  1.00  0.00     0.148 A 
ATOM     85  C   UNL A   1      41.912  33.964  30.563  1.00  0.00     0.002 A 
ATOM     86  C   UNL A   1      42.923  35.076  28.677  1.00  0.00     0.091 A 
ATOM     87  F   UNL A   1      43.953  33.762  26.969  1.00  0.00    -0.205 F 
ATOM     88  C   UNL A   1      42.264  35.139  29.912  1.00  0.00     0.022 A 
BRANCH  86  89
ATOM     89  S   UNL A   1      43.639  36.665  28.088  1.00  0.00     0.127 S 
ATOM     90  O   UNL A   1      43.126  37.616  29.070  1.00  0.00    -0.237 OA
ATOM     91  O   UNL A   1      45.084  36.427  28.189  1.00  0.00    -0.237 OA
ATOM     92  O   UNL A   1      43.176  36.868  26.721  1.00  0.00    -0.744 OA
ENDBRANCH  86  89
ENDBRANCH  58  82
BRANCH  70  93
ATOM     93  C   UNL A   1      48.673  29.164  32.172  1.00  0.00     0.023 A 
ATOM     94  C   UNL A   1      48.843  29.445  33.529  1.00  0.00     0.012 A 
ATOM     95  C   UNL A   1      49.825  28.882  31.415  1.00  0.00     0.148 A 
ATOM     96  C   UNL A   1      50.038  29.163  34.170  1.00  0.00     0.002 A 
ATOM     97  C   UNL A   1      51.036  28.691  32.030  1.00  0.00     0.091 A 
ATOM     98  F   UNL A   1      49.779  28.825  30.083  1.00  0.00    -0.205 F 
ATOM     99  C   UNL A   1      51.133  28.759  33.419  1.00  0.00     0.022 A 
BRANCH  97 100
ATOM    100  S   UNL A   1      52.524  28.423  31.077  1.00  0.00     0.127 S 
ATOM    101  O   UNL A   1      53.529  28.396  32.139  1.00  0.00    -0.237 OA
ATOM    102  O   UNL A   1      52.243  27.132  30.454  1.00  0.00    -0.237 OA
ATOM    103  O   UNL A   1      52.643  29.541  30.151  1.00  0.00    -0.744 OA
ENDBRANCH  97 100
ENDBRANCH  70  93
ENDBRANCH  44  45
ENDBRANCH  37  39
ENDBRANCH  36  37
ENDBRANCH  35  36
ENDBRANCH  34  35
ENDBRANCH  33  34
ENDBRANCH  32  33
ENDBRANCH   1  32
TORSDOF 25
ENDMDL
