MODEL 1
REMARK VINA RESULT:     -11.2      0.000      0.000
REMARK SMILES NS(=O)(=O)c1ccc(-n2nc(C(F)F)cc2-c2ccc(C(=O)OCCOCCOCCOC(=O)c3ccc(-c4c5nc(c(-c6cccc(S(=O)(=O)[O-])c6F)c6ccc([nH]6)c(-c6cccc(S(=O)(=O)[O-])c6F)c6nc(c(-c7cccc(S(=O)(=O)[O-])c7F)c7ccc4[nH]7)C=C6)C=C5)cc3)cc2)cc1
REMARK SMILES IDX 27 1 26 2 25 3 24 4 23 5 21 6 22 7 20 8 17 9 18 10 99 11
REMARK SMILES IDX 19 12 98 13 16 14 9 15 10 16 11 17 15 18 8 19 5 20 6 21
REMARK SMILES IDX 101 22 7 23 100 24 2 25 3 26 4 27 1 28 12 31 13 32 14 33
REMARK SMILES IDX 28 34 29 35 30 36 31 37 32 38 33 39 34 40 35 41 36 42 97 43
REMARK SMILES IDX 37 44 96 45 38 46 39 47 40 48 90 49 41 50 95 51 89 52 91 53
REMARK SMILES IDX 42 54 94 55 88 56 87 57 43 59 75 60 55 61 74 62 56 63 59 64
REMARK SMILES IDX 73 65 92 66 57 67 58 68 72 70 93 71 60 72 44 73 45 74 53 75
REMARK SMILES IDX 46 76 48 77 54 78 47 79 49 80 50 81 51 82 52 83 76 84 77 85
REMARK SMILES IDX 85 86 78 87 80 88 86 89 79 90 81 91 82 92 83 93 84 94 61 95
REMARK SMILES IDX 62 96 70 97 63 98 65 99 71 100 64 101 66 102 67 103 68 104
REMARK SMILES IDX 69 105
REMARK H PARENT 1 29 1 30 91 58 59 69
REMARK Flexibility Score: inf
ROOT
ATOM      1  C   UNL A   1      32.769  29.138  24.554  1.00  0.00     0.188 C 
ENDROOT
BRANCH   1   2
ATOM      2  O   UNL A   1      32.280  28.755  23.290  1.00  0.00    -0.376 OA
BRANCH   2   3
ATOM      3  C   UNL A   1      30.921  28.999  22.966  1.00  0.00     0.202 C 
BRANCH   3   4
ATOM      4  C   UNL A   1      29.876  27.879  22.759  1.00  0.00     0.261 C 
BRANCH   4   5
ATOM      5  O   UNL A   1      30.308  26.527  22.936  1.00  0.00    -0.460 OA
BRANCH   5   6
ATOM      6  C   UNL A   1      30.335  26.063  24.208  1.00  0.00     0.338 C 
ATOM      7  O   UNL A   1      29.423  26.091  25.016  1.00  0.00    -0.246 OA
BRANCH   6   8
ATOM      8  C   UNL A   1      31.613  25.355  24.451  1.00  0.00     0.060 A 
ATOM      9  C   UNL A   1      34.058  24.100  25.017  1.00  0.00     0.000 A 
ATOM     10  C   UNL A   1      33.196  24.478  26.058  1.00  0.00     0.011 A 
ATOM     11  C   UNL A   1      33.664  24.320  23.689  1.00  0.00     0.011 A 
ATOM     12  C   UNL A   1      31.986  25.113  25.777  1.00  0.00     0.016 A 
ATOM     13  C   UNL A   1      32.438  24.934  23.403  1.00  0.00     0.016 A 
BRANCH   9  14
ATOM     14  C   UNL A   1      35.410  23.638  25.329  1.00  0.00     0.075 A 
ATOM     15  N   UNL A   1      35.804  22.335  25.618  1.00  0.00    -0.233 N 
ATOM     16  N   UNL A   1      36.994  22.314  26.279  1.00  0.00    -0.166 NA
ATOM     17  C   UNL A   1      37.465  23.566  26.202  1.00  0.00     0.129 A 
ATOM     18  C   UNL A   1      36.509  24.426  25.618  1.00  0.00     0.060 A 
BRANCH  15  19
ATOM     19  C   UNL A   1      35.161  21.108  25.296  1.00  0.00     0.065 A 
ATOM     20  C   UNL A   1      33.937  18.708  24.563  1.00  0.00     0.082 A 
ATOM     21  C   UNL A   1      33.147  19.802  24.918  1.00  0.00     0.024 A 
ATOM     22  C   UNL A   1      35.334  18.803  24.569  1.00  0.00     0.024 A 
ATOM     23  C   UNL A   1      33.761  21.002  25.301  1.00  0.00     0.030 A 
ATOM     24  C   UNL A   1      35.944  20.009  24.911  1.00  0.00     0.030 A 
BRANCH  20  25
ATOM     25  S   UNL A   1      33.235  17.159  24.073  1.00  0.00     0.238 S 
ATOM     26  O   UNL A   1      32.246  16.800  25.063  1.00  0.00    -0.207 OA
ATOM     27  O   UNL A   1      34.320  16.291  23.687  1.00  0.00    -0.207 OA
BRANCH  25  28
ATOM     28  N   UNL A   1      32.373  17.486  22.669  1.00  0.00    -0.225 NA
ATOM     29  H   UNL A   1      32.907  17.170  21.860  1.00  0.00     0.137 HD
ATOM     30  H   UNL A   1      32.209  18.491  22.596  1.00  0.00     0.137 HD
ENDBRANCH  25  28
ENDBRANCH  20  25
ENDBRANCH  15  19
BRANCH  17  31
ATOM     31  C   UNL A   1      38.811  23.959  26.732  1.00  0.00     0.393 C 
ATOM     32  F   UNL A   1      39.453  24.854  25.932  1.00  0.00    -0.203 F 
ATOM     33  F   UNL A   1      38.720  24.532  27.964  1.00  0.00    -0.203 F 
ENDBRANCH  17  31
ENDBRANCH   9  14
ENDBRANCH   6   8
ENDBRANCH   5   6
ENDBRANCH   4   5
ENDBRANCH   3   4
ENDBRANCH   2   3
ENDBRANCH   1   2
BRANCH   1  34
ATOM     34  C   UNL A   1      31.741  29.922  25.397  1.00  0.00     0.188 C 
BRANCH  34  35
ATOM     35  O   UNL A   1      32.148  30.757  26.476  1.00  0.00    -0.376 OA
BRANCH  35  36
ATOM     36  C   UNL A   1      33.343  30.497  27.204  1.00  0.00     0.202 C 
BRANCH  36  37
ATOM     37  C   UNL A   1      34.046  31.574  28.031  1.00  0.00     0.261 C 
BRANCH  37  38
ATOM     38  O   UNL A   1      34.804  31.100  29.131  1.00  0.00    -0.460 OA
BRANCH  38  39
ATOM     39  C   UNL A   1      35.773  31.955  29.516  1.00  0.00     0.338 C 
ATOM     40  O   UNL A   1      35.628  33.028  30.080  1.00  0.00    -0.246 OA
BRANCH  39  41
ATOM     41  C   UNL A   1      37.079  31.433  29.110  1.00  0.00     0.060 A 
ATOM     42  C   UNL A   1      37.097  30.130  28.604  1.00  0.00     0.016 A 
ATOM     43  C   UNL A   1      38.253  32.113  29.461  1.00  0.00     0.016 A 
ATOM     44  C   UNL A   1      38.285  29.437  28.623  1.00  0.00     0.010 A 
ATOM     45  C   UNL A   1      39.441  31.414  29.483  1.00  0.00     0.010 A 
ATOM     46  C   UNL A   1      39.423  30.062  29.144  1.00  0.00    -0.014 A 
BRANCH  46  47
ATOM     47  C   UNL A   1      40.580  29.224  29.378  1.00  0.00     0.031 A 
ATOM     48  C   UNL A   1      40.867  28.915  30.792  1.00  0.00     0.074 A 
ATOM     49  C   UNL A   1      41.311  28.723  28.365  1.00  0.00     0.049 A 
ATOM     50  N   UNL A   1      41.901  29.267  31.481  1.00  0.00    -0.248 NA
ATOM     51  C   UNL A   1      39.828  28.214  31.554  1.00  0.00     0.031 C 
ATOM     52  C   UNL A   1      40.964  28.697  26.941  1.00  0.00     0.029 A 
ATOM     53  N   UNL A   1      42.461  27.997  28.426  1.00  0.00    -0.354 N 
ATOM     54  C   UNL A   1      41.745  28.640  32.713  1.00  0.00     0.074 A 
ATOM     55  C   UNL A   1      40.391  28.149  32.759  1.00  0.00     0.031 C 
ATOM     56  C   UNL A   1      41.739  27.780  26.321  1.00  0.00     0.029 A 
ATOM     57  C   UNL A   1      42.710  27.267  27.273  1.00  0.00     0.049 A 
ATOM     58  H   UNL A   1      43.056  27.991  29.209  1.00  0.00     0.167 HD
ATOM     59  C   UNL A   1      42.807  28.359  33.512  1.00  0.00     0.034 A 
ATOM     60  C   UNL A   1      43.587  26.245  27.148  1.00  0.00     0.034 A 
ATOM     61  C   UNL A   1      43.979  29.111  33.151  1.00  0.00     0.049 A 
ATOM     62  C   UNL A   1      44.564  26.344  28.257  1.00  0.00     0.074 A 
ATOM     63  C   UNL A   1      44.295  30.450  33.048  1.00  0.00     0.029 A 
ATOM     64  N   UNL A   1      44.986  28.432  32.511  1.00  0.00    -0.354 N 
ATOM     65  N   UNL A   1      45.461  27.284  28.360  1.00  0.00    -0.248 NA
ATOM     66  C   UNL A   1      44.322  25.577  29.469  1.00  0.00     0.031 C 
ATOM     67  C   UNL A   1      45.240  30.531  31.985  1.00  0.00     0.029 A 
ATOM     68  C   UNL A   1      45.451  29.237  31.505  1.00  0.00     0.049 A 
ATOM     69  H   UNL A   1      45.315  27.532  32.735  1.00  0.00     0.167 HD
ATOM     70  C   UNL A   1      45.579  27.508  29.725  1.00  0.00     0.074 A 
ATOM     71  C   UNL A   1      44.969  26.340  30.351  1.00  0.00     0.031 C 
ATOM     72  C   UNL A   1      45.890  28.745  30.216  1.00  0.00     0.034 A 
BRANCH  59  73
ATOM     73  C   UNL A   1      42.889  27.156  34.417  1.00  0.00     0.023 A 
ATOM     74  C   UNL A   1      42.618  27.349  35.789  1.00  0.00     0.012 A 
ATOM     75  C   UNL A   1      43.462  25.920  34.043  1.00  0.00     0.148 A 
ATOM     76  C   UNL A   1      42.933  26.375  36.741  1.00  0.00     0.002 A 
ATOM     77  C   UNL A   1      43.684  24.919  34.981  1.00  0.00     0.091 A 
ATOM     78  F   UNL A   1      43.930  25.742  32.802  1.00  0.00    -0.205 F 
ATOM     79  C   UNL A   1      43.453  25.151  36.336  1.00  0.00     0.022 A 
BRANCH  77  80
ATOM     80  S   UNL A   1      44.271  23.299  34.474  1.00  0.00     0.127 S 
ATOM     81  O   UNL A   1      44.465  22.639  35.760  1.00  0.00    -0.237 OA
ATOM     82  O   UNL A   1      43.147  22.799  33.681  1.00  0.00    -0.237 OA
ATOM     83  O   UNL A   1      45.472  23.567  33.690  1.00  0.00    -0.744 OA
ENDBRANCH  77  80
ENDBRANCH  59  73
BRANCH  60  84
ATOM     84  C   UNL A   1      43.514  25.059  26.268  1.00  0.00     0.023 A 
ATOM     85  C   UNL A   1      44.385  24.958  25.166  1.00  0.00     0.012 A 
ATOM     86  C   UNL A   1      42.774  23.913  26.640  1.00  0.00     0.148 A 
ATOM     87  C   UNL A   1      44.533  23.752  24.473  1.00  0.00     0.002 A 
ATOM     88  C   UNL A   1      42.911  22.721  25.936  1.00  0.00     0.091 A 
ATOM     89  F   UNL A   1      42.009  23.963  27.739  1.00  0.00    -0.205 F 
ATOM     90  C   UNL A   1      43.800  22.633  24.858  1.00  0.00     0.022 A 
BRANCH  88  91
ATOM     91  S   UNL A   1      41.990  21.242  26.384  1.00  0.00     0.127 S 
ATOM     92  O   UNL A   1      40.621  21.611  26.019  1.00  0.00    -0.237 OA
ATOM     93  O   UNL A   1      42.601  20.234  25.525  1.00  0.00    -0.237 OA
ATOM     94  O   UNL A   1      42.197  21.070  27.817  1.00  0.00    -0.744 OA
ENDBRANCH  88  91
ENDBRANCH  60  84
BRANCH  72  95
ATOM     95  C   UNL A   1      46.424  29.784  29.258  1.00  0.00     0.023 A 
ATOM     96  C   UNL A   1      47.786  29.825  28.893  1.00  0.00     0.012 A 
ATOM     97  C   UNL A   1      45.515  30.614  28.578  1.00  0.00     0.148 A 
ATOM     98  C   UNL A   1      48.235  30.694  27.895  1.00  0.00     0.002 A 
ATOM     99  C   UNL A   1      45.958  31.442  27.552  1.00  0.00     0.091 A 
ATOM    100  F   UNL A   1      44.220  30.563  28.928  1.00  0.00    -0.205 F 
ATOM    101  C   UNL A   1      47.319  31.492  27.215  1.00  0.00     0.022 A 
BRANCH  99 102
ATOM    102  S   UNL A   1      44.808  32.388  26.549  1.00  0.00     0.127 S 
ATOM    103  O   UNL A   1      44.204  33.282  27.534  1.00  0.00    -0.237 OA
ATOM    104  O   UNL A   1      45.693  33.049  25.587  1.00  0.00    -0.237 OA
ATOM    105  O   UNL A   1      43.910  31.408  25.949  1.00  0.00    -0.744 OA
ENDBRANCH  99 102
ENDBRANCH  72  95
ENDBRANCH  46  47
ENDBRANCH  39  41
ENDBRANCH  38  39
ENDBRANCH  37  38
ENDBRANCH  36  37
ENDBRANCH  35  36
ENDBRANCH  34  35
ENDBRANCH   1  34
TORSDOF 25
ENDMDL
MODEL 2
REMARK VINA RESULT:     -10.7      2.039      2.465
REMARK SMILES NS(=O)(=O)c1ccc(-n2nc(C(F)F)cc2-c2ccc(C(=O)OCCOCCOCCOC(=O)c3ccc(-c4c5nc(c(-c6cccc(S(=O)(=O)[O-])c6F)c6ccc([nH]6)c(-c6cccc(S(=O)(=O)[O-])c6F)c6nc(c(-c7cccc(S(=O)(=O)[O-])c7F)c7ccc4[nH]7)C=C6)C=C5)cc3)cc2)cc1
REMARK SMILES IDX 27 1 26 2 25 3 24 4 23 5 21 6 22 7 20 8 17 9 18 10 99 11
REMARK SMILES IDX 19 12 98 13 16 14 9 15 10 16 11 17 15 18 8 19 5 20 6 21
REMARK SMILES IDX 101 22 7 23 100 24 2 25 3 26 4 27 1 28 12 31 13 32 14 33
REMARK SMILES IDX 28 34 29 35 30 36 31 37 32 38 33 39 34 40 35 41 36 42 97 43
REMARK SMILES IDX 37 44 96 45 38 46 39 47 40 48 90 49 41 50 95 51 89 52 91 53
REMARK SMILES IDX 42 54 94 55 88 56 87 57 43 59 75 60 55 61 74 62 56 63 59 64
REMARK SMILES IDX 73 65 92 66 57 67 58 68 72 70 93 71 60 72 44 73 45 74 53 75
REMARK SMILES IDX 46 76 48 77 54 78 47 79 49 80 50 81 51 82 52 83 76 84 77 85
REMARK SMILES IDX 85 86 78 87 80 88 86 89 79 90 81 91 82 92 83 93 84 94 61 95
REMARK SMILES IDX 62 96 70 97 63 98 65 99 71 100 64 101 66 102 67 103 68 104
REMARK SMILES IDX 69 105
REMARK H PARENT 1 29 1 30 91 58 59 69
REMARK Flexibility Score: inf
ROOT
ATOM      1  C   UNL A   1      32.549  28.637  25.709  1.00  0.00     0.188 C 
ENDROOT
BRANCH   1   2
ATOM      2  O   UNL A   1      32.215  29.132  24.433  1.00  0.00    -0.376 OA
BRANCH   2   3
ATOM      3  C   UNL A   1      30.889  28.981  23.954  1.00  0.00     0.202 C 
BRANCH   3   4
ATOM      4  C   UNL A   1      30.540  28.351  22.586  1.00  0.00     0.261 C 
BRANCH   4   5
ATOM      5  O   UNL A   1      30.891  26.980  22.378  1.00  0.00    -0.460 OA
BRANCH   5   6
ATOM      6  C   UNL A   1      30.611  26.125  23.388  1.00  0.00     0.338 C 
ATOM      7  O   UNL A   1      29.513  25.879  23.857  1.00  0.00    -0.246 OA
BRANCH   6   8
ATOM      8  C   UNL A   1      31.837  25.384  23.765  1.00  0.00     0.060 A 
ATOM      9  C   UNL A   1      34.172  24.063  24.588  1.00  0.00     0.000 A 
ATOM     10  C   UNL A   1      33.198  24.433  25.526  1.00  0.00     0.011 A 
ATOM     11  C   UNL A   1      33.946  24.324  23.228  1.00  0.00     0.011 A 
ATOM     12  C   UNL A   1      32.042  25.101  25.119  1.00  0.00     0.016 A 
ATOM     13  C   UNL A   1      32.775  24.971  22.813  1.00  0.00     0.016 A 
BRANCH   9  14
ATOM     14  C   UNL A   1      35.468  23.564  25.047  1.00  0.00     0.075 A 
ATOM     15  N   UNL A   1      35.782  22.258  25.410  1.00  0.00    -0.233 N 
ATOM     16  N   UNL A   1      36.897  22.216  26.188  1.00  0.00    -0.166 NA
ATOM     17  C   UNL A   1      37.420  23.449  26.127  1.00  0.00     0.129 A 
ATOM     18  C   UNL A   1      36.560  24.323  25.426  1.00  0.00     0.060 A 
BRANCH  15  19
ATOM     19  C   UNL A   1      35.130  21.044  25.056  1.00  0.00     0.065 A 
ATOM     20  C   UNL A   1      33.909  18.659  24.272  1.00  0.00     0.082 A 
ATOM     21  C   UNL A   1      33.146  19.825  24.364  1.00  0.00     0.024 A 
ATOM     22  C   UNL A   1      35.277  18.676  24.566  1.00  0.00     0.024 A 
ATOM     23  C   UNL A   1      33.755  21.018  24.773  1.00  0.00     0.030 A 
ATOM     24  C   UNL A   1      35.892  19.872  24.933  1.00  0.00     0.030 A 
BRANCH  20  25
ATOM     25  S   UNL A   1      33.209  17.114  23.767  1.00  0.00     0.238 S 
ATOM     26  O   UNL A   1      34.196  16.090  24.020  1.00  0.00    -0.207 OA
ATOM     27  O   UNL A   1      32.589  17.315  22.481  1.00  0.00    -0.207 OA
BRANCH  25  28
ATOM     28  N   UNL A   1      31.960  16.817  24.850  1.00  0.00    -0.225 NA
ATOM     29  H   UNL A   1      31.219  16.297  24.380  1.00  0.00     0.137 HD
ATOM     30  H   UNL A   1      31.588  17.703  25.193  1.00  0.00     0.137 HD
ENDBRANCH  25  28
ENDBRANCH  20  25
ENDBRANCH  15  19
BRANCH  17  31
ATOM     31  C   UNL A   1      38.719  23.811  26.780  1.00  0.00     0.393 C 
ATOM     32  F   UNL A   1      39.801  23.347  26.098  1.00  0.00    -0.203 F 
ATOM     33  F   UNL A   1      38.872  25.160  26.884  1.00  0.00    -0.203 F 
ENDBRANCH  17  31
ENDBRANCH   9  14
ENDBRANCH   6   8
ENDBRANCH   5   6
ENDBRANCH   4   5
ENDBRANCH   3   4
ENDBRANCH   2   3
ENDBRANCH   1   2
BRANCH   1  34
ATOM     34  C   UNL A   1      32.150  29.586  26.858  1.00  0.00     0.188 C 
BRANCH  34  35
ATOM     35  O   UNL A   1      32.845  30.807  27.089  1.00  0.00    -0.376 OA
BRANCH  35  36
ATOM     36  C   UNL A   1      34.229  30.820  27.424  1.00  0.00     0.202 C 
BRANCH  36  37
ATOM     37  C   UNL A   1      34.821  31.826  28.412  1.00  0.00     0.261 C 
BRANCH  37  38
ATOM     38  O   UNL A   1      35.700  31.284  29.382  1.00  0.00    -0.460 OA
BRANCH  38  39
ATOM     39  C   UNL A   1      36.973  31.707  29.241  1.00  0.00     0.338 C 
ATOM     40  O   UNL A   1      37.376  32.600  28.512  1.00  0.00    -0.246 OA
BRANCH  39  41
ATOM     41  C   UNL A   1      37.857  30.892  30.074  1.00  0.00     0.060 A 
ATOM     42  C   UNL A   1      39.060  31.484  30.468  1.00  0.00     0.016 A 
ATOM     43  C   UNL A   1      37.615  29.521  30.233  1.00  0.00     0.016 A 
ATOM     44  C   UNL A   1      40.098  30.667  30.853  1.00  0.00     0.010 A 
ATOM     45  C   UNL A   1      38.658  28.704  30.615  1.00  0.00     0.010 A 
ATOM     46  C   UNL A   1      39.907  29.282  30.837  1.00  0.00    -0.014 A 
BRANCH  46  47
ATOM     47  C   UNL A   1      41.086  28.458  31.003  1.00  0.00     0.031 A 
ATOM     48  C   UNL A   1      41.645  28.414  32.368  1.00  0.00     0.074 A 
ATOM     49  C   UNL A   1      41.603  27.743  29.986  1.00  0.00     0.049 A 
ATOM     50  N   UNL A   1      42.794  28.851  32.763  1.00  0.00    -0.248 NA
ATOM     51  C   UNL A   1      40.774  27.915  33.438  1.00  0.00     0.031 C 
ATOM     52  C   UNL A   1      40.983  27.458  28.689  1.00  0.00     0.029 A 
ATOM     53  N   UNL A   1      42.742  26.997  29.966  1.00  0.00    -0.354 N 
ATOM     54  C   UNL A   1      42.883  28.478  34.100  1.00  0.00     0.074 A 
ATOM     55  C   UNL A   1      41.564  28.060  34.501  1.00  0.00     0.031 C 
ATOM     56  C   UNL A   1      41.620  26.410  28.124  1.00  0.00     0.029 A 
ATOM     57  C   UNL A   1      42.758  26.050  28.952  1.00  0.00     0.049 A 
ATOM     58  H   UNL A   1      43.479  27.118  30.606  1.00  0.00     0.167 HD
ATOM     59  C   UNL A   1      44.081  28.315  34.719  1.00  0.00     0.034 A 
ATOM     60  C   UNL A   1      43.592  24.989  28.864  1.00  0.00     0.034 A 
ATOM     61  C   UNL A   1      45.160  28.935  33.999  1.00  0.00     0.049 A 
ATOM     62  C   UNL A   1      44.768  25.261  29.722  1.00  0.00     0.074 A 
ATOM     63  C   UNL A   1      45.452  30.216  33.577  1.00  0.00     0.029 A 
ATOM     64  N   UNL A   1      46.021  28.107  33.323  1.00  0.00    -0.354 N 
ATOM     65  N   UNL A   1      45.670  26.166  29.465  1.00  0.00    -0.248 NA
ATOM     66  C   UNL A   1      44.768  24.750  31.084  1.00  0.00     0.031 C 
ATOM     67  C   UNL A   1      46.169  30.054  32.357  1.00  0.00     0.029 A 
ATOM     68  C   UNL A   1      46.280  28.684  32.109  1.00  0.00     0.049 A 
ATOM     69  H   UNL A   1      46.386  27.254  33.652  1.00  0.00     0.167 HD
ATOM     70  C   UNL A   1      46.053  26.643  30.711  1.00  0.00     0.074 A 
ATOM     71  C   UNL A   1      45.577  25.642  31.659  1.00  0.00     0.031 C 
ATOM     72  C   UNL A   1      46.457  27.938  30.880  1.00  0.00     0.034 A 
BRANCH  59  73
ATOM     73  C   UNL A   1      44.337  27.305  35.809  1.00  0.00     0.023 A 
ATOM     74  C   UNL A   1      44.026  25.955  35.538  1.00  0.00     0.012 A 
ATOM     75  C   UNL A   1      44.616  27.643  37.153  1.00  0.00     0.148 A 
ATOM     76  C   UNL A   1      43.964  25.000  36.557  1.00  0.00     0.002 A 
ATOM     77  C   UNL A   1      44.646  26.671  38.146  1.00  0.00     0.091 A 
ATOM     78  F   UNL A   1      44.719  28.927  37.518  1.00  0.00    -0.205 F 
ATOM     79  C   UNL A   1      44.290  25.353  37.861  1.00  0.00     0.022 A 
BRANCH  77  80
ATOM     80  S   UNL A   1      45.149  27.084  39.820  1.00  0.00     0.127 S 
ATOM     81  O   UNL A   1      46.523  26.594  39.846  1.00  0.00    -0.237 OA
ATOM     82  O   UNL A   1      45.008  28.540  39.833  1.00  0.00    -0.237 OA
ATOM     83  O   UNL A   1      44.193  26.391  40.677  1.00  0.00    -0.744 OA
ENDBRANCH  77  80
ENDBRANCH  59  73
BRANCH  60  84
ATOM     84  C   UNL A   1      43.346  23.660  28.263  1.00  0.00     0.023 A 
ATOM     85  C   UNL A   1      42.217  22.919  28.659  1.00  0.00     0.012 A 
ATOM     86  C   UNL A   1      44.067  23.222  27.129  1.00  0.00     0.148 A 
ATOM     87  C   UNL A   1      41.805  21.793  27.937  1.00  0.00     0.002 A 
ATOM     88  C   UNL A   1      43.664  22.093  26.425  1.00  0.00     0.091 A 
ATOM     89  F   UNL A   1      45.090  23.965  26.684  1.00  0.00    -0.205 F 
ATOM     90  C   UNL A   1      42.525  21.382  26.819  1.00  0.00     0.022 A 
BRANCH  88  91
ATOM     91  S   UNL A   1      44.554  21.509  24.974  1.00  0.00     0.127 S 
ATOM     92  O   UNL A   1      44.204  22.518  23.973  1.00  0.00    -0.237 OA
ATOM     93  O   UNL A   1      45.939  21.553  25.431  1.00  0.00    -0.237 OA
ATOM     94  O   UNL A   1      44.017  20.183  24.693  1.00  0.00    -0.744 OA
ENDBRANCH  88  91
ENDBRANCH  60  84
BRANCH  72  95
ATOM     95  C   UNL A   1      46.794  28.751  29.653  1.00  0.00     0.023 A 
ATOM     96  C   UNL A   1      48.063  28.682  29.043  1.00  0.00     0.012 A 
ATOM     97  C   UNL A   1      45.766  29.455  29.001  1.00  0.00     0.148 A 
ATOM     98  C   UNL A   1      48.311  29.324  27.827  1.00  0.00     0.002 A 
ATOM     99  C   UNL A   1      46.003  30.051  27.766  1.00  0.00     0.091 A 
ATOM    100  F   UNL A   1      44.559  29.510  29.586  1.00  0.00    -0.205 F 
ATOM    101  C   UNL A   1      47.277  29.996  27.182  1.00  0.00     0.022 A 
BRANCH  99 102
ATOM    102  S   UNL A   1      44.677  30.812  26.823  1.00  0.00     0.127 S 
ATOM    103  O   UNL A   1      43.871  29.655  26.437  1.00  0.00    -0.237 OA
ATOM    104  O   UNL A   1      44.047  31.691  27.810  1.00  0.00    -0.237 OA
ATOM    105  O   UNL A   1      45.329  31.522  25.730  1.00  0.00    -0.744 OA
ENDBRANCH  99 102
ENDBRANCH  72  95
ENDBRANCH  46  47
ENDBRANCH  39  41
ENDBRANCH  38  39
ENDBRANCH  37  38
ENDBRANCH  36  37
ENDBRANCH  35  36
ENDBRANCH  34  35
ENDBRANCH   1  34
TORSDOF 25
ENDMDL
MODEL 3
REMARK VINA RESULT:     -10.1      2.545      6.744
REMARK SMILES NS(=O)(=O)c1ccc(-n2nc(C(F)F)cc2-c2ccc(C(=O)OCCOCCOCCOC(=O)c3ccc(-c4c5nc(c(-c6cccc(S(=O)(=O)[O-])c6F)c6ccc([nH]6)c(-c6cccc(S(=O)(=O)[O-])c6F)c6nc(c(-c7cccc(S(=O)(=O)[O-])c7F)c7ccc4[nH]7)C=C6)C=C5)cc3)cc2)cc1
REMARK SMILES IDX 27 1 26 2 25 3 24 4 23 5 21 6 22 7 20 8 17 9 18 10 99 11
REMARK SMILES IDX 19 12 98 13 16 14 9 15 10 16 11 17 15 18 8 19 5 20 6 21
REMARK SMILES IDX 101 22 7 23 100 24 2 25 3 26 4 27 1 28 12 31 13 32 14 33
REMARK SMILES IDX 28 34 29 35 30 36 31 37 32 38 33 39 34 40 35 41 36 42 97 43
REMARK SMILES IDX 37 44 96 45 38 46 39 47 40 48 90 49 41 50 95 51 89 52 91 53
REMARK SMILES IDX 42 54 94 55 88 56 87 57 43 59 75 60 55 61 74 62 56 63 59 64
REMARK SMILES IDX 73 65 92 66 57 67 58 68 72 70 93 71 60 72 44 73 45 74 53 75
REMARK SMILES IDX 46 76 48 77 54 78 47 79 49 80 50 81 51 82 52 83 76 84 77 85
REMARK SMILES IDX 85 86 78 87 80 88 86 89 79 90 81 91 82 92 83 93 84 94 61 95
REMARK SMILES IDX 62 96 70 97 63 98 65 99 71 100 64 101 66 102 67 103 68 104
REMARK SMILES IDX 69 105
REMARK H PARENT 1 29 1 30 91 58 59 69
REMARK Flexibility Score: inf
ROOT
ATOM      1  C   UNL A   1      31.893  29.728  26.570  1.00  0.00     0.188 C 
ENDROOT
BRANCH   1   2
ATOM      2  O   UNL A   1      32.155  29.539  25.199  1.00  0.00    -0.376 OA
BRANCH   2   3
ATOM      3  C   UNL A   1      31.683  28.366  24.556  1.00  0.00     0.202 C 
BRANCH   3   4
ATOM      4  C   UNL A   1      31.599  28.206  23.021  1.00  0.00     0.261 C 
BRANCH   4   5
ATOM      5  O   UNL A   1      31.613  26.877  22.490  1.00  0.00    -0.460 OA
BRANCH   5   6
ATOM      6  C   UNL A   1      31.263  25.884  23.340  1.00  0.00     0.338 C 
ATOM      7  O   UNL A   1      30.133  25.558  23.660  1.00  0.00    -0.246 OA
BRANCH   6   8
ATOM      8  C   UNL A   1      32.469  25.116  23.729  1.00  0.00     0.060 A 
ATOM      9  C   UNL A   1      34.773  23.753  24.569  1.00  0.00     0.000 A 
ATOM     10  C   UNL A   1      33.847  24.228  25.509  1.00  0.00     0.011 A 
ATOM     11  C   UNL A   1      34.513  23.931  23.202  1.00  0.00     0.011 A 
ATOM     12  C   UNL A   1      32.707  24.916  25.092  1.00  0.00     0.016 A 
ATOM     13  C   UNL A   1      33.357  24.600  22.780  1.00  0.00     0.016 A 
BRANCH   9  14
ATOM     14  C   UNL A   1      36.062  23.230  25.022  1.00  0.00     0.075 A 
ATOM     15  N   UNL A   1      36.342  21.927  25.422  1.00  0.00    -0.233 N 
ATOM     16  N   UNL A   1      37.470  21.876  26.182  1.00  0.00    -0.166 NA
ATOM     17  C   UNL A   1      38.029  23.089  26.070  1.00  0.00     0.129 A 
ATOM     18  C   UNL A   1      37.183  23.966  25.356  1.00  0.00     0.060 A 
BRANCH  15  19
ATOM     19  C   UNL A   1      35.647  20.723  25.121  1.00  0.00     0.065 A 
ATOM     20  C   UNL A   1      34.328  18.361  24.432  1.00  0.00     0.082 A 
ATOM     21  C   UNL A   1      33.586  19.517  24.677  1.00  0.00     0.024 A 
ATOM     22  C   UNL A   1      35.724  18.375  24.527  1.00  0.00     0.024 A 
ATOM     23  C   UNL A   1      34.246  20.699  25.038  1.00  0.00     0.030 A 
ATOM     24  C   UNL A   1      36.385  19.561  24.846  1.00  0.00     0.030 A 
BRANCH  20  25
ATOM     25  S   UNL A   1      33.565  16.831  23.976  1.00  0.00     0.238 S 
ATOM     26  O   UNL A   1      34.537  15.783  24.186  1.00  0.00    -0.207 OA
ATOM     27  O   UNL A   1      32.884  17.039  22.722  1.00  0.00    -0.207 OA
BRANCH  25  28
ATOM     28  N   UNL A   1      32.366  16.572  25.124  1.00  0.00    -0.225 NA
ATOM     29  H   UNL A   1      31.452  16.596  24.671  1.00  0.00     0.137 HD
ATOM     30  H   UNL A   1      32.412  17.303  25.834  1.00  0.00     0.137 HD
ENDBRANCH  25  28
ENDBRANCH  20  25
ENDBRANCH  15  19
BRANCH  17  31
ATOM     31  C   UNL A   1      39.351  23.433  26.688  1.00  0.00     0.393 C 
ATOM     32  F   UNL A   1      39.248  24.373  27.667  1.00  0.00    -0.203 F 
ATOM     33  F   UNL A   1      39.941  22.344  27.253  1.00  0.00    -0.203 F 
ENDBRANCH  17  31
ENDBRANCH   9  14
ENDBRANCH   6   8
ENDBRANCH   5   6
ENDBRANCH   4   5
ENDBRANCH   3   4
ENDBRANCH   2   3
ENDBRANCH   1   2
BRANCH   1  34
ATOM     34  C   UNL A   1      32.440  31.063  27.119  1.00  0.00     0.188 C 
BRANCH  34  35
ATOM     35  O   UNL A   1      33.795  31.451  26.914  1.00  0.00    -0.376 OA
BRANCH  35  36
ATOM     36  C   UNL A   1      34.640  31.797  28.007  1.00  0.00     0.202 C 
BRANCH  36  37
ATOM     37  C   UNL A   1      35.264  30.743  28.922  1.00  0.00     0.261 C 
BRANCH  37  38
ATOM     38  O   UNL A   1      36.022  31.249  30.007  1.00  0.00    -0.460 OA
BRANCH  38  39
ATOM     39  C   UNL A   1      36.554  30.282  30.781  1.00  0.00     0.338 C 
ATOM     40  O   UNL A   1      36.166  29.923  31.882  1.00  0.00    -0.246 OA
BRANCH  39  41
ATOM     41  C   UNL A   1      37.738  29.724  30.128  1.00  0.00     0.060 A 
ATOM     42  C   UNL A   1      38.020  28.381  30.393  1.00  0.00     0.016 A 
ATOM     43  C   UNL A   1      38.661  30.569  29.497  1.00  0.00     0.016 A 
ATOM     44  C   UNL A   1      39.303  27.928  30.191  1.00  0.00     0.010 A 
ATOM     45  C   UNL A   1      39.948  30.114  29.299  1.00  0.00     0.010 A 
ATOM     46  C   UNL A   1      40.270  28.827  29.728  1.00  0.00    -0.014 A 
BRANCH  46  47
ATOM     47  C   UNL A   1      41.647  28.383  29.769  1.00  0.00     0.031 A 
ATOM     48  C   UNL A   1      42.016  27.359  28.772  1.00  0.00     0.074 A 
ATOM     49  C   UNL A   1      42.540  28.908  30.629  1.00  0.00     0.049 A 
ATOM     50  N   UNL A   1      42.387  26.141  28.993  1.00  0.00    -0.248 NA
ATOM     51  C   UNL A   1      41.852  27.706  27.356  1.00  0.00     0.031 C 
ATOM     52  C   UNL A   1      42.389  30.119  31.443  1.00  0.00     0.029 A 
ATOM     53  N   UNL A   1      43.833  28.540  30.842  1.00  0.00    -0.354 N 
ATOM     54  C   UNL A   1      42.720  25.632  27.742  1.00  0.00     0.074 A 
ATOM     55  C   UNL A   1      42.220  26.569  26.767  1.00  0.00     0.031 C 
ATOM     56  C   UNL A   1      43.612  30.523  31.850  1.00  0.00     0.029 A 
ATOM     57  C   UNL A   1      44.594  29.533  31.441  1.00  0.00     0.049 A 
ATOM     58  H   UNL A   1      44.191  27.658  30.597  1.00  0.00     0.167 HD
ATOM     59  C   UNL A   1      43.588  24.598  27.599  1.00  0.00     0.034 A 
ATOM     60  C   UNL A   1      45.944  29.578  31.501  1.00  0.00     0.034 A 
ATOM     61  C   UNL A   1      43.783  23.871  28.825  1.00  0.00     0.049 A 
ATOM     62  C   UNL A   1      46.456  28.206  31.275  1.00  0.00     0.074 A 
ATOM     63  C   UNL A   1      42.967  23.183  29.700  1.00  0.00     0.029 A 
ATOM     64  N   UNL A   1      44.974  24.057  29.481  1.00  0.00    -0.354 N 
ATOM     65  N   UNL A   1      46.312  27.222  32.118  1.00  0.00    -0.248 NA
ATOM     66  C   UNL A   1      46.841  27.821  29.926  1.00  0.00     0.031 C 
ATOM     67  C   UNL A   1      43.554  23.372  30.985  1.00  0.00     0.029 A 
ATOM     68  C   UNL A   1      44.697  24.157  30.818  1.00  0.00     0.049 A 
ATOM     69  H   UNL A   1      45.865  24.108  29.066  1.00  0.00     0.167 HD
ATOM     70  C   UNL A   1      46.166  26.096  31.321  1.00  0.00     0.074 A 
ATOM     71  C   UNL A   1      46.642  26.504  30.004  1.00  0.00     0.031 C 
ATOM     72  C   UNL A   1      45.403  25.036  31.726  1.00  0.00     0.034 A 
BRANCH  59  73
ATOM     73  C   UNL A   1      44.525  24.438  26.429  1.00  0.00     0.023 A 
ATOM     74  C   UNL A   1      44.590  23.171  25.809  1.00  0.00     0.012 A 
ATOM     75  C   UNL A   1      45.521  25.377  26.077  1.00  0.00     0.148 A 
ATOM     76  C   UNL A   1      45.613  22.846  24.913  1.00  0.00     0.002 A 
ATOM     77  C   UNL A   1      46.479  25.081  25.114  1.00  0.00     0.091 A 
ATOM     78  F   UNL A   1      45.646  26.517  26.766  1.00  0.00    -0.205 F 
ATOM     79  C   UNL A   1      46.550  23.807  24.552  1.00  0.00     0.022 A 
BRANCH  77  80
ATOM     80  S   UNL A   1      47.646  26.330  24.565  1.00  0.00     0.127 S 
ATOM     81  O   UNL A   1      48.319  25.644  23.467  1.00  0.00    -0.237 OA
ATOM     82  O   UNL A   1      46.760  27.424  24.164  1.00  0.00    -0.237 OA
ATOM     83  O   UNL A   1      48.454  26.628  25.742  1.00  0.00    -0.744 OA
ENDBRANCH  77  80
ENDBRANCH  59  73
BRANCH  60  84
ATOM     84  C   UNL A   1      46.836  30.757  31.521  1.00  0.00     0.023 A 
ATOM     85  C   UNL A   1      47.710  30.947  32.609  1.00  0.00     0.012 A 
ATOM     86  C   UNL A   1      47.017  31.560  30.371  1.00  0.00     0.148 A 
ATOM     87  C   UNL A   1      48.744  31.888  32.546  1.00  0.00     0.002 A 
ATOM     88  C   UNL A   1      48.035  32.506  30.321  1.00  0.00     0.091 A 
ATOM     89  F   UNL A   1      46.254  31.333  29.294  1.00  0.00    -0.205 F 
ATOM     90  C   UNL A   1      48.909  32.665  31.403  1.00  0.00     0.022 A 
BRANCH  88  91
ATOM     91  S   UNL A   1      48.298  33.543  28.874  1.00  0.00     0.127 S 
ATOM     92  O   UNL A   1      49.181  34.585  29.400  1.00  0.00    -0.237 OA
ATOM     93  O   UNL A   1      48.933  32.612  27.947  1.00  0.00    -0.237 OA
ATOM     94  O   UNL A   1      46.976  34.024  28.490  1.00  0.00    -0.744 OA
ENDBRANCH  88  91
ENDBRANCH  60  84
BRANCH  72  95
ATOM     95  C   UNL A   1      44.990  24.961  33.176  1.00  0.00     0.023 A 
ATOM     96  C   UNL A   1      45.745  24.243  34.126  1.00  0.00     0.012 A 
ATOM     97  C   UNL A   1      43.932  25.772  33.625  1.00  0.00     0.148 A 
ATOM     98  C   UNL A   1      45.433  24.306  35.487  1.00  0.00     0.002 A 
ATOM     99  C   UNL A   1      43.656  25.871  34.985  1.00  0.00     0.091 A 
ATOM    100  F   UNL A   1      43.223  26.458  32.714  1.00  0.00    -0.205 F 
ATOM    101  C   UNL A   1      44.398  25.131  35.917  1.00  0.00     0.022 A 
BRANCH  99 102
ATOM    102  S   UNL A   1      42.427  27.021  35.610  1.00  0.00     0.127 S 
ATOM    103  O   UNL A   1      41.217  26.202  35.623  1.00  0.00    -0.237 OA
ATOM    104  O   UNL A   1      42.951  27.356  36.936  1.00  0.00    -0.237 OA
ATOM    105  O   UNL A   1      42.424  28.141  34.676  1.00  0.00    -0.744 OA
ENDBRANCH  99 102
ENDBRANCH  72  95
ENDBRANCH  46  47
ENDBRANCH  39  41
ENDBRANCH  38  39
ENDBRANCH  37  38
ENDBRANCH  36  37
ENDBRANCH  35  36
ENDBRANCH  34  35
ENDBRANCH   1  34
TORSDOF 25
ENDMDL
