MODEL 1
REMARK VINA RESULT:      -9.9      0.000      0.000
REMARK SMILES COc1ccc(F)c(NC(=O)N[C@H]2CCC[C@H]2C(=O)OCCOCCOCCOC(=O)c2ccc(-c3c4nc(c(-c5cccc(S(=O)(=O)[O-])c5F)c5ccc([nH]5)c(-c5cccc(S(=O)(=O)[O-])c5F)c5nc(c(-c6cccc(S(=O)(=O)[O-])c6F)c6ccc3[nH]6)C=C5)C=C4)cc2)c1
REMARK SMILES IDX 24 1 23 2 22 3 21 4 20 5 18 6 19 7 17 8 13 9 14 10 15 11
REMARK SMILES IDX 16 12 12 13 9 14 10 15 11 17 8 19 3 20 4 21 95 22 5 23 6 24
REMARK SMILES IDX 7 25 2 26 1 27 25 28 26 29 27 30 28 31 29 32 30 33 31 34
REMARK SMILES IDX 32 35 33 36 94 37 34 38 93 39 35 40 36 41 37 42 87 43 38 44
REMARK SMILES IDX 92 45 86 46 88 47 39 48 91 49 85 50 84 51 40 53 72 54 52 55
REMARK SMILES IDX 71 56 53 57 56 58 70 59 89 60 54 61 55 62 69 64 90 65 57 66
REMARK SMILES IDX 41 67 42 68 50 69 43 70 45 71 51 72 44 73 46 74 47 75 48 76
REMARK SMILES IDX 49 77 73 78 74 79 82 80 75 81 77 82 83 83 76 84 78 85 79 86
REMARK SMILES IDX 80 87 81 88 58 89 59 90 67 91 60 92 62 93 68 94 61 95 63 96
REMARK SMILES IDX 64 97 65 98 66 99
REMARK H PARENT 9 16 12 18 88 52 56 63
REMARK Flexibility Score: inf
ROOT
ATOM      1  C   UNL A   1      35.908  32.526  28.074  1.00  0.00     0.188 C 
ENDROOT
BRANCH   1   2
ATOM      2  O   UNL A   1      35.338  31.251  27.897  1.00  0.00    -0.376 OA
BRANCH   2   3
ATOM      3  C   UNL A   1      33.957  31.179  27.622  1.00  0.00     0.202 C 
BRANCH   3   4
ATOM      4  C   UNL A   1      33.268  29.955  26.979  1.00  0.00     0.261 C 
BRANCH   4   5
ATOM      5  O   UNL A   1      33.220  29.791  25.546  1.00  0.00    -0.463 OA
BRANCH   5   6
ATOM      6  C   UNL A   1      32.030  29.446  24.927  1.00  0.00     0.311 C 
ATOM      7  O   UNL A   1      31.022  30.130  25.045  1.00  0.00    -0.252 OA
BRANCH   6   8
ATOM      8  C   UNL A   1      32.169  28.259  23.903  1.00  0.00     0.121 C 
ATOM      9  C   UNL A   1      32.859  27.160  24.640  1.00  0.00     0.098 C 
ATOM     10  C   UNL A   1      33.119  26.150  23.504  1.00  0.00     0.026 C 
ATOM     11  C   UNL A   1      31.774  26.013  22.836  1.00  0.00     0.003 C 
ATOM     12  C   UNL A   1      31.099  27.325  23.207  1.00  0.00     0.017 C 
BRANCH   9  13
ATOM     13  N   UNL A   1      31.970  26.643  25.725  1.00  0.00    -0.334 N 
ATOM     14  N   UNL A   1      31.924  24.191  26.143  1.00  0.00    -0.305 N 
ATOM     15  C   UNL A   1      31.495  25.472  26.186  1.00  0.00     0.319 C 
ATOM     16  H   UNL A   1      31.125  23.670  26.383  1.00  0.00     0.171 HD
ATOM     17  O   UNL A   1      30.379  25.604  26.725  1.00  0.00    -0.248 OA
ATOM     18  H   UNL A   1      31.627  27.389  26.269  1.00  0.00     0.165 HD
BRANCH  14  19
ATOM     19  C   UNL A   1      32.946  23.177  25.928  1.00  0.00     0.082 A 
ATOM     20  C   UNL A   1      35.237  22.206  25.629  1.00  0.00     0.121 A 
ATOM     21  C   UNL A   1      34.747  20.962  25.334  1.00  0.00     0.049 A 
ATOM     22  C   UNL A   1      34.339  23.250  25.919  1.00  0.00     0.075 A 
ATOM     23  C   UNL A   1      33.359  20.799  25.350  1.00  0.00     0.045 A 
ATOM     24  C   UNL A   1      32.493  21.876  25.658  1.00  0.00     0.147 A 
ATOM     25  F   UNL A   1      31.171  21.643  25.659  1.00  0.00    -0.205 F 
BRANCH  20  26
ATOM     26  O   UNL A   1      36.568  22.476  25.820  1.00  0.00    -0.497 OA
ATOM     27  C   UNL A   1      37.470  21.599  25.145  1.00  0.00     0.278 C 
ENDBRANCH  20  26
ENDBRANCH  14  19
ENDBRANCH   9  13
ENDBRANCH   6   8
ENDBRANCH   5   6
ENDBRANCH   4   5
ENDBRANCH   3   4
ENDBRANCH   2   3
ENDBRANCH   1   2
BRANCH   1  28
ATOM     28  C   UNL A   1      35.150  33.379  29.112  1.00  0.00     0.188 C 
BRANCH  28  29
ATOM     29  O   UNL A   1      35.134  34.793  29.006  1.00  0.00    -0.376 OA
BRANCH  29  30
ATOM     30  C   UNL A   1      33.981  35.370  28.404  1.00  0.00     0.202 C 
BRANCH  30  31
ATOM     31  C   UNL A   1      32.828  35.909  29.286  1.00  0.00     0.261 C 
BRANCH  31  32
ATOM     32  O   UNL A   1      32.519  35.178  30.494  1.00  0.00    -0.460 OA
BRANCH  32  33
ATOM     33  C   UNL A   1      32.813  35.791  31.671  1.00  0.00     0.338 C 
ATOM     34  O   UNL A   1      32.190  36.728  32.174  1.00  0.00    -0.246 OA
BRANCH  33  35
ATOM     35  C   UNL A   1      33.806  34.992  32.442  1.00  0.00     0.060 A 
ATOM     36  C   UNL A   1      34.979  35.626  32.904  1.00  0.00     0.016 A 
ATOM     37  C   UNL A   1      33.602  33.641  32.715  1.00  0.00     0.016 A 
ATOM     38  C   UNL A   1      35.950  34.918  33.613  1.00  0.00     0.010 A 
ATOM     39  C   UNL A   1      34.607  32.915  33.372  1.00  0.00     0.010 A 
ATOM     40  C   UNL A   1      35.799  33.540  33.788  1.00  0.00    -0.014 A 
BRANCH  40  41
ATOM     41  C   UNL A   1      36.990  32.717  34.126  1.00  0.00     0.031 A 
ATOM     42  C   UNL A   1      37.758  33.090  35.368  1.00  0.00     0.074 A 
ATOM     43  C   UNL A   1      37.388  31.671  33.381  1.00  0.00     0.049 A 
ATOM     44  N   UNL A   1      38.889  32.617  35.818  1.00  0.00    -0.248 NA
ATOM     45  C   UNL A   1      37.166  34.141  36.215  1.00  0.00     0.031 C 
ATOM     46  C   UNL A   1      36.705  31.166  32.193  1.00  0.00     0.029 A 
ATOM     47  N   UNL A   1      38.494  30.864  33.504  1.00  0.00    -0.354 N 
ATOM     48  C   UNL A   1      39.167  33.341  36.971  1.00  0.00     0.074 A 
ATOM     49  C   UNL A   1      38.084  34.280  37.159  1.00  0.00     0.031 C 
ATOM     50  C   UNL A   1      37.433  30.163  31.667  1.00  0.00     0.029 A 
ATOM     51  C   UNL A   1      38.651  29.982  32.461  1.00  0.00     0.049 A 
ATOM     52  H   UNL A   1      39.115  30.912  34.267  1.00  0.00     0.167 HD
ATOM     53  C   UNL A   1      40.228  33.234  37.803  1.00  0.00     0.034 A 
ATOM     54  C   UNL A   1      39.676  29.157  32.157  1.00  0.00     0.034 A 
ATOM     55  C   UNL A   1      41.292  32.287  37.632  1.00  0.00     0.049 A 
ATOM     56  C   UNL A   1      40.876  29.090  33.073  1.00  0.00     0.074 A 
ATOM     57  C   UNL A   1      42.392  32.083  38.447  1.00  0.00     0.029 A 
ATOM     58  N   UNL A   1      41.400  31.396  36.578  1.00  0.00    -0.354 N 
ATOM     59  N   UNL A   1      41.093  29.728  34.197  1.00  0.00    -0.248 NA
ATOM     60  C   UNL A   1      41.963  28.172  32.691  1.00  0.00     0.031 C 
ATOM     61  C   UNL A   1      43.186  31.095  37.862  1.00  0.00     0.029 A 
ATOM     62  C   UNL A   1      42.556  30.650  36.711  1.00  0.00     0.049 A 
ATOM     63  H   UNL A   1      40.751  31.308  35.844  1.00  0.00     0.167 HD
ATOM     64  C   UNL A   1      42.317  29.264  34.674  1.00  0.00     0.074 A 
ATOM     65  C   UNL A   1      42.789  28.280  33.723  1.00  0.00     0.031 C 
ATOM     66  C   UNL A   1      42.991  29.630  35.792  1.00  0.00     0.034 A 
BRANCH  53  67
ATOM     67  C   UNL A   1      40.296  34.159  38.987  1.00  0.00     0.023 A 
ATOM     68  C   UNL A   1      41.129  35.294  38.944  1.00  0.00     0.012 A 
ATOM     69  C   UNL A   1      39.456  33.955  40.099  1.00  0.00     0.148 A 
ATOM     70  C   UNL A   1      41.134  36.207  39.997  1.00  0.00     0.002 A 
ATOM     71  C   UNL A   1      39.430  34.895  41.121  1.00  0.00     0.091 A 
ATOM     72  F   UNL A   1      38.691  32.855  40.128  1.00  0.00    -0.205 F 
ATOM     73  C   UNL A   1      40.274  36.017  41.077  1.00  0.00     0.022 A 
BRANCH  71  74
ATOM     74  S   UNL A   1      38.294  34.789  42.508  1.00  0.00     0.127 S 
ATOM     75  O   UNL A   1      36.998  34.835  41.832  1.00  0.00    -0.237 OA
ATOM     76  O   UNL A   1      38.636  33.490  43.084  1.00  0.00    -0.237 OA
ATOM     77  O   UNL A   1      38.587  35.933  43.360  1.00  0.00    -0.744 OA
ENDBRANCH  71  74
ENDBRANCH  53  67
BRANCH  54  78
ATOM     78  C   UNL A   1      39.613  28.317  30.925  1.00  0.00     0.023 A 
ATOM     79  C   UNL A   1      38.930  27.086  30.954  1.00  0.00     0.012 A 
ATOM     80  C   UNL A   1      40.204  28.744  29.720  1.00  0.00     0.148 A 
ATOM     81  C   UNL A   1      38.854  26.287  29.811  1.00  0.00     0.002 A 
ATOM     82  C   UNL A   1      40.071  27.974  28.571  1.00  0.00     0.091 A 
ATOM     83  F   UNL A   1      40.871  29.907  29.719  1.00  0.00    -0.205 F 
ATOM     84  C   UNL A   1      39.412  26.737  28.617  1.00  0.00     0.022 A 
BRANCH  82  85
ATOM     85  S   UNL A   1      40.631  28.538  26.959  1.00  0.00     0.127 S 
ATOM     86  O   UNL A   1      41.937  29.111  27.279  1.00  0.00    -0.237 OA
ATOM     87  O   UNL A   1      40.675  27.283  26.207  1.00  0.00    -0.237 OA
ATOM     88  O   UNL A   1      39.625  29.483  26.498  1.00  0.00    -0.744 OA
ENDBRANCH  82  85
ENDBRANCH  54  78
BRANCH  66  89
ATOM     89  C   UNL A   1      44.300  28.947  36.103  1.00  0.00     0.023 A 
ATOM     90  C   UNL A   1      44.311  27.748  36.841  1.00  0.00     0.012 A 
ATOM     91  C   UNL A   1      45.502  29.421  35.538  1.00  0.00     0.148 A 
ATOM     92  C   UNL A   1      45.499  27.041  37.028  1.00  0.00     0.002 A 
ATOM     93  C   UNL A   1      46.672  28.685  35.682  1.00  0.00     0.091 A 
ATOM     94  F   UNL A   1      45.472  30.571  34.847  1.00  0.00    -0.205 F 
ATOM     95  C   UNL A   1      46.674  27.500  36.436  1.00  0.00     0.022 A 
BRANCH  93  96
ATOM     96  S   UNL A   1      48.207  29.137  34.865  1.00  0.00     0.127 S 
ATOM     97  O   UNL A   1      47.796  29.180  33.463  1.00  0.00    -0.237 OA
ATOM     98  O   UNL A   1      48.498  30.444  35.455  1.00  0.00    -0.237 OA
ATOM     99  O   UNL A   1      49.166  28.094  35.200  1.00  0.00    -0.744 OA
ENDBRANCH  93  96
ENDBRANCH  66  89
ENDBRANCH  40  41
ENDBRANCH  33  35
ENDBRANCH  32  33
ENDBRANCH  31  32
ENDBRANCH  30  31
ENDBRANCH  29  30
ENDBRANCH  28  29
ENDBRANCH   1  28
TORSDOF 23
ENDMDL
MODEL 2
REMARK VINA RESULT:      -9.5      4.852      7.771
REMARK SMILES COc1ccc(F)c(NC(=O)N[C@H]2CCC[C@H]2C(=O)OCCOCCOCCOC(=O)c2ccc(-c3c4nc(c(-c5cccc(S(=O)(=O)[O-])c5F)c5ccc([nH]5)c(-c5cccc(S(=O)(=O)[O-])c5F)c5nc(c(-c6cccc(S(=O)(=O)[O-])c6F)c6ccc3[nH]6)C=C5)C=C4)cc2)c1
REMARK SMILES IDX 24 1 23 2 22 3 21 4 20 5 18 6 19 7 17 8 13 9 14 10 15 11
REMARK SMILES IDX 16 12 12 13 9 14 10 15 11 17 8 19 3 20 4 21 95 22 5 23 6 24
REMARK SMILES IDX 7 25 2 26 1 27 25 28 26 29 27 30 28 31 29 32 30 33 31 34
REMARK SMILES IDX 32 35 33 36 94 37 34 38 93 39 35 40 36 41 37 42 87 43 38 44
REMARK SMILES IDX 92 45 86 46 88 47 39 48 91 49 85 50 84 51 40 53 72 54 52 55
REMARK SMILES IDX 71 56 53 57 56 58 70 59 89 60 54 61 55 62 69 64 90 65 57 66
REMARK SMILES IDX 41 67 42 68 50 69 43 70 45 71 51 72 44 73 46 74 47 75 48 76
REMARK SMILES IDX 49 77 73 78 74 79 82 80 75 81 77 82 83 83 76 84 78 85 79 86
REMARK SMILES IDX 80 87 81 88 58 89 59 90 67 91 60 92 62 93 68 94 61 95 63 96
REMARK SMILES IDX 64 97 65 98 66 99
REMARK H PARENT 9 16 12 18 88 52 56 63
REMARK Flexibility Score: inf
ROOT
ATOM      1  C   UNL A   1      40.107  26.749  27.022  1.00  0.00     0.188 C 
ENDROOT
BRANCH   1   2
ATOM      2  O   UNL A   1      40.055  25.636  27.882  1.00  0.00    -0.376 OA
BRANCH   2   3
ATOM      3  C   UNL A   1      39.003  24.715  27.705  1.00  0.00     0.202 C 
BRANCH   3   4
ATOM      4  C   UNL A   1      38.620  24.095  26.343  1.00  0.00     0.261 C 
BRANCH   4   5
ATOM      5  O   UNL A   1      37.304  23.552  26.111  1.00  0.00    -0.463 OA
BRANCH   5   6
ATOM      6  C   UNL A   1      37.157  22.237  25.702  1.00  0.00     0.311 C 
ATOM      7  O   UNL A   1      38.117  21.559  25.362  1.00  0.00    -0.252 OA
BRANCH   6   8
ATOM      8  C   UNL A   1      35.713  21.658  25.937  1.00  0.00     0.121 C 
ATOM      9  C   UNL A   1      34.768  22.759  25.592  1.00  0.00     0.098 C 
ATOM     10  C   UNL A   1      33.423  22.157  26.048  1.00  0.00     0.026 C 
ATOM     11  C   UNL A   1      33.408  20.792  25.406  1.00  0.00     0.003 C 
ATOM     12  C   UNL A   1      34.893  20.520  25.206  1.00  0.00     0.017 C 
BRANCH   9  13
ATOM     13  N   UNL A   1      34.841  23.049  24.127  1.00  0.00    -0.334 N 
ATOM     14  N   UNL A   1      33.846  25.171  23.294  1.00  0.00    -0.305 N 
ATOM     15  C   UNL A   1      34.334  23.912  23.229  1.00  0.00     0.319 C 
ATOM     16  H   UNL A   1      33.363  25.277  22.443  1.00  0.00     0.171 HD
ATOM     17  O   UNL A   1      34.248  23.404  22.095  1.00  0.00    -0.248 OA
ATOM     18  H   UNL A   1      35.448  22.412  23.684  1.00  0.00     0.165 HD
BRANCH  14  19
ATOM     19  C   UNL A   1      33.659  26.451  23.959  1.00  0.00     0.082 A 
ATOM     20  C   UNL A   1      33.165  28.063  25.815  1.00  0.00     0.121 A 
ATOM     21  C   UNL A   1      33.202  29.146  24.977  1.00  0.00     0.049 A 
ATOM     22  C   UNL A   1      33.399  26.777  25.290  1.00  0.00     0.075 A 
ATOM     23  C   UNL A   1      33.485  28.906  23.630  1.00  0.00     0.045 A 
ATOM     24  C   UNL A   1      33.724  27.596  23.148  1.00  0.00     0.147 A 
ATOM     25  F   UNL A   1      33.994  27.443  21.842  1.00  0.00    -0.205 F 
BRANCH  20  26
ATOM     26  O   UNL A   1      33.072  28.156  27.179  1.00  0.00    -0.497 OA
ATOM     27  C   UNL A   1      31.743  28.127  27.702  1.00  0.00     0.278 C 
ENDBRANCH  20  26
ENDBRANCH  14  19
ENDBRANCH   9  13
ENDBRANCH   6   8
ENDBRANCH   5   6
ENDBRANCH   4   5
ENDBRANCH   3   4
ENDBRANCH   2   3
ENDBRANCH   1   2
BRANCH   1  28
ATOM     28  C   UNL A   1      40.106  28.092  27.783  1.00  0.00     0.188 C 
BRANCH  28  29
ATOM     29  O   UNL A   1      39.098  28.375  28.739  1.00  0.00    -0.376 OA
BRANCH  29  30
ATOM     30  C   UNL A   1      37.889  28.935  28.240  1.00  0.00     0.202 C 
BRANCH  30  31
ATOM     31  C   UNL A   1      36.982  29.783  29.165  1.00  0.00     0.261 C 
BRANCH  31  32
ATOM     32  O   UNL A   1      36.734  29.277  30.496  1.00  0.00    -0.460 OA
BRANCH  32  33
ATOM     33  C   UNL A   1      37.225  30.012  31.529  1.00  0.00     0.338 C 
ATOM     34  O   UNL A   1      36.607  30.869  32.165  1.00  0.00    -0.246 OA
BRANCH  33  35
ATOM     35  C   UNL A   1      38.515  29.443  32.009  1.00  0.00     0.060 A 
ATOM     36  C   UNL A   1      39.649  30.281  32.068  1.00  0.00     0.016 A 
ATOM     37  C   UNL A   1      38.624  28.110  32.397  1.00  0.00     0.016 A 
ATOM     38  C   UNL A   1      40.885  29.792  32.490  1.00  0.00     0.010 A 
ATOM     39  C   UNL A   1      39.881  27.603  32.761  1.00  0.00     0.010 A 
ATOM     40  C   UNL A   1      41.022  28.430  32.772  1.00  0.00    -0.014 A 
BRANCH  40  41
ATOM     41  C   UNL A   1      42.378  27.824  32.781  1.00  0.00     0.031 A 
ATOM     42  C   UNL A   1      43.032  27.613  34.122  1.00  0.00     0.074 A 
ATOM     43  C   UNL A   1      43.020  27.457  31.657  1.00  0.00     0.049 A 
ATOM     44  N   UNL A   1      44.246  27.218  34.402  1.00  0.00    -0.248 NA
ATOM     45  C   UNL A   1      42.202  27.888  35.308  1.00  0.00     0.031 C 
ATOM     46  C   UNL A   1      42.481  27.548  30.303  1.00  0.00     0.029 A 
ATOM     47  N   UNL A   1      44.292  26.962  31.483  1.00  0.00    -0.354 N 
ATOM     48  C   UNL A   1      44.338  27.241  35.788  1.00  0.00     0.074 A 
ATOM     49  C   UNL A   1      43.059  27.680  36.296  1.00  0.00     0.031 C 
ATOM     50  C   UNL A   1      43.433  27.167  29.431  1.00  0.00     0.029 A 
ATOM     51  C   UNL A   1      44.659  26.842  30.164  1.00  0.00     0.049 A 
ATOM     52  H   UNL A   1      44.882  26.717  32.232  1.00  0.00     0.167 HD
ATOM     53  C   UNL A   1      45.394  26.923  36.571  1.00  0.00     0.034 A 
ATOM     54  C   UNL A   1      45.855  26.547  29.610  1.00  0.00     0.034 A 
ATOM     55  C   UNL A   1      46.658  26.465  36.071  1.00  0.00     0.049 A 
ATOM     56  C   UNL A   1      47.036  26.244  30.504  1.00  0.00     0.074 A 
ATOM     57  C   UNL A   1      47.776  26.085  36.794  1.00  0.00     0.029 A 
ATOM     58  N   UNL A   1      46.980  26.333  34.731  1.00  0.00    -0.354 N 
ATOM     59  N   UNL A   1      47.090  26.200  31.813  1.00  0.00    -0.248 NA
ATOM     60  C   UNL A   1      48.314  25.928  29.844  1.00  0.00     0.031 C 
ATOM     61  C   UNL A   1      48.788  25.761  35.888  1.00  0.00     0.029 A 
ATOM     62  C   UNL A   1      48.285  25.892  34.604  1.00  0.00     0.049 A 
ATOM     63  H   UNL A   1      46.372  26.524  33.982  1.00  0.00     0.167 HD
ATOM     64  C   UNL A   1      48.391  25.817  32.132  1.00  0.00     0.074 A 
ATOM     65  C   UNL A   1      49.090  25.628  30.879  1.00  0.00     0.031 C 
ATOM     66  C   UNL A   1      48.957  25.649  33.353  1.00  0.00     0.034 A 
BRANCH  53  67
ATOM     67  C   UNL A   1      45.234  27.049  38.062  1.00  0.00     0.023 A 
ATOM     68  C   UNL A   1      44.814  25.938  38.819  1.00  0.00     0.012 A 
ATOM     69  C   UNL A   1      45.600  28.240  38.719  1.00  0.00     0.148 A 
ATOM     70  C   UNL A   1      44.748  26.014  40.209  1.00  0.00     0.002 A 
ATOM     71  C   UNL A   1      45.580  28.292  40.107  1.00  0.00     0.091 A 
ATOM     72  F   UNL A   1      45.973  29.291  37.976  1.00  0.00    -0.205 F 
ATOM     73  C   UNL A   1      45.146  27.184  40.853  1.00  0.00     0.022 A 
BRANCH  71  74
ATOM     74  S   UNL A   1      46.159  29.717  41.032  1.00  0.00     0.127 S 
ATOM     75  O   UNL A   1      46.056  29.237  42.410  1.00  0.00    -0.237 OA
ATOM     76  O   UNL A   1      47.527  29.866  40.539  1.00  0.00    -0.237 OA
ATOM     77  O   UNL A   1      45.262  30.813  40.691  1.00  0.00    -0.744 OA
ENDBRANCH  71  74
ENDBRANCH  53  67
BRANCH  54  78
ATOM     78  C   UNL A   1      46.000  26.516  28.126  1.00  0.00     0.023 A 
ATOM     79  C   UNL A   1      46.389  27.682  27.438  1.00  0.00     0.012 A 
ATOM     80  C   UNL A   1      45.779  25.332  27.395  1.00  0.00     0.148 A 
ATOM     81  C   UNL A   1      46.537  27.675  26.050  1.00  0.00     0.002 A 
ATOM     82  C   UNL A   1      45.988  25.315  26.022  1.00  0.00     0.091 A 
ATOM     83  F   UNL A   1      45.385  24.239  28.064  1.00  0.00    -0.205 F 
ATOM     84  C   UNL A   1      46.349  26.489  25.344  1.00  0.00     0.022 A 
BRANCH  82  85
ATOM     85  S   UNL A   1      45.912  23.806  25.051  1.00  0.00     0.127 S 
ATOM     86  O   UNL A   1      46.749  24.145  23.901  1.00  0.00    -0.237 OA
ATOM     87  O   UNL A   1      46.496  22.831  25.973  1.00  0.00    -0.237 OA
ATOM     88  O   UNL A   1      44.502  23.592  24.761  1.00  0.00    -0.744 OA
ENDBRANCH  82  85
ENDBRANCH  54  78
BRANCH  66  89
ATOM     89  C   UNL A   1      50.393  25.195  33.428  1.00  0.00     0.023 A 
ATOM     90  C   UNL A   1      51.422  26.139  33.608  1.00  0.00     0.012 A 
ATOM     91  C   UNL A   1      50.704  23.819  33.463  1.00  0.00     0.148 A 
ATOM     92  C   UNL A   1      52.739  25.724  33.804  1.00  0.00     0.002 A 
ATOM     93  C   UNL A   1      52.008  23.412  33.712  1.00  0.00     0.091 A 
ATOM     94  F   UNL A   1      49.711  22.936  33.279  1.00  0.00    -0.205 F 
ATOM     95  C   UNL A   1      53.029  24.362  33.872  1.00  0.00     0.022 A 
BRANCH  93  96
ATOM     96  S   UNL A   1      52.459  21.685  33.927  1.00  0.00     0.127 S 
ATOM     97  O   UNL A   1      53.841  21.794  34.388  1.00  0.00    -0.237 OA
ATOM     98  O   UNL A   1      51.509  21.243  34.949  1.00  0.00    -0.237 OA
ATOM     99  O   UNL A   1      52.285  21.057  32.625  1.00  0.00    -0.744 OA
ENDBRANCH  93  96
ENDBRANCH  66  89
ENDBRANCH  40  41
ENDBRANCH  33  35
ENDBRANCH  32  33
ENDBRANCH  31  32
ENDBRANCH  30  31
ENDBRANCH  29  30
ENDBRANCH  28  29
ENDBRANCH   1  28
TORSDOF 23
ENDMDL
MODEL 3
REMARK VINA RESULT:      -9.5      4.666     10.982
REMARK SMILES COc1ccc(F)c(NC(=O)N[C@H]2CCC[C@H]2C(=O)OCCOCCOCCOC(=O)c2ccc(-c3c4nc(c(-c5cccc(S(=O)(=O)[O-])c5F)c5ccc([nH]5)c(-c5cccc(S(=O)(=O)[O-])c5F)c5nc(c(-c6cccc(S(=O)(=O)[O-])c6F)c6ccc3[nH]6)C=C5)C=C4)cc2)c1
REMARK SMILES IDX 24 1 23 2 22 3 21 4 20 5 18 6 19 7 17 8 13 9 14 10 15 11
REMARK SMILES IDX 16 12 12 13 9 14 10 15 11 17 8 19 3 20 4 21 95 22 5 23 6 24
REMARK SMILES IDX 7 25 2 26 1 27 25 28 26 29 27 30 28 31 29 32 30 33 31 34
REMARK SMILES IDX 32 35 33 36 94 37 34 38 93 39 35 40 36 41 37 42 87 43 38 44
REMARK SMILES IDX 92 45 86 46 88 47 39 48 91 49 85 50 84 51 40 53 72 54 52 55
REMARK SMILES IDX 71 56 53 57 56 58 70 59 89 60 54 61 55 62 69 64 90 65 57 66
REMARK SMILES IDX 41 67 42 68 50 69 43 70 45 71 51 72 44 73 46 74 47 75 48 76
REMARK SMILES IDX 49 77 73 78 74 79 82 80 75 81 77 82 83 83 76 84 78 85 79 86
REMARK SMILES IDX 80 87 81 88 58 89 59 90 67 91 60 92 62 93 68 94 61 95 63 96
REMARK SMILES IDX 64 97 65 98 66 99
REMARK H PARENT 9 16 12 18 88 52 56 63
REMARK Flexibility Score: inf
ROOT
ATOM      1  C   UNL A   1      39.673  24.413  27.895  1.00  0.00     0.188 C 
ENDROOT
BRANCH   1   2
ATOM      2  O   UNL A   1      39.683  25.821  27.859  1.00  0.00    -0.376 OA
BRANCH   2   3
ATOM      3  C   UNL A   1      40.369  26.502  28.885  1.00  0.00     0.202 C 
BRANCH   3   4
ATOM      4  C   UNL A   1      39.948  27.882  29.436  1.00  0.00     0.261 C 
BRANCH   4   5
ATOM      5  O   UNL A   1      39.664  28.986  28.553  1.00  0.00    -0.463 OA
BRANCH   5   6
ATOM      6  C   UNL A   1      38.664  29.890  28.871  1.00  0.00     0.311 C 
ATOM      7  O   UNL A   1      37.481  29.627  28.701  1.00  0.00    -0.252 OA
BRANCH   6   8
ATOM      8  C   UNL A   1      39.177  31.149  29.664  1.00  0.00     0.121 C 
ATOM      9  C   UNL A   1      38.004  32.062  29.787  1.00  0.00     0.098 C 
ATOM     10  C   UNL A   1      38.662  33.321  30.387  1.00  0.00     0.026 C 
ATOM     11  C   UNL A   1      39.451  32.788  31.556  1.00  0.00     0.003 C 
ATOM     12  C   UNL A   1      39.672  31.336  31.155  1.00  0.00     0.017 C 
BRANCH   9  13
ATOM     13  N   UNL A   1      36.967  31.439  30.666  1.00  0.00    -0.334 N 
ATOM     14  N   UNL A   1      35.008  32.816  31.336  1.00  0.00    -0.305 N 
ATOM     15  C   UNL A   1      35.893  31.796  31.392  1.00  0.00     0.319 C 
ATOM     16  H   UNL A   1      34.571  32.793  32.218  1.00  0.00     0.171 HD
ATOM     17  O   UNL A   1      35.719  31.041  32.367  1.00  0.00    -0.248 OA
ATOM     18  H   UNL A   1      37.117  30.468  30.733  1.00  0.00     0.165 HD
BRANCH  14  19
ATOM     19  C   UNL A   1      34.359  33.929  30.659  1.00  0.00     0.082 A 
ATOM     20  C   UNL A   1      33.128  36.097  30.395  1.00  0.00     0.121 A 
ATOM     21  C   UNL A   1      32.997  35.937  29.041  1.00  0.00     0.049 A 
ATOM     22  C   UNL A   1      33.799  35.111  31.143  1.00  0.00     0.075 A 
ATOM     23  C   UNL A   1      33.558  34.790  28.473  1.00  0.00     0.045 A 
ATOM     24  C   UNL A   1      34.233  33.829  29.265  1.00  0.00     0.147 A 
ATOM     25  F   UNL A   1      34.749  32.754  28.648  1.00  0.00    -0.205 F 
BRANCH  20  26
ATOM     26  O   UNL A   1      32.786  37.243  31.065  1.00  0.00    -0.497 OA
ATOM     27  C   UNL A   1      33.607  37.558  32.190  1.00  0.00     0.278 C 
ENDBRANCH  20  26
ENDBRANCH  14  19
ENDBRANCH   9  13
ENDBRANCH   6   8
ENDBRANCH   5   6
ENDBRANCH   4   5
ENDBRANCH   3   4
ENDBRANCH   2   3
ENDBRANCH   1   2
BRANCH   1  28
ATOM     28  C   UNL A   1      40.277  23.779  26.624  1.00  0.00     0.188 C 
BRANCH  28  29
ATOM     29  O   UNL A   1      40.296  22.371  26.463  1.00  0.00    -0.376 OA
BRANCH  29  30
ATOM     30  C   UNL A   1      41.578  21.757  26.403  1.00  0.00     0.202 C 
BRANCH  30  31
ATOM     31  C   UNL A   1      42.855  22.627  26.307  1.00  0.00     0.261 C 
BRANCH  31  32
ATOM     32  O   UNL A   1      43.143  23.245  25.032  1.00  0.00    -0.460 OA
BRANCH  32  33
ATOM     33  C   UNL A   1      44.313  23.931  24.937  1.00  0.00     0.338 C 
ATOM     34  O   UNL A   1      45.177  23.772  24.073  1.00  0.00    -0.246 OA
BRANCH  33  35
ATOM     35  C   UNL A   1      44.293  25.122  25.830  1.00  0.00     0.060 A 
ATOM     36  C   UNL A   1      45.451  25.436  26.574  1.00  0.00     0.016 A 
ATOM     37  C   UNL A   1      43.162  25.929  25.947  1.00  0.00     0.016 A 
ATOM     38  C   UNL A   1      45.477  26.528  27.441  1.00  0.00     0.010 A 
ATOM     39  C   UNL A   1      43.168  26.989  26.866  1.00  0.00     0.010 A 
ATOM     40  C   UNL A   1      44.310  27.269  27.643  1.00  0.00    -0.014 A 
BRANCH  40  41
ATOM     41  C   UNL A   1      44.191  28.120  28.856  1.00  0.00     0.031 A 
ATOM     42  C   UNL A   1      44.212  27.425  30.193  1.00  0.00     0.074 A 
ATOM     43  C   UNL A   1      44.078  29.459  28.798  1.00  0.00     0.049 A 
ATOM     44  N   UNL A   1      44.008  27.914  31.387  1.00  0.00    -0.248 NA
ATOM     45  C   UNL A   1      44.503  25.980  30.177  1.00  0.00     0.031 C 
ATOM     46  C   UNL A   1      44.105  30.262  27.579  1.00  0.00     0.029 A 
ATOM     47  N   UNL A   1      43.882  30.376  29.804  1.00  0.00    -0.354 N 
ATOM     48  C   UNL A   1      44.099  26.833  32.255  1.00  0.00     0.074 A 
ATOM     49  C   UNL A   1      44.385  25.664  31.457  1.00  0.00     0.031 C 
ATOM     50  C   UNL A   1      43.885  31.550  27.903  1.00  0.00     0.029 A 
ATOM     51  C   UNL A   1      43.664  31.655  29.347  1.00  0.00     0.049 A 
ATOM     52  H   UNL A   1      43.898  30.141  30.760  1.00  0.00     0.167 HD
ATOM     53  C   UNL A   1      43.959  26.815  33.601  1.00  0.00     0.034 A 
ATOM     54  C   UNL A   1      43.288  32.770  30.009  1.00  0.00     0.034 A 
ATOM     55  C   UNL A   1      43.698  27.978  34.399  1.00  0.00     0.049 A 
ATOM     56  C   UNL A   1      43.087  32.716  31.506  1.00  0.00     0.074 A 
ATOM     57  C   UNL A   1      43.576  28.061  35.775  1.00  0.00     0.029 A 
ATOM     58  N   UNL A   1      43.509  29.257  33.900  1.00  0.00    -0.354 N 
ATOM     59  N   UNL A   1      43.246  31.704  32.325  1.00  0.00    -0.248 NA
ATOM     60  C   UNL A   1      42.678  33.963  32.175  1.00  0.00     0.031 C 
ATOM     61  C   UNL A   1      43.273  29.383  36.105  1.00  0.00     0.029 A 
ATOM     62  C   UNL A   1      43.255  30.132  34.940  1.00  0.00     0.049 A 
ATOM     63  H   UNL A   1      43.550  29.504  32.949  1.00  0.00     0.167 HD
ATOM     64  C   UNL A   1      42.994  32.199  33.603  1.00  0.00     0.074 A 
ATOM     65  C   UNL A   1      42.684  33.604  33.452  1.00  0.00     0.031 C 
ATOM     66  C   UNL A   1      43.007  31.543  34.790  1.00  0.00     0.034 A 
BRANCH  53  67
ATOM     67  C   UNL A   1      44.092  25.495  34.309  1.00  0.00     0.023 A 
ATOM     68  C   UNL A   1      42.961  24.673  34.481  1.00  0.00     0.012 A 
ATOM     69  C   UNL A   1      45.359  25.028  34.712  1.00  0.00     0.148 A 
ATOM     70  C   UNL A   1      43.087  23.409  35.055  1.00  0.00     0.002 A 
ATOM     71  C   UNL A   1      45.483  23.748  35.236  1.00  0.00     0.091 A 
ATOM     72  F   UNL A   1      46.415  25.837  34.560  1.00  0.00    -0.205 F 
ATOM     73  C   UNL A   1      44.347  22.941  35.417  1.00  0.00     0.022 A 
BRANCH  71  74
ATOM     74  S   UNL A   1      47.071  23.018  35.648  1.00  0.00     0.127 S 
ATOM     75  O   UNL A   1      46.700  21.626  35.898  1.00  0.00    -0.237 OA
ATOM     76  O   UNL A   1      47.833  23.235  34.419  1.00  0.00    -0.237 OA
ATOM     77  O   UNL A   1      47.562  23.746  36.810  1.00  0.00    -0.744 OA
ENDBRANCH  71  74
ENDBRANCH  53  67
BRANCH  54  78
ATOM     78  C   UNL A   1      43.079  34.044  29.261  1.00  0.00     0.023 A 
ATOM     79  C   UNL A   1      41.770  34.509  29.026  1.00  0.00     0.012 A 
ATOM     80  C   UNL A   1      44.170  34.809  28.804  1.00  0.00     0.148 A 
ATOM     81  C   UNL A   1      41.552  35.702  28.334  1.00  0.00     0.002 A 
ATOM     82  C   UNL A   1      43.948  36.026  28.171  1.00  0.00     0.091 A 
ATOM     83  F   UNL A   1      45.407  34.337  29.016  1.00  0.00    -0.205 F 
ATOM     84  C   UNL A   1      42.640  36.466  27.918  1.00  0.00     0.022 A 
BRANCH  82  85
ATOM     85  S   UNL A   1      45.283  37.144  27.730  1.00  0.00     0.127 S 
ATOM     86  O   UNL A   1      45.944  36.411  26.651  1.00  0.00    -0.237 OA
ATOM     87  O   UNL A   1      44.544  38.334  27.306  1.00  0.00    -0.237 OA
ATOM     88  O   UNL A   1      46.069  37.322  28.942  1.00  0.00    -0.744 OA
ENDBRANCH  82  85
ENDBRANCH  54  78
BRANCH  66  89
ATOM     89  C   UNL A   1      42.724  32.323  36.049  1.00  0.00     0.023 A 
ATOM     90  C   UNL A   1      43.760  33.034  36.685  1.00  0.00     0.012 A 
ATOM     91  C   UNL A   1      41.401  32.464  36.517  1.00  0.00     0.148 A 
ATOM     92  C   UNL A   1      43.487  33.858  37.777  1.00  0.00     0.002 A 
ATOM     93  C   UNL A   1      41.128  33.328  37.570  1.00  0.00     0.091 A 
ATOM     94  F   UNL A   1      40.430  31.770  35.904  1.00  0.00    -0.205 F 
ATOM     95  C   UNL A   1      42.171  34.018  38.209  1.00  0.00     0.022 A 
BRANCH  93  96
ATOM     96  S   UNL A   1      39.455  33.683  38.123  1.00  0.00     0.127 S 
ATOM     97  O   UNL A   1      39.029  32.381  38.634  1.00  0.00    -0.237 OA
ATOM     98  O   UNL A   1      39.679  34.698  39.153  1.00  0.00    -0.237 OA
ATOM     99  O   UNL A   1      38.734  34.156  36.951  1.00  0.00    -0.744 OA
ENDBRANCH  93  96
ENDBRANCH  66  89
ENDBRANCH  40  41
ENDBRANCH  33  35
ENDBRANCH  32  33
ENDBRANCH  31  32
ENDBRANCH  30  31
ENDBRANCH  29  30
ENDBRANCH  28  29
ENDBRANCH   1  28
TORSDOF 23
ENDMDL
