MODEL 1
REMARK VINA RESULT:     -11.0      0.000      0.000
REMARK SMILES O=C(OCCOCCOCCOC(=O)c1ccccc1/C=C1/SC(=S)N(C2CCCCC2)C1=O)c1ccc(-c2c3nc(c(-c4cccc(S(=O)(=O)[O-])c4F)c4ccc([nH]4)c(-c4cccc(S(=O)(=O)[O-])c4F)c4nc(c(-c5cccc(S(=O)(=O)[O-])c5F)c5ccc2[nH]5)C=C4)C=C3)cc1
REMARK SMILES IDX 7 1 6 2 5 3 4 4 3 5 2 6 1 7 35 8 36 9 97 10 37 11 96 12
REMARK SMILES IDX 38 13 39 14 40 15 90 16 41 17 95 18 89 19 91 20 42 21 94 22
REMARK SMILES IDX 88 23 87 24 43 26 75 27 55 28 74 29 56 30 59 31 73 32 92 33
REMARK SMILES IDX 57 34 58 35 72 37 93 38 60 39 44 40 45 41 53 42 46 43 48 44
REMARK SMILES IDX 54 45 47 46 49 47 50 48 51 49 52 50 76 51 77 52 85 53 78 54
REMARK SMILES IDX 80 55 86 56 79 57 81 58 82 59 83 60 84 61 61 62 62 63 70 64
REMARK SMILES IDX 63 65 65 66 71 67 64 68 66 69 67 70 68 71 69 72 8 73 9 74
REMARK SMILES IDX 10 75 11 76 12 77 13 78 14 79 15 80 16 81 20 82 17 83 19 84
REMARK SMILES IDX 18 85 21 86 22 87 23 88 33 89 24 90 26 91 34 92 25 93 27 94
REMARK SMILES IDX 28 95 32 96 29 97 31 98 30 99
REMARK H PARENT 91 25 59 36
REMARK Flexibility Score: inf
ROOT
ATOM      1  C   UNL A   1      32.732  29.416  25.791  1.00  0.00     0.188 C 
ENDROOT
BRANCH   1   2
ATOM      2  O   UNL A   1      32.856  30.808  26.115  1.00  0.00    -0.376 OA
BRANCH   2   3
ATOM      3  C   UNL A   1      31.702  31.322  26.788  1.00  0.00     0.202 C 
BRANCH   3   4
ATOM      4  C   UNL A   1      31.672  32.851  26.950  1.00  0.00     0.261 C 
BRANCH   4   5
ATOM      5  O   UNL A   1      32.979  33.458  26.956  1.00  0.00    -0.460 OA
BRANCH   5   6
ATOM      6  C   UNL A   1      33.865  33.732  27.936  1.00  0.00     0.338 C 
ATOM      7  O   UNL A   1      33.791  34.828  28.490  1.00  0.00    -0.246 OA
BRANCH   6   8
ATOM      8  C   UNL A   1      34.959  32.808  28.358  1.00  0.00     0.060 A 
ATOM      9  C   UNL A   1      34.808  31.454  28.661  1.00  0.00     0.016 A 
ATOM     10  C   UNL A   1      36.256  33.352  28.405  1.00  0.00     0.016 A 
ATOM     11  C   UNL A   1      35.886  30.683  29.099  1.00  0.00     0.010 A 
ATOM     12  C   UNL A   1      37.346  32.582  28.815  1.00  0.00     0.010 A 
ATOM     13  C   UNL A   1      37.150  31.256  29.217  1.00  0.00    -0.014 A 
BRANCH  13  14
ATOM     14  C   UNL A   1      38.218  30.542  29.945  1.00  0.00     0.031 A 
ATOM     15  C   UNL A   1      38.496  30.951  31.359  1.00  0.00     0.074 A 
ATOM     16  C   UNL A   1      38.908  29.544  29.370  1.00  0.00     0.049 A 
ATOM     17  N   UNL A   1      39.444  30.554  32.161  1.00  0.00    -0.248 NA
ATOM     18  C   UNL A   1      37.568  31.932  31.951  1.00  0.00     0.031 C 
ATOM     19  C   UNL A   1      38.661  29.018  28.033  1.00  0.00     0.029 A 
ATOM     20  N   UNL A   1      39.978  28.819  29.830  1.00  0.00    -0.354 N 
ATOM     21  C   UNL A   1      39.250  31.261  33.340  1.00  0.00     0.074 A 
ATOM     22  C   UNL A   1      38.097  32.111  33.150  1.00  0.00     0.031 C 
ATOM     23  C   UNL A   1      39.591  28.090  27.754  1.00  0.00     0.029 A 
ATOM     24  C   UNL A   1      40.521  27.996  28.872  1.00  0.00     0.049 A 
ATOM     25  H   UNL A   1      40.321  28.880  30.751  1.00  0.00     0.167 HD
ATOM     26  C   UNL A   1      39.965  31.196  34.485  1.00  0.00     0.034 A 
ATOM     27  C   UNL A   1      41.667  27.287  28.876  1.00  0.00     0.034 A 
ATOM     28  C   UNL A   1      41.106  30.345  34.659  1.00  0.00     0.049 A 
ATOM     29  C   UNL A   1      42.499  27.285  30.127  1.00  0.00     0.074 A 
ATOM     30  C   UNL A   1      41.911  30.195  35.772  1.00  0.00     0.029 A 
ATOM     31  N   UNL A   1      41.610  29.503  33.678  1.00  0.00    -0.354 N 
ATOM     32  N   UNL A   1      42.274  27.906  31.259  1.00  0.00    -0.248 NA
ATOM     33  C   UNL A   1      43.716  26.462  30.123  1.00  0.00     0.031 C 
ATOM     34  C   UNL A   1      42.914  29.272  35.457  1.00  0.00     0.029 A 
ATOM     35  C   UNL A   1      42.722  28.835  34.154  1.00  0.00     0.049 A 
ATOM     36  H   UNL A   1      41.233  29.398  32.775  1.00  0.00     0.167 HD
ATOM     37  C   UNL A   1      43.293  27.521  32.118  1.00  0.00     0.074 A 
ATOM     38  C   UNL A   1      44.141  26.610  31.372  1.00  0.00     0.031 C 
ATOM     39  C   UNL A   1      43.509  27.887  33.405  1.00  0.00     0.034 A 
BRANCH  26  40
ATOM     40  C   UNL A   1      39.517  32.082  35.611  1.00  0.00     0.023 A 
ATOM     41  C   UNL A   1      38.551  31.613  36.526  1.00  0.00     0.012 A 
ATOM     42  C   UNL A   1      40.012  33.392  35.737  1.00  0.00     0.148 A 
ATOM     43  C   UNL A   1      38.054  32.452  37.523  1.00  0.00     0.002 A 
ATOM     44  C   UNL A   1      39.537  34.211  36.754  1.00  0.00     0.091 A 
ATOM     45  F   UNL A   1      40.899  33.832  34.832  1.00  0.00    -0.205 F 
ATOM     46  C   UNL A   1      38.551  33.748  37.640  1.00  0.00     0.022 A 
BRANCH  44  47
ATOM     47  S   UNL A   1      40.158  35.877  37.000  1.00  0.00     0.127 S 
ATOM     48  O   UNL A   1      39.694  36.548  35.786  1.00  0.00    -0.237 OA
ATOM     49  O   UNL A   1      39.471  36.291  38.225  1.00  0.00    -0.237 OA
ATOM     50  O   UNL A   1      41.601  35.740  37.139  1.00  0.00    -0.744 OA
ENDBRANCH  44  47
ENDBRANCH  26  40
BRANCH  27  51
ATOM     51  C   UNL A   1      42.068  26.536  27.655  1.00  0.00     0.023 A 
ATOM     52  C   UNL A   1      42.871  27.153  26.678  1.00  0.00     0.012 A 
ATOM     53  C   UNL A   1      41.725  25.177  27.502  1.00  0.00     0.148 A 
ATOM     54  C   UNL A   1      43.318  26.432  25.568  1.00  0.00     0.002 A 
ATOM     55  C   UNL A   1      42.220  24.452  26.425  1.00  0.00     0.091 A 
ATOM     56  F   UNL A   1      40.945  24.610  28.434  1.00  0.00    -0.205 F 
ATOM     57  C   UNL A   1      43.006  25.080  25.449  1.00  0.00     0.022 A 
BRANCH  55  58
ATOM     58  S   UNL A   1      42.001  22.674  26.291  1.00  0.00     0.127 S 
ATOM     59  O   UNL A   1      42.734  22.373  25.064  1.00  0.00    -0.237 OA
ATOM     60  O   UNL A   1      42.632  22.203  27.523  1.00  0.00    -0.237 OA
ATOM     61  O   UNL A   1      40.559  22.466  26.241  1.00  0.00    -0.744 OA
ENDBRANCH  55  58
ENDBRANCH  27  51
BRANCH  39  62
ATOM     62  C   UNL A   1      44.675  27.270  34.120  1.00  0.00     0.023 A 
ATOM     63  C   UNL A   1      45.933  27.900  34.082  1.00  0.00     0.012 A 
ATOM     64  C   UNL A   1      44.484  26.138  34.935  1.00  0.00     0.148 A 
ATOM     65  C   UNL A   1      46.988  27.407  34.846  1.00  0.00     0.002 A 
ATOM     66  C   UNL A   1      45.528  25.679  35.726  1.00  0.00     0.091 A 
ATOM     67  F   UNL A   1      43.280  25.544  34.932  1.00  0.00    -0.205 F 
ATOM     68  C   UNL A   1      46.783  26.308  35.679  1.00  0.00     0.022 A 
BRANCH  66  69
ATOM     69  S   UNL A   1      45.320  24.336  36.900  1.00  0.00     0.127 S 
ATOM     70  O   UNL A   1      44.263  24.858  37.765  1.00  0.00    -0.237 OA
ATOM     71  O   UNL A   1      44.911  23.228  36.036  1.00  0.00    -0.237 OA
ATOM     72  O   UNL A   1      46.617  24.157  37.539  1.00  0.00    -0.744 OA
ENDBRANCH  66  69
ENDBRANCH  39  62
ENDBRANCH  13  14
ENDBRANCH   6   8
ENDBRANCH   5   6
ENDBRANCH   4   5
ENDBRANCH   3   4
ENDBRANCH   2   3
ENDBRANCH   1   2
BRANCH   1  73
ATOM     73  C   UNL A   1      31.421  29.078  25.084  1.00  0.00     0.188 C 
BRANCH  73  74
ATOM     74  O   UNL A   1      31.423  28.763  23.692  1.00  0.00    -0.376 OA
BRANCH  74  75
ATOM     75  C   UNL A   1      32.607  28.947  22.939  1.00  0.00     0.202 C 
BRANCH  75  76
ATOM     76  C   UNL A   1      33.383  27.691  22.525  1.00  0.00     0.261 C 
BRANCH  76  77
ATOM     77  O   UNL A   1      32.695  26.735  21.708  1.00  0.00    -0.460 OA
BRANCH  77  78
ATOM     78  C   UNL A   1      32.916  25.451  22.082  1.00  0.00     0.338 C 
ATOM     79  O   UNL A   1      33.506  24.601  21.411  1.00  0.00    -0.246 OA
BRANCH  78  80
ATOM     80  C   UNL A   1      32.264  25.126  23.358  1.00  0.00     0.067 A 
ATOM     81  C   UNL A   1      30.879  25.296  23.437  1.00  0.00     0.016 A 
ATOM     82  C   UNL A   1      33.029  24.842  24.508  1.00  0.00    -0.010 A 
ATOM     83  C   UNL A   1      30.244  25.197  24.676  1.00  0.00     0.001 A 
ATOM     84  C   UNL A   1      32.380  24.788  25.747  1.00  0.00     0.009 A 
ATOM     85  C   UNL A   1      30.995  24.965  25.829  1.00  0.00     0.001 A 
BRANCH  82  86
ATOM     86  C   UNL A   1      34.481  24.590  24.478  1.00  0.00     0.030 C 
ATOM     87  C   UNL A   1      35.034  23.392  24.256  1.00  0.00     0.081 C 
ATOM     88  S   UNL A   1      36.684  23.015  24.546  1.00  0.00    -0.054 SA
ATOM     89  C   UNL A   1      34.304  22.145  23.945  1.00  0.00     0.266 C 
ATOM     90  C   UNL A   1      36.323  21.290  24.727  1.00  0.00     0.148 C 
ATOM     91  N   UNL A   1      34.990  21.059  24.461  1.00  0.00    -0.290 N 
ATOM     92  O   UNL A   1      33.266  22.102  23.288  1.00  0.00    -0.268 OA
ATOM     93  S   UNL A   1      37.525  20.221  25.176  1.00  0.00    -0.052 S 
BRANCH  91  94
ATOM     94  C   UNL A   1      34.228  19.803  24.566  1.00  0.00     0.092 C 
ATOM     95  C   UNL A   1      35.113  18.565  24.395  1.00  0.00     0.025 C 
ATOM     96  C   UNL A   1      33.310  19.711  25.797  1.00  0.00     0.025 C 
ATOM     97  C   UNL A   1      34.269  17.293  24.384  1.00  0.00     0.002 C 
ATOM     98  C   UNL A   1      32.489  18.422  25.777  1.00  0.00     0.002 C 
ATOM     99  C   UNL A   1      33.385  17.195  25.625  1.00  0.00     0.000 C 
ENDBRANCH  91  94
ENDBRANCH  82  86
ENDBRANCH  78  80
ENDBRANCH  77  78
ENDBRANCH  76  77
ENDBRANCH  75  76
ENDBRANCH  74  75
ENDBRANCH  73  74
ENDBRANCH   1  73
TORSDOF 22
ENDMDL
MODEL 2
REMARK VINA RESULT:     -10.2      1.730      2.270
REMARK SMILES O=C(OCCOCCOCCOC(=O)c1ccccc1/C=C1/SC(=S)N(C2CCCCC2)C1=O)c1ccc(-c2c3nc(c(-c4cccc(S(=O)(=O)[O-])c4F)c4ccc([nH]4)c(-c4cccc(S(=O)(=O)[O-])c4F)c4nc(c(-c5cccc(S(=O)(=O)[O-])c5F)c5ccc2[nH]5)C=C4)C=C3)cc1
REMARK SMILES IDX 7 1 6 2 5 3 4 4 3 5 2 6 1 7 35 8 36 9 97 10 37 11 96 12
REMARK SMILES IDX 38 13 39 14 40 15 90 16 41 17 95 18 89 19 91 20 42 21 94 22
REMARK SMILES IDX 88 23 87 24 43 26 75 27 55 28 74 29 56 30 59 31 73 32 92 33
REMARK SMILES IDX 57 34 58 35 72 37 93 38 60 39 44 40 45 41 53 42 46 43 48 44
REMARK SMILES IDX 54 45 47 46 49 47 50 48 51 49 52 50 76 51 77 52 85 53 78 54
REMARK SMILES IDX 80 55 86 56 79 57 81 58 82 59 83 60 84 61 61 62 62 63 70 64
REMARK SMILES IDX 63 65 65 66 71 67 64 68 66 69 67 70 68 71 69 72 8 73 9 74
REMARK SMILES IDX 10 75 11 76 12 77 13 78 14 79 15 80 16 81 20 82 17 83 19 84
REMARK SMILES IDX 18 85 21 86 22 87 23 88 33 89 24 90 26 91 34 92 25 93 27 94
REMARK SMILES IDX 28 95 32 96 29 97 31 98 30 99
REMARK H PARENT 91 25 59 36
REMARK Flexibility Score: inf
ROOT
ATOM      1  C   UNL A   1      32.687  29.246  27.022  1.00  0.00     0.188 C 
ENDROOT
BRANCH   1   2
ATOM      2  O   UNL A   1      31.996  30.500  27.101  1.00  0.00    -0.376 OA
BRANCH   2   3
ATOM      3  C   UNL A   1      32.884  31.607  27.291  1.00  0.00     0.202 C 
BRANCH   3   4
ATOM      4  C   UNL A   1      32.329  32.968  26.838  1.00  0.00     0.261 C 
BRANCH   4   5
ATOM      5  O   UNL A   1      32.136  33.904  27.918  1.00  0.00    -0.460 OA
BRANCH   5   6
ATOM      6  C   UNL A   1      32.982  34.673  28.633  1.00  0.00     0.338 C 
ATOM      7  O   UNL A   1      32.748  35.879  28.699  1.00  0.00    -0.246 OA
BRANCH   6   8
ATOM      8  C   UNL A   1      34.211  34.163  29.309  1.00  0.00     0.060 A 
ATOM      9  C   UNL A   1      35.515  34.287  28.827  1.00  0.00     0.016 A 
ATOM     10  C   UNL A   1      34.029  33.548  30.562  1.00  0.00     0.016 A 
ATOM     11  C   UNL A   1      36.598  33.729  29.509  1.00  0.00     0.010 A 
ATOM     12  C   UNL A   1      35.109  33.012  31.265  1.00  0.00     0.010 A 
ATOM     13  C   UNL A   1      36.392  33.053  30.710  1.00  0.00    -0.014 A 
BRANCH  13  14
ATOM     14  C   UNL A   1      37.469  32.221  31.281  1.00  0.00     0.031 A 
ATOM     15  C   UNL A   1      37.892  32.495  32.692  1.00  0.00     0.074 A 
ATOM     16  C   UNL A   1      38.042  31.235  30.572  1.00  0.00     0.049 A 
ATOM     17  N   UNL A   1      38.877  31.980  33.373  1.00  0.00    -0.248 NA
ATOM     18  C   UNL A   1      37.084  33.476  33.439  1.00  0.00     0.031 C 
ATOM     19  C   UNL A   1      37.648  30.836  29.226  1.00  0.00     0.029 A 
ATOM     20  N   UNL A   1      39.097  30.414  30.876  1.00  0.00    -0.354 N 
ATOM     21  C   UNL A   1      38.831  32.597  34.615  1.00  0.00     0.074 A 
ATOM     22  C   UNL A   1      37.723  33.526  34.596  1.00  0.00     0.031 C 
ATOM     23  C   UNL A   1      38.489  29.882  28.794  1.00  0.00     0.029 A 
ATOM     24  C   UNL A   1      39.504  29.643  29.814  1.00  0.00     0.049 A 
ATOM     25  H   UNL A   1      39.521  30.380  31.765  1.00  0.00     0.167 HD
ATOM     26  C   UNL A   1      39.635  32.397  35.683  1.00  0.00     0.034 A 
ATOM     27  C   UNL A   1      40.597  28.871  29.660  1.00  0.00     0.034 A 
ATOM     28  C   UNL A   1      40.729  31.471  35.687  1.00  0.00     0.049 A 
ATOM     29  C   UNL A   1      41.531  28.718  30.827  1.00  0.00     0.074 A 
ATOM     30  C   UNL A   1      41.614  31.184  36.709  1.00  0.00     0.029 A 
ATOM     31  N   UNL A   1      41.093  30.685  34.603  1.00  0.00    -0.354 N 
ATOM     32  N   UNL A   1      41.443  29.257  32.019  1.00  0.00    -0.248 NA
ATOM     33  C   UNL A   1      42.687  27.831  30.650  1.00  0.00     0.031 C 
ATOM     34  C   UNL A   1      42.526  30.234  36.234  1.00  0.00     0.029 A 
ATOM     35  C   UNL A   1      42.195  29.917  34.924  1.00  0.00     0.049 A 
ATOM     36  H   UNL A   1      40.634  30.676  33.732  1.00  0.00     0.167 HD
ATOM     37  C   UNL A   1      42.505  28.744  32.750  1.00  0.00     0.074 A 
ATOM     38  C   UNL A   1      43.226  27.851  31.864  1.00  0.00     0.031 C 
ATOM     39  C   UNL A   1      42.853  28.990  34.037  1.00  0.00     0.034 A 
BRANCH  26  40
ATOM     40  C   UNL A   1      39.342  33.212  36.910  1.00  0.00     0.023 A 
ATOM     41  C   UNL A   1      39.937  34.481  37.064  1.00  0.00     0.012 A 
ATOM     42  C   UNL A   1      38.519  32.703  37.931  1.00  0.00     0.148 A 
ATOM     43  C   UNL A   1      39.751  35.213  38.236  1.00  0.00     0.002 A 
ATOM     44  C   UNL A   1      38.311  33.453  39.082  1.00  0.00     0.091 A 
ATOM     45  F   UNL A   1      37.996  31.477  37.782  1.00  0.00    -0.205 F 
ATOM     46  C   UNL A   1      38.934  34.701  39.242  1.00  0.00     0.022 A 
BRANCH  44  47
ATOM     47  S   UNL A   1      37.237  32.886  40.404  1.00  0.00     0.127 S 
ATOM     48  O   UNL A   1      37.917  31.666  40.835  1.00  0.00    -0.237 OA
ATOM     49  O   UNL A   1      37.305  33.992  41.360  1.00  0.00    -0.237 OA
ATOM     50  O   UNL A   1      35.928  32.702  39.792  1.00  0.00    -0.744 OA
ENDBRANCH  44  47
ENDBRANCH  26  40
BRANCH  27  51
ATOM     51  C   UNL A   1      40.843  28.201  28.353  1.00  0.00     0.023 A 
ATOM     52  C   UNL A   1      41.391  28.927  27.279  1.00  0.00     0.012 A 
ATOM     53  C   UNL A   1      40.615  26.819  28.201  1.00  0.00     0.148 A 
ATOM     54  C   UNL A   1      41.700  28.289  26.076  1.00  0.00     0.002 A 
ATOM     55  C   UNL A   1      40.976  26.180  27.020  1.00  0.00     0.091 A 
ATOM     56  F   UNL A   1      40.077  26.146  29.228  1.00  0.00    -0.205 F 
ATOM     57  C   UNL A   1      41.507  26.915  25.951  1.00  0.00     0.022 A 
BRANCH  55  58
ATOM     58  S   UNL A   1      40.915  24.394  26.844  1.00  0.00     0.127 S 
ATOM     59  O   UNL A   1      39.512  24.174  26.502  1.00  0.00    -0.237 OA
ATOM     60  O   UNL A   1      41.863  24.170  25.753  1.00  0.00    -0.237 OA
ATOM     61  O   UNL A   1      41.350  23.864  28.130  1.00  0.00    -0.744 OA
ENDBRANCH  55  58
ENDBRANCH  27  51
BRANCH  39  62
ATOM     62  C   UNL A   1      44.033  28.250  34.594  1.00  0.00     0.023 A 
ATOM     63  C   UNL A   1      45.312  28.836  34.550  1.00  0.00     0.012 A 
ATOM     64  C   UNL A   1      43.844  27.034  35.280  1.00  0.00     0.148 A 
ATOM     65  C   UNL A   1      46.390  28.217  35.178  1.00  0.00     0.002 A 
ATOM     66  C   UNL A   1      44.914  26.446  35.939  1.00  0.00     0.091 A 
ATOM     67  F   UNL A   1      42.619  26.488  35.285  1.00  0.00    -0.205 F 
ATOM     68  C   UNL A   1      46.189  27.032  35.885  1.00  0.00     0.022 A 
BRANCH  66  69
ATOM     69  S   UNL A   1      44.722  24.979  36.956  1.00  0.00     0.127 S 
ATOM     70  O   UNL A   1      46.091  24.755  37.418  1.00  0.00    -0.237 OA
ATOM     71  O   UNL A   1      43.794  25.438  37.991  1.00  0.00    -0.237 OA
ATOM     72  O   UNL A   1      44.183  23.949  36.077  1.00  0.00    -0.744 OA
ENDBRANCH  66  69
ENDBRANCH  39  62
ENDBRANCH  13  14
ENDBRANCH   6   8
ENDBRANCH   5   6
ENDBRANCH   4   5
ENDBRANCH   3   4
ENDBRANCH   2   3
ENDBRANCH   1   2
BRANCH   1  73
ATOM     73  C   UNL A   1      32.126  28.317  25.947  1.00  0.00     0.188 C 
BRANCH  73  74
ATOM     74  O   UNL A   1      31.244  28.834  24.950  1.00  0.00    -0.376 OA
BRANCH  74  75
ATOM     75  C   UNL A   1      31.591  28.711  23.583  1.00  0.00     0.202 C 
BRANCH  75  76
ATOM     76  C   UNL A   1      32.639  27.654  23.215  1.00  0.00     0.261 C 
BRANCH  76  77
ATOM     77  O   UNL A   1      32.343  26.797  22.105  1.00  0.00    -0.460 OA
BRANCH  77  78
ATOM     78  C   UNL A   1      32.654  25.497  22.332  1.00  0.00     0.338 C 
ATOM     79  O   UNL A   1      33.175  24.732  21.517  1.00  0.00    -0.246 OA
BRANCH  78  80
ATOM     80  C   UNL A   1      32.192  25.039  23.650  1.00  0.00     0.067 A 
ATOM     81  C   UNL A   1      30.829  25.155  23.931  1.00  0.00     0.016 A 
ATOM     82  C   UNL A   1      33.115  24.680  24.654  1.00  0.00    -0.010 A 
ATOM     83  C   UNL A   1      30.373  24.927  25.231  1.00  0.00     0.001 A 
ATOM     84  C   UNL A   1      32.645  24.496  25.959  1.00  0.00     0.009 A 
ATOM     85  C   UNL A   1      31.282  24.619  26.244  1.00  0.00     0.001 A 
BRANCH  82  86
ATOM     86  C   UNL A   1      34.554  24.481  24.403  1.00  0.00     0.030 C 
ATOM     87  C   UNL A   1      35.127  23.287  24.210  1.00  0.00     0.081 C 
ATOM     88  S   UNL A   1      36.820  23.005  24.253  1.00  0.00    -0.054 SA
ATOM     89  C   UNL A   1      34.425  21.988  24.151  1.00  0.00     0.266 C 
ATOM     90  C   UNL A   1      36.588  21.296  24.661  1.00  0.00     0.148 C 
ATOM     91  N   UNL A   1      35.244  20.989  24.647  1.00  0.00    -0.290 N 
ATOM     92  O   UNL A   1      33.296  21.837  23.686  1.00  0.00    -0.268 OA
ATOM     93  S   UNL A   1      37.903  20.326  25.003  1.00  0.00    -0.052 S 
BRANCH  91  94
ATOM     94  C   UNL A   1      34.578  19.724  25.003  1.00  0.00     0.092 C 
ATOM     95  C   UNL A   1      33.139  19.934  25.481  1.00  0.00     0.025 C 
ATOM     96  C   UNL A   1      34.695  18.617  23.941  1.00  0.00     0.025 C 
ATOM     97  C   UNL A   1      32.529  18.618  25.957  1.00  0.00     0.002 C 
ATOM     98  C   UNL A   1      34.062  17.315  24.429  1.00  0.00     0.002 C 
ATOM     99  C   UNL A   1      32.621  17.535  24.886  1.00  0.00     0.000 C 
ENDBRANCH  91  94
ENDBRANCH  82  86
ENDBRANCH  78  80
ENDBRANCH  77  78
ENDBRANCH  76  77
ENDBRANCH  75  76
ENDBRANCH  74  75
ENDBRANCH  73  74
ENDBRANCH   1  73
TORSDOF 22
ENDMDL
MODEL 3
REMARK VINA RESULT:     -10.2      2.060      7.485
REMARK SMILES O=C(OCCOCCOCCOC(=O)c1ccccc1/C=C1/SC(=S)N(C2CCCCC2)C1=O)c1ccc(-c2c3nc(c(-c4cccc(S(=O)(=O)[O-])c4F)c4ccc([nH]4)c(-c4cccc(S(=O)(=O)[O-])c4F)c4nc(c(-c5cccc(S(=O)(=O)[O-])c5F)c5ccc2[nH]5)C=C4)C=C3)cc1
REMARK SMILES IDX 7 1 6 2 5 3 4 4 3 5 2 6 1 7 35 8 36 9 97 10 37 11 96 12
REMARK SMILES IDX 38 13 39 14 40 15 90 16 41 17 95 18 89 19 91 20 42 21 94 22
REMARK SMILES IDX 88 23 87 24 43 26 75 27 55 28 74 29 56 30 59 31 73 32 92 33
REMARK SMILES IDX 57 34 58 35 72 37 93 38 60 39 44 40 45 41 53 42 46 43 48 44
REMARK SMILES IDX 54 45 47 46 49 47 50 48 51 49 52 50 76 51 77 52 85 53 78 54
REMARK SMILES IDX 80 55 86 56 79 57 81 58 82 59 83 60 84 61 61 62 62 63 70 64
REMARK SMILES IDX 63 65 65 66 71 67 64 68 66 69 67 70 68 71 69 72 8 73 9 74
REMARK SMILES IDX 10 75 11 76 12 77 13 78 14 79 15 80 16 81 20 82 17 83 19 84
REMARK SMILES IDX 18 85 21 86 22 87 23 88 33 89 24 90 26 91 34 92 25 93 27 94
REMARK SMILES IDX 28 95 32 96 29 97 31 98 30 99
REMARK H PARENT 91 25 59 36
REMARK Flexibility Score: inf
ROOT
ATOM      1  C   UNL A   1      31.744  29.316  26.914  1.00  0.00     0.188 C 
ENDROOT
BRANCH   1   2
ATOM      2  O   UNL A   1      31.985  30.729  26.861  1.00  0.00    -0.376 OA
BRANCH   2   3
ATOM      3  C   UNL A   1      33.189  31.109  27.534  1.00  0.00     0.202 C 
BRANCH   3   4
ATOM      4  C   UNL A   1      33.637  32.560  27.293  1.00  0.00     0.261 C 
BRANCH   4   5
ATOM      5  O   UNL A   1      32.991  33.516  28.157  1.00  0.00    -0.460 OA
BRANCH   5   6
ATOM      6  C   UNL A   1      33.372  34.140  29.290  1.00  0.00     0.338 C 
ATOM      7  O   UNL A   1      32.636  35.016  29.742  1.00  0.00    -0.246 OA
BRANCH   6   8
ATOM      8  C   UNL A   1      34.653  33.868  30.006  1.00  0.00     0.060 A 
ATOM      9  C   UNL A   1      35.911  34.340  29.628  1.00  0.00     0.016 A 
ATOM     10  C   UNL A   1      34.563  33.109  31.188  1.00  0.00     0.016 A 
ATOM     11  C   UNL A   1      37.062  33.988  30.335  1.00  0.00     0.010 A 
ATOM     12  C   UNL A   1      35.705  32.774  31.918  1.00  0.00     0.010 A 
ATOM     13  C   UNL A   1      36.966  33.169  31.459  1.00  0.00    -0.014 A 
BRANCH  13  14
ATOM     14  C   UNL A   1      38.183  32.560  32.033  1.00  0.00     0.031 A 
ATOM     15  C   UNL A   1      38.801  31.408  31.302  1.00  0.00     0.074 A 
ATOM     16  C   UNL A   1      38.733  33.032  33.163  1.00  0.00     0.049 A 
ATOM     17  N   UNL A   1      39.797  30.645  31.657  1.00  0.00    -0.248 NA
ATOM     18  C   UNL A   1      38.224  31.082  29.986  1.00  0.00     0.031 C 
ATOM     19  C   UNL A   1      38.258  34.195  33.902  1.00  0.00     0.029 A 
ATOM     20  N   UNL A   1      39.794  32.570  33.899  1.00  0.00    -0.354 N 
ATOM     21  C   UNL A   1      39.945  29.727  30.627  1.00  0.00     0.074 A 
ATOM     22  C   UNL A   1      38.937  30.025  29.634  1.00  0.00     0.031 C 
ATOM     23  C   UNL A   1      38.988  34.325  35.022  1.00  0.00     0.029 A 
ATOM     24  C   UNL A   1      39.945  33.227  35.097  1.00  0.00     0.049 A 
ATOM     25  H   UNL A   1      40.387  31.842  33.601  1.00  0.00     0.167 HD
ATOM     26  C   UNL A   1      40.850  28.730  30.514  1.00  0.00     0.034 A 
ATOM     27  C   UNL A   1      40.729  32.947  36.156  1.00  0.00     0.034 A 
ATOM     28  C   UNL A   1      41.845  28.448  31.506  1.00  0.00     0.049 A 
ATOM     29  C   UNL A   1      41.677  31.785  36.053  1.00  0.00     0.074 A 
ATOM     30  C   UNL A   1      42.814  27.463  31.503  1.00  0.00     0.029 A 
ATOM     31  N   UNL A   1      41.988  29.153  32.693  1.00  0.00    -0.354 N 
ATOM     32  N   UNL A   1      41.853  30.961  35.049  1.00  0.00    -0.248 NA
ATOM     33  C   UNL A   1      42.557  31.533  37.201  1.00  0.00     0.031 C 
ATOM     34  C   UNL A   1      43.533  27.563  32.699  1.00  0.00     0.029 A 
ATOM     35  C   UNL A   1      43.024  28.622  33.437  1.00  0.00     0.049 A 
ATOM     36  H   UNL A   1      41.432  29.918  32.966  1.00  0.00     0.167 HD
ATOM     37  C   UNL A   1      42.890  30.119  35.422  1.00  0.00     0.074 A 
ATOM     38  C   UNL A   1      43.303  30.532  36.749  1.00  0.00     0.031 C 
ATOM     39  C   UNL A   1      43.450  29.096  34.730  1.00  0.00     0.034 A 
BRANCH  26  40
ATOM     40  C   UNL A   1      40.775  27.889  29.272  1.00  0.00     0.023 A 
ATOM     41  C   UNL A   1      39.883  26.797  29.221  1.00  0.00     0.012 A 
ATOM     42  C   UNL A   1      41.619  28.146  28.177  1.00  0.00     0.148 A 
ATOM     43  C   UNL A   1      39.864  25.949  28.114  1.00  0.00     0.002 A 
ATOM     44  C   UNL A   1      41.571  27.317  27.063  1.00  0.00     0.091 A 
ATOM     45  F   UNL A   1      42.488  29.164  28.262  1.00  0.00    -0.205 F 
ATOM     46  C   UNL A   1      40.703  26.212  27.034  1.00  0.00     0.022 A 
BRANCH  44  47
ATOM     47  S   UNL A   1      42.585  27.614  25.613  1.00  0.00     0.127 S 
ATOM     48  O   UNL A   1      42.019  28.864  25.106  1.00  0.00    -0.237 OA
ATOM     49  O   UNL A   1      43.925  27.741  26.188  1.00  0.00    -0.237 OA
ATOM     50  O   UNL A   1      42.406  26.445  24.763  1.00  0.00    -0.744 OA
ENDBRANCH  44  47
ENDBRANCH  26  40
BRANCH  27  51
ATOM     51  C   UNL A   1      40.633  33.787  37.381  1.00  0.00     0.023 A 
ATOM     52  C   UNL A   1      41.309  35.020  37.447  1.00  0.00     0.012 A 
ATOM     53  C   UNL A   1      39.799  33.406  38.451  1.00  0.00     0.148 A 
ATOM     54  C   UNL A   1      41.162  35.852  38.558  1.00  0.00     0.002 A 
ATOM     55  C   UNL A   1      39.612  34.263  39.528  1.00  0.00     0.091 A 
ATOM     56  F   UNL A   1      39.175  32.221  38.379  1.00  0.00    -0.205 F 
ATOM     57  C   UNL A   1      40.303  35.482  39.591  1.00  0.00     0.022 A 
BRANCH  55  58
ATOM     58  S   UNL A   1      38.400  33.934  40.812  1.00  0.00     0.127 S 
ATOM     59  O   UNL A   1      39.065  32.897  41.594  1.00  0.00    -0.237 OA
ATOM     60  O   UNL A   1      38.299  35.238  41.467  1.00  0.00    -0.237 OA
ATOM     61  O   UNL A   1      37.192  33.527  40.105  1.00  0.00    -0.744 OA
ENDBRANCH  55  58
ENDBRANCH  27  51
BRANCH  39  62
ATOM     62  C   UNL A   1      44.605  28.377  35.361  1.00  0.00     0.023 A 
ATOM     63  C   UNL A   1      45.920  28.675  34.958  1.00  0.00     0.012 A 
ATOM     64  C   UNL A   1      44.386  27.506  36.446  1.00  0.00     0.148 A 
ATOM     65  C   UNL A   1      47.005  28.109  35.626  1.00  0.00     0.002 A 
ATOM     66  C   UNL A   1      45.472  26.981  37.133  1.00  0.00     0.091 A 
ATOM     67  F   UNL A   1      43.121  27.222  36.792  1.00  0.00    -0.205 F 
ATOM     68  C   UNL A   1      46.782  27.276  36.721  1.00  0.00     0.022 A 
BRANCH  66  69
ATOM     69  S   UNL A   1      45.276  25.984  38.614  1.00  0.00     0.127 S 
ATOM     70  O   UNL A   1      44.348  26.797  39.398  1.00  0.00    -0.237 OA
ATOM     71  O   UNL A   1      44.705  24.746  38.081  1.00  0.00    -0.237 OA
ATOM     72  O   UNL A   1      46.610  25.838  39.179  1.00  0.00    -0.744 OA
ENDBRANCH  66  69
ENDBRANCH  39  62
ENDBRANCH  13  14
ENDBRANCH   6   8
ENDBRANCH   5   6
ENDBRANCH   4   5
ENDBRANCH   3   4
ENDBRANCH   2   3
ENDBRANCH   1   2
BRANCH   1  73
ATOM     73  C   UNL A   1      32.112  28.595  25.619  1.00  0.00     0.188 C 
BRANCH  73  74
ATOM     74  O   UNL A   1      32.968  29.230  24.669  1.00  0.00    -0.376 OA
BRANCH  74  75
ATOM     75  C   UNL A   1      33.973  28.472  24.024  1.00  0.00     0.202 C 
BRANCH  75  76
ATOM     76  C   UNL A   1      33.777  28.160  22.536  1.00  0.00     0.261 C 
BRANCH  76  77
ATOM     77  O   UNL A   1      32.689  27.295  22.185  1.00  0.00    -0.460 OA
BRANCH  77  78
ATOM     78  C   UNL A   1      32.960  25.983  22.389  1.00  0.00     0.338 C 
ATOM     79  O   UNL A   1      33.631  25.266  21.643  1.00  0.00    -0.246 OA
BRANCH  78  80
ATOM     80  C   UNL A   1      32.259  25.448  23.564  1.00  0.00     0.067 A 
ATOM     81  C   UNL A   1      30.869  25.590  23.606  1.00  0.00     0.016 A 
ATOM     82  C   UNL A   1      32.978  24.988  24.687  1.00  0.00    -0.010 A 
ATOM     83  C   UNL A   1      30.182  25.285  24.783  1.00  0.00     0.001 A 
ATOM     84  C   UNL A   1      32.277  24.728  25.869  1.00  0.00     0.009 A 
ATOM     85  C   UNL A   1      30.887  24.876  25.916  1.00  0.00     0.001 A 
BRANCH  82  86
ATOM     86  C   UNL A   1      34.433  24.759  24.682  1.00  0.00     0.030 C 
ATOM     87  C   UNL A   1      35.010  23.579  24.422  1.00  0.00     0.081 C 
ATOM     88  S   UNL A   1      36.657  23.213  24.738  1.00  0.00    -0.054 SA
ATOM     89  C   UNL A   1      34.307  22.337  24.039  1.00  0.00     0.266 C 
ATOM     90  C   UNL A   1      36.318  21.477  24.835  1.00  0.00     0.148 C 
ATOM     91  N   UNL A   1      34.996  21.239  24.525  1.00  0.00    -0.290 N 
ATOM     92  O   UNL A   1      33.286  22.308  23.355  1.00  0.00    -0.268 OA
ATOM     93  S   UNL A   1      37.525  20.406  25.267  1.00  0.00    -0.052 S 
BRANCH  91  94
ATOM     94  C   UNL A   1      34.251  19.969  24.556  1.00  0.00     0.092 C 
ATOM     95  C   UNL A   1      35.150  18.756  24.299  1.00  0.00     0.025 C 
ATOM     96  C   UNL A   1      33.346  19.787  25.787  1.00  0.00     0.025 C 
ATOM     97  C   UNL A   1      34.321  17.476  24.214  1.00  0.00     0.002 C 
ATOM     98  C   UNL A   1      32.541  18.492  25.692  1.00  0.00     0.002 C 
ATOM     99  C   UNL A   1      33.450  17.288  25.454  1.00  0.00     0.000 C 
ENDBRANCH  91  94
ENDBRANCH  82  86
ENDBRANCH  78  80
ENDBRANCH  77  78
ENDBRANCH  76  77
ENDBRANCH  75  76
ENDBRANCH  74  75
ENDBRANCH  73  74
ENDBRANCH   1  73
TORSDOF 22
ENDMDL
