MODEL 1
REMARK VINA RESULT:     -11.0      0.000      0.000
REMARK SMILES Nc1nonc1C(=O)N1[C@@H]2CC[C@H]1C[C@H](CC(=O)OCCOCCOCCOC(=O)c1ccc(-c3c4nc(c(-c5cccc(S(=O)(=O)[O-])c5F)c5ccc([nH]5)c(-c5cccc(S(=O)(=O)[O-])c5F)c5nc(c(-c6cccc(S(=O)(=O)[O-])c6F)c6ccc3[nH]6)C=C5)C=C4)cc1)C2
REMARK SMILES IDX 23 1 22 2 21 3 20 4 19 5 17 6 18 7 16 8 15 9 9 10 10 11
REMARK SMILES IDX 13 12 11 13 94 14 12 15 14 16 7 17 8 18 6 19 2 20 3 21 4 22
REMARK SMILES IDX 5 23 1 24 24 27 25 28 26 29 27 30 28 31 29 32 30 33 31 34
REMARK SMILES IDX 32 35 93 36 33 37 92 38 34 39 35 40 36 41 86 42 37 43 91 44
REMARK SMILES IDX 85 45 87 46 38 47 90 48 84 49 83 50 39 52 71 53 51 54 70 55
REMARK SMILES IDX 52 56 55 57 69 58 88 59 53 60 54 61 68 63 89 64 56 65 40 66
REMARK SMILES IDX 41 67 49 68 42 69 44 70 50 71 43 72 45 73 46 74 47 75 48 76
REMARK SMILES IDX 72 77 73 78 81 79 74 80 76 81 82 82 75 83 77 84 78 85 79 86
REMARK SMILES IDX 80 87 57 88 58 89 66 90 59 91 61 92 67 93 60 94 62 95 63 96
REMARK SMILES IDX 64 97 65 98
REMARK H PARENT 1 25 1 26 87 51 55 62
REMARK Flexibility Score: inf
ROOT
ATOM      1  C   UNL A   1      32.459  28.978  25.267  1.00  0.00     0.188 C 
ENDROOT
BRANCH   1   2
ATOM      2  O   UNL A   1      33.358  29.157  24.181  1.00  0.00    -0.376 OA
BRANCH   2   3
ATOM      3  C   UNL A   1      33.968  27.985  23.644  1.00  0.00     0.202 C 
BRANCH   3   4
ATOM      4  C   UNL A   1      33.604  27.645  22.192  1.00  0.00     0.261 C 
BRANCH   4   5
ATOM      5  O   UNL A   1      33.942  26.288  21.843  1.00  0.00    -0.463 OA
BRANCH   5   6
ATOM      6  C   UNL A   1      32.901  25.516  21.451  1.00  0.00     0.306 C 
ATOM      7  O   UNL A   1      31.938  25.910  20.801  1.00  0.00    -0.252 OA
BRANCH   6   8
ATOM      8  C   UNL A   1      33.055  24.054  21.819  1.00  0.00     0.126 C 
BRANCH   8   9
ATOM      9  C   UNL A   1      32.609  23.524  23.202  1.00  0.00     0.004 C 
ATOM     10  N   UNL A   1      33.673  21.210  24.449  1.00  0.00    -0.331 N 
ATOM     11  C   UNL A   1      33.910  22.437  25.183  1.00  0.00     0.086 C 
ATOM     12  C   UNL A   1      32.237  21.158  24.234  1.00  0.00     0.086 C 
ATOM     13  C   UNL A   1      32.752  22.527  26.177  1.00  0.00     0.027 C 
ATOM     14  C   UNL A   1      33.863  23.554  24.140  1.00  0.00     0.029 C 
ATOM     15  C   UNL A   1      31.673  21.614  25.590  1.00  0.00     0.027 C 
ATOM     16  C   UNL A   1      31.871  22.159  23.129  1.00  0.00     0.029 C 
BRANCH  10  17
ATOM     17  C   UNL A   1      34.439  20.074  24.691  1.00  0.00     0.280 C 
ATOM     18  O   UNL A   1      35.645  20.166  24.920  1.00  0.00    -0.267 OA
BRANCH  17  19
ATOM     19  C   UNL A   1      33.764  18.778  24.557  1.00  0.00     0.216 A 
ATOM     20  C   UNL A   1      32.995  18.021  25.481  1.00  0.00     0.201 A 
ATOM     21  N   UNL A   1      32.537  16.921  24.889  1.00  0.00    -0.032 NA
ATOM     22  O   UNL A   1      32.964  17.011  23.576  1.00  0.00    -0.242 OA
ATOM     23  N   UNL A   1      33.726  18.149  23.372  1.00  0.00    -0.042 NA
BRANCH  20  24
ATOM     24  N   UNL A   1      32.705  18.342  26.752  1.00  0.00    -0.379 N 
ATOM     25  H   UNL A   1      33.426  18.601  27.371  1.00  0.00     0.158 HD
ATOM     26  H   UNL A   1      31.772  18.317  27.065  1.00  0.00     0.158 HD
ENDBRANCH  20  24
ENDBRANCH  17  19
ENDBRANCH  10  17
ENDBRANCH   8   9
ENDBRANCH   6   8
ENDBRANCH   5   6
ENDBRANCH   4   5
ENDBRANCH   3   4
ENDBRANCH   2   3
ENDBRANCH   1   2
BRANCH   1  27
ATOM     27  C   UNL A   1      31.432  30.089  25.498  1.00  0.00     0.188 C 
BRANCH  27  28
ATOM     28  O   UNL A   1      31.732  31.012  26.541  1.00  0.00    -0.376 OA
BRANCH  28  29
ATOM     29  C   UNL A   1      33.011  30.845  27.167  1.00  0.00     0.202 C 
BRANCH  29  30
ATOM     30  C   UNL A   1      33.703  32.124  27.679  1.00  0.00     0.261 C 
BRANCH  30  31
ATOM     31  O   UNL A   1      32.855  33.288  27.759  1.00  0.00    -0.460 OA
BRANCH  31  32
ATOM     32  C   UNL A   1      33.274  34.335  28.508  1.00  0.00     0.338 C 
ATOM     33  O   UNL A   1      32.677  35.385  28.685  1.00  0.00    -0.246 OA
BRANCH  32  34
ATOM     34  C   UNL A   1      34.442  33.885  29.313  1.00  0.00     0.060 A 
ATOM     35  C   UNL A   1      35.722  34.309  28.924  1.00  0.00     0.016 A 
ATOM     36  C   UNL A   1      34.282  33.149  30.493  1.00  0.00     0.016 A 
ATOM     37  C   UNL A   1      36.841  33.976  29.695  1.00  0.00     0.010 A 
ATOM     38  C   UNL A   1      35.402  32.810  31.257  1.00  0.00     0.010 A 
ATOM     39  C   UNL A   1      36.690  33.198  30.850  1.00  0.00    -0.014 A 
BRANCH  39  40
ATOM     40  C   UNL A   1      37.876  32.630  31.541  1.00  0.00     0.031 A 
ATOM     41  C   UNL A   1      38.571  31.455  30.907  1.00  0.00     0.074 A 
ATOM     42  C   UNL A   1      38.311  33.109  32.720  1.00  0.00     0.049 A 
ATOM     43  N   UNL A   1      39.572  30.743  31.354  1.00  0.00    -0.248 NA
ATOM     44  C   UNL A   1      38.062  31.025  29.594  1.00  0.00     0.031 C 
ATOM     45  C   UNL A   1      37.734  34.238  33.443  1.00  0.00     0.029 A 
ATOM     46  N   UNL A   1      39.330  32.672  33.533  1.00  0.00    -0.354 N 
ATOM     47  C   UNL A   1      39.796  29.766  30.394  1.00  0.00     0.074 A 
ATOM     48  C   UNL A   1      38.821  29.968  29.345  1.00  0.00     0.031 C 
ATOM     49  C   UNL A   1      38.382  34.383  34.614  1.00  0.00     0.029 A 
ATOM     50  C   UNL A   1      39.401  33.340  34.733  1.00  0.00     0.049 A 
ATOM     51  H   UNL A   1      39.949  31.950  33.280  1.00  0.00     0.167 HD
ATOM     52  C   UNL A   1      40.738  28.794  30.374  1.00  0.00     0.034 A 
ATOM     53  C   UNL A   1      40.178  33.116  35.815  1.00  0.00     0.034 A 
ATOM     54  C   UNL A   1      41.714  28.588  31.406  1.00  0.00     0.049 A 
ATOM     55  C   UNL A   1      41.191  31.998  35.789  1.00  0.00     0.074 A 
ATOM     56  C   UNL A   1      42.734  27.655  31.450  1.00  0.00     0.029 A 
ATOM     57  N   UNL A   1      41.783  29.312  32.586  1.00  0.00    -0.354 N 
ATOM     58  N   UNL A   1      41.478  31.163  34.820  1.00  0.00    -0.248 NA
ATOM     59  C   UNL A   1      42.007  31.807  37.000  1.00  0.00     0.031 C 
ATOM     60  C   UNL A   1      43.403  27.795  32.671  1.00  0.00     0.029 A 
ATOM     61  C   UNL A   1      42.817  28.836  33.373  1.00  0.00     0.049 A 
ATOM     62  H   UNL A   1      41.184  30.055  32.828  1.00  0.00     0.167 HD
ATOM     63  C   UNL A   1      42.525  30.373  35.289  1.00  0.00     0.074 A 
ATOM     64  C   UNL A   1      42.835  30.842  36.623  1.00  0.00     0.031 C 
ATOM     65  C   UNL A   1      43.160  29.344  34.677  1.00  0.00     0.034 A 
BRANCH  52  66
ATOM     66  C   UNL A   1      40.767  27.887  29.175  1.00  0.00     0.023 A 
ATOM     67  C   UNL A   1      39.879  26.795  29.106  1.00  0.00     0.012 A 
ATOM     68  C   UNL A   1      41.643  28.137  28.101  1.00  0.00     0.148 A 
ATOM     69  C   UNL A   1      39.883  25.945  28.001  1.00  0.00     0.002 A 
ATOM     70  C   UNL A   1      41.612  27.312  26.984  1.00  0.00     0.091 A 
ATOM     71  F   UNL A   1      42.499  29.164  28.199  1.00  0.00    -0.205 F 
ATOM     72  C   UNL A   1      40.741  26.210  26.938  1.00  0.00     0.022 A 
BRANCH  70  73
ATOM     73  S   UNL A   1      42.627  27.612  25.534  1.00  0.00     0.127 S 
ATOM     74  O   UNL A   1      43.967  27.655  26.118  1.00  0.00    -0.237 OA
ATOM     75  O   UNL A   1      42.354  26.429  24.717  1.00  0.00    -0.237 OA
ATOM     76  O   UNL A   1      42.151  28.866  24.965  1.00  0.00    -0.744 OA
ENDBRANCH  70  73
ENDBRANCH  52  66
BRANCH  53  77
ATOM     77  C   UNL A   1      40.041  33.979  37.024  1.00  0.00     0.023 A 
ATOM     78  C   UNL A   1      40.625  35.261  37.035  1.00  0.00     0.012 A 
ATOM     79  C   UNL A   1      39.339  33.534  38.162  1.00  0.00     0.148 A 
ATOM     80  C   UNL A   1      40.537  36.073  38.167  1.00  0.00     0.002 A 
ATOM     81  C   UNL A   1      39.209  34.369  39.265  1.00  0.00     0.091 A 
ATOM     82  F   UNL A   1      38.812  32.302  38.140  1.00  0.00    -0.205 F 
ATOM     83  C   UNL A   1      39.821  35.632  39.276  1.00  0.00     0.022 A 
BRANCH  81  84
ATOM     84  S   UNL A   1      38.207  33.932  40.690  1.00  0.00     0.127 S 
ATOM     85  O   UNL A   1      39.069  32.976  41.381  1.00  0.00    -0.237 OA
ATOM     86  O   UNL A   1      38.059  35.225  41.360  1.00  0.00    -0.237 OA
ATOM     87  O   UNL A   1      36.969  33.390  40.149  1.00  0.00    -0.744 OA
ENDBRANCH  81  84
ENDBRANCH  53  77
BRANCH  65  88
ATOM     88  C   UNL A   1      44.284  28.660  35.414  1.00  0.00     0.023 A 
ATOM     89  C   UNL A   1      45.611  29.090  35.222  1.00  0.00     0.012 A 
ATOM     90  C   UNL A   1      44.015  27.658  36.369  1.00  0.00     0.148 A 
ATOM     91  C   UNL A   1      46.656  28.519  35.950  1.00  0.00     0.002 A 
ATOM     92  C   UNL A   1      45.053  27.126  37.124  1.00  0.00     0.091 A 
ATOM     93  F   UNL A   1      42.746  27.252  36.527  1.00  0.00    -0.205 F 
ATOM     94  C   UNL A   1      46.376  27.547  36.909  1.00  0.00     0.022 A 
BRANCH  92  95
ATOM     95  S   UNL A   1      44.778  25.942  38.448  1.00  0.00     0.127 S 
ATOM     96  O   UNL A   1      44.155  24.832  37.729  1.00  0.00    -0.237 OA
ATOM     97  O   UNL A   1      46.139  25.677  38.916  1.00  0.00    -0.237 OA
ATOM     98  O   UNL A   1      43.925  26.614  39.418  1.00  0.00    -0.744 OA
ENDBRANCH  92  95
ENDBRANCH  65  88
ENDBRANCH  39  40
ENDBRANCH  32  34
ENDBRANCH  31  32
ENDBRANCH  30  31
ENDBRANCH  29  30
ENDBRANCH  28  29
ENDBRANCH  27  28
ENDBRANCH   1  27
TORSDOF 24
ENDMDL
MODEL 2
REMARK VINA RESULT:     -10.9      1.994      7.797
REMARK SMILES Nc1nonc1C(=O)N1[C@@H]2CC[C@H]1C[C@H](CC(=O)OCCOCCOCCOC(=O)c1ccc(-c3c4nc(c(-c5cccc(S(=O)(=O)[O-])c5F)c5ccc([nH]5)c(-c5cccc(S(=O)(=O)[O-])c5F)c5nc(c(-c6cccc(S(=O)(=O)[O-])c6F)c6ccc3[nH]6)C=C5)C=C4)cc1)C2
REMARK SMILES IDX 23 1 22 2 21 3 20 4 19 5 17 6 18 7 16 8 15 9 9 10 10 11
REMARK SMILES IDX 13 12 11 13 94 14 12 15 14 16 7 17 8 18 6 19 2 20 3 21 4 22
REMARK SMILES IDX 5 23 1 24 24 27 25 28 26 29 27 30 28 31 29 32 30 33 31 34
REMARK SMILES IDX 32 35 93 36 33 37 92 38 34 39 35 40 36 41 86 42 37 43 91 44
REMARK SMILES IDX 85 45 87 46 38 47 90 48 84 49 83 50 39 52 71 53 51 54 70 55
REMARK SMILES IDX 52 56 55 57 69 58 88 59 53 60 54 61 68 63 89 64 56 65 40 66
REMARK SMILES IDX 41 67 49 68 42 69 44 70 50 71 43 72 45 73 46 74 47 75 48 76
REMARK SMILES IDX 72 77 73 78 81 79 74 80 76 81 82 82 75 83 77 84 78 85 79 86
REMARK SMILES IDX 80 87 57 88 58 89 66 90 59 91 61 92 67 93 60 94 62 95 63 96
REMARK SMILES IDX 64 97 65 98
REMARK H PARENT 1 25 1 26 87 51 55 62
REMARK Flexibility Score: inf
ROOT
ATOM      1  C   UNL A   1      32.352  29.500  25.167  1.00  0.00     0.188 C 
ENDROOT
BRANCH   1   2
ATOM      2  O   UNL A   1      32.235  28.083  25.136  1.00  0.00    -0.376 OA
BRANCH   2   3
ATOM      3  C   UNL A   1      31.269  27.493  26.002  1.00  0.00     0.202 C 
BRANCH   3   4
ATOM      4  C   UNL A   1      30.923  26.024  25.721  1.00  0.00     0.261 C 
BRANCH   4   5
ATOM      5  O   UNL A   1      30.979  25.207  26.906  1.00  0.00    -0.463 OA
BRANCH   5   6
ATOM      6  C   UNL A   1      30.573  23.925  26.745  1.00  0.00     0.306 C 
ATOM      7  O   UNL A   1      29.705  23.373  27.412  1.00  0.00    -0.252 OA
BRANCH   6   8
ATOM      8  C   UNL A   1      31.238  23.219  25.581  1.00  0.00     0.126 C 
BRANCH   8   9
ATOM      9  C   UNL A   1      32.769  23.279  25.375  1.00  0.00     0.004 C 
ATOM     10  N   UNL A   1      34.434  21.005  25.062  1.00  0.00    -0.331 N 
ATOM     11  C   UNL A   1      34.414  21.883  23.910  1.00  0.00     0.086 C 
ATOM     12  C   UNL A   1      34.794  21.849  26.188  1.00  0.00     0.086 C 
ATOM     13  C   UNL A   1      35.607  22.817  24.111  1.00  0.00     0.027 C 
ATOM     14  C   UNL A   1      33.080  22.628  23.985  1.00  0.00     0.029 C 
ATOM     15  C   UNL A   1      35.912  22.732  25.608  1.00  0.00     0.027 C 
ATOM     16  C   UNL A   1      33.574  22.700  26.571  1.00  0.00     0.029 C 
BRANCH  10  17
ATOM     17  C   UNL A   1      34.859  19.684  24.946  1.00  0.00     0.280 C 
ATOM     18  O   UNL A   1      36.048  19.420  24.769  1.00  0.00    -0.267 OA
BRANCH  17  19
ATOM     19  C   UNL A   1      33.818  18.651  24.942  1.00  0.00     0.216 A 
ATOM     20  C   UNL A   1      33.900  17.235  25.023  1.00  0.00     0.201 A 
ATOM     21  N   UNL A   1      32.676  16.714  25.034  1.00  0.00    -0.032 NA
ATOM     22  O   UNL A   1      31.819  17.800  25.022  1.00  0.00    -0.242 OA
ATOM     23  N   UNL A   1      32.519  18.993  24.957  1.00  0.00    -0.042 NA
BRANCH  20  24
ATOM     24  N   UNL A   1      35.013  16.490  25.121  1.00  0.00    -0.379 N 
ATOM     25  H   UNL A   1      35.485  16.201  24.308  1.00  0.00     0.158 HD
ATOM     26  H   UNL A   1      35.355  16.233  26.007  1.00  0.00     0.158 HD
ENDBRANCH  20  24
ENDBRANCH  17  19
ENDBRANCH  10  17
ENDBRANCH   8   9
ENDBRANCH   6   8
ENDBRANCH   5   6
ENDBRANCH   4   5
ENDBRANCH   3   4
ENDBRANCH   2   3
ENDBRANCH   1   2
BRANCH   1  27
ATOM     27  C   UNL A   1      31.098  30.282  25.562  1.00  0.00     0.188 C 
BRANCH  27  28
ATOM     28  O   UNL A   1      31.250  31.694  25.675  1.00  0.00    -0.376 OA
BRANCH  28  29
ATOM     29  C   UNL A   1      31.608  32.176  26.978  1.00  0.00     0.202 C 
BRANCH  29  30
ATOM     30  C   UNL A   1      32.304  33.550  27.041  1.00  0.00     0.261 C 
BRANCH  30  31
ATOM     31  O   UNL A   1      32.516  34.068  28.370  1.00  0.00    -0.460 OA
BRANCH  31  32
ATOM     32  C   UNL A   1      33.611  34.831  28.594  1.00  0.00     0.338 C 
ATOM     33  O   UNL A   1      33.649  36.050  28.641  1.00  0.00    -0.246 OA
BRANCH  32  34
ATOM     34  C   UNL A   1      34.705  33.936  29.063  1.00  0.00     0.060 A 
ATOM     35  C   UNL A   1      34.362  32.811  29.827  1.00  0.00     0.016 A 
ATOM     36  C   UNL A   1      36.034  34.133  28.672  1.00  0.00     0.016 A 
ATOM     37  C   UNL A   1      35.347  31.899  30.223  1.00  0.00     0.010 A 
ATOM     38  C   UNL A   1      37.018  33.226  29.077  1.00  0.00     0.010 A 
ATOM     39  C   UNL A   1      36.686  32.119  29.876  1.00  0.00    -0.014 A 
BRANCH  39  40
ATOM     40  C   UNL A   1      37.769  31.308  30.487  1.00  0.00     0.031 A 
ATOM     41  C   UNL A   1      38.195  31.637  31.893  1.00  0.00     0.074 A 
ATOM     42  C   UNL A   1      38.395  30.329  29.810  1.00  0.00     0.049 A 
ATOM     43  N   UNL A   1      39.163  31.126  32.607  1.00  0.00    -0.248 NA
ATOM     44  C   UNL A   1      37.426  32.689  32.580  1.00  0.00     0.031 C 
ATOM     45  C   UNL A   1      38.086  29.907  28.447  1.00  0.00     0.029 A 
ATOM     46  N   UNL A   1      39.454  29.533  30.177  1.00  0.00    -0.354 N 
ATOM     47  C   UNL A   1      39.138  31.809  33.816  1.00  0.00     0.074 A 
ATOM     48  C   UNL A   1      38.067  32.779  33.735  1.00  0.00     0.031 C 
ATOM     49  C   UNL A   1      38.961  28.954  28.076  1.00  0.00     0.029 A 
ATOM     50  C   UNL A   1      39.909  28.719  29.166  1.00  0.00     0.049 A 
ATOM     51  H   UNL A   1      39.850  29.545  31.079  1.00  0.00     0.167 HD
ATOM     52  C   UNL A   1      39.924  31.640  34.905  1.00  0.00     0.034 A 
ATOM     53  C   UNL A   1      40.983  27.903  29.116  1.00  0.00     0.034 A 
ATOM     54  C   UNL A   1      40.984  30.677  34.998  1.00  0.00     0.049 A 
ATOM     55  C   UNL A   1      41.873  27.763  30.326  1.00  0.00     0.074 A 
ATOM     56  C   UNL A   1      41.805  30.405  36.078  1.00  0.00     0.029 A 
ATOM     57  N   UNL A   1      41.387  29.840  33.969  1.00  0.00    -0.354 N 
ATOM     58  N   UNL A   1      41.759  28.321  31.507  1.00  0.00    -0.248 NA
ATOM     59  C   UNL A   1      43.028  26.857  30.206  1.00  0.00     0.031 C 
ATOM     60  C   UNL A   1      42.724  29.423  35.693  1.00  0.00     0.029 A 
ATOM     61  C   UNL A   1      42.456  29.063  34.382  1.00  0.00     0.049 A 
ATOM     62  H   UNL A   1      40.974  29.805  33.076  1.00  0.00     0.167 HD
ATOM     63  C   UNL A   1      42.803  27.811  32.276  1.00  0.00     0.074 A 
ATOM     64  C   UNL A   1      43.527  26.884  31.435  1.00  0.00     0.031 C 
ATOM     65  C   UNL A   1      43.138  28.099  33.558  1.00  0.00     0.034 A 
BRANCH  52  66
ATOM     66  C   UNL A   1      39.644  32.509  36.099  1.00  0.00     0.023 A 
ATOM     67  C   UNL A   1      40.296  33.753  36.222  1.00  0.00     0.012 A 
ATOM     68  C   UNL A   1      38.710  32.116  37.076  1.00  0.00     0.148 A 
ATOM     69  C   UNL A   1      40.046  34.579  37.317  1.00  0.00     0.002 A 
ATOM     70  C   UNL A   1      38.435  32.963  38.142  1.00  0.00     0.091 A 
ATOM     71  F   UNL A   1      38.123  30.916  36.955  1.00  0.00    -0.205 F 
ATOM     72  C   UNL A   1      39.109  34.189  38.270  1.00  0.00     0.022 A 
BRANCH  70  73
ATOM     73  S   UNL A   1      37.193  32.582  39.382  1.00  0.00     0.127 S 
ATOM     74  O   UNL A   1      37.399  33.661  40.346  1.00  0.00    -0.237 OA
ATOM     75  O   UNL A   1      35.952  32.676  38.614  1.00  0.00    -0.237 OA
ATOM     76  O   UNL A   1      37.508  31.243  39.864  1.00  0.00    -0.744 OA
ENDBRANCH  70  73
ENDBRANCH  52  66
BRANCH  53  77
ATOM     77  C   UNL A   1      41.281  27.138  27.870  1.00  0.00     0.023 A 
ATOM     78  C   UNL A   1      41.820  27.806  26.753  1.00  0.00     0.012 A 
ATOM     79  C   UNL A   1      41.028  25.754  27.787  1.00  0.00     0.148 A 
ATOM     80  C   UNL A   1      42.075  27.116  25.567  1.00  0.00     0.002 A 
ATOM     81  C   UNL A   1      41.336  25.063  26.621  1.00  0.00     0.091 A 
ATOM     82  F   UNL A   1      40.493  25.142  28.852  1.00  0.00    -0.205 F 
ATOM     83  C   UNL A   1      41.844  25.745  25.504  1.00  0.00     0.022 A 
BRANCH  81  84
ATOM     84  S   UNL A   1      41.182  23.279  26.489  1.00  0.00     0.127 S 
ATOM     85  O   UNL A   1      39.851  23.136  25.904  1.00  0.00    -0.237 OA
ATOM     86  O   UNL A   1      42.290  22.947  25.592  1.00  0.00    -0.237 OA
ATOM     87  O   UNL A   1      41.334  22.770  27.845  1.00  0.00    -0.744 OA
ENDBRANCH  81  84
ENDBRANCH  53  77
BRANCH  65  88
ATOM     88  C   UNL A   1      44.321  27.384  34.162  1.00  0.00     0.023 A 
ATOM     89  C   UNL A   1      45.615  27.919  34.008  1.00  0.00     0.012 A 
ATOM     90  C   UNL A   1      44.139  26.239  34.963  1.00  0.00     0.148 A 
ATOM     91  C   UNL A   1      46.712  27.312  34.622  1.00  0.00     0.002 A 
ATOM     92  C   UNL A   1      45.228  25.667  35.610  1.00  0.00     0.091 A 
ATOM     93  F   UNL A   1      42.901  25.737  35.086  1.00  0.00    -0.205 F 
ATOM     94  C   UNL A   1      46.517  26.195  35.432  1.00  0.00     0.022 A 
BRANCH  92  95
ATOM     95  S   UNL A   1      45.060  24.287  36.749  1.00  0.00     0.127 S 
ATOM     96  O   UNL A   1      44.071  24.801  37.695  1.00  0.00    -0.237 OA
ATOM     97  O   UNL A   1      44.571  23.220  35.874  1.00  0.00    -0.237 OA
ATOM     98  O   UNL A   1      46.389  24.056  37.299  1.00  0.00    -0.744 OA
ENDBRANCH  92  95
ENDBRANCH  65  88
ENDBRANCH  39  40
ENDBRANCH  32  34
ENDBRANCH  31  32
ENDBRANCH  30  31
ENDBRANCH  29  30
ENDBRANCH  28  29
ENDBRANCH  27  28
ENDBRANCH   1  27
TORSDOF 24
ENDMDL
MODEL 3
REMARK VINA RESULT:     -10.8      2.337      3.192
REMARK SMILES Nc1nonc1C(=O)N1[C@@H]2CC[C@H]1C[C@H](CC(=O)OCCOCCOCCOC(=O)c1ccc(-c3c4nc(c(-c5cccc(S(=O)(=O)[O-])c5F)c5ccc([nH]5)c(-c5cccc(S(=O)(=O)[O-])c5F)c5nc(c(-c6cccc(S(=O)(=O)[O-])c6F)c6ccc3[nH]6)C=C5)C=C4)cc1)C2
REMARK SMILES IDX 23 1 22 2 21 3 20 4 19 5 17 6 18 7 16 8 15 9 9 10 10 11
REMARK SMILES IDX 13 12 11 13 94 14 12 15 14 16 7 17 8 18 6 19 2 20 3 21 4 22
REMARK SMILES IDX 5 23 1 24 24 27 25 28 26 29 27 30 28 31 29 32 30 33 31 34
REMARK SMILES IDX 32 35 93 36 33 37 92 38 34 39 35 40 36 41 86 42 37 43 91 44
REMARK SMILES IDX 85 45 87 46 38 47 90 48 84 49 83 50 39 52 71 53 51 54 70 55
REMARK SMILES IDX 52 56 55 57 69 58 88 59 53 60 54 61 68 63 89 64 56 65 40 66
REMARK SMILES IDX 41 67 49 68 42 69 44 70 50 71 43 72 45 73 46 74 47 75 48 76
REMARK SMILES IDX 72 77 73 78 81 79 74 80 76 81 82 82 75 83 77 84 78 85 79 86
REMARK SMILES IDX 80 87 57 88 58 89 66 90 59 91 61 92 67 93 60 94 62 95 63 96
REMARK SMILES IDX 64 97 65 98
REMARK H PARENT 1 25 1 26 87 51 55 62
REMARK Flexibility Score: inf
ROOT
ATOM      1  C   UNL A   1      30.823  26.392  24.575  1.00  0.00     0.188 C 
ENDROOT
BRANCH   1   2
ATOM      2  O   UNL A   1      31.336  27.527  23.891  1.00  0.00    -0.376 OA
BRANCH   2   3
ATOM      3  C   UNL A   1      32.079  27.284  22.698  1.00  0.00     0.202 C 
BRANCH   3   4
ATOM      4  C   UNL A   1      32.185  25.817  22.260  1.00  0.00     0.261 C 
BRANCH   4   5
ATOM      5  O   UNL A   1      33.551  25.386  22.102  1.00  0.00    -0.463 OA
BRANCH   5   6
ATOM      6  C   UNL A   1      33.724  24.048  21.983  1.00  0.00     0.306 C 
ATOM      7  O   UNL A   1      33.201  23.344  21.126  1.00  0.00    -0.252 OA
BRANCH   6   8
ATOM      8  C   UNL A   1      34.714  23.472  22.976  1.00  0.00     0.126 C 
BRANCH   8   9
ATOM      9  C   UNL A   1      34.296  23.152  24.430  1.00  0.00     0.004 C 
ATOM     10  N   UNL A   1      33.233  20.664  25.279  1.00  0.00    -0.331 N 
ATOM     11  C   UNL A   1      34.499  21.006  25.897  1.00  0.00     0.086 C 
ATOM     12  C   UNL A   1      32.359  21.797  25.533  1.00  0.00     0.086 C 
ATOM     13  C   UNL A   1      34.120  21.696  27.207  1.00  0.00     0.027 C 
ATOM     14  C   UNL A   1      35.186  21.961  24.920  1.00  0.00     0.029 C 
ATOM     15  C   UNL A   1      32.673  22.148  26.997  1.00  0.00     0.027 C 
ATOM     16  C   UNL A   1      32.765  22.946  24.600  1.00  0.00     0.029 C 
BRANCH  10  17
ATOM     17  C   UNL A   1      32.776  19.349  25.268  1.00  0.00     0.280 C 
ATOM     18  O   UNL A   1      32.543  18.755  26.321  1.00  0.00    -0.267 OA
BRANCH  17  19
ATOM     19  C   UNL A   1      32.687  18.690  23.960  1.00  0.00     0.216 A 
ATOM     20  C   UNL A   1      32.329  19.189  22.679  1.00  0.00     0.201 A 
ATOM     21  N   UNL A   1      32.443  18.222  21.772  1.00  0.00    -0.032 NA
ATOM     22  O   UNL A   1      32.932  17.130  22.466  1.00  0.00    -0.242 OA
ATOM     23  N   UNL A   1      33.074  17.413  23.814  1.00  0.00    -0.042 NA
BRANCH  20  24
ATOM     24  N   UNL A   1      31.968  20.444  22.369  1.00  0.00    -0.379 N 
ATOM     25  H   UNL A   1      31.199  20.603  21.775  1.00  0.00     0.158 HD
ATOM     26  H   UNL A   1      32.473  21.206  22.734  1.00  0.00     0.158 HD
ENDBRANCH  20  24
ENDBRANCH  17  19
ENDBRANCH  10  17
ENDBRANCH   8   9
ENDBRANCH   6   8
ENDBRANCH   5   6
ENDBRANCH   4   5
ENDBRANCH   3   4
ENDBRANCH   2   3
ENDBRANCH   1   2
BRANCH   1  27
ATOM     27  C   UNL A   1      31.127  26.299  26.072  1.00  0.00     0.188 C 
BRANCH  27  28
ATOM     28  O   UNL A   1      32.050  27.256  26.585  1.00  0.00    -0.376 OA
BRANCH  28  29
ATOM     29  C   UNL A   1      31.479  28.294  27.393  1.00  0.00     0.202 C 
BRANCH  29  30
ATOM     30  C   UNL A   1      31.533  29.725  26.820  1.00  0.00     0.261 C 
BRANCH  30  31
ATOM     31  O   UNL A   1      32.856  30.210  26.509  1.00  0.00    -0.460 OA
BRANCH  31  32
ATOM     32  C   UNL A   1      33.266  31.366  27.083  1.00  0.00     0.338 C 
ATOM     33  O   UNL A   1      32.593  32.371  27.250  1.00  0.00    -0.246 OA
BRANCH  32  34
ATOM     34  C   UNL A   1      34.578  31.112  27.737  1.00  0.00     0.060 A 
ATOM     35  C   UNL A   1      34.929  29.786  28.032  1.00  0.00     0.016 A 
ATOM     36  C   UNL A   1      35.498  32.142  27.963  1.00  0.00     0.016 A 
ATOM     37  C   UNL A   1      36.185  29.493  28.575  1.00  0.00     0.010 A 
ATOM     38  C   UNL A   1      36.749  31.848  28.514  1.00  0.00     0.010 A 
ATOM     39  C   UNL A   1      37.090  30.526  28.848  1.00  0.00    -0.014 A 
BRANCH  39  40
ATOM     40  C   UNL A   1      38.317  30.268  29.644  1.00  0.00     0.031 A 
ATOM     41  C   UNL A   1      39.326  29.295  29.097  1.00  0.00     0.074 A 
ATOM     42  C   UNL A   1      38.524  30.844  30.842  1.00  0.00     0.049 A 
ATOM     43  N   UNL A   1      40.429  28.851  29.639  1.00  0.00    -0.248 NA
ATOM     44  C   UNL A   1      39.048  28.748  27.758  1.00  0.00     0.031 C 
ATOM     45  C   UNL A   1      37.631  31.802  31.489  1.00  0.00     0.029 A 
ATOM     46  N   UNL A   1      39.546  30.673  31.744  1.00  0.00    -0.354 N 
ATOM     47  C   UNL A   1      40.963  27.954  28.724  1.00  0.00     0.074 A 
ATOM     48  C   UNL A   1      40.059  27.907  27.596  1.00  0.00     0.031 C 
ATOM     49  C   UNL A   1      38.125  32.105  32.704  1.00  0.00     0.029 A 
ATOM     50  C   UNL A   1      39.354  31.343  32.929  1.00  0.00     0.049 A 
ATOM     51  H   UNL A   1      40.341  30.122  31.559  1.00  0.00     0.167 HD
ATOM     52  C   UNL A   1      42.110  27.240  28.803  1.00  0.00     0.034 A 
ATOM     53  C   UNL A   1      40.070  31.321  34.074  1.00  0.00     0.034 A 
ATOM     54  C   UNL A   1      43.018  27.284  29.914  1.00  0.00     0.049 A 
ATOM     55  C   UNL A   1      41.322  30.483  34.157  1.00  0.00     0.074 A 
ATOM     56  C   UNL A   1      44.227  26.627  30.062  1.00  0.00     0.029 A 
ATOM     57  N   UNL A   1      42.811  28.008  31.078  1.00  0.00    -0.354 N 
ATOM     58  N   UNL A   1      41.883  29.739  33.234  1.00  0.00    -0.248 NA
ATOM     59  C   UNL A   1      42.057  30.502  35.432  1.00  0.00     0.031 C 
ATOM     60  C   UNL A   1      44.739  26.932  31.328  1.00  0.00     0.029 A 
ATOM     61  C   UNL A   1      43.862  27.802  31.956  1.00  0.00     0.049 A 
ATOM     62  H   UNL A   1      42.033  28.584  31.253  1.00  0.00     0.167 HD
ATOM     63  C   UNL A   1      43.047  29.230  33.804  1.00  0.00     0.074 A 
ATOM     64  C   UNL A   1      43.123  29.766  35.146  1.00  0.00     0.031 C 
ATOM     65  C   UNL A   1      43.961  28.384  33.270  1.00  0.00     0.034 A 
BRANCH  52  66
ATOM     66  C   UNL A   1      42.459  26.363  27.632  1.00  0.00     0.023 A 
ATOM     67  C   UNL A   1      43.233  26.886  26.577  1.00  0.00     0.012 A 
ATOM     68  C   UNL A   1      42.055  25.015  27.595  1.00  0.00     0.148 A 
ATOM     69  C   UNL A   1      43.574  26.089  25.485  1.00  0.00     0.002 A 
ATOM     70  C   UNL A   1      42.435  24.215  26.524  1.00  0.00     0.091 A 
ATOM     71  F   UNL A   1      41.295  24.546  28.595  1.00  0.00    -0.205 F 
ATOM     72  C   UNL A   1      43.185  24.753  25.465  1.00  0.00     0.022 A 
BRANCH  70  73
ATOM     73  S   UNL A   1      42.043  22.464  26.441  1.00  0.00     0.127 S 
ATOM     74  O   UNL A   1      42.504  21.997  27.747  1.00  0.00    -0.237 OA
ATOM     75  O   UNL A   1      40.589  22.483  26.277  1.00  0.00    -0.237 OA
ATOM     76  O   UNL A   1      42.776  21.945  25.295  1.00  0.00    -0.744 OA
ENDBRANCH  70  73
ENDBRANCH  52  66
BRANCH  53  77
ATOM     77  C   UNL A   1      39.627  32.129  35.247  1.00  0.00     0.023 A 
ATOM     78  C   UNL A   1      38.776  31.553  36.210  1.00  0.00     0.012 A 
ATOM     79  C   UNL A   1      40.041  33.466  35.409  1.00  0.00     0.148 A 
ATOM     80  C   UNL A   1      38.323  32.301  37.297  1.00  0.00     0.002 A 
ATOM     81  C   UNL A   1      39.631  34.188  36.523  1.00  0.00     0.091 A 
ATOM     82  F   UNL A   1      40.832  34.004  34.469  1.00  0.00    -0.205 F 
ATOM     83  C   UNL A   1      38.758  33.613  37.460  1.00  0.00     0.022 A 
BRANCH  81  84
ATOM     84  S   UNL A   1      40.234  35.842  36.876  1.00  0.00     0.127 S 
ATOM     85  O   UNL A   1      39.634  36.108  38.181  1.00  0.00    -0.237 OA
ATOM     86  O   UNL A   1      41.683  35.636  36.893  1.00  0.00    -0.237 OA
ATOM     87  O   UNL A   1      39.759  36.676  35.780  1.00  0.00    -0.744 OA
ENDBRANCH  81  84
ENDBRANCH  53  77
BRANCH  65  88
ATOM     88  C   UNL A   1      45.153  27.999  34.110  1.00  0.00     0.023 A 
ATOM     89  C   UNL A   1      46.270  28.854  34.177  1.00  0.00     0.012 A 
ATOM     90  C   UNL A   1      45.125  26.837  34.909  1.00  0.00     0.148 A 
ATOM     91  C   UNL A   1      47.350  28.550  35.007  1.00  0.00     0.002 A 
ATOM     92  C   UNL A   1      46.183  26.564  35.769  1.00  0.00     0.091 A 
ATOM     93  F   UNL A   1      44.059  26.027  34.821  1.00  0.00    -0.205 F 
ATOM     94  C   UNL A   1      47.301  27.413  35.811  1.00  0.00     0.022 A 
BRANCH  92  95
ATOM     95  S   UNL A   1      46.166  25.177  36.912  1.00  0.00     0.127 S 
ATOM     96  O   UNL A   1      47.253  25.531  37.824  1.00  0.00    -0.237 OA
ATOM     97  O   UNL A   1      44.827  25.271  37.494  1.00  0.00    -0.237 OA
ATOM     98  O   UNL A   1      46.392  23.987  36.104  1.00  0.00    -0.744 OA
ENDBRANCH  92  95
ENDBRANCH  65  88
ENDBRANCH  39  40
ENDBRANCH  32  34
ENDBRANCH  31  32
ENDBRANCH  30  31
ENDBRANCH  29  30
ENDBRANCH  28  29
ENDBRANCH  27  28
ENDBRANCH   1  27
TORSDOF 24
ENDMDL
