MODEL 1
REMARK VINA RESULT:     -11.7      0.000      0.000
REMARK SMILES O=C(OCCOCCOCCOC(=O)C1(Cc2ccncc2)Cc2ccccc2C1)c1ccc(-c2c3nc(c(-c4cccc(S(=O)(=O)[O-])c4F)c4ccc([nH]4)c(-c4cccc(S(=O)(=O)[O-])c4F)c4nc(c(-c5cccc(S(=O)(=O)[O-])c5F)c5ccc2[nH]5)C=C4)C=C3)cc1
REMARK SMILES IDX 7 1 6 2 5 3 4 4 3 5 2 6 1 7 31 8 32 9 93 10 33 11 92 12
REMARK SMILES IDX 34 13 35 14 36 15 86 16 37 17 91 18 85 19 87 20 38 21 90 22
REMARK SMILES IDX 84 23 83 24 39 26 71 27 51 28 70 29 52 30 55 31 69 32 88 33
REMARK SMILES IDX 53 34 54 35 68 37 89 38 56 39 40 40 41 41 49 42 42 43 44 44
REMARK SMILES IDX 50 45 43 46 45 47 46 48 47 49 48 50 72 51 73 52 81 53 74 54
REMARK SMILES IDX 76 55 82 56 75 57 77 58 78 59 79 60 80 61 57 62 58 63 66 64
REMARK SMILES IDX 59 65 61 66 67 67 60 68 62 69 63 70 64 71 65 72 8 73 9 74
REMARK SMILES IDX 10 75 11 76 12 77 13 78 14 79 15 80 23 81 30 82 24 83 29 84
REMARK SMILES IDX 25 85 28 86 26 87 27 88 16 89 17 90 18 91 22 92 19 93 21 94
REMARK SMILES IDX 20 95
REMARK H PARENT 87 25 55 36
REMARK Flexibility Score: inf
ROOT
ATOM      1  C   UNL A   1      36.027  22.184  25.738  1.00  0.00     0.188 C 
ENDROOT
BRANCH   1   2
ATOM      2  O   UNL A   1      37.179  21.354  25.685  1.00  0.00    -0.376 OA
BRANCH   2   3
ATOM      3  C   UNL A   1      37.186  20.364  24.662  1.00  0.00     0.202 C 
BRANCH   3   4
ATOM      4  C   UNL A   1      37.912  19.063  25.006  1.00  0.00     0.261 C 
BRANCH   4   5
ATOM      5  O   UNL A   1      39.304  19.222  25.500  1.00  0.00    -0.460 OA
BRANCH   5   6
ATOM      6  C   UNL A   1      40.336  20.072  26.138  1.00  0.00     0.338 C 
ATOM      7  O   UNL A   1      41.249  19.198  26.032  1.00  0.00    -0.246 OA
BRANCH   6   8
ATOM      8  C   UNL A   1      40.326  22.083  26.924  1.00  0.00     0.060 A 
ATOM      9  C   UNL A   1      41.255  22.694  27.974  1.00  0.00     0.016 A 
ATOM     10  C   UNL A   1      39.517  23.285  26.564  1.00  0.00     0.016 A 
ATOM     11  C   UNL A   1      41.804  23.953  27.950  1.00  0.00     0.010 A 
ATOM     12  C   UNL A   1      39.956  24.609  26.609  1.00  0.00     0.010 A 
ATOM     13  C   UNL A   1      41.180  24.885  27.179  1.00  0.00    -0.014 A 
BRANCH  13  14
ATOM     14  C   UNL A   1      41.639  26.239  27.344  1.00  0.00     0.031 A 
ATOM     15  C   UNL A   1      43.019  26.464  26.866  1.00  0.00     0.074 A 
ATOM     16  C   UNL A   1      40.785  27.128  27.868  1.00  0.00     0.049 A 
ATOM     17  N   UNL A   1      43.743  27.523  26.994  1.00  0.00    -0.248 NA
ATOM     18  C   UNL A   1      43.673  25.359  26.122  1.00  0.00     0.031 C 
ATOM     19  C   UNL A   1      39.372  26.878  28.148  1.00  0.00     0.029 A 
ATOM     20  N   UNL A   1      40.975  28.397  28.306  1.00  0.00    -0.354 N 
ATOM     21  C   UNL A   1      44.957  27.192  26.422  1.00  0.00     0.074 A 
ATOM     22  C   UNL A   1      44.868  25.863  25.882  1.00  0.00     0.031 C 
ATOM     23  C   UNL A   1      38.851  27.904  28.837  1.00  0.00     0.029 A 
ATOM     24  C   UNL A   1      39.909  28.866  29.042  1.00  0.00     0.049 A 
ATOM     25  H   UNL A   1      41.785  28.924  28.119  1.00  0.00     0.167 HD
ATOM     26  C   UNL A   1      46.059  27.958  26.427  1.00  0.00     0.034 A 
ATOM     27  C   UNL A   1      39.861  29.944  29.834  1.00  0.00     0.034 A 
ATOM     28  C   UNL A   1      46.046  29.234  27.075  1.00  0.00     0.049 A 
ATOM     29  C   UNL A   1      41.121  30.753  29.850  1.00  0.00     0.074 A 
ATOM     30  C   UNL A   1      47.056  30.159  27.186  1.00  0.00     0.029 A 
ATOM     31  N   UNL A   1      44.944  29.734  27.769  1.00  0.00    -0.354 N 
ATOM     32  N   UNL A   1      42.262  30.484  29.252  1.00  0.00    -0.248 NA
ATOM     33  C   UNL A   1      41.089  32.018  30.576  1.00  0.00     0.031 C 
ATOM     34  C   UNL A   1      46.577  31.196  27.993  1.00  0.00     0.029 A 
ATOM     35  C   UNL A   1      45.251  30.945  28.339  1.00  0.00     0.049 A 
ATOM     36  H   UNL A   1      44.071  29.284  27.841  1.00  0.00     0.167 HD
ATOM     37  C   UNL A   1      43.084  31.562  29.495  1.00  0.00     0.074 A 
ATOM     38  C   UNL A   1      42.291  32.496  30.286  1.00  0.00     0.031 C 
ATOM     39  C   UNL A   1      44.366  31.782  29.115  1.00  0.00     0.034 A 
BRANCH  26  40
ATOM     40  C   UNL A   1      47.305  27.370  25.846  1.00  0.00     0.023 A 
ATOM     41  C   UNL A   1      47.558  27.432  24.460  1.00  0.00     0.012 A 
ATOM     42  C   UNL A   1      48.207  26.695  26.687  1.00  0.00     0.148 A 
ATOM     43  C   UNL A   1      48.688  26.819  23.920  1.00  0.00     0.002 A 
ATOM     44  C   UNL A   1      49.357  26.136  26.150  1.00  0.00     0.091 A 
ATOM     45  F   UNL A   1      47.906  26.586  27.988  1.00  0.00    -0.205 F 
ATOM     46  C   UNL A   1      49.595  26.185  24.766  1.00  0.00     0.022 A 
BRANCH  44  47
ATOM     47  S   UNL A   1      50.612  25.356  27.167  1.00  0.00     0.127 S 
ATOM     48  O   UNL A   1      49.871  24.235  27.747  1.00  0.00    -0.237 OA
ATOM     49  O   UNL A   1      51.609  24.978  26.167  1.00  0.00    -0.237 OA
ATOM     50  O   UNL A   1      51.043  26.363  28.124  1.00  0.00    -0.744 OA
ENDBRANCH  44  47
ENDBRANCH  26  40
BRANCH  27  51
ATOM     51  C   UNL A   1      38.646  30.320  30.602  1.00  0.00     0.023 A 
ATOM     52  C   UNL A   1      38.361  29.633  31.796  1.00  0.00     0.012 A 
ATOM     53  C   UNL A   1      37.755  31.314  30.149  1.00  0.00     0.148 A 
ATOM     54  C   UNL A   1      37.189  29.896  32.507  1.00  0.00     0.002 A 
ATOM     55  C   UNL A   1      36.576  31.555  30.851  1.00  0.00     0.091 A 
ATOM     56  F   UNL A   1      38.066  31.990  29.035  1.00  0.00    -0.205 F 
ATOM     57  C   UNL A   1      36.295  30.851  32.033  1.00  0.00     0.022 A 
BRANCH  55  58
ATOM     58  S   UNL A   1      35.308  32.700  30.291  1.00  0.00     0.127 S 
ATOM     59  O   UNL A   1      34.331  32.615  31.372  1.00  0.00    -0.237 OA
ATOM     60  O   UNL A   1      36.046  33.961  30.227  1.00  0.00    -0.237 OA
ATOM     61  O   UNL A   1      34.856  32.195  29.002  1.00  0.00    -0.744 OA
ENDBRANCH  55  58
ENDBRANCH  27  51
BRANCH  39  62
ATOM     62  C   UNL A   1      44.947  33.076  29.566  1.00  0.00     0.023 A 
ATOM     63  C   UNL A   1      45.628  33.139  30.793  1.00  0.00     0.012 A 
ATOM     64  C   UNL A   1      44.906  34.185  28.705  1.00  0.00     0.148 A 
ATOM     65  C   UNL A   1      46.251  34.319  31.175  1.00  0.00     0.002 A 
ATOM     66  C   UNL A   1      45.589  35.330  29.059  1.00  0.00     0.091 A 
ATOM     67  F   UNL A   1      44.229  34.077  27.552  1.00  0.00    -0.205 F 
ATOM     68  C   UNL A   1      46.248  35.406  30.300  1.00  0.00     0.022 A 
BRANCH  66  69
ATOM     69  S   UNL A   1      45.751  36.719  27.942  1.00  0.00     0.127 S 
ATOM     70  O   UNL A   1      46.315  37.742  28.821  1.00  0.00    -0.237 OA
ATOM     71  O   UNL A   1      46.675  36.192  26.937  1.00  0.00    -0.237 OA
ATOM     72  O   UNL A   1      44.410  37.002  27.445  1.00  0.00    -0.744 OA
ENDBRANCH  66  69
ENDBRANCH  39  62
ENDBRANCH  13  14
ENDBRANCH   6   8
ENDBRANCH   5   6
ENDBRANCH   4   5
ENDBRANCH   3   4
ENDBRANCH   2   3
ENDBRANCH   1   2
BRANCH   1  73
ATOM     73  C   UNL A   1      34.790  21.469  26.275  1.00  0.00     0.188 C 
BRANCH  73  74
ATOM     74  O   UNL A   1      33.637  21.397  25.446  1.00  0.00    -0.376 OA
BRANCH  74  75
ATOM     75  C   UNL A   1      32.397  21.876  25.957  1.00  0.00     0.202 C 
BRANCH  75  76
ATOM     76  C   UNL A   1      32.323  22.498  27.364  1.00  0.00     0.261 C 
BRANCH  76  77
ATOM     77  O   UNL A   1      32.049  23.908  27.454  1.00  0.00    -0.463 OA
BRANCH  77  78
ATOM     78  C   UNL A   1      31.147  24.364  26.547  1.00  0.00     0.313 C 
ATOM     79  O   UNL A   1      30.082  23.798  26.316  1.00  0.00    -0.252 OA
BRANCH  78  80
ATOM     80  C   UNL A   1      31.627  25.561  25.744  1.00  0.00     0.080 C 
ATOM     81  C   UNL A   1      30.839  26.727  26.465  1.00  0.00     0.055 C 
ATOM     82  C   UNL A   1      33.124  25.872  25.981  1.00  0.00     0.055 C 
ATOM     83  C   UNL A   1      31.868  27.787  26.650  1.00  0.00    -0.044 A 
ATOM     84  C   UNL A   1      33.128  27.346  26.249  1.00  0.00    -0.044 A 
ATOM     85  C   UNL A   1      31.688  29.046  27.193  1.00  0.00     0.004 A 
ATOM     86  C   UNL A   1      34.207  28.214  26.228  1.00  0.00     0.004 A 
ATOM     87  C   UNL A   1      32.787  29.899  27.238  1.00  0.00     0.000 A 
ATOM     88  C   UNL A   1      34.024  29.508  26.711  1.00  0.00     0.000 A 
BRANCH  80  89
ATOM     89  C   UNL A   1      31.329  25.549  24.222  1.00  0.00     0.055 C 
BRANCH  89  90
ATOM     90  C   UNL A   1      30.444  26.571  23.485  1.00  0.00    -0.044 A 
ATOM     91  C   UNL A   1      28.659  26.443  23.716  1.00  0.00     0.024 A 
ATOM     92  C   UNL A   1      31.170  28.143  22.987  1.00  0.00     0.024 A 
ATOM     93  C   UNL A   1      27.613  27.958  23.546  1.00  0.00     0.111 A 
ATOM     94  C   UNL A   1      30.080  29.566  22.681  1.00  0.00     0.111 A 
ATOM     95  N   UNL A   1      28.339  29.480  23.006  1.00  0.00    -0.265 NA
ENDBRANCH  89  90
ENDBRANCH  80  89
ENDBRANCH  78  80
ENDBRANCH  77  78
ENDBRANCH  76  77
ENDBRANCH  75  76
ENDBRANCH  74  75
ENDBRANCH  73  74
ENDBRANCH   1  73
TORSDOF 22
ENDMDL
MODEL 2
REMARK VINA RESULT:     -11.4      2.112      2.888
REMARK SMILES O=C(OCCOCCOCCOC(=O)C1(Cc2ccncc2)Cc2ccccc2C1)c1ccc(-c2c3nc(c(-c4cccc(S(=O)(=O)[O-])c4F)c4ccc([nH]4)c(-c4cccc(S(=O)(=O)[O-])c4F)c4nc(c(-c5cccc(S(=O)(=O)[O-])c5F)c5ccc2[nH]5)C=C4)C=C3)cc1
REMARK SMILES IDX 7 1 6 2 5 3 4 4 3 5 2 6 1 7 31 8 32 9 93 10 33 11 92 12
REMARK SMILES IDX 34 13 35 14 36 15 86 16 37 17 91 18 85 19 87 20 38 21 90 22
REMARK SMILES IDX 84 23 83 24 39 26 71 27 51 28 70 29 52 30 55 31 69 32 88 33
REMARK SMILES IDX 53 34 54 35 68 37 89 38 56 39 40 40 41 41 49 42 42 43 44 44
REMARK SMILES IDX 50 45 43 46 45 47 46 48 47 49 48 50 72 51 73 52 81 53 74 54
REMARK SMILES IDX 76 55 82 56 75 57 77 58 78 59 79 60 80 61 57 62 58 63 66 64
REMARK SMILES IDX 59 65 61 66 67 67 60 68 62 69 63 70 64 71 65 72 8 73 9 74
REMARK SMILES IDX 10 75 11 76 12 77 13 78 14 79 15 80 23 81 30 82 24 83 29 84
REMARK SMILES IDX 25 85 28 86 26 87 27 88 16 89 17 90 18 91 22 92 19 93 21 94
REMARK SMILES IDX 20 95
REMARK H PARENT 87 25 55 36
REMARK Flexibility Score: inf
ROOT
ATOM      1  C   UNL A   1      35.349  23.006  25.882  1.00  0.00     0.188 C 
ENDROOT
BRANCH   1   2
ATOM      2  O   UNL A   1      36.757  22.817  25.808  1.00  0.00    -0.376 OA
BRANCH   2   3
ATOM      3  C   UNL A   1      37.221  22.018  24.727  1.00  0.00     0.202 C 
BRANCH   3   4
ATOM      4  C   UNL A   1      38.139  20.857  25.109  1.00  0.00     0.261 C 
BRANCH   4   5
ATOM      5  O   UNL A   1      39.134  21.154  26.172  1.00  0.00    -0.460 OA
BRANCH   5   6
ATOM      6  C   UNL A   1      39.819  22.152  27.026  1.00  0.00     0.338 C 
ATOM      7  O   UNL A   1      40.537  21.287  27.614  1.00  0.00    -0.246 OA
BRANCH   6   8
ATOM      8  C   UNL A   1      39.693  24.301  27.196  1.00  0.00     0.060 A 
ATOM      9  C   UNL A   1      39.266  25.133  28.405  1.00  0.00     0.016 A 
ATOM     10  C   UNL A   1      40.071  25.394  26.251  1.00  0.00     0.016 A 
ATOM     11  C   UNL A   1      39.844  26.299  28.844  1.00  0.00     0.010 A 
ATOM     12  C   UNL A   1      40.567  26.649  26.608  1.00  0.00     0.010 A 
ATOM     13  C   UNL A   1      40.575  27.006  27.940  1.00  0.00    -0.014 A 
BRANCH  13  14
ATOM     14  C   UNL A   1      40.980  28.322  28.357  1.00  0.00     0.031 A 
ATOM     15  C   UNL A   1      42.445  28.492  28.456  1.00  0.00     0.074 A 
ATOM     16  C   UNL A   1      40.021  29.230  28.576  1.00  0.00     0.049 A 
ATOM     17  N   UNL A   1      43.100  29.501  28.920  1.00  0.00    -0.248 NA
ATOM     18  C   UNL A   1      43.297  27.391  27.943  1.00  0.00     0.031 C 
ATOM     19  C   UNL A   1      38.601  29.047  28.280  1.00  0.00     0.029 A 
ATOM     20  N   UNL A   1      40.071  30.463  29.138  1.00  0.00    -0.354 N 
ATOM     21  C   UNL A   1      44.429  29.130  28.831  1.00  0.00     0.074 A 
ATOM     22  C   UNL A   1      44.510  27.837  28.209  1.00  0.00     0.031 C 
ATOM     23  C   UNL A   1      37.890  30.065  28.787  1.00  0.00     0.029 A 
ATOM     24  C   UNL A   1      38.820  30.955  29.443  1.00  0.00     0.049 A 
ATOM     25  H   UNL A   1      40.908  30.953  29.308  1.00  0.00     0.167 HD
ATOM     26  C   UNL A   1      45.469  29.833  29.306  1.00  0.00     0.034 A 
ATOM     27  C   UNL A   1      38.509  31.994  30.229  1.00  0.00     0.034 A 
ATOM     28  C   UNL A   1      45.252  31.074  29.984  1.00  0.00     0.049 A 
ATOM     29  C   UNL A   1      39.694  32.728  30.776  1.00  0.00     0.074 A 
ATOM     30  C   UNL A   1      46.173  31.934  30.532  1.00  0.00     0.029 A 
ATOM     31  N   UNL A   1      43.985  31.600  30.239  1.00  0.00    -0.354 N 
ATOM     32  N   UNL A   1      40.967  32.426  30.639  1.00  0.00    -0.248 NA
ATOM     33  C   UNL A   1      39.428  33.955  31.518  1.00  0.00     0.031 C 
ATOM     34  C   UNL A   1      45.456  32.954  31.165  1.00  0.00     0.029 A 
ATOM     35  C   UNL A   1      44.092  32.762  30.963  1.00  0.00     0.049 A 
ATOM     36  H   UNL A   1      43.137  31.196  29.944  1.00  0.00     0.167 HD
ATOM     37  C   UNL A   1      41.668  33.442  31.248  1.00  0.00     0.074 A 
ATOM     38  C   UNL A   1      40.665  34.379  31.740  1.00  0.00     0.031 C 
ATOM     39  C   UNL A   1      43.005  33.608  31.399  1.00  0.00     0.034 A 
BRANCH  26  40
ATOM     40  C   UNL A   1      46.822  29.204  29.203  1.00  0.00     0.023 A 
ATOM     41  C   UNL A   1      47.330  28.403  30.246  1.00  0.00     0.012 A 
ATOM     42  C   UNL A   1      47.620  29.462  28.075  1.00  0.00     0.148 A 
ATOM     43  C   UNL A   1      48.621  27.879  30.171  1.00  0.00     0.002 A 
ATOM     44  C   UNL A   1      48.881  28.892  27.981  1.00  0.00     0.091 A 
ATOM     45  F   UNL A   1      47.142  30.287  27.132  1.00  0.00    -0.205 F 
ATOM     46  C   UNL A   1      49.389  28.111  29.032  1.00  0.00     0.022 A 
BRANCH  44  47
ATOM     47  S   UNL A   1      49.916  29.082  26.529  1.00  0.00     0.127 S 
ATOM     48  O   UNL A   1      51.082  28.274  26.887  1.00  0.00    -0.237 OA
ATOM     49  O   UNL A   1      49.070  28.504  25.486  1.00  0.00    -0.237 OA
ATOM     50  O   UNL A   1      50.176  30.507  26.398  1.00  0.00    -0.744 OA
ENDBRANCH  44  47
ENDBRANCH  26  40
BRANCH  27  51
ATOM     51  C   UNL A   1      37.106  32.398  30.500  1.00  0.00     0.023 A 
ATOM     52  C   UNL A   1      36.479  31.924  31.668  1.00  0.00     0.012 A 
ATOM     53  C   UNL A   1      36.376  33.209  29.607  1.00  0.00     0.148 A 
ATOM     54  C   UNL A   1      35.138  32.213  31.923  1.00  0.00     0.002 A 
ATOM     55  C   UNL A   1      35.032  33.473  29.856  1.00  0.00     0.091 A 
ATOM     56  F   UNL A   1      37.004  33.689  28.524  1.00  0.00    -0.205 F 
ATOM     57  C   UNL A   1      34.413  32.980  31.016  1.00  0.00     0.022 A 
BRANCH  55  58
ATOM     58  S   UNL A   1      33.974  34.377  28.718  1.00  0.00     0.127 S 
ATOM     59  O   UNL A   1      33.783  33.402  27.648  1.00  0.00    -0.237 OA
ATOM     60  O   UNL A   1      32.790  34.628  29.539  1.00  0.00    -0.237 OA
ATOM     61  O   UNL A   1      34.719  35.572  28.344  1.00  0.00    -0.744 OA
ENDBRANCH  55  58
ENDBRANCH  27  51
BRANCH  39  62
ATOM     62  C   UNL A   1      43.412  34.843  32.123  1.00  0.00     0.023 A 
ATOM     63  C   UNL A   1      43.590  34.803  33.517  1.00  0.00     0.012 A 
ATOM     64  C   UNL A   1      43.723  35.999  31.389  1.00  0.00     0.148 A 
ATOM     65  C   UNL A   1      44.058  35.926  34.184  1.00  0.00     0.002 A 
ATOM     66  C   UNL A   1      44.257  37.086  32.050  1.00  0.00     0.091 A 
ATOM     67  F   UNL A   1      43.521  35.990  30.063  1.00  0.00    -0.205 F 
ATOM     68  C   UNL A   1      44.410  37.059  33.448  1.00  0.00     0.022 A 
BRANCH  66  69
ATOM     69  S   UNL A   1      44.860  38.525  31.172  1.00  0.00     0.127 S 
ATOM     70  O   UNL A   1      43.620  39.088  30.642  1.00  0.00    -0.237 OA
ATOM     71  O   UNL A   1      45.477  39.300  32.249  1.00  0.00    -0.237 OA
ATOM     72  O   UNL A   1      45.793  38.029  30.169  1.00  0.00    -0.744 OA
ENDBRANCH  66  69
ENDBRANCH  39  62
ENDBRANCH  13  14
ENDBRANCH   6   8
ENDBRANCH   5   6
ENDBRANCH   4   5
ENDBRANCH   3   4
ENDBRANCH   2   3
ENDBRANCH   1   2
BRANCH   1  73
ATOM     73  C   UNL A   1      34.581  21.720  26.174  1.00  0.00     0.188 C 
BRANCH  73  74
ATOM     74  O   UNL A   1      33.731  21.196  25.162  1.00  0.00    -0.376 OA
BRANCH  74  75
ATOM     75  C   UNL A   1      32.837  22.080  24.493  1.00  0.00     0.202 C 
BRANCH  75  76
ATOM     76  C   UNL A   1      31.612  22.652  25.231  1.00  0.00     0.261 C 
BRANCH  76  77
ATOM     77  O   UNL A   1      31.854  23.593  26.292  1.00  0.00    -0.463 OA
BRANCH  77  78
ATOM     78  C   UNL A   1      31.043  24.682  26.274  1.00  0.00     0.313 C 
ATOM     79  O   UNL A   1      29.883  24.662  26.680  1.00  0.00    -0.252 OA
BRANCH  78  80
ATOM     80  C   UNL A   1      31.646  25.894  25.584  1.00  0.00     0.080 C 
ATOM     81  C   UNL A   1      30.915  27.061  26.360  1.00  0.00     0.055 C 
ATOM     82  C   UNL A   1      33.149  26.069  25.903  1.00  0.00     0.055 C 
ATOM     83  C   UNL A   1      32.010  28.022  26.667  1.00  0.00    -0.044 A 
ATOM     84  C   UNL A   1      33.251  27.516  26.283  1.00  0.00    -0.044 A 
ATOM     85  C   UNL A   1      31.899  29.248  27.296  1.00  0.00     0.004 A 
ATOM     86  C   UNL A   1      34.391  28.296  26.371  1.00  0.00     0.004 A 
ATOM     87  C   UNL A   1      33.056  30.008  27.450  1.00  0.00     0.000 A 
ATOM     88  C   UNL A   1      34.283  29.562  26.944  1.00  0.00     0.000 A 
BRANCH  80  89
ATOM     89  C   UNL A   1      31.418  26.015  24.054  1.00  0.00     0.055 C 
BRANCH  89  90
ATOM     90  C   UNL A   1      30.395  26.951  23.385  1.00  0.00    -0.044 A 
ATOM     91  C   UNL A   1      28.646  26.601  23.659  1.00  0.00     0.024 A 
ATOM     92  C   UNL A   1      30.913  28.617  22.932  1.00  0.00     0.024 A 
ATOM     93  C   UNL A   1      27.423  27.986  23.579  1.00  0.00     0.111 A 
ATOM     94  C   UNL A   1      29.652  29.909  22.714  1.00  0.00     0.111 A 
ATOM     95  N   UNL A   1      27.945  29.603  23.082  1.00  0.00    -0.265 NA
ENDBRANCH  89  90
ENDBRANCH  80  89
ENDBRANCH  78  80
ENDBRANCH  77  78
ENDBRANCH  76  77
ENDBRANCH  75  76
ENDBRANCH  74  75
ENDBRANCH  73  74
ENDBRANCH   1  73
TORSDOF 22
ENDMDL
MODEL 3
REMARK VINA RESULT:     -11.4      5.123      7.512
REMARK SMILES O=C(OCCOCCOCCOC(=O)C1(Cc2ccncc2)Cc2ccccc2C1)c1ccc(-c2c3nc(c(-c4cccc(S(=O)(=O)[O-])c4F)c4ccc([nH]4)c(-c4cccc(S(=O)(=O)[O-])c4F)c4nc(c(-c5cccc(S(=O)(=O)[O-])c5F)c5ccc2[nH]5)C=C4)C=C3)cc1
REMARK SMILES IDX 7 1 6 2 5 3 4 4 3 5 2 6 1 7 31 8 32 9 93 10 33 11 92 12
REMARK SMILES IDX 34 13 35 14 36 15 86 16 37 17 91 18 85 19 87 20 38 21 90 22
REMARK SMILES IDX 84 23 83 24 39 26 71 27 51 28 70 29 52 30 55 31 69 32 88 33
REMARK SMILES IDX 53 34 54 35 68 37 89 38 56 39 40 40 41 41 49 42 42 43 44 44
REMARK SMILES IDX 50 45 43 46 45 47 46 48 47 49 48 50 72 51 73 52 81 53 74 54
REMARK SMILES IDX 76 55 82 56 75 57 77 58 78 59 79 60 80 61 57 62 58 63 66 64
REMARK SMILES IDX 59 65 61 66 67 67 60 68 62 69 63 70 64 71 65 72 8 73 9 74
REMARK SMILES IDX 10 75 11 76 12 77 13 78 14 79 15 80 23 81 30 82 24 83 29 84
REMARK SMILES IDX 25 85 28 86 26 87 27 88 16 89 17 90 18 91 22 92 19 93 21 94
REMARK SMILES IDX 20 95
REMARK H PARENT 87 25 55 36
REMARK Flexibility Score: inf
ROOT
ATOM      1  C   UNL A   1      39.869  21.904  26.926  1.00  0.00     0.188 C 
ENDROOT
BRANCH   1   2
ATOM      2  O   UNL A   1      40.508  20.665  27.201  1.00  0.00    -0.376 OA
BRANCH   2   3
ATOM      3  C   UNL A   1      41.288  20.119  26.144  1.00  0.00     0.202 C 
BRANCH   3   4
ATOM      4  C   UNL A   1      42.694  20.699  25.990  1.00  0.00     0.261 C 
BRANCH   4   5
ATOM      5  O   UNL A   1      42.788  21.930  25.163  1.00  0.00    -0.460 OA
BRANCH   5   6
ATOM      6  C   UNL A   1      42.985  23.396  25.087  1.00  0.00     0.338 C 
ATOM      7  O   UNL A   1      43.962  23.313  24.282  1.00  0.00    -0.246 OA
BRANCH   6   8
ATOM      8  C   UNL A   1      41.968  25.082  25.974  1.00  0.00     0.060 A 
ATOM      9  C   UNL A   1      40.872  25.073  27.040  1.00  0.00     0.016 A 
ATOM     10  C   UNL A   1      42.169  26.553  25.822  1.00  0.00     0.016 A 
ATOM     11  C   UNL A   1      40.758  25.931  28.107  1.00  0.00     0.010 A 
ATOM     12  C   UNL A   1      41.977  27.512  26.819  1.00  0.00     0.010 A 
ATOM     13  C   UNL A   1      41.402  27.126  28.011  1.00  0.00    -0.014 A 
BRANCH  13  14
ATOM     14  C   UNL A   1      41.088  28.087  29.035  1.00  0.00     0.031 A 
ATOM     15  C   UNL A   1      41.939  27.977  30.238  1.00  0.00     0.074 A 
ATOM     16  C   UNL A   1      40.111  28.969  28.785  1.00  0.00     0.049 A 
ATOM     17  N   UNL A   1      41.819  28.604  31.358  1.00  0.00    -0.248 NA
ATOM     18  C   UNL A   1      43.100  27.055  30.172  1.00  0.00     0.031 C 
ATOM     19  C   UNL A   1      39.436  29.138  27.499  1.00  0.00     0.029 A 
ATOM     20  N   UNL A   1      39.478  29.852  29.594  1.00  0.00    -0.354 N 
ATOM     21  C   UNL A   1      42.830  28.101  32.155  1.00  0.00     0.074 A 
ATOM     22  C   UNL A   1      43.606  27.167  31.385  1.00  0.00     0.031 C 
ATOM     23  C   UNL A   1      38.389  29.966  27.635  1.00  0.00     0.029 A 
ATOM     24  C   UNL A   1      38.335  30.367  29.022  1.00  0.00     0.049 A 
ATOM     25  H   UNL A   1      39.799  30.099  30.492  1.00  0.00     0.167 HD
ATOM     26  C   UNL A   1      43.019  28.387  33.453  1.00  0.00     0.034 A 
ATOM     27  C   UNL A   1      37.342  31.041  29.617  1.00  0.00     0.034 A 
ATOM     28  C   UNL A   1      42.124  29.273  34.133  1.00  0.00     0.049 A 
ATOM     29  C   UNL A   1      37.566  31.305  31.074  1.00  0.00     0.074 A 
ATOM     30  C   UNL A   1      42.148  29.691  35.441  1.00  0.00     0.029 A 
ATOM     31  N   UNL A   1      40.999  29.841  33.533  1.00  0.00    -0.354 N 
ATOM     32  N   UNL A   1      38.561  30.891  31.828  1.00  0.00    -0.248 NA
ATOM     33  C   UNL A   1      36.595  32.160  31.750  1.00  0.00     0.031 C 
ATOM     34  C   UNL A   1      41.006  30.471  35.644  1.00  0.00     0.029 A 
ATOM     35  C   UNL A   1      40.299  30.587  34.449  1.00  0.00     0.049 A 
ATOM     36  H   UNL A   1      40.744  29.724  32.590  1.00  0.00     0.167 HD
ATOM     37  C   UNL A   1      38.365  31.460  33.067  1.00  0.00     0.074 A 
ATOM     38  C   UNL A   1      37.155  32.265  32.948  1.00  0.00     0.031 C 
ATOM     39  C   UNL A   1      39.095  31.344  34.203  1.00  0.00     0.034 A 
BRANCH  26  40
ATOM     40  C   UNL A   1      44.110  27.653  34.163  1.00  0.00     0.023 A 
ATOM     41  C   UNL A   1      45.446  28.098  34.096  1.00  0.00     0.012 A 
ATOM     42  C   UNL A   1      43.807  26.470  34.861  1.00  0.00     0.148 A 
ATOM     43  C   UNL A   1      46.466  27.366  34.704  1.00  0.00     0.002 A 
ATOM     44  C   UNL A   1      44.818  25.778  35.510  1.00  0.00     0.091 A 
ATOM     45  F   UNL A   1      42.541  26.030  34.847  1.00  0.00    -0.205 F 
ATOM     46  C   UNL A   1      46.150  26.216  35.424  1.00  0.00     0.022 A 
BRANCH  44  47
ATOM     47  S   UNL A   1      44.498  24.325  36.512  1.00  0.00     0.127 S 
ATOM     48  O   UNL A   1      43.439  24.803  37.401  1.00  0.00    -0.237 OA
ATOM     49  O   UNL A   1      44.062  23.362  35.503  1.00  0.00    -0.237 OA
ATOM     50  O   UNL A   1      45.753  24.005  37.174  1.00  0.00    -0.744 OA
ENDBRANCH  44  47
ENDBRANCH  26  40
BRANCH  27  51
ATOM     51  C   UNL A   1      36.143  31.513  28.881  1.00  0.00     0.023 A 
ATOM     52  C   UNL A   1      35.860  32.892  28.861  1.00  0.00     0.012 A 
ATOM     53  C   UNL A   1      35.262  30.620  28.237  1.00  0.00     0.148 A 
ATOM     54  C   UNL A   1      34.701  33.373  28.250  1.00  0.00     0.002 A 
ATOM     55  C   UNL A   1      34.096  31.104  27.649  1.00  0.00     0.091 A 
ATOM     56  F   UNL A   1      35.572  29.316  28.226  1.00  0.00    -0.205 F 
ATOM     57  C   UNL A   1      33.817  32.480  27.650  1.00  0.00     0.022 A 
BRANCH  55  58
ATOM     58  S   UNL A   1      32.840  30.043  26.923  1.00  0.00     0.127 S 
ATOM     59  O   UNL A   1      31.750  30.986  26.691  1.00  0.00    -0.237 OA
ATOM     60  O   UNL A   1      33.510  29.567  25.712  1.00  0.00    -0.237 OA
ATOM     61  O   UNL A   1      32.569  29.010  27.913  1.00  0.00    -0.744 OA
ENDBRANCH  55  58
ENDBRANCH  27  51
BRANCH  39  62
ATOM     62  C   UNL A   1      38.576  32.111  35.370  1.00  0.00     0.023 A 
ATOM     63  C   UNL A   1      38.403  33.501  35.263  1.00  0.00     0.012 A 
ATOM     64  C   UNL A   1      38.160  31.417  36.517  1.00  0.00     0.148 A 
ATOM     65  C   UNL A   1      37.834  34.206  36.314  1.00  0.00     0.002 A 
ATOM     66  C   UNL A   1      37.529  32.115  37.527  1.00  0.00     0.091 A 
ATOM     67  F   UNL A   1      38.363  30.092  36.574  1.00  0.00    -0.205 F 
ATOM     68  C   UNL A   1      37.379  33.510  37.436  1.00  0.00     0.022 A 
BRANCH  66  69
ATOM     69  S   UNL A   1      36.797  31.286  38.935  1.00  0.00     0.127 S 
ATOM     70  O   UNL A   1      36.666  29.918  38.437  1.00  0.00    -0.237 OA
ATOM     71  O   UNL A   1      37.822  31.473  39.962  1.00  0.00    -0.237 OA
ATOM     72  O   UNL A   1      35.538  31.971  39.201  1.00  0.00    -0.744 OA
ENDBRANCH  66  69
ENDBRANCH  39  62
ENDBRANCH  13  14
ENDBRANCH   6   8
ENDBRANCH   5   6
ENDBRANCH   4   5
ENDBRANCH   3   4
ENDBRANCH   2   3
ENDBRANCH   1   2
BRANCH   1  73
ATOM     73  C   UNL A   1      38.756  21.793  25.888  1.00  0.00     0.188 C 
BRANCH  73  74
ATOM     74  O   UNL A   1      37.972  22.947  25.611  1.00  0.00    -0.376 OA
BRANCH  74  75
ATOM     75  C   UNL A   1      36.976  22.870  24.596  1.00  0.00     0.202 C 
BRANCH  75  76
ATOM     76  C   UNL A   1      35.762  23.817  24.626  1.00  0.00     0.261 C 
BRANCH  76  77
ATOM     77  O   UNL A   1      34.518  23.289  25.121  1.00  0.00    -0.463 OA
BRANCH  77  78
ATOM     78  C   UNL A   1      33.677  22.833  24.156  1.00  0.00     0.313 C 
ATOM     79  O   UNL A   1      33.619  23.322  23.030  1.00  0.00    -0.252 OA
BRANCH  78  80
ATOM     80  C   UNL A   1      32.718  21.754  24.629  1.00  0.00     0.080 C 
ATOM     81  C   UNL A   1      32.512  20.944  23.288  1.00  0.00     0.055 C 
ATOM     82  C   UNL A   1      33.383  20.759  25.609  1.00  0.00     0.055 C 
ATOM     83  C   UNL A   1      32.637  19.522  23.710  1.00  0.00    -0.044 A 
ATOM     84  C   UNL A   1      32.995  19.422  25.054  1.00  0.00    -0.044 A 
ATOM     85  C   UNL A   1      32.489  18.396  22.922  1.00  0.00     0.004 A 
ATOM     86  C   UNL A   1      33.052  18.189  25.681  1.00  0.00     0.004 A 
ATOM     87  C   UNL A   1      32.614  17.151  23.534  1.00  0.00     0.000 A 
ATOM     88  C   UNL A   1      32.839  17.046  24.912  1.00  0.00     0.000 A 
BRANCH  80  89
ATOM     89  C   UNL A   1      31.359  22.228  25.207  1.00  0.00     0.055 C 
BRANCH  89  90
ATOM     90  C   UNL A   1      30.831  23.674  25.153  1.00  0.00    -0.044 A 
ATOM     91  C   UNL A   1      31.319  24.786  26.489  1.00  0.00     0.024 A 
ATOM     92  C   UNL A   1      30.333  24.355  23.561  1.00  0.00     0.024 A 
ATOM     93  C   UNL A   1      31.407  26.604  26.166  1.00  0.00     0.111 A 
ATOM     94  C   UNL A   1      30.287  26.160  23.343  1.00  0.00     0.111 A 
ATOM     95  N   UNL A   1      30.863  27.256  24.612  1.00  0.00    -0.265 NA
ENDBRANCH  89  90
ENDBRANCH  80  89
ENDBRANCH  78  80
ENDBRANCH  77  78
ENDBRANCH  76  77
ENDBRANCH  75  76
ENDBRANCH  74  75
ENDBRANCH  73  74
ENDBRANCH   1  73
TORSDOF 22
ENDMDL
