MODEL 1
REMARK VINA RESULT:      -9.7      0.000      0.000
REMARK SMILES O=C(CCC(=O)N1CCC(c2nnc3ccccn23)CC1)OCCOCCOCCOC(=O)c1ccc(-c2c3nc(c(-c4cccc(S(=O)(=O)[O-])c4F)c4ccc([nH]4)c(-c4cccc(S(=O)(=O)[O-])c4F)c4nc(c(-c5cccc(S(=O)(=O)[O-])c5F)c5ccc2[nH]5)C=C4)C=C3)cc1
REMARK SMILES IDX 26 1 25 2 24 3 23 4 22 5 2 6 1 7 3 8 4 9 5 10 6 11 7 12 8 13
REMARK SMILES IDX 21 14 9 15 20 16 10 17 11 18 12 19 19 20 13 21 14 22 18 23
REMARK SMILES IDX 15 24 17 25 16 26 27 27 28 28 29 29 30 30 31 31 32 32 33 33
REMARK SMILES IDX 34 34 35 35 96 36 36 37 95 38 37 39 38 40 39 41 89 42 40 43
REMARK SMILES IDX 94 44 88 45 90 46 41 47 93 48 87 49 86 50 42 52 74 53 54 54
REMARK SMILES IDX 73 55 55 56 58 57 72 58 91 59 56 60 57 61 71 63 92 64 59 65
REMARK SMILES IDX 43 66 44 67 52 68 45 69 47 70 53 71 46 72 48 73 49 74 50 75
REMARK SMILES IDX 51 76 75 77 76 78 84 79 77 80 79 81 85 82 78 83 80 84 81 85
REMARK SMILES IDX 82 86 83 87 60 88 61 89 69 90 62 91 64 92 70 93 63 94 65 95
REMARK SMILES IDX 66 96 67 97 68 98
REMARK H PARENT 90 51 58 62
REMARK Flexibility Score: inf
ROOT
ATOM      1  C   UNL A   1      36.806  23.543  24.811  1.00  0.00     0.188 C 
ENDROOT
BRANCH   1   2
ATOM      2  O   UNL A   1      35.499  23.955  25.171  1.00  0.00    -0.376 OA
BRANCH   2   3
ATOM      3  C   UNL A   1      34.842  24.784  24.226  1.00  0.00     0.202 C 
BRANCH   3   4
ATOM      4  C   UNL A   1      33.839  25.773  24.820  1.00  0.00     0.261 C 
BRANCH   4   5
ATOM      5  O   UNL A   1      33.455  26.840  23.922  1.00  0.00    -0.463 OA
BRANCH   5   6
ATOM      6  C   UNL A   1      32.244  27.050  23.371  1.00  0.00     0.306 C 
ATOM      7  O   UNL A   1      31.987  26.625  22.247  1.00  0.00    -0.252 OA
BRANCH   6   8
ATOM      8  C   UNL A   1      31.193  27.681  24.211  1.00  0.00     0.132 C 
BRANCH   8   9
ATOM      9  C   UNL A   1      30.060  26.684  24.345  1.00  0.00     0.112 C 
BRANCH   9  10
ATOM     10  C   UNL A   1      30.357  25.636  25.391  1.00  0.00     0.223 C 
ATOM     11  O   UNL A   1      30.455  25.999  26.568  1.00  0.00    -0.275 OA
ATOM     12  N   UNL A   1      30.517  24.305  25.032  1.00  0.00    -0.343 N 
ATOM     13  C   UNL A   1      30.458  23.328  26.108  1.00  0.00     0.120 C 
ATOM     14  C   UNL A   1      30.728  23.724  23.690  1.00  0.00     0.120 C 
ATOM     15  C   UNL A   1      31.711  22.478  26.129  1.00  0.00     0.033 C 
ATOM     16  C   UNL A   1      31.947  22.768  23.657  1.00  0.00     0.033 C 
ATOM     17  C   UNL A   1      31.839  21.739  24.790  1.00  0.00     0.062 C 
BRANCH  17  18
ATOM     18  C   UNL A   1      32.951  20.741  24.875  1.00  0.00     0.140 A 
ATOM     19  N   UNL A   1      33.972  20.703  25.708  1.00  0.00    -0.134 NA
ATOM     20  N   UNL A   1      32.977  19.608  24.082  1.00  0.00    -0.286 N 
ATOM     21  N   UNL A   1      34.677  19.536  25.479  1.00  0.00    -0.130 NA
ATOM     22  C   UNL A   1      34.070  18.878  24.516  1.00  0.00     0.160 A 
ATOM     23  C   UNL A   1      32.119  19.176  23.068  1.00  0.00     0.095 A 
ATOM     24  C   UNL A   1      34.308  17.623  23.886  1.00  0.00     0.050 A 
ATOM     25  C   UNL A   1      32.342  17.992  22.478  1.00  0.00     0.019 A 
ATOM     26  C   UNL A   1      33.480  17.196  22.912  1.00  0.00     0.005 A 
ENDBRANCH  17  18
ENDBRANCH   9  10
ENDBRANCH   8   9
ENDBRANCH   6   8
ENDBRANCH   5   6
ENDBRANCH   4   5
ENDBRANCH   3   4
ENDBRANCH   2   3
ENDBRANCH   1   2
BRANCH   1  27
ATOM     27  C   UNL A   1      36.962  22.028  24.540  1.00  0.00     0.188 C 
BRANCH  27  28
ATOM     28  O   UNL A   1      37.817  21.251  25.372  1.00  0.00    -0.376 OA
BRANCH  28  29
ATOM     29  C   UNL A   1      38.185  19.941  24.950  1.00  0.00     0.202 C 
BRANCH  29  30
ATOM     30  C   UNL A   1      39.402  19.262  25.603  1.00  0.00     0.261 C 
BRANCH  30  31
ATOM     31  O   UNL A   1      40.642  19.975  25.422  1.00  0.00    -0.460 OA
BRANCH  31  32
ATOM     32  C   UNL A   1      41.515  19.947  26.467  1.00  0.00     0.338 C 
ATOM     33  O   UNL A   1      41.959  18.965  27.018  1.00  0.00    -0.246 OA
BRANCH  32  34
ATOM     34  C   UNL A   1      42.057  21.316  26.684  1.00  0.00     0.060 A 
ATOM     35  C   UNL A   1      42.292  21.722  28.010  1.00  0.00     0.016 A 
ATOM     36  C   UNL A   1      42.416  22.149  25.622  1.00  0.00     0.016 A 
ATOM     37  C   UNL A   1      42.850  22.975  28.278  1.00  0.00     0.010 A 
ATOM     38  C   UNL A   1      42.938  23.420  25.892  1.00  0.00     0.010 A 
ATOM     39  C   UNL A   1      43.116  23.855  27.220  1.00  0.00    -0.014 A 
BRANCH  39  40
ATOM     40  C   UNL A   1      43.236  25.311  27.487  1.00  0.00     0.031 A 
ATOM     41  C   UNL A   1      44.621  25.898  27.402  1.00  0.00     0.074 A 
ATOM     42  C   UNL A   1      42.195  26.084  27.846  1.00  0.00     0.049 A 
ATOM     43  N   UNL A   1      45.036  27.102  27.690  1.00  0.00    -0.248 NA
ATOM     44  C   UNL A   1      45.683  24.988  26.939  1.00  0.00     0.031 C 
ATOM     45  C   UNL A   1      40.806  25.650  27.950  1.00  0.00     0.029 A 
ATOM     46  N   UNL A   1      42.166  27.405  28.228  1.00  0.00    -0.354 N 
ATOM     47  C   UNL A   1      46.410  27.082  27.478  1.00  0.00     0.074 A 
ATOM     48  C   UNL A   1      46.759  25.751  27.039  1.00  0.00     0.031 C 
ATOM     49  C   UNL A   1      40.064  26.673  28.413  1.00  0.00     0.029 A 
ATOM     50  C   UNL A   1      40.931  27.826  28.664  1.00  0.00     0.049 A 
ATOM     51  H   UNL A   1      42.955  27.993  28.193  1.00  0.00     0.167 HD
ATOM     52  C   UNL A   1      47.308  28.080  27.632  1.00  0.00     0.034 A 
ATOM     53  C   UNL A   1      40.556  28.993  29.228  1.00  0.00     0.034 A 
ATOM     54  C   UNL A   1      46.971  29.400  28.077  1.00  0.00     0.049 A 
ATOM     55  C   UNL A   1      41.581  30.087  29.424  1.00  0.00     0.074 A 
ATOM     56  C   UNL A   1      47.803  30.491  28.239  1.00  0.00     0.029 A 
ATOM     57  N   UNL A   1      45.699  29.802  28.453  1.00  0.00    -0.354 N 
ATOM     58  N   UNL A   1      42.855  30.092  29.114  1.00  0.00    -0.248 NA
ATOM     59  C   UNL A   1      41.110  31.347  30.022  1.00  0.00     0.031 C 
ATOM     60  C   UNL A   1      47.039  31.548  28.741  1.00  0.00     0.029 A 
ATOM     61  C   UNL A   1      45.724  31.124  28.856  1.00  0.00     0.049 A 
ATOM     62  H   UNL A   1      44.897  29.231  28.435  1.00  0.00     0.167 HD
ATOM     63  C   UNL A   1      43.325  31.363  29.435  1.00  0.00     0.074 A 
ATOM     64  C   UNL A   1      42.198  32.105  29.960  1.00  0.00     0.031 C 
ATOM     65  C   UNL A   1      44.578  31.868  29.313  1.00  0.00     0.034 A 
BRANCH  52  66
ATOM     66  C   UNL A   1      48.744  27.763  27.317  1.00  0.00     0.023 A 
ATOM     67  C   UNL A   1      49.177  27.737  25.975  1.00  0.00     0.012 A 
ATOM     68  C   UNL A   1      49.663  27.488  28.348  1.00  0.00     0.148 A 
ATOM     69  C   UNL A   1      50.493  27.401  25.662  1.00  0.00     0.002 A 
ATOM     70  C   UNL A   1      50.985  27.203  28.029  1.00  0.00     0.091 A 
ATOM     71  F   UNL A   1      49.222  27.484  29.614  1.00  0.00    -0.205 F 
ATOM     72  C   UNL A   1      51.398  27.145  26.689  1.00  0.00     0.022 A 
BRANCH  70  73
ATOM     73  S   UNL A   1      52.238  26.936  29.286  1.00  0.00     0.127 S 
ATOM     74  O   UNL A   1      52.313  28.253  29.914  1.00  0.00    -0.237 OA
ATOM     75  O   UNL A   1      51.626  25.897  30.115  1.00  0.00    -0.237 OA
ATOM     76  O   UNL A   1      53.435  26.511  28.573  1.00  0.00    -0.744 OA
ENDBRANCH  70  73
ENDBRANCH  52  66
BRANCH  53  77
ATOM     77  C   UNL A   1      39.135  29.206  29.633  1.00  0.00     0.023 A 
ATOM     78  C   UNL A   1      38.740  28.929  30.955  1.00  0.00     0.012 A 
ATOM     79  C   UNL A   1      38.178  29.690  28.720  1.00  0.00     0.148 A 
ATOM     80  C   UNL A   1      37.414  29.107  31.356  1.00  0.00     0.002 A 
ATOM     81  C   UNL A   1      36.872  29.917  29.138  1.00  0.00     0.091 A 
ATOM     82  F   UNL A   1      38.569  29.931  27.460  1.00  0.00    -0.205 F 
ATOM     83  C   UNL A   1      36.483  29.609  30.451  1.00  0.00     0.022 A 
BRANCH  81  84
ATOM     84  S   UNL A   1      35.632  30.676  28.083  1.00  0.00     0.127 S 
ATOM     85  O   UNL A   1      36.249  31.963  27.771  1.00  0.00    -0.237 OA
ATOM     86  O   UNL A   1      35.574  29.732  26.965  1.00  0.00    -0.237 OA
ATOM     87  O   UNL A   1      34.416  30.739  28.882  1.00  0.00    -0.744 OA
ENDBRANCH  81  84
ENDBRANCH  53  77
BRANCH  65  88
ATOM     88  C   UNL A   1      44.810  33.310  29.687  1.00  0.00     0.023 A 
ATOM     89  C   UNL A   1      45.281  33.639  30.972  1.00  0.00     0.012 A 
ATOM     90  C   UNL A   1      44.679  34.324  28.717  1.00  0.00     0.148 A 
ATOM     91  C   UNL A   1      45.599  34.960  31.291  1.00  0.00     0.002 A 
ATOM     92  C   UNL A   1      45.045  35.628  29.025  1.00  0.00     0.091 A 
ATOM     93  F   UNL A   1      44.214  33.990  27.503  1.00  0.00    -0.205 F 
ATOM     94  C   UNL A   1      45.495  35.950  30.315  1.00  0.00     0.022 A 
BRANCH  92  95
ATOM     95  S   UNL A   1      45.042  36.945  27.803  1.00  0.00     0.127 S 
ATOM     96  O   UNL A   1      43.632  36.992  27.419  1.00  0.00    -0.237 OA
ATOM     97  O   UNL A   1      45.500  38.094  28.584  1.00  0.00    -0.237 OA
ATOM     98  O   UNL A   1      45.960  36.523  26.754  1.00  0.00    -0.744 OA
ENDBRANCH  92  95
ENDBRANCH  65  88
ENDBRANCH  39  40
ENDBRANCH  32  34
ENDBRANCH  31  32
ENDBRANCH  30  31
ENDBRANCH  29  30
ENDBRANCH  28  29
ENDBRANCH  27  28
ENDBRANCH   1  27
TORSDOF 23
ENDMDL
MODEL 2
REMARK VINA RESULT:      -9.5      2.998      5.331
REMARK SMILES O=C(CCC(=O)N1CCC(c2nnc3ccccn23)CC1)OCCOCCOCCOC(=O)c1ccc(-c2c3nc(c(-c4cccc(S(=O)(=O)[O-])c4F)c4ccc([nH]4)c(-c4cccc(S(=O)(=O)[O-])c4F)c4nc(c(-c5cccc(S(=O)(=O)[O-])c5F)c5ccc2[nH]5)C=C4)C=C3)cc1
REMARK SMILES IDX 26 1 25 2 24 3 23 4 22 5 2 6 1 7 3 8 4 9 5 10 6 11 7 12 8 13
REMARK SMILES IDX 21 14 9 15 20 16 10 17 11 18 12 19 19 20 13 21 14 22 18 23
REMARK SMILES IDX 15 24 17 25 16 26 27 27 28 28 29 29 30 30 31 31 32 32 33 33
REMARK SMILES IDX 34 34 35 35 96 36 36 37 95 38 37 39 38 40 39 41 89 42 40 43
REMARK SMILES IDX 94 44 88 45 90 46 41 47 93 48 87 49 86 50 42 52 74 53 54 54
REMARK SMILES IDX 73 55 55 56 58 57 72 58 91 59 56 60 57 61 71 63 92 64 59 65
REMARK SMILES IDX 43 66 44 67 52 68 45 69 47 70 53 71 46 72 48 73 49 74 50 75
REMARK SMILES IDX 51 76 75 77 76 78 84 79 77 80 79 81 85 82 78 83 80 84 81 85
REMARK SMILES IDX 82 86 83 87 60 88 61 89 69 90 62 91 64 92 70 93 63 94 65 95
REMARK SMILES IDX 66 96 67 97 68 98
REMARK H PARENT 90 51 58 62
REMARK Flexibility Score: inf
ROOT
ATOM      1  C   UNL A   1      38.379  21.824  25.786  1.00  0.00     0.188 C 
ENDROOT
BRANCH   1   2
ATOM      2  O   UNL A   1      37.813  20.800  24.987  1.00  0.00    -0.376 OA
BRANCH   2   3
ATOM      3  C   UNL A   1      36.441  20.965  24.669  1.00  0.00     0.202 C 
BRANCH   3   4
ATOM      4  C   UNL A   1      35.533  19.818  25.112  1.00  0.00     0.261 C 
BRANCH   4   5
ATOM      5  O   UNL A   1      34.275  19.749  24.401  1.00  0.00    -0.463 OA
BRANCH   5   6
ATOM      6  C   UNL A   1      33.051  20.057  24.871  1.00  0.00     0.306 C 
ATOM      7  O   UNL A   1      32.148  19.224  24.859  1.00  0.00    -0.252 OA
BRANCH   6   8
ATOM      8  C   UNL A   1      32.866  21.378  25.527  1.00  0.00     0.132 C 
BRANCH   8   9
ATOM      9  C   UNL A   1      31.996  22.219  24.614  1.00  0.00     0.112 C 
BRANCH   9  10
ATOM     10  C   UNL A   1      32.684  23.501  24.208  1.00  0.00     0.223 C 
ATOM     11  O   UNL A   1      33.913  23.564  24.323  1.00  0.00    -0.275 OA
ATOM     12  N   UNL A   1      31.950  24.574  23.724  1.00  0.00    -0.343 N 
ATOM     13  C   UNL A   1      32.697  25.621  23.045  1.00  0.00     0.120 C 
ATOM     14  C   UNL A   1      30.492  24.804  23.785  1.00  0.00     0.120 C 
ATOM     15  C   UNL A   1      32.436  26.968  23.688  1.00  0.00     0.033 C 
ATOM     16  C   UNL A   1      30.149  26.205  24.352  1.00  0.00     0.033 C 
ATOM     17  C   UNL A   1      30.938  27.285  23.599  1.00  0.00     0.062 C 
BRANCH  17  18
ATOM     18  C   UNL A   1      30.698  28.695  24.038  1.00  0.00     0.140 A 
ATOM     19  N   UNL A   1      31.459  29.474  24.782  1.00  0.00    -0.134 NA
ATOM     20  N   UNL A   1      29.608  29.423  23.597  1.00  0.00    -0.286 N 
ATOM     21  N   UNL A   1      30.880  30.729  24.830  1.00  0.00    -0.130 NA
ATOM     22  C   UNL A   1      29.782  30.697  24.108  1.00  0.00     0.160 A 
ATOM     23  C   UNL A   1      28.533  29.063  22.781  1.00  0.00     0.095 A 
ATOM     24  C   UNL A   1      28.807  31.676  23.767  1.00  0.00     0.050 A 
ATOM     25  C   UNL A   1      27.617  29.988  22.455  1.00  0.00     0.019 A 
ATOM     26  C   UNL A   1      27.770  31.339  22.973  1.00  0.00     0.005 A 
ENDBRANCH  17  18
ENDBRANCH   9  10
ENDBRANCH   8   9
ENDBRANCH   6   8
ENDBRANCH   5   6
ENDBRANCH   4   5
ENDBRANCH   3   4
ENDBRANCH   2   3
ENDBRANCH   1   2
BRANCH   1  27
ATOM     27  C   UNL A   1      39.910  21.727  25.986  1.00  0.00     0.188 C 
BRANCH  27  28
ATOM     28  O   UNL A   1      40.447  20.690  26.800  1.00  0.00    -0.376 OA
BRANCH  28  29
ATOM     29  C   UNL A   1      40.830  19.461  26.189  1.00  0.00     0.202 C 
BRANCH  29  30
ATOM     30  C   UNL A   1      42.328  19.147  26.023  1.00  0.00     0.261 C 
BRANCH  30  31
ATOM     31  O   UNL A   1      42.924  19.725  24.845  1.00  0.00    -0.460 OA
BRANCH  31  32
ATOM     32  C   UNL A   1      44.285  19.725  24.793  1.00  0.00     0.338 C 
ATOM     33  O   UNL A   1      45.000  18.809  24.452  1.00  0.00    -0.246 OA
BRANCH  32  34
ATOM     34  C   UNL A   1      44.779  21.116  24.977  1.00  0.00     0.060 A 
ATOM     35  C   UNL A   1      45.212  21.491  26.262  1.00  0.00     0.016 A 
ATOM     36  C   UNL A   1      44.906  22.006  23.908  1.00  0.00     0.016 A 
ATOM     37  C   UNL A   1      45.736  22.767  26.487  1.00  0.00     0.010 A 
ATOM     38  C   UNL A   1      45.394  23.298  24.142  1.00  0.00     0.010 A 
ATOM     39  C   UNL A   1      45.770  23.697  25.440  1.00  0.00    -0.014 A 
BRANCH  39  40
ATOM     40  C   UNL A   1      45.852  25.148  25.747  1.00  0.00     0.031 A 
ATOM     41  C   UNL A   1      47.232  25.752  25.773  1.00  0.00     0.074 A 
ATOM     42  C   UNL A   1      44.778  25.900  26.049  1.00  0.00     0.049 A 
ATOM     43  N   UNL A   1      47.610  26.954  26.115  1.00  0.00    -0.248 NA
ATOM     44  C   UNL A   1      48.336  24.866  25.364  1.00  0.00     0.031 C 
ATOM     45  C   UNL A   1      43.392  25.448  26.045  1.00  0.00     0.029 A 
ATOM     46  N   UNL A   1      44.706  27.212  26.457  1.00  0.00    -0.354 N 
ATOM     47  C   UNL A   1      48.995  26.955  26.000  1.00  0.00     0.074 A 
ATOM     48  C   UNL A   1      49.391  25.638  25.557  1.00  0.00     0.031 C 
ATOM     49  C   UNL A   1      42.605  26.452  26.477  1.00  0.00     0.029 A 
ATOM     50  C   UNL A   1      43.438  27.608  26.814  1.00  0.00     0.049 A 
ATOM     51  H   UNL A   1      45.487  27.810  26.491  1.00  0.00     0.167 HD
ATOM     52  C   UNL A   1      49.867  27.960  26.239  1.00  0.00     0.034 A 
ATOM     53  C   UNL A   1      43.009  28.758  27.377  1.00  0.00     0.034 A 
ATOM     54  C   UNL A   1      49.483  29.265  26.688  1.00  0.00     0.049 A 
ATOM     55  C   UNL A   1      44.003  29.859  27.668  1.00  0.00     0.074 A 
ATOM     56  C   UNL A   1      50.287  30.361  26.932  1.00  0.00     0.029 A 
ATOM     57  N   UNL A   1      48.182  29.643  26.982  1.00  0.00    -0.354 N 
ATOM     58  N   UNL A   1      45.296  29.886  27.448  1.00  0.00    -0.248 NA
ATOM     59  C   UNL A   1      43.475  31.099  28.260  1.00  0.00     0.031 C 
ATOM     60  C   UNL A   1      49.476  31.398  27.403  1.00  0.00     0.029 A 
ATOM     61  C   UNL A   1      48.162  30.956  27.416  1.00  0.00     0.049 A 
ATOM     62  H   UNL A   1      47.391  29.064  26.896  1.00  0.00     0.167 HD
ATOM     63  C   UNL A   1      45.726  31.154  27.830  1.00  0.00     0.074 A 
ATOM     64  C   UNL A   1      44.555  31.870  28.291  1.00  0.00     0.031 C 
ATOM     65  C   UNL A   1      46.978  31.676  27.807  1.00  0.00     0.034 A 
BRANCH  52  66
ATOM     66  C   UNL A   1      51.326  27.666  26.018  1.00  0.00     0.023 A 
ATOM     67  C   UNL A   1      52.166  27.423  27.123  1.00  0.00     0.012 A 
ATOM     68  C   UNL A   1      51.864  27.634  24.717  1.00  0.00     0.148 A 
ATOM     69  C   UNL A   1      53.529  27.194  26.941  1.00  0.00     0.002 A 
ATOM     70  C   UNL A   1      53.213  27.356  24.540  1.00  0.00     0.091 A 
ATOM     71  F   UNL A   1      51.054  27.902  23.683  1.00  0.00    -0.205 F 
ATOM     72  C   UNL A   1      54.049  27.150  25.649  1.00  0.00     0.022 A 
BRANCH  70  73
ATOM     73  S   UNL A   1      53.957  27.202  22.914  1.00  0.00     0.127 S 
ATOM     74  O   UNL A   1      53.739  28.536  22.361  1.00  0.00    -0.237 OA
ATOM     75  O   UNL A   1      55.350  26.896  23.240  1.00  0.00    -0.237 OA
ATOM     76  O   UNL A   1      53.242  26.121  22.248  1.00  0.00    -0.744 OA
ENDBRANCH  70  73
ENDBRANCH  52  66
BRANCH  53  77
ATOM     77  C   UNL A   1      41.561  28.945  27.685  1.00  0.00     0.023 A 
ATOM     78  C   UNL A   1      40.644  29.129  26.632  1.00  0.00     0.012 A 
ATOM     79  C   UNL A   1      41.086  28.929  29.011  1.00  0.00     0.148 A 
ATOM     80  C   UNL A   1      39.285  29.320  26.894  1.00  0.00     0.002 A 
ATOM     81  C   UNL A   1      39.725  29.065  29.262  1.00  0.00     0.091 A 
ATOM     82  F   UNL A   1      41.976  28.770  30.001  1.00  0.00    -0.205 F 
ATOM     83  C   UNL A   1      38.825  29.277  28.207  1.00  0.00     0.022 A 
BRANCH  81  84
ATOM     84  S   UNL A   1      39.021  28.902  30.907  1.00  0.00     0.127 S 
ATOM     85  O   UNL A   1      39.435  30.153  31.538  1.00  0.00    -0.237 OA
ATOM     86  O   UNL A   1      37.591  28.804  30.611  1.00  0.00    -0.237 OA
ATOM     87  O   UNL A   1      39.604  27.692  31.470  1.00  0.00    -0.744 OA
ENDBRANCH  81  84
ENDBRANCH  53  77
BRANCH  65  88
ATOM     88  C   UNL A   1      47.163  33.112  28.229  1.00  0.00     0.023 A 
ATOM     89  C   UNL A   1      47.471  33.421  29.568  1.00  0.00     0.012 A 
ATOM     90  C   UNL A   1      47.157  34.140  27.265  1.00  0.00     0.148 A 
ATOM     91  C   UNL A   1      47.749  34.735  29.944  1.00  0.00     0.002 A 
ATOM     92  C   UNL A   1      47.485  35.438  27.636  1.00  0.00     0.091 A 
ATOM     93  F   UNL A   1      46.848  33.825  25.998  1.00  0.00    -0.205 F 
ATOM     94  C   UNL A   1      47.770  35.740  28.977  1.00  0.00     0.022 A 
BRANCH  92  95
ATOM     95  S   UNL A   1      47.638  36.772  26.442  1.00  0.00     0.127 S 
ATOM     96  O   UNL A   1      48.354  37.784  27.218  1.00  0.00    -0.237 OA
ATOM     97  O   UNL A   1      48.428  36.148  25.380  1.00  0.00    -0.237 OA
ATOM     98  O   UNL A   1      46.280  37.127  26.057  1.00  0.00    -0.744 OA
ENDBRANCH  92  95
ENDBRANCH  65  88
ENDBRANCH  39  40
ENDBRANCH  32  34
ENDBRANCH  31  32
ENDBRANCH  30  31
ENDBRANCH  29  30
ENDBRANCH  28  29
ENDBRANCH  27  28
ENDBRANCH   1  27
TORSDOF 23
ENDMDL
MODEL 3
REMARK VINA RESULT:      -9.4      2.535      3.328
REMARK SMILES O=C(CCC(=O)N1CCC(c2nnc3ccccn23)CC1)OCCOCCOCCOC(=O)c1ccc(-c2c3nc(c(-c4cccc(S(=O)(=O)[O-])c4F)c4ccc([nH]4)c(-c4cccc(S(=O)(=O)[O-])c4F)c4nc(c(-c5cccc(S(=O)(=O)[O-])c5F)c5ccc2[nH]5)C=C4)C=C3)cc1
REMARK SMILES IDX 26 1 25 2 24 3 23 4 22 5 2 6 1 7 3 8 4 9 5 10 6 11 7 12 8 13
REMARK SMILES IDX 21 14 9 15 20 16 10 17 11 18 12 19 19 20 13 21 14 22 18 23
REMARK SMILES IDX 15 24 17 25 16 26 27 27 28 28 29 29 30 30 31 31 32 32 33 33
REMARK SMILES IDX 34 34 35 35 96 36 36 37 95 38 37 39 38 40 39 41 89 42 40 43
REMARK SMILES IDX 94 44 88 45 90 46 41 47 93 48 87 49 86 50 42 52 74 53 54 54
REMARK SMILES IDX 73 55 55 56 58 57 72 58 91 59 56 60 57 61 71 63 92 64 59 65
REMARK SMILES IDX 43 66 44 67 52 68 45 69 47 70 53 71 46 72 48 73 49 74 50 75
REMARK SMILES IDX 51 76 75 77 76 78 84 79 77 80 79 81 85 82 78 83 80 84 81 85
REMARK SMILES IDX 82 86 83 87 60 88 61 89 69 90 62 91 64 92 70 93 63 94 65 95
REMARK SMILES IDX 66 96 67 97 68 98
REMARK H PARENT 90 51 58 62
REMARK Flexibility Score: inf
ROOT
ATOM      1  C   UNL A   1      36.958  23.752  25.438  1.00  0.00     0.188 C 
ENDROOT
BRANCH   1   2
ATOM      2  O   UNL A   1      35.577  23.582  25.174  1.00  0.00    -0.376 OA
BRANCH   2   3
ATOM      3  C   UNL A   1      34.937  24.688  24.557  1.00  0.00     0.202 C 
BRANCH   3   4
ATOM      4  C   UNL A   1      34.015  25.494  25.473  1.00  0.00     0.261 C 
BRANCH   4   5
ATOM      5  O   UNL A   1      33.547  26.736  24.898  1.00  0.00    -0.463 OA
BRANCH   5   6
ATOM      6  C   UNL A   1      32.529  26.905  24.032  1.00  0.00     0.306 C 
ATOM      7  O   UNL A   1      32.593  26.444  22.895  1.00  0.00    -0.252 OA
BRANCH   6   8
ATOM      8  C   UNL A   1      31.282  27.538  24.535  1.00  0.00     0.132 C 
BRANCH   8   9
ATOM      9  C   UNL A   1      30.210  26.466  24.562  1.00  0.00     0.112 C 
BRANCH   9  10
ATOM     10  C   UNL A   1      30.537  25.372  25.551  1.00  0.00     0.223 C 
ATOM     11  O   UNL A   1      30.617  25.673  26.746  1.00  0.00    -0.275 OA
ATOM     12  N   UNL A   1      30.743  24.069  25.120  1.00  0.00    -0.343 N 
ATOM     13  C   UNL A   1      30.711  23.033  26.139  1.00  0.00     0.120 C 
ATOM     14  C   UNL A   1      30.978  23.572  23.749  1.00  0.00     0.120 C 
ATOM     15  C   UNL A   1      31.992  22.225  26.121  1.00  0.00     0.033 C 
ATOM     16  C   UNL A   1      32.229  22.659  23.670  1.00  0.00     0.033 C 
ATOM     17  C   UNL A   1      32.150  21.566  24.744  1.00  0.00     0.062 C 
BRANCH  17  18
ATOM     18  C   UNL A   1      33.294  20.602  24.780  1.00  0.00     0.140 A 
ATOM     19  N   UNL A   1      34.410  20.662  25.480  1.00  0.00    -0.134 NA
ATOM     20  N   UNL A   1      33.257  19.400  24.097  1.00  0.00    -0.286 N 
ATOM     21  N   UNL A   1      35.117  19.492  25.272  1.00  0.00    -0.130 NA
ATOM     22  C   UNL A   1      34.417  18.734  24.457  1.00  0.00     0.160 A 
ATOM     23  C   UNL A   1      32.296  18.858  23.241  1.00  0.00     0.095 A 
ATOM     24  C   UNL A   1      34.616  17.431  23.920  1.00  0.00     0.050 A 
ATOM     25  C   UNL A   1      32.481  17.627  22.740  1.00  0.00     0.019 A 
ATOM     26  C   UNL A   1      33.688  16.898  23.099  1.00  0.00     0.005 A 
ENDBRANCH  17  18
ENDBRANCH   9  10
ENDBRANCH   8   9
ENDBRANCH   6   8
ENDBRANCH   5   6
ENDBRANCH   4   5
ENDBRANCH   3   4
ENDBRANCH   2   3
ENDBRANCH   1   2
BRANCH   1  27
ATOM     27  C   UNL A   1      37.754  22.438  25.623  1.00  0.00     0.188 C 
BRANCH  27  28
ATOM     28  O   UNL A   1      38.944  22.443  26.404  1.00  0.00    -0.376 OA
BRANCH  28  29
ATOM     29  C   UNL A   1      39.792  21.298  26.378  1.00  0.00     0.202 C 
BRANCH  29  30
ATOM     30  C   UNL A   1      41.301  21.492  26.145  1.00  0.00     0.261 C 
BRANCH  30  31
ATOM     31  O   UNL A   1      41.672  22.836  25.782  1.00  0.00    -0.460 OA
BRANCH  31  32
ATOM     32  C   UNL A   1      43.007  23.093  25.695  1.00  0.00     0.338 C 
ATOM     33  O   UNL A   1      43.847  22.406  25.159  1.00  0.00    -0.246 OA
BRANCH  32  34
ATOM     34  C   UNL A   1      43.263  24.490  26.140  1.00  0.00     0.060 A 
ATOM     35  C   UNL A   1      43.705  24.684  27.461  1.00  0.00     0.016 A 
ATOM     36  C   UNL A   1      43.166  25.577  25.267  1.00  0.00     0.016 A 
ATOM     37  C   UNL A   1      44.013  25.966  27.923  1.00  0.00     0.010 A 
ATOM     38  C   UNL A   1      43.437  26.866  25.742  1.00  0.00     0.010 A 
ATOM     39  C   UNL A   1      43.820  27.070  27.082  1.00  0.00    -0.014 A 
BRANCH  39  40
ATOM     40  C   UNL A   1      43.669  28.425  27.671  1.00  0.00     0.031 A 
ATOM     41  C   UNL A   1      44.919  29.260  27.766  1.00  0.00     0.074 A 
ATOM     42  C   UNL A   1      42.505  28.893  28.158  1.00  0.00     0.049 A 
ATOM     43  N   UNL A   1      45.105  30.424  28.328  1.00  0.00    -0.248 NA
ATOM     44  C   UNL A   1      46.128  28.689  27.147  1.00  0.00     0.031 C 
ATOM     45  C   UNL A   1      41.223  28.200  28.115  1.00  0.00     0.029 A 
ATOM     46  N   UNL A   1      42.234  30.066  28.824  1.00  0.00    -0.354 N 
ATOM     47  C   UNL A   1      46.456  30.705  28.163  1.00  0.00     0.074 A 
ATOM     48  C   UNL A   1      47.044  29.594  27.451  1.00  0.00     0.031 C 
ATOM     49  C   UNL A   1      40.306  28.938  28.770  1.00  0.00     0.029 A 
ATOM     50  C   UNL A   1      40.946  30.144  29.301  1.00  0.00     0.049 A 
ATOM     51  H   UNL A   1      42.899  30.781  28.947  1.00  0.00     0.167 HD
ATOM     52  C   UNL A   1      47.154  31.790  28.566  1.00  0.00     0.034 A 
ATOM     53  C   UNL A   1      40.365  31.065  30.098  1.00  0.00     0.034 A 
ATOM     54  C   UNL A   1      46.581  32.891  29.283  1.00  0.00     0.049 A 
ATOM     55  C   UNL A   1      41.169  32.256  30.567  1.00  0.00     0.074 A 
ATOM     56  C   UNL A   1      47.197  34.051  29.712  1.00  0.00     0.029 A 
ATOM     57  N   UNL A   1      45.260  32.957  29.696  1.00  0.00    -0.354 N 
ATOM     58  N   UNL A   1      42.418  32.564  30.309  1.00  0.00    -0.248 NA
ATOM     59  C   UNL A   1      40.477  33.240  31.415  1.00  0.00     0.031 C 
ATOM     60  C   UNL A   1      46.254  34.809  30.411  1.00  0.00     0.029 A 
ATOM     61  C   UNL A   1      45.042  34.136  30.384  1.00  0.00     0.049 A 
ATOM     62  H   UNL A   1      44.578  32.268  29.524  1.00  0.00     0.167 HD
ATOM     63  C   UNL A   1      42.646  33.794  30.920  1.00  0.00     0.074 A 
ATOM     64  C   UNL A   1      41.405  34.179  31.560  1.00  0.00     0.031 C 
ATOM     65  C   UNL A   1      43.782  34.535  30.956  1.00  0.00     0.034 A 
BRANCH  52  66
ATOM     66  C   UNL A   1      48.621  31.821  28.236  1.00  0.00     0.023 A 
ATOM     67  C   UNL A   1      49.539  31.137  29.060  1.00  0.00     0.012 A 
ATOM     68  C   UNL A   1      49.091  32.529  27.113  1.00  0.00     0.148 A 
ATOM     69  C   UNL A   1      50.906  31.191  28.795  1.00  0.00     0.002 A 
ATOM     70  C   UNL A   1      50.451  32.537  26.829  1.00  0.00     0.091 A 
ATOM     71  F   UNL A   1      48.206  33.201  26.364  1.00  0.00    -0.205 F 
ATOM     72  C   UNL A   1      51.360  31.883  27.675  1.00  0.00     0.022 A 
BRANCH  70  73
ATOM     73  S   UNL A   1      51.120  33.335  25.366  1.00  0.00     0.127 S 
ATOM     74  O   UNL A   1      52.337  33.948  25.893  1.00  0.00    -0.237 OA
ATOM     75  O   UNL A   1      51.346  32.199  24.473  1.00  0.00    -0.237 OA
ATOM     76  O   UNL A   1      50.094  34.264  24.912  1.00  0.00    -0.744 OA
ENDBRANCH  70  73
ENDBRANCH  52  66
BRANCH  53  77
ATOM     77  C   UNL A   1      38.933  30.916  30.492  1.00  0.00     0.023 A 
ATOM     78  C   UNL A   1      38.587  30.045  31.542  1.00  0.00     0.012 A 
ATOM     79  C   UNL A   1      37.915  31.641  29.841  1.00  0.00     0.148 A 
ATOM     80  C   UNL A   1      37.254  29.878  31.922  1.00  0.00     0.002 A 
ATOM     81  C   UNL A   1      36.596  31.511  30.258  1.00  0.00     0.091 A 
ATOM     82  F   UNL A   1      38.262  32.452  28.831  1.00  0.00    -0.205 F 
ATOM     83  C   UNL A   1      36.260  30.618  31.287  1.00  0.00     0.022 A 
BRANCH  81  84
ATOM     84  S   UNL A   1      35.262  32.511  29.586  1.00  0.00     0.127 S 
ATOM     85  O   UNL A   1      34.769  31.666  28.502  1.00  0.00    -0.237 OA
ATOM     86  O   UNL A   1      34.366  32.624  30.737  1.00  0.00    -0.237 OA
ATOM     87  O   UNL A   1      35.877  33.766  29.175  1.00  0.00    -0.744 OA
ENDBRANCH  81  84
ENDBRANCH  53  77
BRANCH  65  88
ATOM     88  C   UNL A   1      43.744  35.873  31.651  1.00  0.00     0.023 A 
ATOM     89  C   UNL A   1      43.822  35.943  33.054  1.00  0.00     0.012 A 
ATOM     90  C   UNL A   1      43.758  37.063  30.896  1.00  0.00     0.148 A 
ATOM     91  C   UNL A   1      43.895  37.179  33.697  1.00  0.00     0.002 A 
ATOM     92  C   UNL A   1      43.882  38.288  31.539  1.00  0.00     0.091 A 
ATOM     93  F   UNL A   1      43.668  36.973  29.561  1.00  0.00    -0.205 F 
ATOM     94  C   UNL A   1      43.940  38.349  32.940  1.00  0.00     0.022 A 
BRANCH  92  95
ATOM     95  S   UNL A   1      44.052  39.835  30.641  1.00  0.00     0.127 S 
ATOM     96  O   UNL A   1      42.778  39.905  29.926  1.00  0.00    -0.237 OA
ATOM     97  O   UNL A   1      44.196  40.808  31.724  1.00  0.00    -0.237 OA
ATOM     98  O   UNL A   1      45.231  39.687  29.801  1.00  0.00    -0.744 OA
ENDBRANCH  92  95
ENDBRANCH  65  88
ENDBRANCH  39  40
ENDBRANCH  32  34
ENDBRANCH  31  32
ENDBRANCH  30  31
ENDBRANCH  29  30
ENDBRANCH  28  29
ENDBRANCH  27  28
ENDBRANCH   1  27
TORSDOF 23
ENDMDL
