MODEL 1
REMARK VINA RESULT:      -7.6      0.000      0.000
REMARK SMILES Nc1c(Nc2ccc(I)cc2)ncnc1Nc1ccc(C(=O)OCCOCCOCCOC(=O)c2ccc(-c3c4nc(c(-c5cccc(S(=O)(=O)[O-])c5F)c5ccc([nH]5)c(-c5cccc(S(=O)(=O)[O-])c5F)c5nc(c(-c6cccc(S(=O)(=O)[O-])c6F)c6ccc3[nH]6)C=C5)C=C4)cc2)cc1
REMARK SMILES IDX 27 1 26 2 25 3 24 4 23 5 21 6 22 7 20 8 17 9 18 10 99 11
REMARK SMILES IDX 19 12 98 13 16 14 15 16 2 17 3 18 12 19 14 20 13 21 1 22
REMARK SMILES IDX 4 25 5 27 6 28 11 29 7 30 10 31 8 32 9 33 28 34 29 35 30 36
REMARK SMILES IDX 31 37 32 38 33 39 34 40 35 41 36 42 97 43 37 44 96 45 38 46
REMARK SMILES IDX 39 47 40 48 90 49 41 50 95 51 89 52 91 53 42 54 94 55 88 56
REMARK SMILES IDX 87 57 43 59 75 60 55 61 74 62 56 63 59 64 73 65 92 66 57 67
REMARK SMILES IDX 58 68 72 70 93 71 60 72 44 73 45 74 53 75 46 76 48 77 54 78
REMARK SMILES IDX 47 79 49 80 50 81 51 82 52 83 76 84 77 85 85 86 78 87 80 88
REMARK SMILES IDX 86 89 79 90 81 91 82 92 83 93 84 94 61 95 62 96 70 97 63 98
REMARK SMILES IDX 65 99 71 100 64 101 66 102 67 103 68 104 69 105
REMARK H PARENT 16 15 1 23 1 24 4 26 91 58 59 69
REMARK Flexibility Score: inf
ROOT
ATOM      1  C   UNL A   1      45.847  25.160  25.264  1.00  0.00     0.188 C 
ENDROOT
BRANCH   1   2
ATOM      2  O   UNL A   1      46.220  26.335  24.587  1.00  0.00    -0.376 OA
BRANCH   2   3
ATOM      3  C   UNL A   1      46.410  27.548  25.293  1.00  0.00     0.202 C 
BRANCH   3   4
ATOM      4  C   UNL A   1      45.301  28.483  25.812  1.00  0.00     0.261 C 
BRANCH   4   5
ATOM      5  O   UNL A   1      45.664  29.815  26.179  1.00  0.00    -0.460 OA
BRANCH   5   6
ATOM      6  C   UNL A   1      44.680  30.542  26.766  1.00  0.00     0.338 C 
ATOM      7  O   UNL A   1      43.748  30.115  27.425  1.00  0.00    -0.246 OA
BRANCH   6   8
ATOM      8  C   UNL A   1      44.995  31.982  26.653  1.00  0.00     0.060 A 
ATOM      9  C   UNL A   1      45.534  34.728  26.638  1.00  0.00     0.040 A 
ATOM     10  C   UNL A   1      46.271  33.873  27.465  1.00  0.00     0.027 A 
ATOM     11  C   UNL A   1      44.591  34.178  25.753  1.00  0.00     0.027 A 
ATOM     12  C   UNL A   1      45.993  32.505  27.484  1.00  0.00     0.018 A 
ATOM     13  C   UNL A   1      44.323  32.807  25.750  1.00  0.00     0.018 A 
BRANCH   9  14
ATOM     14  N   UNL A   1      45.563  36.121  26.886  1.00  0.00    -0.338 N 
ATOM     15  H   UNL A   1      46.434  36.568  26.991  1.00  0.00     0.168 HD
BRANCH  14  16
ATOM     16  C   UNL A   1      44.376  36.898  26.986  1.00  0.00     0.159 A 
ATOM     17  C   UNL A   1      44.455  38.265  27.272  1.00  0.00     0.118 A 
ATOM     18  C   UNL A   1      43.217  38.924  27.355  1.00  0.00     0.159 A 
ATOM     19  N   UNL A   1      42.037  38.282  27.238  1.00  0.00    -0.217 NA
ATOM     20  N   UNL A   1      43.196  36.265  26.818  1.00  0.00    -0.217 NA
ATOM     21  C   UNL A   1      42.087  36.983  26.972  1.00  0.00     0.226 A 
BRANCH  17  22
ATOM     22  N   UNL A   1      45.669  38.958  27.393  1.00  0.00    -0.393 N 
ATOM     23  H   UNL A   1      46.029  39.168  28.284  1.00  0.00     0.156 HD
ATOM     24  H   UNL A   1      46.159  39.233  26.585  1.00  0.00     0.156 HD
ENDBRANCH  17  22
BRANCH  18  25
ATOM     25  N   UNL A   1      43.203  40.329  27.548  1.00  0.00    -0.338 N 
ATOM     26  H   UNL A   1      43.080  40.655  28.468  1.00  0.00     0.168 HD
BRANCH  25  27
ATOM     27  C   UNL A   1      43.350  41.294  26.537  1.00  0.00     0.040 A 
ATOM     28  C   UNL A   1      44.369  42.251  26.633  1.00  0.00     0.027 A 
ATOM     29  C   UNL A   1      42.591  41.243  25.359  1.00  0.00     0.027 A 
ATOM     30  C   UNL A   1      44.632  43.125  25.573  1.00  0.00     0.017 A 
ATOM     31  C   UNL A   1      42.840  42.121  24.300  1.00  0.00     0.017 A 
ATOM     32  C   UNL A   1      43.869  43.053  24.409  1.00  0.00     0.013 A 
ATOM     33  I   UNL A   1      44.290  44.319  22.816  1.00  0.00    -0.044 I 
ENDBRANCH  25  27
ENDBRANCH  18  25
ENDBRANCH  14  16
ENDBRANCH   9  14
ENDBRANCH   6   8
ENDBRANCH   5   6
ENDBRANCH   4   5
ENDBRANCH   3   4
ENDBRANCH   2   3
ENDBRANCH   1   2
BRANCH   1  34
ATOM     34  C   UNL A   1      46.288  23.836  24.601  1.00  0.00     0.188 C 
BRANCH  34  35
ATOM     35  O   UNL A   1      46.360  22.644  25.365  1.00  0.00    -0.376 OA
BRANCH  35  36
ATOM     36  C   UNL A   1      45.219  22.232  26.103  1.00  0.00     0.202 C 
BRANCH  36  37
ATOM     37  C   UNL A   1      43.947  21.689  25.422  1.00  0.00     0.261 C 
BRANCH  37  38
ATOM     38  O   UNL A   1      42.959  21.102  26.281  1.00  0.00    -0.460 OA
BRANCH  38  39
ATOM     39  C   UNL A   1      41.761  21.735  26.320  1.00  0.00     0.338 C 
ATOM     40  O   UNL A   1      40.678  21.295  25.959  1.00  0.00    -0.246 OA
BRANCH  39  41
ATOM     41  C   UNL A   1      41.907  23.005  27.056  1.00  0.00     0.060 A 
ATOM     42  C   UNL A   1      41.668  24.210  26.379  1.00  0.00     0.016 A 
ATOM     43  C   UNL A   1      42.309  23.010  28.392  1.00  0.00     0.016 A 
ATOM     44  C   UNL A   1      41.829  25.427  27.038  1.00  0.00     0.010 A 
ATOM     45  C   UNL A   1      42.505  24.234  29.040  1.00  0.00     0.010 A 
ATOM     46  C   UNL A   1      42.290  25.446  28.359  1.00  0.00    -0.014 A 
BRANCH  46  47
ATOM     47  C   UNL A   1      42.735  26.730  28.953  1.00  0.00     0.031 A 
ATOM     48  C   UNL A   1      41.685  27.676  29.469  1.00  0.00     0.074 A 
ATOM     49  C   UNL A   1      44.039  27.042  29.058  1.00  0.00     0.049 A 
ATOM     50  N   UNL A   1      41.830  28.852  30.020  1.00  0.00    -0.248 NA
ATOM     51  C   UNL A   1      40.285  27.234  29.351  1.00  0.00     0.031 C 
ATOM     52  C   UNL A   1      45.148  26.197  28.621  1.00  0.00     0.029 A 
ATOM     53  N   UNL A   1      44.647  28.168  29.556  1.00  0.00    -0.354 N 
ATOM     54  C   UNL A   1      40.545  29.299  30.295  1.00  0.00     0.074 A 
ATOM     55  C   UNL A   1      39.630  28.278  29.836  1.00  0.00     0.031 C 
ATOM     56  C   UNL A   1      46.304  26.843  28.851  1.00  0.00     0.029 A 
ATOM     57  C   UNL A   1      46.016  28.157  29.428  1.00  0.00     0.049 A 
ATOM     58  H   UNL A   1      44.150  28.913  29.965  1.00  0.00     0.167 HD
ATOM     59  C   UNL A   1      40.160  30.447  30.899  1.00  0.00     0.034 A 
ATOM     60  C   UNL A   1      46.928  29.106  29.727  1.00  0.00     0.034 A 
ATOM     61  C   UNL A   1      41.070  31.456  31.365  1.00  0.00     0.049 A 
ATOM     62  C   UNL A   1      46.467  30.407  30.338  1.00  0.00     0.074 A 
ATOM     63  C   UNL A   1      40.774  32.638  32.019  1.00  0.00     0.029 A 
ATOM     64  N   UNL A   1      42.448  31.412  31.217  1.00  0.00    -0.354 N 
ATOM     65  N   UNL A   1      45.260  30.769  30.699  1.00  0.00    -0.248 NA
ATOM     66  C   UNL A   1      47.498  31.422  30.606  1.00  0.00     0.031 C 
ATOM     67  C   UNL A   1      41.971  33.327  32.233  1.00  0.00     0.029 A 
ATOM     68  C   UNL A   1      43.015  32.557  31.747  1.00  0.00     0.049 A 
ATOM     69  H   UNL A   1      42.948  30.674  30.798  1.00  0.00     0.167 HD
ATOM     70  C   UNL A   1      45.387  32.039  31.255  1.00  0.00     0.074 A 
ATOM     71  C   UNL A   1      46.796  32.372  31.212  1.00  0.00     0.031 C 
ATOM     72  C   UNL A   1      44.424  32.862  31.740  1.00  0.00     0.034 A 
BRANCH  59  73
ATOM     73  C   UNL A   1      38.687  30.665  31.121  1.00  0.00     0.023 A 
ATOM     74  C   UNL A   1      38.097  30.238  32.328  1.00  0.00     0.012 A 
ATOM     75  C   UNL A   1      37.908  31.363  30.178  1.00  0.00     0.148 A 
ATOM     76  C   UNL A   1      36.749  30.480  32.584  1.00  0.00     0.002 A 
ATOM     77  C   UNL A   1      36.577  31.645  30.463  1.00  0.00     0.091 A 
ATOM     78  F   UNL A   1      38.483  31.741  29.029  1.00  0.00    -0.205 F 
ATOM     79  C   UNL A   1      35.993  31.194  31.659  1.00  0.00     0.022 A 
BRANCH  77  80
ATOM     80  S   UNL A   1      35.540  32.632  29.379  1.00  0.00     0.127 S 
ATOM     81  O   UNL A   1      34.310  32.738  30.163  1.00  0.00    -0.237 OA
ATOM     82  O   UNL A   1      36.305  33.875  29.276  1.00  0.00    -0.237 OA
ATOM     83  O   UNL A   1      35.421  31.881  28.137  1.00  0.00    -0.744 OA
ENDBRANCH  77  80
ENDBRANCH  59  73
BRANCH  60  84
ATOM     84  C   UNL A   1      48.379  28.847  29.488  1.00  0.00     0.023 A 
ATOM     85  C   UNL A   1      49.125  28.149  30.458  1.00  0.00     0.012 A 
ATOM     86  C   UNL A   1      49.016  29.263  28.303  1.00  0.00     0.148 A 
ATOM     87  C   UNL A   1      50.481  27.888  30.261  1.00  0.00     0.002 A 
ATOM     88  C   UNL A   1      50.354  28.951  28.088  1.00  0.00     0.091 A 
ATOM     89  F   UNL A   1      48.295  29.944  27.401  1.00  0.00    -0.205 F 
ATOM     90  C   UNL A   1      51.093  28.278  29.072  1.00  0.00     0.022 A 
BRANCH  88  91
ATOM     91  S   UNL A   1      51.194  29.300  26.539  1.00  0.00     0.127 S 
ATOM     92  O   UNL A   1      52.415  28.510  26.677  1.00  0.00    -0.237 OA
ATOM     93  O   UNL A   1      50.236  28.787  25.559  1.00  0.00    -0.237 OA
ATOM     94  O   UNL A   1      51.381  30.743  26.505  1.00  0.00    -0.744 OA
ENDBRANCH  88  91
ENDBRANCH  60  84
BRANCH  72  95
ATOM     95  C   UNL A   1      44.835  34.212  32.273  1.00  0.00     0.023 A 
ATOM     96  C   UNL A   1      45.176  34.346  33.634  1.00  0.00     0.012 A 
ATOM     97  C   UNL A   1      45.018  35.309  31.406  1.00  0.00     0.148 A 
ATOM     98  C   UNL A   1      45.674  35.552  34.126  1.00  0.00     0.002 A 
ATOM     99  C   UNL A   1      45.565  36.491  31.892  1.00  0.00     0.091 A 
ATOM    100  F   UNL A   1      44.679  35.166  30.116  1.00  0.00    -0.205 F 
ATOM    101  C   UNL A   1      45.883  36.617  33.253  1.00  0.00     0.022 A 
BRANCH  99 102
ATOM    102  S   UNL A   1      45.975  37.881  30.829  1.00  0.00     0.127 S 
ATOM    103  O   UNL A   1      46.716  37.225  29.753  1.00  0.00    -0.237 OA
ATOM    104  O   UNL A   1      44.653  38.377  30.446  1.00  0.00    -0.237 OA
ATOM    105  O   UNL A   1      46.756  38.800  31.647  1.00  0.00    -0.744 OA
ENDBRANCH  99 102
ENDBRANCH  72  95
ENDBRANCH  46  47
ENDBRANCH  39  41
ENDBRANCH  38  39
ENDBRANCH  37  38
ENDBRANCH  36  37
ENDBRANCH  35  36
ENDBRANCH  34  35
ENDBRANCH   1  34
TORSDOF 25
ENDMDL
MODEL 2
REMARK VINA RESULT:      -7.4      4.849     12.408
REMARK SMILES Nc1c(Nc2ccc(I)cc2)ncnc1Nc1ccc(C(=O)OCCOCCOCCOC(=O)c2ccc(-c3c4nc(c(-c5cccc(S(=O)(=O)[O-])c5F)c5ccc([nH]5)c(-c5cccc(S(=O)(=O)[O-])c5F)c5nc(c(-c6cccc(S(=O)(=O)[O-])c6F)c6ccc3[nH]6)C=C5)C=C4)cc2)cc1
REMARK SMILES IDX 27 1 26 2 25 3 24 4 23 5 21 6 22 7 20 8 17 9 18 10 99 11
REMARK SMILES IDX 19 12 98 13 16 14 15 16 2 17 3 18 12 19 14 20 13 21 1 22
REMARK SMILES IDX 4 25 5 27 6 28 11 29 7 30 10 31 8 32 9 33 28 34 29 35 30 36
REMARK SMILES IDX 31 37 32 38 33 39 34 40 35 41 36 42 97 43 37 44 96 45 38 46
REMARK SMILES IDX 39 47 40 48 90 49 41 50 95 51 89 52 91 53 42 54 94 55 88 56
REMARK SMILES IDX 87 57 43 59 75 60 55 61 74 62 56 63 59 64 73 65 92 66 57 67
REMARK SMILES IDX 58 68 72 70 93 71 60 72 44 73 45 74 53 75 46 76 48 77 54 78
REMARK SMILES IDX 47 79 49 80 50 81 51 82 52 83 76 84 77 85 85 86 78 87 80 88
REMARK SMILES IDX 86 89 79 90 81 91 82 92 83 93 84 94 61 95 62 96 70 97 63 98
REMARK SMILES IDX 65 99 71 100 64 101 66 102 67 103 68 104 69 105
REMARK H PARENT 16 15 1 23 1 24 4 26 91 58 59 69
REMARK Flexibility Score: inf
ROOT
ATOM      1  C   UNL A   1      41.578  35.666  28.598  1.00  0.00     0.188 C 
ENDROOT
BRANCH   1   2
ATOM      2  O   UNL A   1      40.236  35.247  28.568  1.00  0.00    -0.376 OA
BRANCH   2   3
ATOM      3  C   UNL A   1      39.560  34.893  29.762  1.00  0.00     0.202 C 
BRANCH   3   4
ATOM      4  C   UNL A   1      38.216  34.146  29.859  1.00  0.00     0.261 C 
BRANCH   4   5
ATOM      5  O   UNL A   1      38.153  32.985  30.689  1.00  0.00    -0.460 OA
BRANCH   5   6
ATOM      6  C   UNL A   1      37.333  32.000  30.245  1.00  0.00     0.338 C 
ATOM      7  O   UNL A   1      36.116  31.971  30.316  1.00  0.00    -0.246 OA
BRANCH   6   8
ATOM      8  C   UNL A   1      38.119  31.014  29.474  1.00  0.00     0.060 A 
ATOM      9  C   UNL A   1      39.728  29.304  27.951  1.00  0.00     0.040 A 
ATOM     10  C   UNL A   1      40.272  29.995  29.040  1.00  0.00     0.027 A 
ATOM     11  C   UNL A   1      38.350  29.409  27.694  1.00  0.00     0.027 A 
ATOM     12  C   UNL A   1      39.474  30.859  29.791  1.00  0.00     0.018 A 
ATOM     13  C   UNL A   1      37.540  30.254  28.456  1.00  0.00     0.018 A 
BRANCH   9  14
ATOM     14  N   UNL A   1      40.598  28.732  26.993  1.00  0.00    -0.338 N 
ATOM     15  H   UNL A   1      40.272  28.595  26.074  1.00  0.00     0.168 HD
BRANCH  14  16
ATOM     16  C   UNL A   1      41.931  28.351  27.312  1.00  0.00     0.159 A 
ATOM     17  C   UNL A   1      42.183  27.102  27.892  1.00  0.00     0.118 A 
ATOM     18  C   UNL A   1      43.535  26.843  28.170  1.00  0.00     0.159 A 
ATOM     19  N   UNL A   1      44.513  27.747  27.962  1.00  0.00    -0.217 NA
ATOM     20  N   UNL A   1      42.916  29.237  27.056  1.00  0.00    -0.217 NA
ATOM     21  C   UNL A   1      44.152  28.900  27.411  1.00  0.00     0.226 A 
BRANCH  17  22
ATOM     22  N   UNL A   1      41.186  26.141  28.113  1.00  0.00    -0.393 N 
ATOM     23  H   UNL A   1      40.239  26.411  28.142  1.00  0.00     0.156 HD
ATOM     24  H   UNL A   1      41.433  25.197  28.240  1.00  0.00     0.156 HD
ENDBRANCH  17  22
BRANCH  18  25
ATOM     25  N   UNL A   1      43.895  25.565  28.672  1.00  0.00    -0.338 N 
ATOM     26  H   UNL A   1      43.804  25.421  29.641  1.00  0.00     0.168 HD
BRANCH  25  27
ATOM     27  C   UNL A   1      44.371  24.489  27.901  1.00  0.00     0.040 A 
ATOM     28  C   UNL A   1      43.472  23.528  27.422  1.00  0.00     0.027 A 
ATOM     29  C   UNL A   1      45.707  24.424  27.481  1.00  0.00     0.027 A 
ATOM     30  C   UNL A   1      43.894  22.535  26.532  1.00  0.00     0.017 A 
ATOM     31  C   UNL A   1      46.139  23.427  26.601  1.00  0.00     0.017 A 
ATOM     32  C   UNL A   1      45.226  22.492  26.122  1.00  0.00     0.013 A 
ATOM     33  I   UNL A   1      45.843  21.046  24.763  1.00  0.00    -0.044 I 
ENDBRANCH  25  27
ENDBRANCH  18  25
ENDBRANCH  14  16
ENDBRANCH   9  14
ENDBRANCH   6   8
ENDBRANCH   5   6
ENDBRANCH   4   5
ENDBRANCH   3   4
ENDBRANCH   2   3
ENDBRANCH   1   2
BRANCH   1  34
ATOM     34  C   UNL A   1      41.973  36.729  27.549  1.00  0.00     0.188 C 
BRANCH  34  35
ATOM     35  O   UNL A   1      42.715  37.873  27.936  1.00  0.00    -0.376 OA
BRANCH  35  36
ATOM     36  C   UNL A   1      43.190  38.755  26.930  1.00  0.00     0.202 C 
BRANCH  36  37
ATOM     37  C   UNL A   1      44.691  38.926  26.623  1.00  0.00     0.261 C 
BRANCH  37  38
ATOM     38  O   UNL A   1      45.594  38.074  27.343  1.00  0.00    -0.460 OA
BRANCH  38  39
ATOM     39  C   UNL A   1      45.956  36.930  26.712  1.00  0.00     0.338 C 
ATOM     40  O   UNL A   1      46.660  36.824  25.717  1.00  0.00    -0.246 OA
BRANCH  39  41
ATOM     41  C   UNL A   1      45.527  35.774  27.520  1.00  0.00     0.060 A 
ATOM     42  C   UNL A   1      45.688  35.825  28.913  1.00  0.00     0.016 A 
ATOM     43  C   UNL A   1      45.004  34.634  26.909  1.00  0.00     0.016 A 
ATOM     44  C   UNL A   1      45.322  34.735  29.701  1.00  0.00     0.010 A 
ATOM     45  C   UNL A   1      44.672  33.528  27.699  1.00  0.00     0.010 A 
ATOM     46  C   UNL A   1      44.852  33.565  29.093  1.00  0.00    -0.014 A 
BRANCH  46  47
ATOM     47  C   UNL A   1      44.744  32.325  29.897  1.00  0.00     0.031 A 
ATOM     48  C   UNL A   1      45.843  31.305  29.783  1.00  0.00     0.074 A 
ATOM     49  C   UNL A   1      43.709  32.116  30.731  1.00  0.00     0.049 A 
ATOM     50  N   UNL A   1      45.963  30.148  30.379  1.00  0.00    -0.248 NA
ATOM     51  C   UNL A   1      46.958  31.635  28.878  1.00  0.00     0.031 C 
ATOM     52  C   UNL A   1      42.599  33.041  30.949  1.00  0.00     0.029 A 
ATOM     53  N   UNL A   1      43.421  31.044  31.541  1.00  0.00    -0.354 N 
ATOM     54  C   UNL A   1      47.152  29.605  29.909  1.00  0.00     0.074 A 
ATOM     55  C   UNL A   1      47.708  30.548  28.964  1.00  0.00     0.031 C 
ATOM     56  C   UNL A   1      41.737  32.488  31.820  1.00  0.00     0.029 A 
ATOM     57  C   UNL A   1      42.221  31.161  32.202  1.00  0.00     0.049 A 
ATOM     58  H   UNL A   1      44.016  30.267  31.637  1.00  0.00     0.167 HD
ATOM     59  C   UNL A   1      47.740  28.435  30.250  1.00  0.00     0.034 A 
ATOM     60  C   UNL A   1      41.580  30.288  33.008  1.00  0.00     0.034 A 
ATOM     61  C   UNL A   1      47.192  27.504  31.197  1.00  0.00     0.049 A 
ATOM     62  C   UNL A   1      42.227  28.960  33.321  1.00  0.00     0.074 A 
ATOM     63  C   UNL A   1      47.733  26.308  31.631  1.00  0.00     0.029 A 
ATOM     64  N   UNL A   1      45.976  27.654  31.845  1.00  0.00    -0.354 N 
ATOM     65  N   UNL A   1      43.404  28.509  32.960  1.00  0.00    -0.248 NA
ATOM     66  C   UNL A   1      41.467  28.030  34.172  1.00  0.00     0.031 C 
ATOM     67  C   UNL A   1      46.826  25.715  32.514  1.00  0.00     0.029 A 
ATOM     68  C   UNL A   1      45.737  26.560  32.658  1.00  0.00     0.049 A 
ATOM     69  H   UNL A   1      45.371  28.424  31.741  1.00  0.00     0.167 HD
ATOM     70  C   UNL A   1      43.536  27.257  33.556  1.00  0.00     0.074 A 
ATOM     71  C   UNL A   1      42.331  27.035  34.327  1.00  0.00     0.031 C 
ATOM     72  C   UNL A   1      44.554  26.366  33.458  1.00  0.00     0.034 A 
BRANCH  59  73
ATOM     73  C   UNL A   1      49.067  28.105  29.619  1.00  0.00     0.023 A 
ATOM     74  C   UNL A   1      50.247  28.656  30.158  1.00  0.00     0.012 A 
ATOM     75  C   UNL A   1      49.153  27.190  28.553  1.00  0.00     0.148 A 
ATOM     76  C   UNL A   1      51.492  28.320  29.631  1.00  0.00     0.002 A 
ATOM     77  C   UNL A   1      50.401  26.822  28.065  1.00  0.00     0.091 A 
ATOM     78  F   UNL A   1      48.018  26.695  28.041  1.00  0.00    -0.205 F 
ATOM     79  C   UNL A   1      51.570  27.394  28.594  1.00  0.00     0.022 A 
BRANCH  77  80
ATOM     80  S   UNL A   1      50.618  25.573  26.792  1.00  0.00     0.127 S 
ATOM     81  O   UNL A   1      50.324  24.345  27.530  1.00  0.00    -0.237 OA
ATOM     82  O   UNL A   1      49.598  25.955  25.815  1.00  0.00    -0.237 OA
ATOM     83  O   UNL A   1      51.991  25.703  26.327  1.00  0.00    -0.744 OA
ENDBRANCH  77  80
ENDBRANCH  59  73
BRANCH  60  84
ATOM     84  C   UNL A   1      40.266  30.657  33.611  1.00  0.00     0.023 A 
ATOM     85  C   UNL A   1      39.081  30.138  33.055  1.00  0.00     0.012 A 
ATOM     86  C   UNL A   1      40.183  31.497  34.740  1.00  0.00     0.148 A 
ATOM     87  C   UNL A   1      37.837  30.462  33.599  1.00  0.00     0.002 A 
ATOM     88  C   UNL A   1      38.945  31.771  35.311  1.00  0.00     0.091 A 
ATOM     89  F   UNL A   1      41.320  31.998  35.242  1.00  0.00    -0.205 F 
ATOM     90  C   UNL A   1      37.769  31.268  34.733  1.00  0.00     0.022 A 
BRANCH  88  91
ATOM     91  S   UNL A   1      38.766  32.693  36.842  1.00  0.00     0.127 S 
ATOM     92  O   UNL A   1      39.673  31.973  37.732  1.00  0.00    -0.237 OA
ATOM     93  O   UNL A   1      39.224  34.024  36.442  1.00  0.00    -0.237 OA
ATOM     94  O   UNL A   1      37.354  32.617  37.188  1.00  0.00    -0.744 OA
ENDBRANCH  88  91
ENDBRANCH  60  84
BRANCH  72  95
ATOM     95  C   UNL A   1      44.435  25.056  34.198  1.00  0.00     0.023 A 
ATOM     96  C   UNL A   1      43.887  23.936  33.541  1.00  0.00     0.012 A 
ATOM     97  C   UNL A   1      44.989  24.898  35.485  1.00  0.00     0.148 A 
ATOM     98  C   UNL A   1      43.875  22.686  34.158  1.00  0.00     0.002 A 
ATOM     99  C   UNL A   1      45.023  23.638  36.072  1.00  0.00     0.091 A 
ATOM    100  F   UNL A   1      45.499  25.976  36.098  1.00  0.00    -0.205 F 
ATOM    101  C   UNL A   1      44.458  22.534  35.415  1.00  0.00     0.022 A 
BRANCH  99 102
ATOM    102  S   UNL A   1      45.847  23.317  37.637  1.00  0.00     0.127 S 
ATOM    103  O   UNL A   1      45.000  24.052  38.576  1.00  0.00    -0.237 OA
ATOM    104  O   UNL A   1      45.753  21.861  37.742  1.00  0.00    -0.237 OA
ATOM    105  O   UNL A   1      47.203  23.831  37.494  1.00  0.00    -0.744 OA
ENDBRANCH  99 102
ENDBRANCH  72  95
ENDBRANCH  46  47
ENDBRANCH  39  41
ENDBRANCH  38  39
ENDBRANCH  37  38
ENDBRANCH  36  37
ENDBRANCH  35  36
ENDBRANCH  34  35
ENDBRANCH   1  34
TORSDOF 25
ENDMDL
MODEL 3
REMARK VINA RESULT:      -6.8      2.130      2.419
REMARK SMILES Nc1c(Nc2ccc(I)cc2)ncnc1Nc1ccc(C(=O)OCCOCCOCCOC(=O)c2ccc(-c3c4nc(c(-c5cccc(S(=O)(=O)[O-])c5F)c5ccc([nH]5)c(-c5cccc(S(=O)(=O)[O-])c5F)c5nc(c(-c6cccc(S(=O)(=O)[O-])c6F)c6ccc3[nH]6)C=C5)C=C4)cc2)cc1
REMARK SMILES IDX 27 1 26 2 25 3 24 4 23 5 21 6 22 7 20 8 17 9 18 10 99 11
REMARK SMILES IDX 19 12 98 13 16 14 15 16 2 17 3 18 12 19 14 20 13 21 1 22
REMARK SMILES IDX 4 25 5 27 6 28 11 29 7 30 10 31 8 32 9 33 28 34 29 35 30 36
REMARK SMILES IDX 31 37 32 38 33 39 34 40 35 41 36 42 97 43 37 44 96 45 38 46
REMARK SMILES IDX 39 47 40 48 90 49 41 50 95 51 89 52 91 53 42 54 94 55 88 56
REMARK SMILES IDX 87 57 43 59 75 60 55 61 74 62 56 63 59 64 73 65 92 66 57 67
REMARK SMILES IDX 58 68 72 70 93 71 60 72 44 73 45 74 53 75 46 76 48 77 54 78
REMARK SMILES IDX 47 79 49 80 50 81 51 82 52 83 76 84 77 85 85 86 78 87 80 88
REMARK SMILES IDX 86 89 79 90 81 91 82 92 83 93 84 94 61 95 62 96 70 97 63 98
REMARK SMILES IDX 65 99 71 100 64 101 66 102 67 103 68 104 69 105
REMARK H PARENT 16 15 1 23 1 24 4 26 91 58 59 69
REMARK Flexibility Score: inf
ROOT
ATOM      1  C   UNL A   1      45.852  24.923  25.238  1.00  0.00     0.188 C 
ENDROOT
BRANCH   1   2
ATOM      2  O   UNL A   1      46.421  26.121  24.771  1.00  0.00    -0.376 OA
BRANCH   2   3
ATOM      3  C   UNL A   1      46.430  27.284  25.580  1.00  0.00     0.202 C 
BRANCH   3   4
ATOM      4  C   UNL A   1      45.240  28.231  25.826  1.00  0.00     0.261 C 
BRANCH   4   5
ATOM      5  O   UNL A   1      45.368  29.217  26.851  1.00  0.00    -0.460 OA
BRANCH   5   6
ATOM      6  C   UNL A   1      44.310  30.056  26.984  1.00  0.00     0.338 C 
ATOM      7  O   UNL A   1      43.150  29.745  27.187  1.00  0.00    -0.246 OA
BRANCH   6   8
ATOM      8  C   UNL A   1      44.791  31.453  27.031  1.00  0.00     0.060 A 
ATOM      9  C   UNL A   1      45.571  34.129  27.281  1.00  0.00     0.040 A 
ATOM     10  C   UNL A   1      45.830  33.223  28.316  1.00  0.00     0.027 A 
ATOM     11  C   UNL A   1      45.003  33.657  26.086  1.00  0.00     0.027 A 
ATOM     12  C   UNL A   1      45.427  31.891  28.198  1.00  0.00     0.018 A 
ATOM     13  C   UNL A   1      44.619  32.321  25.952  1.00  0.00     0.018 A 
BRANCH   9  14
ATOM     14  N   UNL A   1      45.643  35.517  27.546  1.00  0.00    -0.338 N 
ATOM     15  H   UNL A   1      46.519  35.964  27.510  1.00  0.00     0.168 HD
BRANCH  14  16
ATOM     16  C   UNL A   1      44.491  36.289  27.863  1.00  0.00     0.159 A 
ATOM     17  C   UNL A   1      44.568  37.686  27.887  1.00  0.00     0.118 A 
ATOM     18  C   UNL A   1      43.369  38.337  28.222  1.00  0.00     0.159 A 
ATOM     19  N   UNL A   1      42.246  37.675  28.564  1.00  0.00    -0.217 NA
ATOM     20  N   UNL A   1      43.352  35.626  28.156  1.00  0.00    -0.217 NA
ATOM     21  C   UNL A   1      42.295  36.349  28.510  1.00  0.00     0.226 A 
BRANCH  17  22
ATOM     22  N   UNL A   1      45.722  38.400  27.530  1.00  0.00    -0.393 N 
ATOM     23  H   UNL A   1      46.578  38.205  27.975  1.00  0.00     0.156 HD
ATOM     24  H   UNL A   1      45.674  39.095  26.836  1.00  0.00     0.156 HD
ENDBRANCH  17  22
BRANCH  18  25
ATOM     25  N   UNL A   1      43.328  39.755  28.179  1.00  0.00    -0.338 N 
ATOM     26  H   UNL A   1      43.555  40.237  29.006  1.00  0.00     0.168 HD
BRANCH  25  27
ATOM     27  C   UNL A   1      42.992  40.529  27.054  1.00  0.00     0.040 A 
ATOM     28  C   UNL A   1      43.862  41.536  26.618  1.00  0.00     0.027 A 
ATOM     29  C   UNL A   1      41.869  40.230  26.269  1.00  0.00     0.027 A 
ATOM     30  C   UNL A   1      43.626  42.217  25.419  1.00  0.00     0.017 A 
ATOM     31  C   UNL A   1      41.619  40.915  25.076  1.00  0.00     0.017 A 
ATOM     32  C   UNL A   1      42.506  41.900  24.651  1.00  0.00     0.013 A 
ATOM     33  I   UNL A   1      42.180  42.878  22.847  1.00  0.00    -0.044 I 
ENDBRANCH  25  27
ENDBRANCH  18  25
ENDBRANCH  14  16
ENDBRANCH   9  14
ENDBRANCH   6   8
ENDBRANCH   5   6
ENDBRANCH   4   5
ENDBRANCH   3   4
ENDBRANCH   2   3
ENDBRANCH   1   2
BRANCH   1  34
ATOM     34  C   UNL A   1      46.267  23.643  24.481  1.00  0.00     0.188 C 
BRANCH  34  35
ATOM     35  O   UNL A   1      46.398  22.413  25.173  1.00  0.00    -0.376 OA
BRANCH  35  36
ATOM     36  C   UNL A   1      45.313  21.953  25.966  1.00  0.00     0.202 C 
BRANCH  36  37
ATOM     37  C   UNL A   1      44.053  21.317  25.349  1.00  0.00     0.261 C 
BRANCH  37  38
ATOM     38  O   UNL A   1      42.985  20.999  26.254  1.00  0.00    -0.460 OA
BRANCH  38  39
ATOM     39  C   UNL A   1      41.855  21.735  26.116  1.00  0.00     0.338 C 
ATOM     40  O   UNL A   1      40.814  21.399  25.568  1.00  0.00    -0.246 OA
BRANCH  39  41
ATOM     41  C   UNL A   1      41.984  22.974  26.905  1.00  0.00     0.060 A 
ATOM     42  C   UNL A   1      42.005  24.205  26.232  1.00  0.00     0.016 A 
ATOM     43  C   UNL A   1      42.118  22.923  28.293  1.00  0.00     0.016 A 
ATOM     44  C   UNL A   1      42.157  25.391  26.947  1.00  0.00     0.010 A 
ATOM     45  C   UNL A   1      42.309  24.112  29.004  1.00  0.00     0.010 A 
ATOM     46  C   UNL A   1      42.354  25.347  28.333  1.00  0.00    -0.014 A 
BRANCH  46  47
ATOM     47  C   UNL A   1      42.802  26.570  29.040  1.00  0.00     0.031 A 
ATOM     48  C   UNL A   1      41.755  27.528  29.539  1.00  0.00     0.074 A 
ATOM     49  C   UNL A   1      44.106  26.817  29.260  1.00  0.00     0.049 A 
ATOM     50  N   UNL A   1      41.905  28.659  30.175  1.00  0.00    -0.248 NA
ATOM     51  C   UNL A   1      40.351  27.156  29.291  1.00  0.00     0.031 C 
ATOM     52  C   UNL A   1      45.211  25.953  28.849  1.00  0.00     0.029 A 
ATOM     53  N   UNL A   1      44.719  27.882  29.873  1.00  0.00    -0.354 N 
ATOM     54  C   UNL A   1      40.621  29.145  30.386  1.00  0.00     0.074 A 
ATOM     55  C   UNL A   1      39.703  28.196  29.795  1.00  0.00     0.031 C 
ATOM     56  C   UNL A   1      46.371  26.532  29.205  1.00  0.00     0.029 A 
ATOM     57  C   UNL A   1      46.093  27.819  29.844  1.00  0.00     0.049 A 
ATOM     58  H   UNL A   1      44.223  28.621  30.292  1.00  0.00     0.167 HD
ATOM     59  C   UNL A   1      40.238  30.269  31.034  1.00  0.00     0.034 A 
ATOM     60  C   UNL A   1      47.017  28.706  30.270  1.00  0.00     0.034 A 
ATOM     61  C   UNL A   1      41.150  31.205  31.630  1.00  0.00     0.049 A 
ATOM     62  C   UNL A   1      46.563  29.985  30.930  1.00  0.00     0.074 A 
ATOM     63  C   UNL A   1      40.852  32.356  32.336  1.00  0.00     0.029 A 
ATOM     64  N   UNL A   1      42.531  31.110  31.580  1.00  0.00    -0.354 N 
ATOM     65  N   UNL A   1      45.347  30.377  31.226  1.00  0.00    -0.248 NA
ATOM     66  C   UNL A   1      47.610  30.935  31.338  1.00  0.00     0.031 C 
ATOM     67  C   UNL A   1      42.056  32.977  32.682  1.00  0.00     0.029 A 
ATOM     68  C   UNL A   1      43.102  32.194  32.223  1.00  0.00     0.049 A 
ATOM     69  H   UNL A   1      43.032  30.379  31.150  1.00  0.00     0.167 HD
ATOM     70  C   UNL A   1      45.482  31.603  31.872  1.00  0.00     0.074 A 
ATOM     71  C   UNL A   1      46.902  31.875  31.953  1.00  0.00     0.031 C 
ATOM     72  C   UNL A   1      44.519  32.435  32.338  1.00  0.00     0.034 A 
BRANCH  59  73
ATOM     73  C   UNL A   1      38.762  30.538  31.163  1.00  0.00     0.023 A 
ATOM     74  C   UNL A   1      38.084  30.138  32.332  1.00  0.00     0.012 A 
ATOM     75  C   UNL A   1      38.067  31.255  30.170  1.00  0.00     0.148 A 
ATOM     76  C   UNL A   1      36.731  30.428  32.503  1.00  0.00     0.002 A 
ATOM     77  C   UNL A   1      36.731  31.583  30.369  1.00  0.00     0.091 A 
ATOM     78  F   UNL A   1      38.725  31.606  29.057  1.00  0.00    -0.205 F 
ATOM     79  C   UNL A   1      36.059  31.160  31.528  1.00  0.00     0.022 A 
BRANCH  77  80
ATOM     80  S   UNL A   1      35.798  32.598  29.218  1.00  0.00     0.127 S 
ATOM     81  O   UNL A   1      36.314  32.135  27.931  1.00  0.00    -0.237 OA
ATOM     82  O   UNL A   1      34.421  32.194  29.504  1.00  0.00    -0.237 OA
ATOM     83  O   UNL A   1      36.112  33.980  29.552  1.00  0.00    -0.744 OA
ENDBRANCH  77  80
ENDBRANCH  59  73
BRANCH  60  84
ATOM     84  C   UNL A   1      48.469  28.398  30.120  1.00  0.00     0.023 A 
ATOM     85  C   UNL A   1      49.140  28.783  28.943  1.00  0.00     0.012 A 
ATOM     86  C   UNL A   1      49.194  27.750  31.140  1.00  0.00     0.148 A 
ATOM     87  C   UNL A   1      50.499  28.513  28.776  1.00  0.00     0.002 A 
ATOM     88  C   UNL A   1      50.559  27.533  30.991  1.00  0.00     0.091 A 
ATOM     89  F   UNL A   1      48.534  27.371  32.244  1.00  0.00    -0.205 F 
ATOM     90  C   UNL A   1      51.211  27.899  29.804  1.00  0.00     0.022 A 
BRANCH  88  91
ATOM     91  S   UNL A   1      51.584  26.865  32.306  1.00  0.00     0.127 S 
ATOM     92  O   UNL A   1      50.977  25.553  32.521  1.00  0.00    -0.237 OA
ATOM     93  O   UNL A   1      52.902  26.837  31.671  1.00  0.00    -0.237 OA
ATOM     94  O   UNL A   1      51.466  27.800  33.416  1.00  0.00    -0.744 OA
ENDBRANCH  88  91
ENDBRANCH  60  84
BRANCH  72  95
ATOM     95  C   UNL A   1      44.941  33.730  32.988  1.00  0.00     0.023 A 
ATOM     96  C   UNL A   1      45.071  34.891  32.200  1.00  0.00     0.012 A 
ATOM     97  C   UNL A   1      45.073  33.829  34.388  1.00  0.00     0.148 A 
ATOM     98  C   UNL A   1      45.342  36.124  32.791  1.00  0.00     0.002 A 
ATOM     99  C   UNL A   1      45.290  35.071  34.976  1.00  0.00     0.091 A 
ATOM    100  F   UNL A   1      44.956  32.712  35.121  1.00  0.00    -0.205 F 
ATOM    101  C   UNL A   1      45.435  36.217  34.178  1.00  0.00     0.022 A 
BRANCH  99 102
ATOM    102  S   UNL A   1      45.316  35.312  36.757  1.00  0.00     0.127 S 
ATOM    103  O   UNL A   1      46.492  34.533  37.146  1.00  0.00    -0.237 OA
ATOM    104  O   UNL A   1      45.480  36.761  36.869  1.00  0.00    -0.237 OA
ATOM    105  O   UNL A   1      44.045  34.802  37.253  1.00  0.00    -0.744 OA
ENDBRANCH  99 102
ENDBRANCH  72  95
ENDBRANCH  46  47
ENDBRANCH  39  41
ENDBRANCH  38  39
ENDBRANCH  37  38
ENDBRANCH  36  37
ENDBRANCH  35  36
ENDBRANCH  34  35
ENDBRANCH   1  34
TORSDOF 25
ENDMDL
