MODEL 1
REMARK VINA RESULT:      -9.5      0.000      0.000
REMARK SMILES O=C(CSc1nc2cccnc2n1CC(F)(F)F)OCCOCCOCCOC(=O)c1ccc(-c2c3nc(c(-c4cccc(S(=O)(=O)[O-])c4F)c4ccc([nH]4)c(-c4cccc(S(=O)(=O)[O-])c4F)c4nc(c(-c5cccc(S(=O)(=O)[O-])c5F)c5ccc2[nH]5)C=C4)C=C3)cc1
REMARK SMILES IDX 23 1 22 2 21 3 20 4 19 5 2 6 1 7 3 8 4 9 5 10 6 11 13 12
REMARK SMILES IDX 7 13 12 14 8 15 11 16 9 17 10 18 14 19 15 20 16 21 17 22
REMARK SMILES IDX 18 23 24 24 25 25 26 26 27 27 28 28 29 29 30 30 31 31 32 32
REMARK SMILES IDX 93 33 33 34 92 35 34 36 35 37 36 38 86 39 37 40 91 41 85 42
REMARK SMILES IDX 87 43 38 44 90 45 84 46 83 47 39 49 71 50 51 51 70 52 52 53
REMARK SMILES IDX 55 54 69 55 88 56 53 57 54 58 68 60 89 61 56 62 40 63 41 64
REMARK SMILES IDX 49 65 42 66 44 67 50 68 43 69 45 70 46 71 47 72 48 73 72 74
REMARK SMILES IDX 73 75 81 76 74 77 76 78 82 79 75 80 77 81 78 82 79 83 80 84
REMARK SMILES IDX 57 85 58 86 66 87 59 88 61 89 67 90 60 91 62 92 63 93 64 94
REMARK SMILES IDX 65 95
REMARK H PARENT 87 48 55 59
REMARK Flexibility Score: inf
ROOT
ATOM      1  C   UNL A   1      48.699  21.265  39.396  1.00  0.00     0.188 C 
ENDROOT
BRANCH   1   2
ATOM      2  O   UNL A   1      47.956  20.674  40.439  1.00  0.00    -0.376 OA
BRANCH   2   3
ATOM      3  C   UNL A   1      46.734  20.010  40.187  1.00  0.00     0.202 C 
BRANCH   3   4
ATOM      4  C   UNL A   1      46.123  19.182  41.322  1.00  0.00     0.261 C 
BRANCH   4   5
ATOM      5  O   UNL A   1      46.837  19.079  42.573  1.00  0.00    -0.463 OA
BRANCH   5   6
ATOM      6  C   UNL A   1      46.404  18.554  43.737  1.00  0.00     0.316 C 
ATOM      7  O   UNL A   1      46.671  19.125  44.795  1.00  0.00    -0.251 OA
BRANCH   6   8
ATOM      8  C   UNL A   1      45.777  17.184  43.745  1.00  0.00     0.200 C 
BRANCH   8   9
ATOM      9  S   UNL A   1      43.991  17.194  43.729  1.00  0.00    -0.076 SA
BRANCH   9  10
ATOM     10  C   UNL A   1      43.599  15.518  43.626  1.00  0.00     0.171 A 
ATOM     11  N   UNL A   1      44.137  14.662  44.467  1.00  0.00    -0.221 NA
ATOM     12  N   UNL A   1      42.752  14.916  42.724  1.00  0.00    -0.294 N 
ATOM     13  C   UNL A   1      43.657  13.447  44.086  1.00  0.00     0.109 A 
ATOM     14  C   UNL A   1      42.773  13.573  43.024  1.00  0.00     0.160 A 
ATOM     15  C   UNL A   1      43.921  12.166  44.576  1.00  0.00     0.034 A 
ATOM     16  N   UNL A   1      42.104  12.587  42.395  1.00  0.00    -0.237 NA
ATOM     17  C   UNL A   1      43.262  11.104  43.957  1.00  0.00     0.022 A 
ATOM     18  C   UNL A   1      42.389  11.366  42.906  1.00  0.00     0.113 A 
BRANCH  12  19
ATOM     19  C   UNL A   1      42.072  15.434  41.556  1.00  0.00     0.241 C 
BRANCH  19  20
ATOM     20  C   UNL A   1      42.906  15.585  40.307  1.00  0.00     0.406 C 
ATOM     21  F   UNL A   1      44.207  15.813  40.576  1.00  0.00    -0.169 F 
ATOM     22  F   UNL A   1      42.861  14.435  39.590  1.00  0.00    -0.169 F 
ATOM     23  F   UNL A   1      42.461  16.575  39.509  1.00  0.00    -0.169 F 
ENDBRANCH  19  20
ENDBRANCH  12  19
ENDBRANCH   9  10
ENDBRANCH   8   9
ENDBRANCH   6   8
ENDBRANCH   5   6
ENDBRANCH   4   5
ENDBRANCH   3   4
ENDBRANCH   2   3
ENDBRANCH   1   2
BRANCH   1  24
ATOM     24  C   UNL A   1      49.839  20.387  38.848  1.00  0.00     0.188 C 
BRANCH  24  25
ATOM     25  O   UNL A   1      50.413  20.623  37.568  1.00  0.00    -0.376 OA
BRANCH  25  26
ATOM     26  C   UNL A   1      50.042  21.743  36.772  1.00  0.00     0.202 C 
BRANCH  26  27
ATOM     27  C   UNL A   1      48.812  21.678  35.864  1.00  0.00     0.261 C 
BRANCH  27  28
ATOM     28  O   UNL A   1      47.780  22.583  36.234  1.00  0.00    -0.460 OA
BRANCH  28  29
ATOM     29  C   UNL A   1      46.727  22.585  35.405  1.00  0.00     0.338 C 
ATOM     30  O   UNL A   1      46.154  21.601  34.932  1.00  0.00    -0.246 OA
BRANCH  29  31
ATOM     31  C   UNL A   1      46.332  23.957  35.077  1.00  0.00     0.060 A 
ATOM     32  C   UNL A   1      44.972  24.252  35.221  1.00  0.00     0.016 A 
ATOM     33  C   UNL A   1      47.190  24.730  34.287  1.00  0.00     0.016 A 
ATOM     34  C   UNL A   1      44.400  25.110  34.313  1.00  0.00     0.010 A 
ATOM     35  C   UNL A   1      46.613  25.568  33.364  1.00  0.00     0.010 A 
ATOM     36  C   UNL A   1      45.218  25.635  33.313  1.00  0.00    -0.014 A 
BRANCH  36  37
ATOM     37  C   UNL A   1      44.574  26.013  32.071  1.00  0.00     0.031 A 
ATOM     38  C   UNL A   1      44.673  25.058  30.958  1.00  0.00     0.074 A 
ATOM     39  C   UNL A   1      43.801  27.116  32.023  1.00  0.00     0.049 A 
ATOM     40  N   UNL A   1      45.223  25.241  29.802  1.00  0.00    -0.248 NA
ATOM     41  C   UNL A   1      44.166  23.701  31.195  1.00  0.00     0.031 C 
ATOM     42  C   UNL A   1      43.351  27.944  33.151  1.00  0.00     0.029 A 
ATOM     43  N   UNL A   1      43.108  27.624  30.968  1.00  0.00    -0.354 N 
ATOM     44  C   UNL A   1      44.974  24.070  29.099  1.00  0.00     0.074 A 
ATOM     45  C   UNL A   1      44.466  23.105  30.044  1.00  0.00     0.031 C 
ATOM     46  C   UNL A   1      42.273  28.660  32.764  1.00  0.00     0.029 A 
ATOM     47  C   UNL A   1      42.034  28.421  31.351  1.00  0.00     0.049 A 
ATOM     48  H   UNL A   1      43.342  27.446  30.029  1.00  0.00     0.167 HD
ATOM     49  C   UNL A   1      44.981  23.999  27.744  1.00  0.00     0.034 A 
ATOM     50  C   UNL A   1      40.970  28.738  30.577  1.00  0.00     0.034 A 
ATOM     51  C   UNL A   1      45.512  25.159  27.103  1.00  0.00     0.049 A 
ATOM     52  C   UNL A   1      41.368  28.500  29.166  1.00  0.00     0.074 A 
ATOM     53  C   UNL A   1      46.736  25.793  27.082  1.00  0.00     0.029 A 
ATOM     54  N   UNL A   1      44.603  26.058  26.599  1.00  0.00    -0.354 N 
ATOM     55  N   UNL A   1      42.272  29.191  28.528  1.00  0.00    -0.248 NA
ATOM     56  C   UNL A   1      41.003  27.235  28.549  1.00  0.00     0.031 C 
ATOM     57  C   UNL A   1      46.437  27.181  26.963  1.00  0.00     0.029 A 
ATOM     58  C   UNL A   1      45.046  27.314  26.924  1.00  0.00     0.049 A 
ATOM     59  H   UNL A   1      43.784  25.841  26.098  1.00  0.00     0.167 HD
ATOM     60  C   UNL A   1      42.873  28.281  27.667  1.00  0.00     0.074 A 
ATOM     61  C   UNL A   1      41.968  27.139  27.632  1.00  0.00     0.031 C 
ATOM     62  C   UNL A   1      44.181  28.415  27.295  1.00  0.00     0.034 A 
BRANCH  49  63
ATOM     63  C   UNL A   1      44.203  22.955  27.015  1.00  0.00     0.023 A 
ATOM     64  C   UNL A   1      44.841  22.163  26.050  1.00  0.00     0.012 A 
ATOM     65  C   UNL A   1      42.805  22.831  27.164  1.00  0.00     0.148 A 
ATOM     66  C   UNL A   1      44.113  21.236  25.295  1.00  0.00     0.002 A 
ATOM     67  C   UNL A   1      42.105  21.847  26.484  1.00  0.00     0.091 A 
ATOM     68  F   UNL A   1      42.140  23.728  27.909  1.00  0.00    -0.205 F 
ATOM     69  C   UNL A   1      42.751  21.055  25.535  1.00  0.00     0.022 A 
BRANCH  67  70
ATOM     70  S   UNL A   1      40.390  21.515  26.888  1.00  0.00     0.127 S 
ATOM     71  O   UNL A   1      40.514  20.411  27.834  1.00  0.00    -0.237 OA
ATOM     72  O   UNL A   1      39.956  22.786  27.470  1.00  0.00    -0.237 OA
ATOM     73  O   UNL A   1      39.767  21.210  25.605  1.00  0.00    -0.744 OA
ENDBRANCH  67  70
ENDBRANCH  49  63
BRANCH  50  74
ATOM     74  C   UNL A   1      39.555  28.962  30.969  1.00  0.00     0.023 A 
ATOM     75  C   UNL A   1      38.971  28.106  31.926  1.00  0.00     0.012 A 
ATOM     76  C   UNL A   1      38.849  30.137  30.624  1.00  0.00     0.148 A 
ATOM     77  C   UNL A   1      37.755  28.426  32.542  1.00  0.00     0.002 A 
ATOM     78  C   UNL A   1      37.625  30.437  31.219  1.00  0.00     0.091 A 
ATOM     79  F   UNL A   1      39.413  31.022  29.790  1.00  0.00    -0.205 F 
ATOM     80  C   UNL A   1      37.083  29.592  32.192  1.00  0.00     0.022 A 
BRANCH  78  81
ATOM     81  S   UNL A   1      36.710  31.923  30.780  1.00  0.00     0.127 S 
ATOM     82  O   UNL A   1      36.593  31.802  29.326  1.00  0.00    -0.237 OA
ATOM     83  O   UNL A   1      35.461  31.741  31.511  1.00  0.00    -0.237 OA
ATOM     84  O   UNL A   1      37.550  33.034  31.212  1.00  0.00    -0.744 OA
ENDBRANCH  78  81
ENDBRANCH  50  74
BRANCH  62  85
ATOM     85  C   UNL A   1      44.874  29.719  27.602  1.00  0.00     0.023 A 
ATOM     86  C   UNL A   1      46.006  29.762  28.443  1.00  0.00     0.012 A 
ATOM     87  C   UNL A   1      44.518  30.869  26.877  1.00  0.00     0.148 A 
ATOM     88  C   UNL A   1      46.759  30.930  28.569  1.00  0.00     0.002 A 
ATOM     89  C   UNL A   1      45.293  32.018  26.976  1.00  0.00     0.091 A 
ATOM     90  F   UNL A   1      43.450  30.800  26.068  1.00  0.00    -0.205 F 
ATOM     91  C   UNL A   1      46.411  32.055  27.825  1.00  0.00     0.022 A 
BRANCH  89  92
ATOM     92  S   UNL A   1      44.985  33.467  25.959  1.00  0.00     0.127 S 
ATOM     93  O   UNL A   1      44.070  34.240  26.795  1.00  0.00    -0.237 OA
ATOM     94  O   UNL A   1      46.324  34.043  25.825  1.00  0.00    -0.237 OA
ATOM     95  O   UNL A   1      44.421  32.973  24.709  1.00  0.00    -0.744 OA
ENDBRANCH  89  92
ENDBRANCH  62  85
ENDBRANCH  36  37
ENDBRANCH  29  31
ENDBRANCH  28  29
ENDBRANCH  27  28
ENDBRANCH  26  27
ENDBRANCH  25  26
ENDBRANCH  24  25
ENDBRANCH   1  24
TORSDOF 24
ENDMDL
MODEL 2
REMARK VINA RESULT:      -9.4      8.538     20.949
REMARK SMILES O=C(CSc1nc2cccnc2n1CC(F)(F)F)OCCOCCOCCOC(=O)c1ccc(-c2c3nc(c(-c4cccc(S(=O)(=O)[O-])c4F)c4ccc([nH]4)c(-c4cccc(S(=O)(=O)[O-])c4F)c4nc(c(-c5cccc(S(=O)(=O)[O-])c5F)c5ccc2[nH]5)C=C4)C=C3)cc1
REMARK SMILES IDX 23 1 22 2 21 3 20 4 19 5 2 6 1 7 3 8 4 9 5 10 6 11 13 12
REMARK SMILES IDX 7 13 12 14 8 15 11 16 9 17 10 18 14 19 15 20 16 21 17 22
REMARK SMILES IDX 18 23 24 24 25 25 26 26 27 27 28 28 29 29 30 30 31 31 32 32
REMARK SMILES IDX 93 33 33 34 92 35 34 36 35 37 36 38 86 39 37 40 91 41 85 42
REMARK SMILES IDX 87 43 38 44 90 45 84 46 83 47 39 49 71 50 51 51 70 52 52 53
REMARK SMILES IDX 55 54 69 55 88 56 53 57 54 58 68 60 89 61 56 62 40 63 41 64
REMARK SMILES IDX 49 65 42 66 44 67 50 68 43 69 45 70 46 71 47 72 48 73 72 74
REMARK SMILES IDX 73 75 81 76 74 77 76 78 82 79 75 80 77 81 78 82 79 83 80 84
REMARK SMILES IDX 57 85 58 86 66 87 59 88 61 89 67 90 60 91 62 92 63 93 64 94
REMARK SMILES IDX 65 95
REMARK H PARENT 87 48 55 59
REMARK Flexibility Score: inf
ROOT
ATOM      1  C   UNL A   1      45.466  41.115  25.633  1.00  0.00     0.188 C 
ENDROOT
BRANCH   1   2
ATOM      2  O   UNL A   1      45.779  40.947  24.268  1.00  0.00    -0.376 OA
BRANCH   2   3
ATOM      3  C   UNL A   1      47.102  41.096  23.794  1.00  0.00     0.202 C 
BRANCH   3   4
ATOM      4  C   UNL A   1      47.491  42.440  23.169  1.00  0.00     0.261 C 
BRANCH   4   5
ATOM      5  O   UNL A   1      47.592  42.539  21.733  1.00  0.00    -0.463 OA
BRANCH   5   6
ATOM      6  C   UNL A   1      46.684  42.169  20.808  1.00  0.00     0.316 C 
ATOM      7  O   UNL A   1      46.157  41.059  20.886  1.00  0.00    -0.251 OA
BRANCH   6   8
ATOM      8  C   UNL A   1      46.473  43.030  19.588  1.00  0.00     0.200 C 
BRANCH   8   9
ATOM      9  S   UNL A   1      47.534  44.465  19.510  1.00  0.00    -0.076 SA
BRANCH   9  10
ATOM     10  C   UNL A   1      46.455  45.710  19.002  1.00  0.00     0.171 A 
ATOM     11  N   UNL A   1      46.187  45.870  17.725  1.00  0.00    -0.221 NA
ATOM     12  N   UNL A   1      45.800  46.619  19.801  1.00  0.00    -0.294 N 
ATOM     13  C   UNL A   1      45.354  46.945  17.673  1.00  0.00     0.109 A 
ATOM     14  C   UNL A   1      45.072  47.417  18.947  1.00  0.00     0.160 A 
ATOM     15  C   UNL A   1      44.785  47.607  16.583  1.00  0.00     0.034 A 
ATOM     16  N   UNL A   1      44.282  48.457  19.278  1.00  0.00    -0.237 NA
ATOM     17  C   UNL A   1      43.963  48.699  16.865  1.00  0.00     0.022 A 
ATOM     18  C   UNL A   1      43.751  49.065  18.190  1.00  0.00     0.113 A 
BRANCH  12  19
ATOM     19  C   UNL A   1      45.906  46.903  21.216  1.00  0.00     0.241 C 
BRANCH  19  20
ATOM     20  C   UNL A   1      45.335  45.867  22.152  1.00  0.00     0.406 C 
ATOM     21  F   UNL A   1      44.505  46.399  23.072  1.00  0.00    -0.169 F 
ATOM     22  F   UNL A   1      44.599  44.974  21.446  1.00  0.00    -0.169 F 
ATOM     23  F   UNL A   1      46.294  45.177  22.801  1.00  0.00    -0.169 F 
ENDBRANCH  19  20
ENDBRANCH  12  19
ENDBRANCH   9  10
ENDBRANCH   8   9
ENDBRANCH   6   8
ENDBRANCH   5   6
ENDBRANCH   4   5
ENDBRANCH   3   4
ENDBRANCH   2   3
ENDBRANCH   1   2
BRANCH   1  24
ATOM     24  C   UNL A   1      43.988  41.444  25.912  1.00  0.00     0.188 C 
BRANCH  24  25
ATOM     25  O   UNL A   1      43.008  40.422  26.046  1.00  0.00    -0.376 OA
BRANCH  25  26
ATOM     26  C   UNL A   1      41.878  40.572  26.900  1.00  0.00     0.202 C 
BRANCH  26  27
ATOM     27  C   UNL A   1      41.780  39.778  28.205  1.00  0.00     0.261 C 
BRANCH  27  28
ATOM     28  O   UNL A   1      42.478  38.539  28.173  1.00  0.00    -0.460 OA
BRANCH  28  29
ATOM     29  C   UNL A   1      43.595  38.519  28.915  1.00  0.00     0.338 C 
ATOM     30  O   UNL A   1      44.232  39.493  29.322  1.00  0.00    -0.246 OA
BRANCH  29  31
ATOM     31  C   UNL A   1      44.016  37.141  29.174  1.00  0.00     0.060 A 
ATOM     32  C   UNL A   1      43.851  36.242  28.114  1.00  0.00     0.016 A 
ATOM     33  C   UNL A   1      44.154  36.721  30.501  1.00  0.00     0.016 A 
ATOM     34  C   UNL A   1      43.484  34.953  28.415  1.00  0.00     0.010 A 
ATOM     35  C   UNL A   1      43.762  35.439  30.802  1.00  0.00     0.010 A 
ATOM     36  C   UNL A   1      43.308  34.625  29.759  1.00  0.00    -0.014 A 
BRANCH  36  37
ATOM     37  C   UNL A   1      42.390  33.544  30.056  1.00  0.00     0.031 A 
ATOM     38  C   UNL A   1      41.020  33.925  30.432  1.00  0.00     0.074 A 
ATOM     39  C   UNL A   1      42.761  32.267  29.835  1.00  0.00     0.049 A 
ATOM     40  N   UNL A   1      40.408  33.686  31.546  1.00  0.00    -0.248 NA
ATOM     41  C   UNL A   1      40.269  34.745  29.476  1.00  0.00     0.031 C 
ATOM     42  C   UNL A   1      43.964  31.793  29.139  1.00  0.00     0.029 A 
ATOM     43  N   UNL A   1      42.046  31.127  30.034  1.00  0.00    -0.354 N 
ATOM     44  C   UNL A   1      39.124  34.180  31.360  1.00  0.00     0.074 A 
ATOM     45  C   UNL A   1      39.138  34.955  30.144  1.00  0.00     0.031 C 
ATOM     46  C   UNL A   1      43.763  30.517  28.742  1.00  0.00     0.029 A 
ATOM     47  C   UNL A   1      42.479  30.065  29.249  1.00  0.00     0.049 A 
ATOM     48  H   UNL A   1      41.297  31.061  30.670  1.00  0.00     0.167 HD
ATOM     49  C   UNL A   1      38.053  33.759  32.080  1.00  0.00     0.034 A 
ATOM     50  C   UNL A   1      41.757  28.961  28.945  1.00  0.00     0.034 A 
ATOM     51  C   UNL A   1      38.391  32.957  33.212  1.00  0.00     0.049 A 
ATOM     52  C   UNL A   1      40.663  28.864  29.946  1.00  0.00     0.074 A 
ATOM     53  C   UNL A   1      39.103  33.155  34.376  1.00  0.00     0.029 A 
ATOM     54  N   UNL A   1      38.257  31.597  33.069  1.00  0.00    -0.354 N 
ATOM     55  N   UNL A   1      40.843  28.623  31.215  1.00  0.00    -0.248 NA
ATOM     56  C   UNL A   1      39.356  29.394  29.592  1.00  0.00     0.031 C 
ATOM     57  C   UNL A   1      39.724  31.903  34.653  1.00  0.00     0.029 A 
ATOM     58  C   UNL A   1      39.360  31.015  33.637  1.00  0.00     0.049 A 
ATOM     59  H   UNL A   1      37.508  31.127  32.637  1.00  0.00     0.167 HD
ATOM     60  C   UNL A   1      39.841  29.339  31.857  1.00  0.00     0.074 A 
ATOM     61  C   UNL A   1      38.888  29.680  30.808  1.00  0.00     0.031 C 
ATOM     62  C   UNL A   1      40.021  29.836  33.117  1.00  0.00     0.034 A 
BRANCH  49  63
ATOM     63  C   UNL A   1      36.666  33.853  31.539  1.00  0.00     0.023 A 
ATOM     64  C   UNL A   1      35.677  34.518  32.277  1.00  0.00     0.012 A 
ATOM     65  C   UNL A   1      36.278  33.170  30.366  1.00  0.00     0.148 A 
ATOM     66  C   UNL A   1      34.352  34.546  31.829  1.00  0.00     0.002 A 
ATOM     67  C   UNL A   1      34.987  33.281  29.876  1.00  0.00     0.091 A 
ATOM     68  F   UNL A   1      37.149  32.343  29.768  1.00  0.00    -0.205 F 
ATOM     69  C   UNL A   1      34.013  33.956  30.613  1.00  0.00     0.022 A 
BRANCH  67  70
ATOM     70  S   UNL A   1      34.579  32.646  28.250  1.00  0.00     0.127 S 
ATOM     71  O   UNL A   1      35.652  33.204  27.434  1.00  0.00    -0.237 OA
ATOM     72  O   UNL A   1      34.644  31.198  28.456  1.00  0.00    -0.237 OA
ATOM     73  O   UNL A   1      33.234  33.146  27.992  1.00  0.00    -0.744 OA
ENDBRANCH  67  70
ENDBRANCH  49  63
BRANCH  50  74
ATOM     74  C   UNL A   1      41.767  28.142  27.706  1.00  0.00     0.023 A 
ATOM     75  C   UNL A   1      41.720  28.797  26.458  1.00  0.00     0.012 A 
ATOM     76  C   UNL A   1      42.076  26.762  27.711  1.00  0.00     0.148 A 
ATOM     77  C   UNL A   1      42.007  28.117  25.268  1.00  0.00     0.002 A 
ATOM     78  C   UNL A   1      42.333  26.083  26.521  1.00  0.00     0.091 A 
ATOM     79  F   UNL A   1      42.222  26.125  28.880  1.00  0.00    -0.205 F 
ATOM     80  C   UNL A   1      42.316  26.761  25.299  1.00  0.00     0.022 A 
BRANCH  78  81
ATOM     81  S   UNL A   1      42.715  24.325  26.511  1.00  0.00     0.127 S 
ATOM     82  O   UNL A   1      43.920  24.261  27.339  1.00  0.00    -0.237 OA
ATOM     83  O   UNL A   1      41.522  23.748  27.123  1.00  0.00    -0.237 OA
ATOM     84  O   UNL A   1      42.944  23.989  25.111  1.00  0.00    -0.744 OA
ENDBRANCH  78  81
ENDBRANCH  50  74
BRANCH  62  85
ATOM     85  C   UNL A   1      41.212  29.350  33.906  1.00  0.00     0.023 A 
ATOM     86  C   UNL A   1      41.156  28.152  34.648  1.00  0.00     0.012 A 
ATOM     87  C   UNL A   1      42.453  29.986  33.728  1.00  0.00     0.148 A 
ATOM     88  C   UNL A   1      42.309  27.606  35.213  1.00  0.00     0.002 A 
ATOM     89  C   UNL A   1      43.605  29.419  34.260  1.00  0.00     0.091 A 
ATOM     90  F   UNL A   1      42.487  31.114  33.002  1.00  0.00    -0.205 F 
ATOM     91  C   UNL A   1      43.536  28.232  35.008  1.00  0.00     0.022 A 
BRANCH  89  92
ATOM     92  S   UNL A   1      45.238  30.094  33.937  1.00  0.00     0.127 S 
ATOM     93  O   UNL A   1      46.104  29.153  34.644  1.00  0.00    -0.237 OA
ATOM     94  O   UNL A   1      45.322  30.023  32.478  1.00  0.00    -0.237 OA
ATOM     95  O   UNL A   1      45.228  31.451  34.469  1.00  0.00    -0.744 OA
ENDBRANCH  89  92
ENDBRANCH  62  85
ENDBRANCH  36  37
ENDBRANCH  29  31
ENDBRANCH  28  29
ENDBRANCH  27  28
ENDBRANCH  26  27
ENDBRANCH  25  26
ENDBRANCH  24  25
ENDBRANCH   1  24
TORSDOF 24
ENDMDL
MODEL 3
REMARK VINA RESULT:      -9.3      9.538     13.870
REMARK SMILES O=C(CSc1nc2cccnc2n1CC(F)(F)F)OCCOCCOCCOC(=O)c1ccc(-c2c3nc(c(-c4cccc(S(=O)(=O)[O-])c4F)c4ccc([nH]4)c(-c4cccc(S(=O)(=O)[O-])c4F)c4nc(c(-c5cccc(S(=O)(=O)[O-])c5F)c5ccc2[nH]5)C=C4)C=C3)cc1
REMARK SMILES IDX 23 1 22 2 21 3 20 4 19 5 2 6 1 7 3 8 4 9 5 10 6 11 13 12
REMARK SMILES IDX 7 13 12 14 8 15 11 16 9 17 10 18 14 19 15 20 16 21 17 22
REMARK SMILES IDX 18 23 24 24 25 25 26 26 27 27 28 28 29 29 30 30 31 31 32 32
REMARK SMILES IDX 93 33 33 34 92 35 34 36 35 37 36 38 86 39 37 40 91 41 85 42
REMARK SMILES IDX 87 43 38 44 90 45 84 46 83 47 39 49 71 50 51 51 70 52 52 53
REMARK SMILES IDX 55 54 69 55 88 56 53 57 54 58 68 60 89 61 56 62 40 63 41 64
REMARK SMILES IDX 49 65 42 66 44 67 50 68 43 69 45 70 46 71 47 72 48 73 72 74
REMARK SMILES IDX 73 75 81 76 74 77 76 78 82 79 75 80 77 81 78 82 79 83 80 84
REMARK SMILES IDX 57 85 58 86 66 87 59 88 61 89 67 90 60 91 62 92 63 93 64 94
REMARK SMILES IDX 65 95
REMARK H PARENT 87 48 55 59
REMARK Flexibility Score: inf
ROOT
ATOM      1  C   UNL A   1      41.108  22.151  27.305  1.00  0.00     0.188 C 
ENDROOT
BRANCH   1   2
ATOM      2  O   UNL A   1      40.666  23.374  26.762  1.00  0.00    -0.376 OA
BRANCH   2   3
ATOM      3  C   UNL A   1      39.540  24.048  27.286  1.00  0.00     0.202 C 
BRANCH   3   4
ATOM      4  C   UNL A   1      38.273  24.100  26.426  1.00  0.00     0.261 C 
BRANCH   4   5
ATOM      5  O   UNL A   1      37.505  22.892  26.240  1.00  0.00    -0.463 OA
BRANCH   5   6
ATOM      6  C   UNL A   1      36.231  22.773  25.817  1.00  0.00     0.316 C 
ATOM      7  O   UNL A   1      35.793  21.662  25.518  1.00  0.00    -0.251 OA
BRANCH   6   8
ATOM      8  C   UNL A   1      35.426  24.014  25.528  1.00  0.00     0.200 C 
BRANCH   8   9
ATOM      9  S   UNL A   1      33.753  23.965  26.150  1.00  0.00    -0.076 SA
BRANCH   9  10
ATOM     10  C   UNL A   1      33.151  25.532  25.754  1.00  0.00     0.171 A 
ATOM     11  N   UNL A   1      33.836  26.605  26.085  1.00  0.00    -0.221 NA
ATOM     12  N   UNL A   1      31.977  25.831  25.102  1.00  0.00    -0.294 N 
ATOM     13  C   UNL A   1      33.071  27.652  25.670  1.00  0.00     0.109 A 
ATOM     14  C   UNL A   1      31.923  27.205  25.032  1.00  0.00     0.160 A 
ATOM     15  C   UNL A   1      33.262  29.029  25.798  1.00  0.00     0.034 A 
ATOM     16  N   UNL A   1      30.944  27.955  24.489  1.00  0.00    -0.237 NA
ATOM     17  C   UNL A   1      32.275  29.856  25.262  1.00  0.00     0.022 A 
ATOM     18  C   UNL A   1      31.173  29.282  24.635  1.00  0.00     0.113 A 
BRANCH  12  19
ATOM     19  C   UNL A   1      30.868  24.996  24.694  1.00  0.00     0.241 C 
BRANCH  19  20
ATOM     20  C   UNL A   1      31.071  24.174  23.445  1.00  0.00     0.406 C 
ATOM     21  F   UNL A   1      31.680  22.996  23.691  1.00  0.00    -0.169 F 
ATOM     22  F   UNL A   1      29.867  23.874  22.899  1.00  0.00    -0.169 F 
ATOM     23  F   UNL A   1      31.786  24.829  22.509  1.00  0.00    -0.169 F 
ENDBRANCH  19  20
ENDBRANCH  12  19
ENDBRANCH   9  10
ENDBRANCH   8   9
ENDBRANCH   6   8
ENDBRANCH   5   6
ENDBRANCH   4   5
ENDBRANCH   3   4
ENDBRANCH   2   3
ENDBRANCH   1   2
BRANCH   1  24
ATOM     24  C   UNL A   1      42.637  22.027  27.440  1.00  0.00     0.188 C 
BRANCH  24  25
ATOM     25  O   UNL A   1      43.442  21.529  26.378  1.00  0.00    -0.376 OA
BRANCH  25  26
ATOM     26  C   UNL A   1      43.999  22.389  25.390  1.00  0.00     0.202 C 
BRANCH  26  27
ATOM     27  C   UNL A   1      43.250  23.646  24.942  1.00  0.00     0.261 C 
BRANCH  27  28
ATOM     28  O   UNL A   1      44.072  24.803  24.865  1.00  0.00    -0.460 OA
BRANCH  28  29
ATOM     29  C   UNL A   1      44.364  25.352  26.054  1.00  0.00     0.338 C 
ATOM     30  O   UNL A   1      45.464  25.374  26.609  1.00  0.00    -0.246 OA
BRANCH  29  31
ATOM     31  C   UNL A   1      43.162  25.920  26.667  1.00  0.00     0.060 A 
ATOM     32  C   UNL A   1      42.487  26.884  25.911  1.00  0.00     0.016 A 
ATOM     33  C   UNL A   1      42.995  25.798  28.051  1.00  0.00     0.016 A 
ATOM     34  C   UNL A   1      41.911  27.939  26.578  1.00  0.00     0.010 A 
ATOM     35  C   UNL A   1      42.442  26.865  28.717  1.00  0.00     0.010 A 
ATOM     36  C   UNL A   1      42.033  27.971  27.967  1.00  0.00    -0.014 A 
BRANCH  36  37
ATOM     37  C   UNL A   1      41.990  29.275  28.598  1.00  0.00     0.031 A 
ATOM     38  C   UNL A   1      43.105  30.188  28.305  1.00  0.00     0.074 A 
ATOM     39  C   UNL A   1      40.893  29.655  29.283  1.00  0.00     0.049 A 
ATOM     40  N   UNL A   1      43.955  30.696  29.138  1.00  0.00    -0.248 NA
ATOM     41  C   UNL A   1      43.353  30.510  26.895  1.00  0.00     0.031 C 
ATOM     42  C   UNL A   1      39.595  28.971  29.343  1.00  0.00     0.029 A 
ATOM     43  N   UNL A   1      40.657  30.830  29.926  1.00  0.00    -0.354 N 
ATOM     44  C   UNL A   1      44.741  31.545  28.371  1.00  0.00     0.074 A 
ATOM     45  C   UNL A   1      44.437  31.275  26.987  1.00  0.00     0.031 C 
ATOM     46  C   UNL A   1      38.655  29.854  29.746  1.00  0.00     0.029 A 
ATOM     47  C   UNL A   1      39.303  31.113  30.069  1.00  0.00     0.049 A 
ATOM     48  H   UNL A   1      41.372  31.421  30.257  1.00  0.00     0.167 HD
ATOM     49  C   UNL A   1      45.444  32.582  28.893  1.00  0.00     0.034 A 
ATOM     50  C   UNL A   1      38.772  32.336  30.307  1.00  0.00     0.034 A 
ATOM     51  C   UNL A   1      45.513  32.580  30.319  1.00  0.00     0.049 A 
ATOM     52  C   UNL A   1      39.862  33.190  30.845  1.00  0.00     0.074 A 
ATOM     53  C   UNL A   1      46.041  31.735  31.273  1.00  0.00     0.029 A 
ATOM     54  N   UNL A   1      44.652  33.420  30.983  1.00  0.00    -0.354 N 
ATOM     55  N   UNL A   1      40.437  33.011  32.002  1.00  0.00    -0.248 NA
ATOM     56  C   UNL A   1      40.575  34.060  29.923  1.00  0.00     0.031 C 
ATOM     57  C   UNL A   1      45.159  31.830  32.388  1.00  0.00     0.029 A 
ATOM     58  C   UNL A   1      44.139  32.724  32.046  1.00  0.00     0.049 A 
ATOM     59  H   UNL A   1      44.441  34.349  30.739  1.00  0.00     0.167 HD
ATOM     60  C   UNL A   1      41.755  33.406  31.808  1.00  0.00     0.074 A 
ATOM     61  C   UNL A   1      41.744  34.159  30.559  1.00  0.00     0.031 C 
ATOM     62  C   UNL A   1      42.776  32.844  32.520  1.00  0.00     0.034 A 
BRANCH  49  63
ATOM     63  C   UNL A   1      45.808  33.770  28.067  1.00  0.00     0.023 A 
ATOM     64  C   UNL A   1      44.828  34.721  27.750  1.00  0.00     0.012 A 
ATOM     65  C   UNL A   1      47.081  33.898  27.471  1.00  0.00     0.148 A 
ATOM     66  C   UNL A   1      45.127  35.798  26.907  1.00  0.00     0.002 A 
ATOM     67  C   UNL A   1      47.400  35.015  26.716  1.00  0.00     0.091 A 
ATOM     68  F   UNL A   1      47.960  32.889  27.572  1.00  0.00    -0.205 F 
ATOM     69  C   UNL A   1      46.421  35.963  26.416  1.00  0.00     0.022 A 
BRANCH  67  70
ATOM     70  S   UNL A   1      49.093  35.305  26.201  1.00  0.00     0.127 S 
ATOM     71  O   UNL A   1      48.961  35.340  24.748  1.00  0.00    -0.237 OA
ATOM     72  O   UNL A   1      49.392  36.594  26.829  1.00  0.00    -0.237 OA
ATOM     73  O   UNL A   1      49.841  34.187  26.763  1.00  0.00    -0.744 OA
ENDBRANCH  67  70
ENDBRANCH  49  63
BRANCH  50  74
ATOM     74  C   UNL A   1      37.478  32.904  29.850  1.00  0.00     0.023 A 
ATOM     75  C   UNL A   1      37.052  32.650  28.530  1.00  0.00     0.012 A 
ATOM     76  C   UNL A   1      36.540  33.469  30.745  1.00  0.00     0.148 A 
ATOM     77  C   UNL A   1      35.736  32.909  28.128  1.00  0.00     0.002 A 
ATOM     78  C   UNL A   1      35.239  33.752  30.332  1.00  0.00     0.091 A 
ATOM     79  F   UNL A   1      36.876  33.638  32.030  1.00  0.00    -0.205 F 
ATOM     80  C   UNL A   1      34.828  33.457  29.028  1.00  0.00     0.022 A 
BRANCH  78  81
ATOM     81  S   UNL A   1      34.038  34.481  31.455  1.00  0.00     0.127 S 
ATOM     82  O   UNL A   1      32.950  34.859  30.552  1.00  0.00    -0.237 OA
ATOM     83  O   UNL A   1      33.734  33.366  32.346  1.00  0.00    -0.237 OA
ATOM     84  O   UNL A   1      34.721  35.618  32.062  1.00  0.00    -0.744 OA
ENDBRANCH  78  81
ENDBRANCH  50  74
BRANCH  62  85
ATOM     85  C   UNL A   1      42.421  31.996  33.717  1.00  0.00     0.023 A 
ATOM     86  C   UNL A   1      42.396  30.589  33.631  1.00  0.00     0.012 A 
ATOM     87  C   UNL A   1      42.320  32.606  34.979  1.00  0.00     0.148 A 
ATOM     88  C   UNL A   1      42.261  29.805  34.778  1.00  0.00     0.002 A 
ATOM     89  C   UNL A   1      42.224  31.821  36.122  1.00  0.00     0.091 A 
ATOM     90  F   UNL A   1      42.366  33.945  35.040  1.00  0.00    -0.205 F 
ATOM     91  C   UNL A   1      42.188  30.420  36.025  1.00  0.00     0.022 A 
BRANCH  89  92
ATOM     92  S   UNL A   1      42.251  32.530  37.772  1.00  0.00     0.127 S 
ATOM     93  O   UNL A   1      43.370  33.466  37.685  1.00  0.00    -0.237 OA
ATOM     94  O   UNL A   1      40.934  33.160  37.863  1.00  0.00    -0.237 OA
ATOM     95  O   UNL A   1      42.443  31.414  38.690  1.00  0.00    -0.744 OA
ENDBRANCH  89  92
ENDBRANCH  62  85
ENDBRANCH  36  37
ENDBRANCH  29  31
ENDBRANCH  28  29
ENDBRANCH  27  28
ENDBRANCH  26  27
ENDBRANCH  25  26
ENDBRANCH  24  25
ENDBRANCH   1  24
TORSDOF 24
ENDMDL
