MODEL 1
REMARK VINA RESULT:     -11.8      0.000      0.000
REMARK SMILES O=C(OCCOCCOCCOC(=O)c1ccc(-c2c3nc(c(-c4cccc(S(=O)(=O)[O-])c4F)c4ccc([nH]4)c(-c4cccc(S(=O)(=O)[O-])c4F)c4nc(c(-c5cccc(S(=O)(=O)[O-])c5F)c5ccc2[nH]5)C=C4)C=C3)cc1)C1=Cc2cc(Cl)c(Cl)cc2O[C@@H]1C(F)(F)F
REMARK SMILES IDX 8 1 7 2 6 3 5 4 4 5 3 6 2 7 1 8 78 9 79 10 89 11 80 12 88 13
REMARK SMILES IDX 81 14 87 15 82 16 86 17 83 18 84 19 85 20 90 21 91 22 92 23
REMARK SMILES IDX 93 24 9 25 10 26 11 27 12 28 13 29 14 30 15 31 16 32 77 33
REMARK SMILES IDX 17 34 76 35 18 36 19 37 20 38 70 39 21 40 75 41 69 42 71 43
REMARK SMILES IDX 22 44 74 45 68 46 67 47 23 49 55 50 35 51 54 52 36 53 39 54
REMARK SMILES IDX 53 55 72 56 37 57 38 58 52 60 73 61 40 62 24 63 25 64 33 65
REMARK SMILES IDX 26 66 28 67 34 68 27 69 29 70 30 71 31 72 32 73 56 74 57 75
REMARK SMILES IDX 65 76 58 77 60 78 66 79 59 80 61 81 62 82 63 83 64 84 41 85
REMARK SMILES IDX 42 86 50 87 43 88 45 89 51 90 44 91 46 92 47 93 48 94 49 95
REMARK H PARENT 71 48 39 59
REMARK Flexibility Score: inf
ROOT
ATOM      1  C   UNL A   1      42.264  22.129  25.742  1.00  0.00     0.188 C 
ENDROOT
BRANCH   1   2
ATOM      2  C   UNL A   1      40.954  21.519  26.265  1.00  0.00     0.188 C 
BRANCH   2   3
ATOM      3  O   UNL A   1      40.045  22.267  27.182  1.00  0.00    -0.376 OA
BRANCH   3   4
ATOM      4  C   UNL A   1      39.127  23.691  26.843  1.00  0.00     0.202 C 
BRANCH   4   5
ATOM      5  C   UNL A   1      37.102  23.687  26.061  1.00  0.00     0.261 C 
BRANCH   5   6
ATOM      6  O   UNL A   1      36.205  22.478  25.886  1.00  0.00    -0.460 OA
BRANCH   6   7
ATOM      7  C   UNL A   1      34.930  22.836  25.672  1.00  0.00     0.338 C 
ATOM      8  O   UNL A   1      34.155  23.279  26.483  1.00  0.00    -0.246 OA
BRANCH   7   9
ATOM      9  C   UNL A   1      34.716  22.037  24.471  1.00  0.00     0.087 C 
ATOM     10  C   UNL A   1      35.391  20.741  24.416  1.00  0.00     0.027 C 
ATOM     11  C   UNL A   1      32.814  22.269  24.565  1.00  0.00     0.316 C 
ATOM     12  C   UNL A   1      34.589  19.165  24.740  1.00  0.00     0.019 A 
ATOM     13  O   UNL A   1      31.940  20.606  25.097  1.00  0.00    -0.475 OA
ATOM     14  C   UNL A   1      35.331  18.018  24.768  1.00  0.00     0.034 A 
ATOM     15  C   UNL A   1      32.910  19.053  25.131  1.00  0.00     0.129 A 
ATOM     16  C   UNL A   1      34.614  16.843  25.082  1.00  0.00     0.060 A 
ATOM     17  C   UNL A   1      32.272  17.878  25.411  1.00  0.00     0.069 A 
ATOM     18  Cl  UNL A   1      35.595  15.398  25.119  1.00  0.00    -0.083 Cl
ATOM     19  C   UNL A   1      33.169  16.775  25.374  1.00  0.00     0.063 A 
ATOM     20  Cl  UNL A   1      32.458  15.217  25.712  1.00  0.00    -0.083 Cl
BRANCH  11  21
ATOM     21  C   UNL A   1      32.756  23.160  23.135  1.00  0.00     0.430 C 
ATOM     22  F   UNL A   1      33.794  23.895  22.734  1.00  0.00    -0.167 F 
ATOM     23  F   UNL A   1      32.449  22.323  22.112  1.00  0.00    -0.167 F 
ATOM     24  F   UNL A   1      31.733  24.068  23.169  1.00  0.00    -0.167 F 
ENDBRANCH  11  21
ENDBRANCH   7   9
ENDBRANCH   6   7
ENDBRANCH   5   6
ENDBRANCH   4   5
ENDBRANCH   3   4
ENDBRANCH   2   3
ENDBRANCH   1   2
BRANCH   1  25
ATOM     25  O   UNL A   1      43.472  21.458  26.004  1.00  0.00    -0.376 OA
BRANCH  25  26
ATOM     26  C   UNL A   1      44.453  21.566  24.979  1.00  0.00     0.202 C 
BRANCH  26  27
ATOM     27  C   UNL A   1      45.597  22.581  25.171  1.00  0.00     0.261 C 
BRANCH  27  28
ATOM     28  O   UNL A   1      45.335  23.607  26.157  1.00  0.00    -0.460 OA
BRANCH  28  29
ATOM     29  C   UNL A   1      44.984  24.842  25.709  1.00  0.00     0.338 C 
ATOM     30  O   UNL A   1      45.176  25.298  24.595  1.00  0.00    -0.246 OA
BRANCH  29  31
ATOM     31  C   UNL A   1      44.183  25.539  26.740  1.00  0.00     0.060 A 
ATOM     32  C   UNL A   1      44.377  26.912  26.972  1.00  0.00     0.016 A 
ATOM     33  C   UNL A   1      43.267  24.823  27.509  1.00  0.00     0.016 A 
ATOM     34  C   UNL A   1      43.613  27.580  27.936  1.00  0.00     0.010 A 
ATOM     35  C   UNL A   1      42.546  25.480  28.509  1.00  0.00     0.010 A 
ATOM     36  C   UNL A   1      42.715  26.859  28.732  1.00  0.00    -0.014 A 
BRANCH  36  37
ATOM     37  C   UNL A   1      42.114  27.476  29.942  1.00  0.00     0.031 A 
ATOM     38  C   UNL A   1      40.764  28.122  29.799  1.00  0.00     0.074 A 
ATOM     39  C   UNL A   1      42.768  27.532  31.117  1.00  0.00     0.049 A 
ATOM     40  N   UNL A   1      40.084  28.825  30.662  1.00  0.00    -0.248 NA
ATOM     41  C   UNL A   1      40.098  27.959  28.495  1.00  0.00     0.031 C 
ATOM     42  C   UNL A   1      44.073  26.936  31.386  1.00  0.00     0.029 A 
ATOM     43  N   UNL A   1      42.433  28.158  32.295  1.00  0.00    -0.354 N 
ATOM     44  C   UNL A   1      38.934  29.230  29.996  1.00  0.00     0.074 A 
ATOM     45  C   UNL A   1      39.001  28.682  28.659  1.00  0.00     0.031 C 
ATOM     46  C   UNL A   1      44.450  27.258  32.637  1.00  0.00     0.029 A 
ATOM     47  C   UNL A   1      43.433  28.118  33.242  1.00  0.00     0.049 A 
ATOM     48  H   UNL A   1      41.563  28.592  32.448  1.00  0.00     0.167 HD
ATOM     49  C   UNL A   1      37.920  29.999  30.452  1.00  0.00     0.034 A 
ATOM     50  C   UNL A   1      43.533  28.740  34.436  1.00  0.00     0.034 A 
ATOM     51  C   UNL A   1      37.863  30.554  31.774  1.00  0.00     0.049 A 
ATOM     52  C   UNL A   1      42.402  29.627  34.905  1.00  0.00     0.074 A 
ATOM     53  C   UNL A   1      36.848  31.299  32.347  1.00  0.00     0.029 A 
ATOM     54  N   UNL A   1      38.876  30.463  32.716  1.00  0.00    -0.354 N 
ATOM     55  N   UNL A   1      41.264  29.898  34.312  1.00  0.00    -0.248 NA
ATOM     56  C   UNL A   1      42.560  30.279  36.215  1.00  0.00     0.031 C 
ATOM     57  C   UNL A   1      37.276  31.716  33.609  1.00  0.00     0.029 A 
ATOM     58  C   UNL A   1      38.526  31.169  33.852  1.00  0.00     0.049 A 
ATOM     59  H   UNL A   1      39.718  29.969  32.593  1.00  0.00     0.167 HD
ATOM     60  C   UNL A   1      40.561  30.721  35.188  1.00  0.00     0.074 A 
ATOM     61  C   UNL A   1      41.390  30.887  36.362  1.00  0.00     0.031 C 
ATOM     62  C   UNL A   1      39.343  31.294  35.031  1.00  0.00     0.034 A 
BRANCH  49  63
ATOM     63  C   UNL A   1      36.799  30.318  29.499  1.00  0.00     0.023 A 
ATOM     64  C   UNL A   1      36.098  29.281  28.852  1.00  0.00     0.012 A 
ATOM     65  C   UNL A   1      36.406  31.654  29.295  1.00  0.00     0.148 A 
ATOM     66  C   UNL A   1      35.042  29.573  27.990  1.00  0.00     0.002 A 
ATOM     67  C   UNL A   1      35.319  31.934  28.478  1.00  0.00     0.091 A 
ATOM     68  F   UNL A   1      37.102  32.625  29.904  1.00  0.00    -0.205 F 
ATOM     69  C   UNL A   1      34.645  30.897  27.814  1.00  0.00     0.022 A 
BRANCH  67  70
ATOM     70  S   UNL A   1      34.681  33.597  28.254  1.00  0.00     0.127 S 
ATOM     71  O   UNL A   1      33.303  33.331  27.843  1.00  0.00    -0.237 OA
ATOM     72  O   UNL A   1      34.819  34.158  29.597  1.00  0.00    -0.237 OA
ATOM     73  O   UNL A   1      35.520  34.221  27.240  1.00  0.00    -0.744 OA
ENDBRANCH  67  70
ENDBRANCH  49  63
BRANCH  50  74
ATOM     74  C   UNL A   1      44.759  28.580  35.275  1.00  0.00     0.023 A 
ATOM     75  C   UNL A   1      45.881  29.403  35.049  1.00  0.00     0.012 A 
ATOM     76  C   UNL A   1      44.828  27.594  36.279  1.00  0.00     0.148 A 
ATOM     77  C   UNL A   1      47.058  29.218  35.775  1.00  0.00     0.002 A 
ATOM     78  C   UNL A   1      45.981  27.458  37.043  1.00  0.00     0.091 A 
ATOM     79  F   UNL A   1      43.761  26.805  36.467  1.00  0.00    -0.205 F 
ATOM     80  C   UNL A   1      47.106  28.254  36.778  1.00  0.00     0.022 A 
BRANCH  78  81
ATOM     81  S   UNL A   1      46.090  26.324  38.432  1.00  0.00     0.127 S 
ATOM     82  O   UNL A   1      45.194  26.950  39.401  1.00  0.00    -0.237 OA
ATOM     83  O   UNL A   1      45.590  25.080  37.845  1.00  0.00    -0.237 OA
ATOM     84  O   UNL A   1      47.496  26.289  38.808  1.00  0.00    -0.744 OA
ENDBRANCH  78  81
ENDBRANCH  50  74
BRANCH  62  85
ATOM     85  C   UNL A   1      38.791  32.118  36.167  1.00  0.00     0.023 A 
ATOM     86  C   UNL A   1      38.944  33.519  36.171  1.00  0.00     0.012 A 
ATOM     87  C   UNL A   1      38.028  31.503  37.181  1.00  0.00     0.148 A 
ATOM     88  C   UNL A   1      38.370  34.289  37.182  1.00  0.00     0.002 A 
ATOM     89  C   UNL A   1      37.415  32.282  38.153  1.00  0.00     0.091 A 
ATOM     90  F   UNL A   1      37.902  30.167  37.163  1.00  0.00    -0.205 F 
ATOM     91  C   UNL A   1      37.595  33.674  38.163  1.00  0.00     0.022 A 
BRANCH  89  92
ATOM     92  S   UNL A   1      36.319  31.591  39.396  1.00  0.00     0.127 S 
ATOM     93  O   UNL A   1      35.186  32.514  39.339  1.00  0.00    -0.237 OA
ATOM     94  O   UNL A   1      36.046  30.258  38.860  1.00  0.00    -0.237 OA
ATOM     95  O   UNL A   1      37.063  31.604  40.648  1.00  0.00    -0.744 OA
ENDBRANCH  89  92
ENDBRANCH  62  85
ENDBRANCH  36  37
ENDBRANCH  29  31
ENDBRANCH  28  29
ENDBRANCH  27  28
ENDBRANCH  26  27
ENDBRANCH  25  26
ENDBRANCH   1  25
TORSDOF 21
ENDMDL
MODEL 2
REMARK VINA RESULT:     -11.2      5.582     11.257
REMARK SMILES O=C(OCCOCCOCCOC(=O)c1ccc(-c2c3nc(c(-c4cccc(S(=O)(=O)[O-])c4F)c4ccc([nH]4)c(-c4cccc(S(=O)(=O)[O-])c4F)c4nc(c(-c5cccc(S(=O)(=O)[O-])c5F)c5ccc2[nH]5)C=C4)C=C3)cc1)C1=Cc2cc(Cl)c(Cl)cc2O[C@@H]1C(F)(F)F
REMARK SMILES IDX 8 1 7 2 6 3 5 4 4 5 3 6 2 7 1 8 78 9 79 10 89 11 80 12 88 13
REMARK SMILES IDX 81 14 87 15 82 16 86 17 83 18 84 19 85 20 90 21 91 22 92 23
REMARK SMILES IDX 93 24 9 25 10 26 11 27 12 28 13 29 14 30 15 31 16 32 77 33
REMARK SMILES IDX 17 34 76 35 18 36 19 37 20 38 70 39 21 40 75 41 69 42 71 43
REMARK SMILES IDX 22 44 74 45 68 46 67 47 23 49 55 50 35 51 54 52 36 53 39 54
REMARK SMILES IDX 53 55 72 56 37 57 38 58 52 60 73 61 40 62 24 63 25 64 33 65
REMARK SMILES IDX 26 66 28 67 34 68 27 69 29 70 30 71 31 72 32 73 56 74 57 75
REMARK SMILES IDX 65 76 58 77 60 78 66 79 59 80 61 81 62 82 63 83 64 84 41 85
REMARK SMILES IDX 42 86 50 87 43 88 45 89 51 90 44 91 46 92 47 93 48 94 49 95
REMARK H PARENT 71 48 39 59
REMARK Flexibility Score: inf
ROOT
ATOM      1  C   UNL A   1      43.322  21.418  25.781  1.00  0.00     0.188 C 
ENDROOT
BRANCH   1   2
ATOM      2  C   UNL A   1      43.794  22.562  24.869  1.00  0.00     0.188 C 
BRANCH   2   3
ATOM      3  O   UNL A   1      43.432  23.985  25.135  1.00  0.00    -0.376 OA
BRANCH   3   4
ATOM      4  C   UNL A   1      44.494  25.325  25.383  1.00  0.00     0.202 C 
BRANCH   4   5
ATOM      5  C   UNL A   1      43.865  27.403  25.392  1.00  0.00     0.261 C 
BRANCH   5   6
ATOM      6  O   UNL A   1      44.722  28.603  25.737  1.00  0.00    -0.460 OA
BRANCH   6   7
ATOM      7  C   UNL A   1      44.272  29.233  26.833  1.00  0.00     0.338 C 
ATOM      8  O   UNL A   1      43.169  29.153  27.314  1.00  0.00    -0.246 OA
BRANCH   7   9
ATOM      9  C   UNL A   1      45.248  30.317  26.832  1.00  0.00     0.087 C 
ATOM     10  C   UNL A   1      44.812  31.592  26.265  1.00  0.00     0.027 C 
ATOM     11  C   UNL A   1      45.670  30.037  28.683  1.00  0.00     0.316 C 
ATOM     12  C   UNL A   1      44.301  33.014  27.240  1.00  0.00     0.019 A 
ATOM     13  O   UNL A   1      44.960  31.487  29.781  1.00  0.00    -0.475 OA
ATOM     14  C   UNL A   1      43.809  34.125  26.614  1.00  0.00     0.034 A 
ATOM     15  C   UNL A   1      44.306  32.992  28.967  1.00  0.00     0.129 A 
ATOM     16  C   UNL A   1      43.389  35.164  27.472  1.00  0.00     0.060 A 
ATOM     17  C   UNL A   1      43.899  34.041  29.741  1.00  0.00     0.069 A 
ATOM     18  Cl  UNL A   1      42.756  36.564  26.641  1.00  0.00    -0.083 Cl
ATOM     19  C   UNL A   1      43.441  35.130  28.947  1.00  0.00     0.063 A 
ATOM     20  Cl  UNL A   1      42.901  36.532  29.835  1.00  0.00    -0.083 Cl
BRANCH  11  21
ATOM     21  C   UNL A   1      47.250  29.554  28.348  1.00  0.00     0.430 C 
ATOM     22  F   UNL A   1      47.977  30.162  27.410  1.00  0.00    -0.167 F 
ATOM     23  F   UNL A   1      47.973  29.601  29.495  1.00  0.00    -0.167 F 
ATOM     24  F   UNL A   1      47.286  28.242  27.959  1.00  0.00    -0.167 F 
ENDBRANCH  11  21
ENDBRANCH   7   9
ENDBRANCH   6   7
ENDBRANCH   5   6
ENDBRANCH   4   5
ENDBRANCH   3   4
ENDBRANCH   2   3
ENDBRANCH   1   2
BRANCH   1  25
ATOM     25  O   UNL A   1      42.001  20.953  25.652  1.00  0.00    -0.376 OA
BRANCH  25  26
ATOM     26  C   UNL A   1      41.272  20.873  26.871  1.00  0.00     0.202 C 
BRANCH  26  27
ATOM     27  C   UNL A   1      40.280  22.006  27.202  1.00  0.00     0.261 C 
BRANCH  27  28
ATOM     28  O   UNL A   1      39.508  22.481  26.074  1.00  0.00    -0.460 OA
BRANCH  28  29
ATOM     29  C   UNL A   1      38.550  23.417  26.310  1.00  0.00     0.338 C 
ATOM     30  O   UNL A   1      37.362  23.330  26.051  1.00  0.00    -0.246 OA
BRANCH  29  31
ATOM     31  C   UNL A   1      39.128  24.541  27.080  1.00  0.00     0.060 A 
ATOM     32  C   UNL A   1      38.679  24.804  28.385  1.00  0.00     0.016 A 
ATOM     33  C   UNL A   1      40.088  25.363  26.493  1.00  0.00     0.016 A 
ATOM     34  C   UNL A   1      39.230  25.858  29.123  1.00  0.00     0.010 A 
ATOM     35  C   UNL A   1      40.597  26.449  27.211  1.00  0.00     0.010 A 
ATOM     36  C   UNL A   1      40.171  26.706  28.527  1.00  0.00    -0.014 A 
BRANCH  36  37
ATOM     37  C   UNL A   1      40.552  27.986  29.175  1.00  0.00     0.031 A 
ATOM     38  C   UNL A   1      41.824  28.013  29.976  1.00  0.00     0.074 A 
ATOM     39  C   UNL A   1      39.765  29.077  29.121  1.00  0.00     0.049 A 
ATOM     40  N   UNL A   1      42.312  28.961  30.728  1.00  0.00    -0.248 NA
ATOM     41  C   UNL A   1      42.650  26.794  29.929  1.00  0.00     0.031 C 
ATOM     42  C   UNL A   1      38.517  29.182  28.370  1.00  0.00     0.029 A 
ATOM     43  N   UNL A   1      39.886  30.296  29.746  1.00  0.00    -0.354 N 
ATOM     44  C   UNL A   1      43.475  28.441  31.281  1.00  0.00     0.074 A 
ATOM     45  C   UNL A   1      43.627  27.097  30.768  1.00  0.00     0.031 C 
ATOM     46  C   UNL A   1      37.963  30.385  28.610  1.00  0.00     0.029 A 
ATOM     47  C   UNL A   1      38.796  31.118  29.564  1.00  0.00     0.049 A 
ATOM     48  H   UNL A   1      40.675  30.556  30.274  1.00  0.00     0.167 HD
ATOM     49  C   UNL A   1      44.332  29.024  32.149  1.00  0.00     0.034 A 
ATOM     50  C   UNL A   1      38.486  32.301  30.136  1.00  0.00     0.034 A 
ATOM     51  C   UNL A   1      44.171  30.353  32.669  1.00  0.00     0.049 A 
ATOM     52  C   UNL A   1      39.442  32.913  31.134  1.00  0.00     0.074 A 
ATOM     53  C   UNL A   1      45.017  31.052  33.510  1.00  0.00     0.029 A 
ATOM     54  N   UNL A   1      43.074  31.167  32.435  1.00  0.00    -0.354 N 
ATOM     55  N   UNL A   1      40.601  32.463  31.551  1.00  0.00    -0.248 NA
ATOM     56  C   UNL A   1      39.059  34.205  31.725  1.00  0.00     0.031 C 
ATOM     57  C   UNL A   1      44.400  32.261  33.838  1.00  0.00     0.029 A 
ATOM     58  C   UNL A   1      43.205  32.347  33.144  1.00  0.00     0.049 A 
ATOM     59  H   UNL A   1      42.315  30.939  31.850  1.00  0.00     0.167 HD
ATOM     60  C   UNL A   1      41.096  33.427  32.425  1.00  0.00     0.074 A 
ATOM     61  C   UNL A   1      40.124  34.498  32.460  1.00  0.00     0.031 C 
ATOM     62  C   UNL A   1      42.248  33.424  33.139  1.00  0.00     0.034 A 
BRANCH  49  63
ATOM     63  C   UNL A   1      45.510  28.215  32.623  1.00  0.00     0.023 A 
ATOM     64  C   UNL A   1      46.753  28.316  31.967  1.00  0.00     0.012 A 
ATOM     65  C   UNL A   1      45.390  27.396  33.762  1.00  0.00     0.148 A 
ATOM     66  C   UNL A   1      47.852  27.588  32.421  1.00  0.00     0.002 A 
ATOM     67  C   UNL A   1      46.501  26.716  34.239  1.00  0.00     0.091 A 
ATOM     68  F   UNL A   1      44.192  27.298  34.355  1.00  0.00    -0.205 F 
ATOM     69  C   UNL A   1      47.729  26.800  33.563  1.00  0.00     0.022 A 
BRANCH  67  70
ATOM     70  S   UNL A   1      46.466  25.742  35.747  1.00  0.00     0.127 S 
ATOM     71  O   UNL A   1      47.772  25.087  35.705  1.00  0.00    -0.237 OA
ATOM     72  O   UNL A   1      46.336  26.777  36.772  1.00  0.00    -0.237 OA
ATOM     73  O   UNL A   1      45.320  24.851  35.628  1.00  0.00    -0.744 OA
ENDBRANCH  67  70
ENDBRANCH  49  63
BRANCH  50  74
ATOM     74  C   UNL A   1      37.199  32.988  29.811  1.00  0.00     0.023 A 
ATOM     75  C   UNL A   1      36.868  33.267  28.469  1.00  0.00     0.012 A 
ATOM     76  C   UNL A   1      36.313  33.391  30.829  1.00  0.00     0.148 A 
ATOM     77  C   UNL A   1      35.705  33.971  28.154  1.00  0.00     0.002 A 
ATOM     78  C   UNL A   1      35.126  34.035  30.505  1.00  0.00     0.091 A 
ATOM     79  F   UNL A   1      36.653  33.138  32.102  1.00  0.00    -0.205 F 
ATOM     80  C   UNL A   1      34.829  34.345  29.169  1.00  0.00     0.022 A 
BRANCH  78  81
ATOM     81  S   UNL A   1      33.885  34.448  31.736  1.00  0.00     0.127 S 
ATOM     82  O   UNL A   1      33.682  33.163  32.401  1.00  0.00    -0.237 OA
ATOM     83  O   UNL A   1      34.580  35.454  32.539  1.00  0.00    -0.237 OA
ATOM     84  O   UNL A   1      32.740  34.958  30.993  1.00  0.00    -0.744 OA
ENDBRANCH  78  81
ENDBRANCH  50  74
BRANCH  62  85
ATOM     85  C   UNL A   1      42.565  34.628  33.988  1.00  0.00     0.023 A 
ATOM     86  C   UNL A   1      43.332  35.688  33.464  1.00  0.00     0.012 A 
ATOM     87  C   UNL A   1      42.010  34.750  35.279  1.00  0.00     0.148 A 
ATOM     88  C   UNL A   1      43.564  36.836  34.222  1.00  0.00     0.002 A 
ATOM     89  C   UNL A   1      42.199  35.918  36.005  1.00  0.00     0.091 A 
ATOM     90  F   UNL A   1      41.290  33.726  35.762  1.00  0.00    -0.205 F 
ATOM     91  C   UNL A   1      42.987  36.956  35.484  1.00  0.00     0.022 A 
BRANCH  89  92
ATOM     92  S   UNL A   1      41.415  36.205  37.595  1.00  0.00     0.127 S 
ATOM     93  O   UNL A   1      42.190  37.334  38.108  1.00  0.00    -0.237 OA
ATOM     94  O   UNL A   1      40.043  36.532  37.207  1.00  0.00    -0.237 OA
ATOM     95  O   UNL A   1      41.557  34.967  38.349  1.00  0.00    -0.744 OA
ENDBRANCH  89  92
ENDBRANCH  62  85
ENDBRANCH  36  37
ENDBRANCH  29  31
ENDBRANCH  28  29
ENDBRANCH  27  28
ENDBRANCH  26  27
ENDBRANCH  25  26
ENDBRANCH   1  25
TORSDOF 21
ENDMDL
MODEL 3
REMARK VINA RESULT:     -10.9      6.597     10.794
REMARK SMILES O=C(OCCOCCOCCOC(=O)c1ccc(-c2c3nc(c(-c4cccc(S(=O)(=O)[O-])c4F)c4ccc([nH]4)c(-c4cccc(S(=O)(=O)[O-])c4F)c4nc(c(-c5cccc(S(=O)(=O)[O-])c5F)c5ccc2[nH]5)C=C4)C=C3)cc1)C1=Cc2cc(Cl)c(Cl)cc2O[C@@H]1C(F)(F)F
REMARK SMILES IDX 8 1 7 2 6 3 5 4 4 5 3 6 2 7 1 8 78 9 79 10 89 11 80 12 88 13
REMARK SMILES IDX 81 14 87 15 82 16 86 17 83 18 84 19 85 20 90 21 91 22 92 23
REMARK SMILES IDX 93 24 9 25 10 26 11 27 12 28 13 29 14 30 15 31 16 32 77 33
REMARK SMILES IDX 17 34 76 35 18 36 19 37 20 38 70 39 21 40 75 41 69 42 71 43
REMARK SMILES IDX 22 44 74 45 68 46 67 47 23 49 55 50 35 51 54 52 36 53 39 54
REMARK SMILES IDX 53 55 72 56 37 57 38 58 52 60 73 61 40 62 24 63 25 64 33 65
REMARK SMILES IDX 26 66 28 67 34 68 27 69 29 70 30 71 31 72 32 73 56 74 57 75
REMARK SMILES IDX 65 76 58 77 60 78 66 79 59 80 61 81 62 82 63 83 64 84 41 85
REMARK SMILES IDX 42 86 50 87 43 88 45 89 51 90 44 91 46 92 47 93 48 94 49 95
REMARK H PARENT 71 48 39 59
REMARK Flexibility Score: inf
ROOT
ATOM      1  C   UNL A   1      46.423  40.390  26.157  1.00  0.00     0.188 C 
ENDROOT
BRANCH   1   2
ATOM      2  C   UNL A   1      47.362  39.182  26.011  1.00  0.00     0.188 C 
BRANCH   2   3
ATOM      3  O   UNL A   1      46.860  37.834  25.612  1.00  0.00    -0.376 OA
BRANCH   3   4
ATOM      4  C   UNL A   1      46.754  36.408  26.581  1.00  0.00     0.202 C 
BRANCH   4   5
ATOM      5  C   UNL A   1      45.957  34.511  25.888  1.00  0.00     0.261 C 
BRANCH   5   6
ATOM      6  O   UNL A   1      45.905  33.215  26.670  1.00  0.00    -0.460 OA
BRANCH   6   7
ATOM      7  C   UNL A   1      45.030  32.350  26.135  1.00  0.00     0.338 C 
ATOM      8  O   UNL A   1      44.214  32.581  25.277  1.00  0.00    -0.246 OA
BRANCH   7   9
ATOM      9  C   UNL A   1      45.029  31.391  27.233  1.00  0.00     0.087 C 
ATOM     10  C   UNL A   1      43.733  31.082  27.834  1.00  0.00     0.027 C 
ATOM     11  C   UNL A   1      46.092  30.140  26.239  1.00  0.00     0.316 C 
ATOM     12  C   UNL A   1      42.780  29.597  27.486  1.00  0.00     0.019 A 
ATOM     13  O   UNL A   1      45.021  28.602  25.693  1.00  0.00    -0.475 OA
ATOM     14  C   UNL A   1      41.530  29.451  28.018  1.00  0.00     0.034 A 
ATOM     15  C   UNL A   1      43.347  28.377  26.401  1.00  0.00     0.129 A 
ATOM     16  C   UNL A   1      40.848  28.274  27.641  1.00  0.00     0.060 A 
ATOM     17  C   UNL A   1      42.640  27.251  26.090  1.00  0.00     0.069 A 
ATOM     18  Cl  UNL A   1      39.249  28.125  28.329  1.00  0.00    -0.083 Cl
ATOM     19  C   UNL A   1      41.375  27.230  26.740  1.00  0.00     0.063 A 
ATOM     20  Cl  UNL A   1      40.387  25.828  26.417  1.00  0.00    -0.083 Cl
BRANCH  11  21
ATOM     21  C   UNL A   1      47.406  30.278  27.287  1.00  0.00     0.430 C 
ATOM     22  F   UNL A   1      47.270  30.811  28.503  1.00  0.00    -0.167 F 
ATOM     23  F   UNL A   1      47.959  29.051  27.456  1.00  0.00    -0.167 F 
ATOM     24  F   UNL A   1      48.396  31.040  26.729  1.00  0.00    -0.167 F 
ENDBRANCH  11  21
ENDBRANCH   7   9
ENDBRANCH   6   7
ENDBRANCH   5   6
ENDBRANCH   4   5
ENDBRANCH   3   4
ENDBRANCH   2   3
ENDBRANCH   1   2
BRANCH   1  25
ATOM     25  O   UNL A   1      45.384  40.553  25.223  1.00  0.00    -0.376 OA
BRANCH  25  26
ATOM     26  C   UNL A   1      44.559  41.692  25.437  1.00  0.00     0.202 C 
BRANCH  26  27
ATOM     27  C   UNL A   1      43.038  41.475  25.567  1.00  0.00     0.261 C 
BRANCH  27  28
ATOM     28  O   UNL A   1      42.658  40.223  26.186  1.00  0.00    -0.460 OA
BRANCH  28  29
ATOM     29  C   UNL A   1      42.580  40.185  27.543  1.00  0.00     0.338 C 
ATOM     30  O   UNL A   1      42.170  41.068  28.278  1.00  0.00    -0.246 OA
BRANCH  29  31
ATOM     31  C   UNL A   1      42.937  38.833  28.027  1.00  0.00     0.060 A 
ATOM     32  C   UNL A   1      42.955  37.748  27.134  1.00  0.00     0.016 A 
ATOM     33  C   UNL A   1      43.212  38.630  29.378  1.00  0.00     0.016 A 
ATOM     34  C   UNL A   1      43.304  36.469  27.583  1.00  0.00     0.010 A 
ATOM     35  C   UNL A   1      43.506  37.342  29.835  1.00  0.00     0.010 A 
ATOM     36  C   UNL A   1      43.551  36.254  28.944  1.00  0.00    -0.014 A 
BRANCH  36  37
ATOM     37  C   UNL A   1      43.636  34.875  29.489  1.00  0.00     0.031 A 
ATOM     38  C   UNL A   1      42.347  34.141  29.732  1.00  0.00     0.074 A 
ATOM     39  C   UNL A   1      44.810  34.311  29.829  1.00  0.00     0.049 A 
ATOM     40  N   UNL A   1      42.146  32.985  30.305  1.00  0.00    -0.248 NA
ATOM     41  C   UNL A   1      41.118  34.810  29.274  1.00  0.00     0.031 C 
ATOM     42  C   UNL A   1      46.125  34.914  29.634  1.00  0.00     0.029 A 
ATOM     43  N   UNL A   1      45.077  33.113  30.450  1.00  0.00    -0.354 N 
ATOM     44  C   UNL A   1      40.768  32.810  30.321  1.00  0.00     0.074 A 
ATOM     45  C   UNL A   1      40.182  33.970  29.688  1.00  0.00     0.031 C 
ATOM     46  C   UNL A   1      47.060  34.104  30.162  1.00  0.00     0.029 A 
ATOM     47  C   UNL A   1      46.406  32.944  30.770  1.00  0.00     0.049 A 
ATOM     48  H   UNL A   1      44.385  32.442  30.648  1.00  0.00     0.167 HD
ATOM     49  C   UNL A   1      40.053  31.780  30.829  1.00  0.00     0.034 A 
ATOM     50  C   UNL A   1      47.015  31.991  31.507  1.00  0.00     0.034 A 
ATOM     51  C   UNL A   1      40.636  30.636  31.471  1.00  0.00     0.049 A 
ATOM     52  C   UNL A   1      46.188  30.872  32.097  1.00  0.00     0.074 A 
ATOM     53  C   UNL A   1      39.997  29.514  31.967  1.00  0.00     0.029 A 
ATOM     54  N   UNL A   1      41.986  30.484  31.745  1.00  0.00    -0.354 N 
ATOM     55  N   UNL A   1      44.898  30.655  31.996  1.00  0.00    -0.248 NA
ATOM     56  C   UNL A   1      46.900  29.857  32.889  1.00  0.00     0.031 C 
ATOM     57  C   UNL A   1      40.951  28.716  32.601  1.00  0.00     0.029 A 
ATOM     58  C   UNL A   1      42.195  29.304  32.436  1.00  0.00     0.049 A 
ATOM     59  H   UNL A   1      42.690  31.120  31.486  1.00  0.00     0.167 HD
ATOM     60  C   UNL A   1      44.653  29.467  32.678  1.00  0.00     0.074 A 
ATOM     61  C   UNL A   1      45.930  28.997  33.172  1.00  0.00     0.031 C 
ATOM     62  C   UNL A   1      43.477  28.826  32.886  1.00  0.00     0.034 A 
BRANCH  49  63
ATOM     63  C   UNL A   1      38.552  31.858  30.743  1.00  0.00     0.023 A 
ATOM     64  C   UNL A   1      37.862  31.186  29.715  1.00  0.00     0.012 A 
ATOM     65  C   UNL A   1      37.826  32.557  31.727  1.00  0.00     0.148 A 
ATOM     66  C   UNL A   1      36.470  31.235  29.650  1.00  0.00     0.002 A 
ATOM     67  C   UNL A   1      36.439  32.556  31.686  1.00  0.00     0.091 A 
ATOM     68  F   UNL A   1      38.506  33.207  32.682  1.00  0.00    -0.205 F 
ATOM     69  C   UNL A   1      35.760  31.908  30.642  1.00  0.00     0.022 A 
BRANCH  67  70
ATOM     70  S   UNL A   1      35.433  33.324  32.960  1.00  0.00     0.127 S 
ATOM     71  O   UNL A   1      34.086  32.934  32.547  1.00  0.00    -0.237 OA
ATOM     72  O   UNL A   1      35.916  32.657  34.169  1.00  0.00    -0.237 OA
ATOM     73  O   UNL A   1      35.714  34.751  32.895  1.00  0.00    -0.744 OA
ENDBRANCH  67  70
ENDBRANCH  49  63
BRANCH  50  74
ATOM     74  C   UNL A   1      48.486  32.052  31.762  1.00  0.00     0.023 A 
ATOM     75  C   UNL A   1      49.384  31.458  30.852  1.00  0.00     0.012 A 
ATOM     76  C   UNL A   1      48.997  32.673  32.918  1.00  0.00     0.148 A 
ATOM     77  C   UNL A   1      50.756  31.444  31.112  1.00  0.00     0.002 A 
ATOM     78  C   UNL A   1      50.369  32.712  33.139  1.00  0.00     0.091 A 
ATOM     79  F   UNL A   1      48.129  33.213  33.784  1.00  0.00    -0.205 F 
ATOM     80  C   UNL A   1      51.249  32.079  32.248  1.00  0.00     0.022 A 
BRANCH  78  81
ATOM     81  S   UNL A   1      51.100  33.609  34.512  1.00  0.00     0.127 S 
ATOM     82  O   UNL A   1      52.406  32.966  34.630  1.00  0.00    -0.237 OA
ATOM     83  O   UNL A   1      51.131  34.977  33.995  1.00  0.00    -0.237 OA
ATOM     84  O   UNL A   1      50.199  33.413  35.640  1.00  0.00    -0.744 OA
ENDBRANCH  78  81
ENDBRANCH  50  74
BRANCH  62  85
ATOM     85  C   UNL A   1      43.499  27.518  33.635  1.00  0.00     0.023 A 
ATOM     86  C   UNL A   1      43.893  26.332  32.984  1.00  0.00     0.012 A 
ATOM     87  C   UNL A   1      43.225  27.489  35.017  1.00  0.00     0.148 A 
ATOM     88  C   UNL A   1      43.985  25.134  33.693  1.00  0.00     0.002 A 
ATOM     89  C   UNL A   1      43.373  26.306  35.727  1.00  0.00     0.091 A 
ATOM     90  F   UNL A   1      42.843  28.628  35.615  1.00  0.00    -0.205 F 
ATOM     91  C   UNL A   1      43.740  25.124  35.065  1.00  0.00     0.022 A 
BRANCH  89  92
ATOM     92  S   UNL A   1      43.175  26.216  37.510  1.00  0.00     0.127 S 
ATOM     93  O   UNL A   1      43.728  24.894  37.803  1.00  0.00    -0.237 OA
ATOM     94  O   UNL A   1      43.996  27.336  37.967  1.00  0.00    -0.237 OA
ATOM     95  O   UNL A   1      41.749  26.359  37.769  1.00  0.00    -0.744 OA
ENDBRANCH  89  92
ENDBRANCH  62  85
ENDBRANCH  36  37
ENDBRANCH  29  31
ENDBRANCH  28  29
ENDBRANCH  27  28
ENDBRANCH  26  27
ENDBRANCH  25  26
ENDBRANCH   1  25
TORSDOF 21
ENDMDL
