MODEL 1
REMARK VINA RESULT:      -9.7      0.000      0.000
REMARK SMILES CC(=O)NS(=O)(=O)c1ccc(-c2ccn(C(F)F)c(=O)c2)cc1C(=O)OCCOCCOCCOC(=O)c1ccc(-c2c3nc(c(-c4cccc(S(=O)(=O)[O-])c4F)c4ccc([nH]4)c(-c4cccc(S(=O)(=O)[O-])c4F)c4nc(c(-c5cccc(S(=O)(=O)[O-])c5F)c5ccc2[nH]5)C=C4)C=C3)cc1
REMARK SMILES IDX 31 1 30 2 29 3 28 4 27 5 26 6 24 7 25 8 23 9 8 10 9 11 10 12
REMARK SMILES IDX 22 13 11 14 5 15 6 16 7 17 4 18 1 19 2 20 3 21 12 23 13 24
REMARK SMILES IDX 21 25 14 26 19 27 15 28 20 29 16 30 17 31 18 32 32 33 33 34
REMARK SMILES IDX 34 35 35 36 36 37 37 38 38 39 39 40 100 41 40 42 99 43 41 44
REMARK SMILES IDX 42 45 43 46 93 47 44 48 98 49 92 50 94 51 45 52 97 53 91 54
REMARK SMILES IDX 90 55 46 57 78 58 58 59 77 60 59 61 62 62 76 63 95 64 60 65
REMARK SMILES IDX 61 66 75 68 96 69 63 70 47 71 48 72 56 73 49 74 51 75 57 76
REMARK SMILES IDX 50 77 52 78 53 79 54 80 55 81 79 82 80 83 88 84 81 85 83 86
REMARK SMILES IDX 89 87 82 88 84 89 85 90 86 91 87 92 64 93 65 94 73 95 66 96
REMARK SMILES IDX 68 97 74 98 67 99 69 100 70 101 71 102 72 103
REMARK H PARENT 4 22 94 56 62 67
REMARK Flexibility Score: inf
ROOT
ATOM      1  C   UNL A   1      37.530  22.449  25.199  1.00  0.00     0.188 C 
ENDROOT
BRANCH   1   2
ATOM      2  C   UNL A   1      36.593  21.304  25.591  1.00  0.00     0.188 C 
BRANCH   2   3
ATOM      3  O   UNL A   1      35.302  21.672  26.056  1.00  0.00    -0.376 OA
BRANCH   3   4
ATOM      4  C   UNL A   1      34.595  22.646  25.292  1.00  0.00     0.202 C 
BRANCH   4   5
ATOM      5  C   UNL A   1      33.815  23.706  26.084  1.00  0.00     0.261 C 
BRANCH   5   6
ATOM      6  O   UNL A   1      33.259  24.767  25.277  1.00  0.00    -0.460 OA
BRANCH   6   7
ATOM      7  C   UNL A   1      32.283  25.484  25.886  1.00  0.00     0.339 C 
ATOM      8  O   UNL A   1      31.477  25.079  26.708  1.00  0.00    -0.246 OA
BRANCH   7   9
ATOM      9  C   UNL A   1      32.339  26.923  25.556  1.00  0.00     0.081 A 
ATOM     10  C   UNL A   1      31.574  27.533  24.561  1.00  0.00     0.102 A 
ATOM     11  C   UNL A   1      31.473  28.934  24.508  1.00  0.00     0.024 A 
ATOM     12  C   UNL A   1      32.221  29.728  25.371  1.00  0.00     0.010 A 
ATOM     13  C   UNL A   1      33.099  27.736  26.422  1.00  0.00     0.025 A 
ATOM     14  C   UNL A   1      33.067  29.134  26.311  1.00  0.00    -0.017 A 
BRANCH  10  15
ATOM     15  S   UNL A   1      30.780  26.617  23.279  1.00  0.00     0.264 S 
ATOM     16  O   UNL A   1      30.351  27.558  22.261  1.00  0.00    -0.201 OA
ATOM     17  O   UNL A   1      29.842  25.698  23.866  1.00  0.00    -0.201 OA
BRANCH  15  18
ATOM     18  N   UNL A   1      32.042  25.738  22.633  1.00  0.00    -0.249 N 
ATOM     19  C   UNL A   1      33.805  27.399  22.102  1.00  0.00     0.115 C 
ATOM     20  C   UNL A   1      32.937  26.246  21.675  1.00  0.00     0.230 C 
ATOM     21  O   UNL A   1      33.093  25.656  20.615  1.00  0.00    -0.274 OA
ATOM     22  H   UNL A   1      32.167  24.810  22.939  1.00  0.00     0.183 HD
ENDBRANCH  15  18
ENDBRANCH  10  15
BRANCH  14  23
ATOM     23  C   UNL A   1      33.897  29.991  27.170  1.00  0.00    -0.011 A 
ATOM     24  C   UNL A   1      33.535  31.354  27.507  1.00  0.00     0.027 A 
ATOM     25  C   UNL A   1      35.016  29.462  27.692  1.00  0.00     0.080 A 
ATOM     26  C   UNL A   1      34.322  32.090  28.302  1.00  0.00     0.095 A 
ATOM     27  C   UNL A   1      35.886  30.257  28.603  1.00  0.00     0.255 A 
ATOM     28  N   UNL A   1      35.484  31.562  28.835  1.00  0.00    -0.258 N 
ATOM     29  O   UNL A   1      36.871  29.707  29.084  1.00  0.00    -0.269 OA
BRANCH  28  30
ATOM     30  C   UNL A   1      36.334  32.367  29.679  1.00  0.00     0.451 C 
ATOM     31  F   UNL A   1      36.404  31.838  30.926  1.00  0.00    -0.185 F 
ATOM     32  F   UNL A   1      37.593  32.422  29.179  1.00  0.00    -0.185 F 
ENDBRANCH  28  30
ENDBRANCH  14  23
ENDBRANCH   7   9
ENDBRANCH   6   7
ENDBRANCH   5   6
ENDBRANCH   4   5
ENDBRANCH   3   4
ENDBRANCH   2   3
ENDBRANCH   1   2
BRANCH   1  33
ATOM     33  O   UNL A   1      38.182  23.103  26.283  1.00  0.00    -0.376 OA
BRANCH  33  34
ATOM     34  C   UNL A   1      39.552  22.745  26.501  1.00  0.00     0.202 C 
BRANCH  34  35
ATOM     35  C   UNL A   1      40.393  23.671  27.396  1.00  0.00     0.261 C 
BRANCH  35  36
ATOM     36  O   UNL A   1      40.010  25.060  27.344  1.00  0.00    -0.460 OA
BRANCH  36  37
ATOM     37  C   UNL A   1      40.750  25.899  26.580  1.00  0.00     0.338 C 
ATOM     38  O   UNL A   1      40.900  25.850  25.372  1.00  0.00    -0.246 OA
BRANCH  37  39
ATOM     39  C   UNL A   1      41.122  27.069  27.416  1.00  0.00     0.060 A 
ATOM     40  C   UNL A   1      40.841  28.352  26.921  1.00  0.00     0.016 A 
ATOM     41  C   UNL A   1      41.649  26.917  28.702  1.00  0.00     0.016 A 
ATOM     42  C   UNL A   1      41.119  29.478  27.697  1.00  0.00     0.010 A 
ATOM     43  C   UNL A   1      41.924  28.044  29.477  1.00  0.00     0.010 A 
ATOM     44  C   UNL A   1      41.687  29.332  28.968  1.00  0.00    -0.014 A 
BRANCH  44  45
ATOM     45  C   UNL A   1      42.199  30.518  29.692  1.00  0.00     0.031 A 
ATOM     46  C   UNL A   1      41.289  31.198  30.678  1.00  0.00     0.074 A 
ATOM     47  C   UNL A   1      43.439  30.995  29.479  1.00  0.00     0.049 A 
ATOM     48  N   UNL A   1      41.509  32.256  31.412  1.00  0.00    -0.248 NA
ATOM     49  C   UNL A   1      39.956  30.601  30.861  1.00  0.00     0.031 C 
ATOM     50  C   UNL A   1      44.416  30.435  28.548  1.00  0.00     0.029 A 
ATOM     51  N   UNL A   1      44.074  32.087  30.020  1.00  0.00    -0.354 N 
ATOM     52  C   UNL A   1      40.336  32.467  32.126  1.00  0.00     0.074 A 
ATOM     53  C   UNL A   1      39.405  31.434  31.730  1.00  0.00     0.031 C 
ATOM     54  C   UNL A   1      45.516  31.210  28.556  1.00  0.00     0.029 A 
ATOM     55  C   UNL A   1      45.313  32.329  29.474  1.00  0.00     0.049 A 
ATOM     56  H   UNL A   1      43.679  32.644  30.730  1.00  0.00     0.167 HD
ATOM     57  C   UNL A   1      40.060  33.424  33.042  1.00  0.00     0.034 A 
ATOM     58  C   UNL A   1      46.170  33.351  29.675  1.00  0.00     0.034 A 
ATOM     59  C   UNL A   1      40.980  34.451  33.444  1.00  0.00     0.049 A 
ATOM     60  C   UNL A   1      45.822  34.431  30.670  1.00  0.00     0.074 A 
ATOM     61  C   UNL A   1      40.805  35.432  34.402  1.00  0.00     0.029 A 
ATOM     62  N   UNL A   1      42.237  34.644  32.897  1.00  0.00    -0.354 N 
ATOM     63  N   UNL A   1      44.767  34.535  31.442  1.00  0.00    -0.248 NA
ATOM     64  C   UNL A   1      46.799  35.518  30.844  1.00  0.00     0.031 C 
ATOM     65  C   UNL A   1      41.951  36.235  34.420  1.00  0.00     0.029 A 
ATOM     66  C   UNL A   1      42.848  35.736  33.488  1.00  0.00     0.049 A 
ATOM     67  H   UNL A   1      42.638  34.087  32.191  1.00  0.00     0.167 HD
ATOM     68  C   UNL A   1      44.968  35.676  32.213  1.00  0.00     0.074 A 
ATOM     69  C   UNL A   1      46.255  36.217  31.831  1.00  0.00     0.031 C 
ATOM     70  C   UNL A   1      44.154  36.234  33.143  1.00  0.00     0.034 A 
BRANCH  57  71
ATOM     71  C   UNL A   1      38.707  33.382  33.695  1.00  0.00     0.023 A 
ATOM     72  C   UNL A   1      38.569  32.794  34.969  1.00  0.00     0.012 A 
ATOM     73  C   UNL A   1      37.584  33.953  33.068  1.00  0.00     0.148 A 
ATOM     74  C   UNL A   1      37.327  32.752  35.599  1.00  0.00     0.002 A 
ATOM     75  C   UNL A   1      36.357  33.943  33.720  1.00  0.00     0.091 A 
ATOM     76  F   UNL A   1      37.732  34.477  31.843  1.00  0.00    -0.205 F 
ATOM     77  C   UNL A   1      36.225  33.335  34.979  1.00  0.00     0.022 A 
BRANCH  75  78
ATOM     78  S   UNL A   1      34.896  34.727  33.033  1.00  0.00     0.127 S 
ATOM     79  O   UNL A   1      33.835  33.842  33.511  1.00  0.00    -0.237 OA
ATOM     80  O   UNL A   1      34.924  36.045  33.669  1.00  0.00    -0.237 OA
ATOM     81  O   UNL A   1      35.095  34.746  31.590  1.00  0.00    -0.744 OA
ENDBRANCH  75  78
ENDBRANCH  57  71
BRANCH  58  82
ATOM     82  C   UNL A   1      47.463  33.399  28.937  1.00  0.00     0.023 A 
ATOM     83  C   UNL A   1      48.577  32.700  29.440  1.00  0.00     0.012 A 
ATOM     84  C   UNL A   1      47.595  34.134  27.744  1.00  0.00     0.148 A 
ATOM     85  C   UNL A   1      49.807  32.756  28.782  1.00  0.00     0.002 A 
ATOM     86  C   UNL A   1      48.808  34.145  27.066  1.00  0.00     0.091 A 
ATOM     87  F   UNL A   1      46.527  34.810  27.295  1.00  0.00    -0.205 F 
ATOM     88  C   UNL A   1      49.920  33.469  27.592  1.00  0.00     0.022 A 
BRANCH  86  89
ATOM     89  S   UNL A   1      49.012  34.944  25.471  1.00  0.00     0.127 S 
ATOM     90  O   UNL A   1      49.097  36.352  25.850  1.00  0.00    -0.237 OA
ATOM     91  O   UNL A   1      50.265  34.355  24.997  1.00  0.00    -0.237 OA
ATOM     92  O   UNL A   1      47.840  34.568  24.693  1.00  0.00    -0.744 OA
ENDBRANCH  86  89
ENDBRANCH  58  82
BRANCH  70  93
ATOM     93  C   UNL A   1      44.634  37.475  33.852  1.00  0.00     0.023 A 
ATOM     94  C   UNL A   1      45.396  37.358  35.032  1.00  0.00     0.012 A 
ATOM     95  C   UNL A   1      44.408  38.752  33.300  1.00  0.00     0.148 A 
ATOM     96  C   UNL A   1      45.902  38.493  35.664  1.00  0.00     0.002 A 
ATOM     97  C   UNL A   1      44.954  39.875  33.910  1.00  0.00     0.091 A 
ATOM     98  F   UNL A   1      43.665  38.845  32.188  1.00  0.00    -0.205 F 
ATOM     99  C   UNL A   1      45.694  39.749  35.098  1.00  0.00     0.022 A 
BRANCH  97 100
ATOM    100  S   UNL A   1      44.819  41.518  33.195  1.00  0.00     0.127 S 
ATOM    101  O   UNL A   1      43.384  41.772  33.304  1.00  0.00    -0.237 OA
ATOM    102  O   UNL A   1      45.651  42.319  34.092  1.00  0.00    -0.237 OA
ATOM    103  O   UNL A   1      45.335  41.405  31.838  1.00  0.00    -0.744 OA
ENDBRANCH  97 100
ENDBRANCH  70  93
ENDBRANCH  44  45
ENDBRANCH  37  39
ENDBRANCH  36  37
ENDBRANCH  35  36
ENDBRANCH  34  35
ENDBRANCH  33  34
ENDBRANCH   1  33
TORSDOF 24
ENDMDL
MODEL 2
REMARK VINA RESULT:      -9.5      1.412      7.287
REMARK SMILES CC(=O)NS(=O)(=O)c1ccc(-c2ccn(C(F)F)c(=O)c2)cc1C(=O)OCCOCCOCCOC(=O)c1ccc(-c2c3nc(c(-c4cccc(S(=O)(=O)[O-])c4F)c4ccc([nH]4)c(-c4cccc(S(=O)(=O)[O-])c4F)c4nc(c(-c5cccc(S(=O)(=O)[O-])c5F)c5ccc2[nH]5)C=C4)C=C3)cc1
REMARK SMILES IDX 31 1 30 2 29 3 28 4 27 5 26 6 24 7 25 8 23 9 8 10 9 11 10 12
REMARK SMILES IDX 22 13 11 14 5 15 6 16 7 17 4 18 1 19 2 20 3 21 12 23 13 24
REMARK SMILES IDX 21 25 14 26 19 27 15 28 20 29 16 30 17 31 18 32 32 33 33 34
REMARK SMILES IDX 34 35 35 36 36 37 37 38 38 39 39 40 100 41 40 42 99 43 41 44
REMARK SMILES IDX 42 45 43 46 93 47 44 48 98 49 92 50 94 51 45 52 97 53 91 54
REMARK SMILES IDX 90 55 46 57 78 58 58 59 77 60 59 61 62 62 76 63 95 64 60 65
REMARK SMILES IDX 61 66 75 68 96 69 63 70 47 71 48 72 56 73 49 74 51 75 57 76
REMARK SMILES IDX 50 77 52 78 53 79 54 80 55 81 79 82 80 83 88 84 81 85 83 86
REMARK SMILES IDX 89 87 82 88 84 89 85 90 86 91 87 92 64 93 65 94 73 95 66 96
REMARK SMILES IDX 68 97 74 98 67 99 69 100 70 101 71 102 72 103
REMARK H PARENT 4 22 94 56 62 67
REMARK Flexibility Score: inf
ROOT
ATOM      1  C   UNL A   1      37.400  23.698  25.733  1.00  0.00     0.188 C 
ENDROOT
BRANCH   1   2
ATOM      2  C   UNL A   1      36.979  22.227  25.720  1.00  0.00     0.188 C 
BRANCH   2   3
ATOM      3  O   UNL A   1      35.596  21.961  25.910  1.00  0.00    -0.376 OA
BRANCH   3   4
ATOM      4  C   UNL A   1      34.679  22.747  25.155  1.00  0.00     0.202 C 
BRANCH   4   5
ATOM      5  C   UNL A   1      33.732  23.655  25.954  1.00  0.00     0.261 C 
BRANCH   5   6
ATOM      6  O   UNL A   1      33.141  24.727  25.188  1.00  0.00    -0.460 OA
BRANCH   6   7
ATOM      7  C   UNL A   1      32.222  25.460  25.862  1.00  0.00     0.339 C 
ATOM      8  O   UNL A   1      31.452  25.063  26.723  1.00  0.00    -0.246 OA
BRANCH   7   9
ATOM      9  C   UNL A   1      32.301  26.903  25.552  1.00  0.00     0.081 A 
ATOM     10  C   UNL A   1      31.542  27.540  24.570  1.00  0.00     0.102 A 
ATOM     11  C   UNL A   1      31.465  28.943  24.538  1.00  0.00     0.024 A 
ATOM     12  C   UNL A   1      32.230  29.712  25.408  1.00  0.00     0.010 A 
ATOM     13  C   UNL A   1      33.079  27.690  26.426  1.00  0.00     0.025 A 
ATOM     14  C   UNL A   1      33.070  29.090  26.335  1.00  0.00    -0.017 A 
BRANCH  10  15
ATOM     15  S   UNL A   1      30.726  26.656  23.279  1.00  0.00     0.264 S 
ATOM     16  O   UNL A   1      30.308  27.619  22.278  1.00  0.00    -0.201 OA
ATOM     17  O   UNL A   1      29.776  25.743  23.858  1.00  0.00    -0.201 OA
BRANCH  15  18
ATOM     18  N   UNL A   1      31.971  25.767  22.613  1.00  0.00    -0.249 N 
ATOM     19  C   UNL A   1      33.814  27.382  22.236  1.00  0.00     0.115 C 
ATOM     20  C   UNL A   1      32.914  26.294  21.714  1.00  0.00     0.230 C 
ATOM     21  O   UNL A   1      33.078  25.765  20.623  1.00  0.00    -0.274 OA
ATOM     22  H   UNL A   1      32.050  24.817  22.864  1.00  0.00     0.183 HD
ENDBRANCH  15  18
ENDBRANCH  10  15
BRANCH  14  23
ATOM     23  C   UNL A   1      33.918  29.921  27.203  1.00  0.00    -0.011 A 
ATOM     24  C   UNL A   1      35.194  29.468  27.722  1.00  0.00     0.027 A 
ATOM     25  C   UNL A   1      33.499  31.165  27.486  1.00  0.00     0.080 A 
ATOM     26  C   UNL A   1      35.933  30.268  28.502  1.00  0.00     0.095 A 
ATOM     27  C   UNL A   1      34.324  32.078  28.326  1.00  0.00     0.255 A 
ATOM     28  N   UNL A   1      35.507  31.547  28.812  1.00  0.00    -0.258 N 
ATOM     29  O   UNL A   1      33.911  33.218  28.515  1.00  0.00    -0.269 OA
BRANCH  28  30
ATOM     30  C   UNL A   1      36.303  32.396  29.665  1.00  0.00     0.451 C 
ATOM     31  F   UNL A   1      37.356  31.707  30.172  1.00  0.00    -0.185 F 
ATOM     32  F   UNL A   1      36.792  33.452  28.970  1.00  0.00    -0.185 F 
ENDBRANCH  28  30
ENDBRANCH  14  23
ENDBRANCH   7   9
ENDBRANCH   6   7
ENDBRANCH   5   6
ENDBRANCH   4   5
ENDBRANCH   3   4
ENDBRANCH   2   3
ENDBRANCH   1   2
BRANCH   1  33
ATOM     33  O   UNL A   1      38.293  24.068  26.778  1.00  0.00    -0.376 OA
BRANCH  33  34
ATOM     34  C   UNL A   1      39.634  23.578  26.664  1.00  0.00     0.202 C 
BRANCH  34  35
ATOM     35  C   UNL A   1      40.777  24.577  26.910  1.00  0.00     0.261 C 
BRANCH  35  36
ATOM     36  O   UNL A   1      41.119  25.386  25.767  1.00  0.00    -0.460 OA
BRANCH  36  37
ATOM     37  C   UNL A   1      42.391  25.840  25.662  1.00  0.00     0.338 C 
ATOM     38  O   UNL A   1      43.233  25.481  24.857  1.00  0.00    -0.246 OA
BRANCH  37  39
ATOM     39  C   UNL A   1      42.512  27.058  26.503  1.00  0.00     0.060 A 
ATOM     40  C   UNL A   1      41.781  28.196  26.128  1.00  0.00     0.016 A 
ATOM     41  C   UNL A   1      43.251  27.062  27.690  1.00  0.00     0.016 A 
ATOM     42  C   UNL A   1      41.819  29.344  26.920  1.00  0.00     0.010 A 
ATOM     43  C   UNL A   1      43.285  28.210  28.482  1.00  0.00     0.010 A 
ATOM     44  C   UNL A   1      42.592  29.367  28.087  1.00  0.00    -0.014 A 
BRANCH  44  45
ATOM     45  C   UNL A   1      42.823  30.646  28.799  1.00  0.00     0.031 A 
ATOM     46  C   UNL A   1      43.998  31.488  28.385  1.00  0.00     0.074 A 
ATOM     47  C   UNL A   1      42.019  31.053  29.798  1.00  0.00     0.049 A 
ATOM     48  N   UNL A   1      44.407  32.630  28.870  1.00  0.00    -0.248 NA
ATOM     49  C   UNL A   1      44.815  30.975  27.273  1.00  0.00     0.031 C 
ATOM     50  C   UNL A   1      40.853  30.328  30.300  1.00  0.00     0.029 A 
ATOM     51  N   UNL A   1      42.087  32.174  30.589  1.00  0.00    -0.354 N 
ATOM     52  C   UNL A   1      45.543  32.961  28.142  1.00  0.00     0.074 A 
ATOM     53  C   UNL A   1      45.763  31.896  27.188  1.00  0.00     0.031 C 
ATOM     54  C   UNL A   1      40.337  31.006  31.341  1.00  0.00     0.029 A 
ATOM     55  C   UNL A   1      41.145  32.199  31.591  1.00  0.00     0.049 A 
ATOM     56  H   UNL A   1      42.749  32.891  30.454  1.00  0.00     0.167 HD
ATOM     57  C   UNL A   1      46.326  34.060  28.242  1.00  0.00     0.034 A 
ATOM     58  C   UNL A   1      40.973  33.070  32.606  1.00  0.00     0.034 A 
ATOM     59  C   UNL A   1      46.112  35.124  29.183  1.00  0.00     0.049 A 
ATOM     60  C   UNL A   1      41.886  34.266  32.724  1.00  0.00     0.074 A 
ATOM     61  C   UNL A   1      46.826  36.300  29.323  1.00  0.00     0.029 A 
ATOM     62  N   UNL A   1      45.129  35.132  30.157  1.00  0.00    -0.354 N 
ATOM     63  N   UNL A   1      42.868  34.638  31.938  1.00  0.00    -0.248 NA
ATOM     64  C   UNL A   1      41.647  35.179  33.853  1.00  0.00     0.031 C 
ATOM     65  C   UNL A   1      46.285  37.013  30.399  1.00  0.00     0.029 A 
ATOM     66  C   UNL A   1      45.220  36.288  30.912  1.00  0.00     0.049 A 
ATOM     67  H   UNL A   1      44.462  34.421  30.293  1.00  0.00     0.167 HD
ATOM     68  C   UNL A   1      43.340  35.840  32.456  1.00  0.00     0.074 A 
ATOM     69  C   UNL A   1      42.523  36.146  33.612  1.00  0.00     0.031 C 
ATOM     70  C   UNL A   1      44.366  36.614  32.024  1.00  0.00     0.034 A 
BRANCH  57  71
ATOM     71  C   UNL A   1      47.476  34.175  27.282  1.00  0.00     0.023 A 
ATOM     72  C   UNL A   1      47.307  34.891  26.079  1.00  0.00     0.012 A 
ATOM     73  C   UNL A   1      48.729  33.610  27.583  1.00  0.00     0.148 A 
ATOM     74  C   UNL A   1      48.362  35.020  25.178  1.00  0.00     0.002 A 
ATOM     75  C   UNL A   1      49.787  33.777  26.698  1.00  0.00     0.091 A 
ATOM     76  F   UNL A   1      48.857  32.906  28.717  1.00  0.00    -0.205 F 
ATOM     77  C   UNL A   1      49.602  34.473  25.491  1.00  0.00     0.022 A 
BRANCH  75  78
ATOM     78  S   UNL A   1      51.439  33.168  27.046  1.00  0.00     0.127 S 
ATOM     79  O   UNL A   1      51.770  33.899  28.268  1.00  0.00    -0.237 OA
ATOM     80  O   UNL A   1      51.206  31.735  27.235  1.00  0.00    -0.237 OA
ATOM     81  O   UNL A   1      52.241  33.503  25.877  1.00  0.00    -0.744 OA
ENDBRANCH  75  78
ENDBRANCH  57  71
BRANCH  58  82
ATOM     82  C   UNL A   1      39.873  32.866  33.589  1.00  0.00     0.023 A 
ATOM     83  C   UNL A   1      40.138  32.199  34.801  1.00  0.00     0.012 A 
ATOM     84  C   UNL A   1      38.568  33.325  33.329  1.00  0.00     0.148 A 
ATOM     85  C   UNL A   1      39.116  31.968  35.722  1.00  0.00     0.002 A 
ATOM     86  C   UNL A   1      37.566  33.137  34.273  1.00  0.00     0.091 A 
ATOM     87  F   UNL A   1      38.333  33.939  32.160  1.00  0.00    -0.205 F 
ATOM     88  C   UNL A   1      37.834  32.445  35.464  1.00  0.00     0.022 A 
BRANCH  86  89
ATOM     89  S   UNL A   1      35.915  33.815  34.073  1.00  0.00     0.127 S 
ATOM     90  O   UNL A   1      35.404  33.768  35.440  1.00  0.00    -0.237 OA
ATOM     91  O   UNL A   1      36.200  35.158  33.565  1.00  0.00    -0.237 OA
ATOM     92  O   UNL A   1      35.247  32.942  33.118  1.00  0.00    -0.744 OA
ENDBRANCH  86  89
ENDBRANCH  58  82
BRANCH  70  93
ATOM     93  C   UNL A   1      44.652  37.892  32.769  1.00  0.00     0.023 A 
ATOM     94  C   UNL A   1      45.567  37.891  33.840  1.00  0.00     0.012 A 
ATOM     95  C   UNL A   1      44.082  39.112  32.349  1.00  0.00     0.148 A 
ATOM     96  C   UNL A   1      45.890  39.077  34.499  1.00  0.00     0.002 A 
ATOM     97  C   UNL A   1      44.445  40.297  32.980  1.00  0.00     0.091 A 
ATOM     98  F   UNL A   1      43.199  39.091  31.340  1.00  0.00    -0.205 F 
ATOM     99  C   UNL A   1      45.341  40.281  34.061  1.00  0.00     0.022 A 
BRANCH  97 100
ATOM    100  S   UNL A   1      43.862  41.900  32.417  1.00  0.00     0.127 S 
ATOM    101  O   UNL A   1      44.802  42.806  33.076  1.00  0.00    -0.237 OA
ATOM    102  O   UNL A   1      44.025  41.802  30.967  1.00  0.00    -0.237 OA
ATOM    103  O   UNL A   1      42.479  42.000  32.861  1.00  0.00    -0.744 OA
ENDBRANCH  97 100
ENDBRANCH  70  93
ENDBRANCH  44  45
ENDBRANCH  37  39
ENDBRANCH  36  37
ENDBRANCH  35  36
ENDBRANCH  34  35
ENDBRANCH  33  34
ENDBRANCH   1  33
TORSDOF 24
ENDMDL
MODEL 3
REMARK VINA RESULT:      -9.2      4.483      7.284
REMARK SMILES CC(=O)NS(=O)(=O)c1ccc(-c2ccn(C(F)F)c(=O)c2)cc1C(=O)OCCOCCOCCOC(=O)c1ccc(-c2c3nc(c(-c4cccc(S(=O)(=O)[O-])c4F)c4ccc([nH]4)c(-c4cccc(S(=O)(=O)[O-])c4F)c4nc(c(-c5cccc(S(=O)(=O)[O-])c5F)c5ccc2[nH]5)C=C4)C=C3)cc1
REMARK SMILES IDX 31 1 30 2 29 3 28 4 27 5 26 6 24 7 25 8 23 9 8 10 9 11 10 12
REMARK SMILES IDX 22 13 11 14 5 15 6 16 7 17 4 18 1 19 2 20 3 21 12 23 13 24
REMARK SMILES IDX 21 25 14 26 19 27 15 28 20 29 16 30 17 31 18 32 32 33 33 34
REMARK SMILES IDX 34 35 35 36 36 37 37 38 38 39 39 40 100 41 40 42 99 43 41 44
REMARK SMILES IDX 42 45 43 46 93 47 44 48 98 49 92 50 94 51 45 52 97 53 91 54
REMARK SMILES IDX 90 55 46 57 78 58 58 59 77 60 59 61 62 62 76 63 95 64 60 65
REMARK SMILES IDX 61 66 75 68 96 69 63 70 47 71 48 72 56 73 49 74 51 75 57 76
REMARK SMILES IDX 50 77 52 78 53 79 54 80 55 81 79 82 80 83 88 84 81 85 83 86
REMARK SMILES IDX 89 87 82 88 84 89 85 90 86 91 87 92 64 93 65 94 73 95 66 96
REMARK SMILES IDX 68 97 74 98 67 99 69 100 70 101 71 102 72 103
REMARK H PARENT 4 22 94 56 62 67
REMARK Flexibility Score: inf
ROOT
ATOM      1  C   UNL A   1      39.171  23.242  26.600  1.00  0.00     0.188 C 
ENDROOT
BRANCH   1   2
ATOM      2  C   UNL A   1      37.882  23.889  26.087  1.00  0.00     0.188 C 
BRANCH   2   3
ATOM      3  O   UNL A   1      36.874  23.008  25.614  1.00  0.00    -0.376 OA
BRANCH   3   4
ATOM      4  C   UNL A   1      36.266  23.334  24.367  1.00  0.00     0.202 C 
BRANCH   4   5
ATOM      5  C   UNL A   1      35.231  24.468  24.384  1.00  0.00     0.261 C 
BRANCH   5   6
ATOM      6  O   UNL A   1      34.614  24.735  23.106  1.00  0.00    -0.460 OA
BRANCH   6   7
ATOM      7  C   UNL A   1      33.259  24.732  23.123  1.00  0.00     0.339 C 
ATOM      8  O   UNL A   1      32.512  25.311  22.349  1.00  0.00    -0.246 OA
BRANCH   7   9
ATOM      9  C   UNL A   1      32.700  23.819  24.141  1.00  0.00     0.081 A 
ATOM     10  C   UNL A   1      31.670  24.153  25.020  1.00  0.00     0.102 A 
ATOM     11  C   UNL A   1      31.009  23.149  25.749  1.00  0.00     0.024 A 
ATOM     12  C   UNL A   1      31.448  21.830  25.689  1.00  0.00     0.010 A 
ATOM     13  C   UNL A   1      33.142  22.480  24.093  1.00  0.00     0.025 A 
ATOM     14  C   UNL A   1      32.540  21.493  24.887  1.00  0.00    -0.017 A 
BRANCH  10  15
ATOM     15  S   UNL A   1      31.201  25.824  25.341  1.00  0.00     0.264 S 
ATOM     16  O   UNL A   1      32.409  26.628  25.359  1.00  0.00    -0.201 OA
ATOM     17  O   UNL A   1      30.286  25.853  26.451  1.00  0.00    -0.201 OA
BRANCH  15  18
ATOM     18  N   UNL A   1      30.363  26.232  23.957  1.00  0.00    -0.249 N 
ATOM     19  C   UNL A   1      30.391  28.710  23.869  1.00  0.00     0.115 C 
ATOM     20  C   UNL A   1      29.621  27.417  23.814  1.00  0.00     0.230 C 
ATOM     21  O   UNL A   1      28.440  27.362  23.502  1.00  0.00    -0.274 OA
ATOM     22  H   UNL A   1      30.388  25.605  23.197  1.00  0.00     0.183 HD
ENDBRANCH  15  18
ENDBRANCH  10  15
BRANCH  14  23
ATOM     23  C   UNL A   1      33.028  20.106  24.887  1.00  0.00    -0.011 A 
ATOM     24  C   UNL A   1      32.141  18.960  24.937  1.00  0.00     0.027 A 
ATOM     25  C   UNL A   1      34.353  19.905  24.796  1.00  0.00     0.080 A 
ATOM     26  C   UNL A   1      32.635  17.716  24.925  1.00  0.00     0.095 A 
ATOM     27  C   UNL A   1      34.918  18.527  24.751  1.00  0.00     0.255 A 
ATOM     28  N   UNL A   1      33.998  17.495  24.846  1.00  0.00    -0.258 N 
ATOM     29  O   UNL A   1      36.131  18.407  24.623  1.00  0.00    -0.269 OA
BRANCH  28  30
ATOM     30  C   UNL A   1      34.524  16.152  24.849  1.00  0.00     0.451 C 
ATOM     31  F   UNL A   1      33.629  15.293  25.400  1.00  0.00    -0.185 F 
ATOM     32  F   UNL A   1      34.778  15.732  23.585  1.00  0.00    -0.185 F 
ENDBRANCH  28  30
ENDBRANCH  14  23
ENDBRANCH   7   9
ENDBRANCH   6   7
ENDBRANCH   5   6
ENDBRANCH   4   5
ENDBRANCH   3   4
ENDBRANCH   2   3
ENDBRANCH   1   2
BRANCH   1  33
ATOM     33  O   UNL A   1      39.097  21.840  26.838  1.00  0.00    -0.376 OA
BRANCH  33  34
ATOM     34  C   UNL A   1      39.232  20.998  25.687  1.00  0.00     0.202 C 
BRANCH  34  35
ATOM     35  C   UNL A   1      39.700  19.551  25.918  1.00  0.00     0.261 C 
BRANCH  35  36
ATOM     36  O   UNL A   1      40.941  19.433  26.643  1.00  0.00    -0.460 OA
BRANCH  36  37
ATOM     37  C   UNL A   1      42.084  19.800  26.017  1.00  0.00     0.338 C 
ATOM     38  O   UNL A   1      42.655  19.199  25.123  1.00  0.00    -0.246 OA
BRANCH  37  39
ATOM     39  C   UNL A   1      42.382  21.205  26.394  1.00  0.00     0.060 A 
ATOM     40  C   UNL A   1      42.536  22.148  25.367  1.00  0.00     0.016 A 
ATOM     41  C   UNL A   1      42.415  21.616  27.730  1.00  0.00     0.016 A 
ATOM     42  C   UNL A   1      42.758  23.491  25.677  1.00  0.00     0.010 A 
ATOM     43  C   UNL A   1      42.635  22.959  28.038  1.00  0.00     0.010 A 
ATOM     44  C   UNL A   1      42.836  23.899  27.013  1.00  0.00    -0.014 A 
BRANCH  44  45
ATOM     45  C   UNL A   1      43.303  25.265  27.345  1.00  0.00     0.031 A 
ATOM     46  C   UNL A   1      42.311  26.236  27.924  1.00  0.00     0.074 A 
ATOM     47  C   UNL A   1      44.575  25.649  27.131  1.00  0.00     0.049 A 
ATOM     48  N   UNL A   1      42.482  27.482  28.275  1.00  0.00    -0.248 NA
ATOM     49  C   UNL A   1      40.945  25.729  28.140  1.00  0.00     0.031 C 
ATOM     50  C   UNL A   1      45.632  24.810  26.570  1.00  0.00     0.029 A 
ATOM     51  N   UNL A   1      45.181  26.863  27.339  1.00  0.00    -0.354 N 
ATOM     52  C   UNL A   1      41.244  27.918  28.728  1.00  0.00     0.074 A 
ATOM     53  C   UNL A   1      40.328  26.806  28.601  1.00  0.00     0.031 C 
ATOM     54  C   UNL A   1      46.750  25.547  26.444  1.00  0.00     0.029 A 
ATOM     55  C   UNL A   1      46.483  26.912  26.895  1.00  0.00     0.049 A 
ATOM     56  H   UNL A   1      44.728  27.627  27.764  1.00  0.00     0.167 HD
ATOM     57  C   UNL A   1      40.898  29.128  29.224  1.00  0.00     0.034 A 
ATOM     58  C   UNL A   1      47.346  27.947  26.836  1.00  0.00     0.034 A 
ATOM     59  C   UNL A   1      41.802  30.237  29.358  1.00  0.00     0.049 A 
ATOM     60  C   UNL A   1      46.924  29.299  27.354  1.00  0.00     0.074 A 
ATOM     61  C   UNL A   1      41.552  31.486  29.896  1.00  0.00     0.029 A 
ATOM     62  N   UNL A   1      43.119  30.240  28.931  1.00  0.00    -0.354 N 
ATOM     63  N   UNL A   1      45.793  29.655  27.913  1.00  0.00    -0.248 NA
ATOM     64  C   UNL A   1      47.912  30.387  27.261  1.00  0.00     0.031 C 
ATOM     65  C   UNL A   1      42.716  32.254  29.775  1.00  0.00     0.029 A 
ATOM     66  C   UNL A   1      43.695  31.472  29.183  1.00  0.00     0.049 A 
ATOM     67  H   UNL A   1      43.578  29.477  28.511  1.00  0.00     0.167 HD
ATOM     68  C   UNL A   1      45.943  30.993  28.267  1.00  0.00     0.074 A 
ATOM     69  C   UNL A   1      47.284  31.379  27.879  1.00  0.00     0.031 C 
ATOM     70  C   UNL A   1      45.048  31.831  28.847  1.00  0.00     0.034 A 
BRANCH  57  71
ATOM     71  C   UNL A   1      39.479  29.304  29.686  1.00  0.00     0.023 A 
ATOM     72  C   UNL A   1      39.138  28.984  31.016  1.00  0.00     0.012 A 
ATOM     73  C   UNL A   1      38.495  29.818  28.821  1.00  0.00     0.148 A 
ATOM     74  C   UNL A   1      37.830  29.147  31.470  1.00  0.00     0.002 A 
ATOM     75  C   UNL A   1      37.204  30.016  29.292  1.00  0.00     0.091 A 
ATOM     76  F   UNL A   1      38.835  30.084  27.552  1.00  0.00    -0.205 F 
ATOM     77  C   UNL A   1      36.867  29.672  30.613  1.00  0.00     0.022 A 
BRANCH  75  78
ATOM     78  S   UNL A   1      35.912  30.749  28.284  1.00  0.00     0.127 S 
ATOM     79  O   UNL A   1      36.563  31.972  27.818  1.00  0.00    -0.237 OA
ATOM     80  O   UNL A   1      35.711  29.732  27.251  1.00  0.00    -0.237 OA
ATOM     81  O   UNL A   1      34.775  30.943  29.174  1.00  0.00    -0.744 OA
ENDBRANCH  75  78
ENDBRANCH  57  71
BRANCH  58  82
ATOM     82  C   UNL A   1      48.716  27.747  26.285  1.00  0.00     0.023 A 
ATOM     83  C   UNL A   1      48.909  27.735  24.890  1.00  0.00     0.012 A 
ATOM     84  C   UNL A   1      49.824  27.567  27.134  1.00  0.00     0.148 A 
ATOM     85  C   UNL A   1      50.178  27.517  24.351  1.00  0.00     0.002 A 
ATOM     86  C   UNL A   1      51.093  27.401  26.592  1.00  0.00     0.091 A 
ATOM     87  F   UNL A   1      49.613  27.560  28.458  1.00  0.00    -0.205 F 
ATOM     88  C   UNL A   1      51.270  27.361  25.201  1.00  0.00     0.022 A 
BRANCH  86  89
ATOM     89  S   UNL A   1      52.569  27.305  27.610  1.00  0.00     0.127 S 
ATOM     90  O   UNL A   1      52.398  26.010  28.264  1.00  0.00    -0.237 OA
ATOM     91  O   UNL A   1      53.632  27.354  26.605  1.00  0.00    -0.237 OA
ATOM     92  O   UNL A   1      52.516  28.467  28.485  1.00  0.00    -0.744 OA
ENDBRANCH  86  89
ENDBRANCH  58  82
BRANCH  70  93
ATOM     93  C   UNL A   1      45.488  33.242  29.142  1.00  0.00     0.023 A 
ATOM     94  C   UNL A   1      46.142  33.533  30.356  1.00  0.00     0.012 A 
ATOM     95  C   UNL A   1      45.333  34.259  28.179  1.00  0.00     0.148 A 
ATOM     96  C   UNL A   1      46.611  34.821  30.617  1.00  0.00     0.002 A 
ATOM     97  C   UNL A   1      45.845  35.528  28.426  1.00  0.00     0.091 A 
ATOM     98  F   UNL A   1      44.692  33.968  27.038  1.00  0.00    -0.205 F 
ATOM     99  C   UNL A   1      46.476  35.814  29.649  1.00  0.00     0.022 A 
BRANCH  97 100
ATOM    100  S   UNL A   1      45.803  36.837  27.197  1.00  0.00     0.127 S 
ATOM    101  O   UNL A   1      46.535  36.228  26.088  1.00  0.00    -0.237 OA
ATOM    102  O   UNL A   1      44.368  37.002  26.963  1.00  0.00    -0.237 OA
ATOM    103  O   UNL A   1      46.447  37.987  27.817  1.00  0.00    -0.744 OA
ENDBRANCH  97 100
ENDBRANCH  70  93
ENDBRANCH  44  45
ENDBRANCH  37  39
ENDBRANCH  36  37
ENDBRANCH  35  36
ENDBRANCH  34  35
ENDBRANCH  33  34
ENDBRANCH   1  33
TORSDOF 24
ENDMDL
