MODEL 1
REMARK VINA RESULT:      -8.7      0.000      0.000
REMARK SMILES CC(C)C[C@H](NS(=O)(=O)N1C[C@@H](C)C[C@H](C)C1)C(=O)OCCOCCOCCOC(=O)c1ccc(-c2c3nc(c(-c4cccc(S(=O)(=O)[O-])c4F)c4ccc([nH]4)c(-c4cccc(S(=O)(=O)[O-])c4F)c4nc(c(-c5cccc(S(=O)(=O)[O-])c5F)c5ccc2[nH]5)C=C4)C=C3)cc1
REMARK SMILES IDX 24 1 23 2 22 3 21 4 20 5 18 6 19 7 5 8 4 9 2 10 1 11 3 12
REMARK SMILES IDX 6 13 7 15 8 16 9 17 10 18 11 19 17 20 12 21 15 22 13 23
REMARK SMILES IDX 14 24 16 25 25 26 26 27 27 28 28 29 29 30 30 31 31 32 32 33
REMARK SMILES IDX 33 34 94 35 34 36 93 37 35 38 36 39 37 40 87 41 38 42 92 43
REMARK SMILES IDX 86 44 88 45 39 46 91 47 85 48 84 49 40 51 72 52 52 53 71 54
REMARK SMILES IDX 53 55 56 56 70 57 89 58 54 59 55 60 69 62 90 63 57 64 41 65
REMARK SMILES IDX 42 66 50 67 43 68 45 69 51 70 44 71 46 72 47 73 48 74 49 75
REMARK SMILES IDX 73 76 74 77 82 78 75 79 77 80 83 81 76 82 78 83 79 84 80 85
REMARK SMILES IDX 81 86 58 87 59 88 67 89 60 90 62 91 68 92 61 93 63 94 64 95
REMARK SMILES IDX 65 96 66 97
REMARK H PARENT 6 14 88 50 56 61
REMARK Flexibility Score: inf
ROOT
ATOM      1  C   UNL A   1      34.098  32.611  28.979  1.00  0.00     0.188 C 
ENDROOT
BRANCH   1   2
ATOM      2  O   UNL A   1      34.970  32.063  28.018  1.00  0.00    -0.376 OA
BRANCH   2   3
ATOM      3  C   UNL A   1      34.830  30.730  27.563  1.00  0.00     0.202 C 
BRANCH   3   4
ATOM      4  C   UNL A   1      33.511  29.962  27.329  1.00  0.00     0.261 C 
BRANCH   4   5
ATOM      5  O   UNL A   1      33.528  28.533  27.220  1.00  0.00    -0.462 OA
BRANCH   5   6
ATOM      6  C   UNL A   1      32.295  27.955  27.116  1.00  0.00     0.324 C 
ATOM      7  O   UNL A   1      31.413  28.100  27.955  1.00  0.00    -0.250 OA
BRANCH   6   8
ATOM      8  C   UNL A   1      32.152  27.058  25.868  1.00  0.00     0.181 C 
BRANCH   8   9
ATOM      9  C   UNL A   1      30.869  27.483  25.158  1.00  0.00     0.035 C 
BRANCH   9  10
ATOM     10  C   UNL A   1      31.082  28.158  23.785  1.00  0.00    -0.015 C 
ATOM     11  C   UNL A   1      30.964  27.183  22.608  1.00  0.00     0.007 C 
ATOM     12  C   UNL A   1      30.090  29.304  23.616  1.00  0.00     0.007 C 
ENDBRANCH   9  10
ENDBRANCH   8   9
BRANCH   8  13
ATOM     13  N   UNL A   1      32.181  25.629  26.245  1.00  0.00    -0.188 NA
ATOM     14  H   UNL A   1      31.307  25.476  26.750  1.00  0.00     0.143 HD
BRANCH  13  15
ATOM     15  S   UNL A   1      32.321  24.326  25.242  1.00  0.00     0.280 S 
ATOM     16  O   UNL A   1      30.984  23.795  25.172  1.00  0.00    -0.195 OA
ATOM     17  O   UNL A   1      33.001  24.779  24.051  1.00  0.00    -0.195 OA
BRANCH  15  18
ATOM     18  N   UNL A   1      33.302  23.248  26.088  1.00  0.00    -0.188 NA
ATOM     19  C   UNL A   1      32.939  21.799  26.063  1.00  0.00     0.106 C 
ATOM     20  C   UNL A   1      34.773  23.420  26.021  1.00  0.00     0.106 C 
ATOM     21  C   UNL A   1      33.504  21.056  24.833  1.00  0.00     0.001 C 
ATOM     22  C   UNL A   1      35.318  22.848  24.705  1.00  0.00     0.001 C 
ATOM     23  C   UNL A   1      32.697  21.312  23.557  1.00  0.00     0.009 C 
ATOM     24  C   UNL A   1      34.998  21.351  24.615  1.00  0.00     0.009 C 
ATOM     25  C   UNL A   1      36.817  23.105  24.577  1.00  0.00     0.009 C 
ENDBRANCH  15  18
ENDBRANCH  13  15
ENDBRANCH   8  13
ENDBRANCH   6   8
ENDBRANCH   5   6
ENDBRANCH   4   5
ENDBRANCH   3   4
ENDBRANCH   2   3
ENDBRANCH   1   2
BRANCH   1  26
ATOM     26  C   UNL A   1      34.679  33.653  29.942  1.00  0.00     0.188 C 
BRANCH  26  27
ATOM     27  O   UNL A   1      35.001  33.223  31.244  1.00  0.00    -0.376 OA
BRANCH  27  28
ATOM     28  C   UNL A   1      36.026  32.251  31.401  1.00  0.00     0.202 C 
BRANCH  28  29
ATOM     29  C   UNL A   1      35.894  30.891  32.136  1.00  0.00     0.261 C 
BRANCH  29  30
ATOM     30  O   UNL A   1      36.444  29.714  31.532  1.00  0.00    -0.460 OA
BRANCH  30  31
ATOM     31  C   UNL A   1      37.587  29.231  32.086  1.00  0.00     0.338 C 
ATOM     32  O   UNL A   1      37.711  28.195  32.717  1.00  0.00    -0.246 OA
BRANCH  31  33
ATOM     33  C   UNL A   1      38.730  30.034  31.595  1.00  0.00     0.060 A 
ATOM     34  C   UNL A   1      39.113  29.918  30.247  1.00  0.00     0.016 A 
ATOM     35  C   UNL A   1      39.431  30.879  32.454  1.00  0.00     0.016 A 
ATOM     36  C   UNL A   1      40.219  30.617  29.765  1.00  0.00     0.010 A 
ATOM     37  C   UNL A   1      40.561  31.550  31.978  1.00  0.00     0.010 A 
ATOM     38  C   UNL A   1      40.986  31.387  30.645  1.00  0.00    -0.014 A 
BRANCH  38  39
ATOM     39  C   UNL A   1      42.357  31.796  30.252  1.00  0.00     0.031 A 
ATOM     40  C   UNL A   1      42.569  33.228  29.838  1.00  0.00     0.074 A 
ATOM     41  C   UNL A   1      43.390  30.936  30.258  1.00  0.00     0.049 A 
ATOM     42  N   UNL A   1      43.650  33.818  29.402  1.00  0.00    -0.248 NA
ATOM     43  C   UNL A   1      41.392  34.111  29.918  1.00  0.00     0.031 C 
ATOM     44  C   UNL A   1      43.327  29.535  30.663  1.00  0.00     0.029 A 
ATOM     45  N   UNL A   1      44.698  31.123  29.882  1.00  0.00    -0.354 N 
ATOM     46  C   UNL A   1      43.275  35.125  29.113  1.00  0.00     0.074 A 
ATOM     47  C   UNL A   1      41.866  35.239  29.414  1.00  0.00     0.031 C 
ATOM     48  C   UNL A   1      44.539  28.977  30.488  1.00  0.00     0.029 A 
ATOM     49  C   UNL A   1      45.452  29.974  29.930  1.00  0.00     0.049 A 
ATOM     50  H   UNL A   1      45.061  31.994  29.603  1.00  0.00     0.167 HD
ATOM     51  C   UNL A   1      44.034  36.144  28.644  1.00  0.00     0.034 A 
ATOM     52  C   UNL A   1      46.727  29.752  29.549  1.00  0.00     0.034 A 
ATOM     53  C   UNL A   1      45.436  36.033  28.352  1.00  0.00     0.049 A 
ATOM     54  C   UNL A   1      47.546  30.893  28.997  1.00  0.00     0.074 A 
ATOM     55  C   UNL A   1      46.305  37.019  27.919  1.00  0.00     0.029 A 
ATOM     56  N   UNL A   1      46.171  34.861  28.441  1.00  0.00    -0.354 N 
ATOM     57  N   UNL A   1      47.207  32.148  28.824  1.00  0.00    -0.248 NA
ATOM     58  C   UNL A   1      48.935  30.592  28.620  1.00  0.00     0.031 C 
ATOM     59  C   UNL A   1      47.556  36.431  27.702  1.00  0.00     0.029 A 
ATOM     60  C   UNL A   1      47.481  35.094  28.056  1.00  0.00     0.049 A 
ATOM     61  H   UNL A   1      45.815  33.993  28.735  1.00  0.00     0.167 HD
ATOM     62  C   UNL A   1      48.353  32.796  28.369  1.00  0.00     0.074 A 
ATOM     63  C   UNL A   1      49.396  31.793  28.299  1.00  0.00     0.031 C 
ATOM     64  C   UNL A   1      48.525  34.100  28.038  1.00  0.00     0.034 A 
BRANCH  51  65
ATOM     65  C   UNL A   1      43.347  37.465  28.406  1.00  0.00     0.023 A 
ATOM     66  C   UNL A   1      42.676  37.707  27.190  1.00  0.00     0.012 A 
ATOM     67  C   UNL A   1      43.357  38.464  29.398  1.00  0.00     0.148 A 
ATOM     68  C   UNL A   1      42.071  38.939  26.945  1.00  0.00     0.002 A 
ATOM     69  C   UNL A   1      42.705  39.670  29.169  1.00  0.00     0.091 A 
ATOM     70  F   UNL A   1      44.020  38.228  30.540  1.00  0.00    -0.205 F 
ATOM     71  C   UNL A   1      42.079  39.916  27.936  1.00  0.00     0.022 A 
BRANCH  69  72
ATOM     72  S   UNL A   1      42.584  40.955  30.417  1.00  0.00     0.127 S 
ATOM     73  O   UNL A   1      43.517  41.956  29.902  1.00  0.00    -0.237 OA
ATOM     74  O   UNL A   1      41.174  41.334  30.332  1.00  0.00    -0.237 OA
ATOM     75  O   UNL A   1      42.968  40.330  31.675  1.00  0.00    -0.744 OA
ENDBRANCH  69  72
ENDBRANCH  51  65
BRANCH  52  76
ATOM     76  C   UNL A   1      47.330  28.399  29.716  1.00  0.00     0.023 A 
ATOM     77  C   UNL A   1      47.772  27.991  30.990  1.00  0.00     0.012 A 
ATOM     78  C   UNL A   1      47.458  27.514  28.628  1.00  0.00     0.148 A 
ATOM     79  C   UNL A   1      48.355  26.736  31.173  1.00  0.00     0.002 A 
ATOM     80  C   UNL A   1      47.990  26.245  28.828  1.00  0.00     0.091 A 
ATOM     81  F   UNL A   1      47.042  27.927  27.423  1.00  0.00    -0.205 F 
ATOM     82  C   UNL A   1      48.455  25.861  30.095  1.00  0.00     0.022 A 
BRANCH  80  83
ATOM     83  S   UNL A   1      48.056  25.006  27.530  1.00  0.00     0.127 S 
ATOM     84  O   UNL A   1      46.809  24.276  27.750  1.00  0.00    -0.237 OA
ATOM     85  O   UNL A   1      48.080  25.837  26.327  1.00  0.00    -0.237 OA
ATOM     86  O   UNL A   1      49.276  24.247  27.767  1.00  0.00    -0.744 OA
ENDBRANCH  80  83
ENDBRANCH  52  76
BRANCH  64  87
ATOM     87  C   UNL A   1      49.909  34.552  27.640  1.00  0.00     0.023 A 
ATOM     88  C   UNL A   1      50.873  34.855  28.622  1.00  0.00     0.012 A 
ATOM     89  C   UNL A   1      50.271  34.606  26.279  1.00  0.00     0.148 A 
ATOM     90  C   UNL A   1      52.161  35.244  28.253  1.00  0.00     0.002 A 
ATOM     91  C   UNL A   1      51.572  34.940  25.921  1.00  0.00     0.091 A 
ATOM     92  F   UNL A   1      49.338  34.331  25.357  1.00  0.00    -0.205 F 
ATOM     93  C   UNL A   1      52.514  35.275  26.906  1.00  0.00     0.022 A 
BRANCH  91  94
ATOM     94  S   UNL A   1      52.140  34.903  24.217  1.00  0.00     0.127 S 
ATOM     95  O   UNL A   1      53.583  35.082  24.380  1.00  0.00    -0.237 OA
ATOM     96  O   UNL A   1      51.737  33.565  23.785  1.00  0.00    -0.237 OA
ATOM     97  O   UNL A   1      51.449  35.991  23.538  1.00  0.00    -0.744 OA
ENDBRANCH  91  94
ENDBRANCH  64  87
ENDBRANCH  38  39
ENDBRANCH  31  33
ENDBRANCH  30  31
ENDBRANCH  29  30
ENDBRANCH  28  29
ENDBRANCH  27  28
ENDBRANCH  26  27
ENDBRANCH   1  26
TORSDOF 25
ENDMDL
MODEL 2
REMARK VINA RESULT:      -8.6      5.063      8.762
REMARK SMILES CC(C)C[C@H](NS(=O)(=O)N1C[C@@H](C)C[C@H](C)C1)C(=O)OCCOCCOCCOC(=O)c1ccc(-c2c3nc(c(-c4cccc(S(=O)(=O)[O-])c4F)c4ccc([nH]4)c(-c4cccc(S(=O)(=O)[O-])c4F)c4nc(c(-c5cccc(S(=O)(=O)[O-])c5F)c5ccc2[nH]5)C=C4)C=C3)cc1
REMARK SMILES IDX 24 1 23 2 22 3 21 4 20 5 18 6 19 7 5 8 4 9 2 10 1 11 3 12
REMARK SMILES IDX 6 13 7 15 8 16 9 17 10 18 11 19 17 20 12 21 15 22 13 23
REMARK SMILES IDX 14 24 16 25 25 26 26 27 27 28 28 29 29 30 30 31 31 32 32 33
REMARK SMILES IDX 33 34 94 35 34 36 93 37 35 38 36 39 37 40 87 41 38 42 92 43
REMARK SMILES IDX 86 44 88 45 39 46 91 47 85 48 84 49 40 51 72 52 52 53 71 54
REMARK SMILES IDX 53 55 56 56 70 57 89 58 54 59 55 60 69 62 90 63 57 64 41 65
REMARK SMILES IDX 42 66 50 67 43 68 45 69 51 70 44 71 46 72 47 73 48 74 49 75
REMARK SMILES IDX 73 76 74 77 82 78 75 79 77 80 83 81 76 82 78 83 79 84 80 85
REMARK SMILES IDX 81 86 58 87 59 88 67 89 60 90 62 91 68 92 61 93 63 94 64 95
REMARK SMILES IDX 65 96 66 97
REMARK H PARENT 6 14 88 50 56 61
REMARK Flexibility Score: inf
ROOT
ATOM      1  C   UNL A   1      32.854  36.033  31.762  1.00  0.00     0.188 C 
ENDROOT
BRANCH   1   2
ATOM      2  O   UNL A   1      32.397  36.580  30.547  1.00  0.00    -0.376 OA
BRANCH   2   3
ATOM      3  C   UNL A   1      33.031  36.286  29.316  1.00  0.00     0.202 C 
BRANCH   3   4
ATOM      4  C   UNL A   1      33.601  34.922  28.867  1.00  0.00     0.261 C 
BRANCH   4   5
ATOM      5  O   UNL A   1      35.018  34.746  28.748  1.00  0.00    -0.462 OA
BRANCH   5   6
ATOM      6  C   UNL A   1      35.521  33.684  29.444  1.00  0.00     0.324 C 
ATOM      7  O   UNL A   1      34.909  33.122  30.346  1.00  0.00    -0.250 OA
BRANCH   6   8
ATOM      8  C   UNL A   1      36.955  33.306  29.017  1.00  0.00     0.181 C 
BRANCH   8   9
ATOM      9  C   UNL A   1      36.848  32.052  28.153  1.00  0.00     0.035 C 
BRANCH   9  10
ATOM     10  C   UNL A   1      37.181  30.732  28.883  1.00  0.00    -0.015 C 
ATOM     11  C   UNL A   1      36.011  29.743  28.908  1.00  0.00     0.007 C 
ATOM     12  C   UNL A   1      38.402  30.083  28.237  1.00  0.00     0.007 C 
ENDBRANCH   9  10
ENDBRANCH   8   9
BRANCH   8  13
ATOM     13  N   UNL A   1      37.827  33.145  30.199  1.00  0.00    -0.188 NA
ATOM     14  H   UNL A   1      38.456  32.378  29.956  1.00  0.00     0.143 HD
BRANCH  13  15
ATOM     15  S   UNL A   1      38.801  34.282  30.894  1.00  0.00     0.280 S 
ATOM     16  O   UNL A   1      39.141  35.162  29.806  1.00  0.00    -0.195 OA
ATOM     17  O   UNL A   1      38.106  34.780  32.059  1.00  0.00    -0.195 OA
BRANCH  15  18
ATOM     18  N   UNL A   1      40.174  33.427  31.367  1.00  0.00    -0.188 NA
ATOM     19  C   UNL A   1      41.127  32.984  30.304  1.00  0.00     0.106 C 
ATOM     20  C   UNL A   1      40.909  33.871  32.576  1.00  0.00     0.106 C 
ATOM     21  C   UNL A   1      42.159  34.069  29.929  1.00  0.00     0.001 C 
ATOM     22  C   UNL A   1      41.799  35.076  32.247  1.00  0.00     0.001 C 
ATOM     23  C   UNL A   1      41.585  35.148  29.007  1.00  0.00     0.009 C 
ATOM     24  C   UNL A   1      42.821  34.692  31.170  1.00  0.00     0.009 C 
ATOM     25  C   UNL A   1      42.488  35.606  33.502  1.00  0.00     0.009 C 
ENDBRANCH  15  18
ENDBRANCH  13  15
ENDBRANCH   8  13
ENDBRANCH   6   8
ENDBRANCH   5   6
ENDBRANCH   4   5
ENDBRANCH   3   4
ENDBRANCH   2   3
ENDBRANCH   1   2
BRANCH   1  26
ATOM     26  C   UNL A   1      33.584  36.976  32.726  1.00  0.00     0.188 C 
BRANCH  26  27
ATOM     27  O   UNL A   1      34.495  36.398  33.631  1.00  0.00    -0.376 OA
BRANCH  27  28
ATOM     28  C   UNL A   1      35.062  35.135  33.305  1.00  0.00     0.202 C 
BRANCH  28  29
ATOM     29  C   UNL A   1      34.793  33.794  34.037  1.00  0.00     0.261 C 
BRANCH  29  30
ATOM     30  O   UNL A   1      35.649  32.674  33.781  1.00  0.00    -0.460 OA
BRANCH  30  31
ATOM     31  C   UNL A   1      36.725  32.539  34.599  1.00  0.00     0.338 C 
ATOM     32  O   UNL A   1      36.831  32.951  35.740  1.00  0.00    -0.246 OA
BRANCH  31  33
ATOM     33  C   UNL A   1      37.677  31.587  33.979  1.00  0.00     0.060 A 
ATOM     34  C   UNL A   1      38.924  31.377  34.592  1.00  0.00     0.016 A 
ATOM     35  C   UNL A   1      37.353  30.922  32.797  1.00  0.00     0.016 A 
ATOM     36  C   UNL A   1      39.865  30.532  34.006  1.00  0.00     0.010 A 
ATOM     37  C   UNL A   1      38.311  30.103  32.192  1.00  0.00     0.010 A 
ATOM     38  C   UNL A   1      39.585  29.940  32.770  1.00  0.00    -0.014 A 
BRANCH  38  39
ATOM     39  C   UNL A   1      40.696  29.382  31.960  1.00  0.00     0.031 A 
ATOM     40  C   UNL A   1      42.060  30.000  32.121  1.00  0.00     0.074 A 
ATOM     41  C   UNL A   1      40.517  28.360  31.104  1.00  0.00     0.049 A 
ATOM     42  N   UNL A   1      43.175  29.733  31.495  1.00  0.00    -0.248 NA
ATOM     43  C   UNL A   1      42.174  31.074  33.123  1.00  0.00     0.031 C 
ATOM     44  C   UNL A   1      39.259  27.656  30.875  1.00  0.00     0.029 A 
ATOM     45  N   UNL A   1      41.405  27.758  30.247  1.00  0.00    -0.354 N 
ATOM     46  C   UNL A   1      44.110  30.635  31.991  1.00  0.00     0.074 A 
ATOM     47  C   UNL A   1      43.430  31.461  32.963  1.00  0.00     0.031 C 
ATOM     48  C   UNL A   1      39.447  26.732  29.915  1.00  0.00     0.029 A 
ATOM     49  C   UNL A   1      40.830  26.802  29.444  1.00  0.00     0.049 A 
ATOM     50  H   UNL A   1      42.361  27.989  30.210  1.00  0.00     0.167 HD
ATOM     51  C   UNL A   1      45.420  30.764  31.673  1.00  0.00     0.034 A 
ATOM     52  C   UNL A   1      41.357  26.082  28.433  1.00  0.00     0.034 A 
ATOM     53  C   UNL A   1      46.098  29.939  30.713  1.00  0.00     0.049 A 
ATOM     54  C   UNL A   1      42.811  26.264  28.071  1.00  0.00     0.074 A 
ATOM     55  C   UNL A   1      47.435  29.956  30.354  1.00  0.00     0.029 A 
ATOM     56  N   UNL A   1      45.489  28.961  29.941  1.00  0.00    -0.354 N 
ATOM     57  N   UNL A   1      43.708  27.049  28.617  1.00  0.00    -0.248 NA
ATOM     58  C   UNL A   1      43.331  25.434  26.974  1.00  0.00     0.031 C 
ATOM     59  C   UNL A   1      47.623  29.020  29.332  1.00  0.00     0.029 A 
ATOM     60  C   UNL A   1      46.418  28.379  29.094  1.00  0.00     0.049 A 
ATOM     61  H   UNL A   1      44.537  28.716  29.988  1.00  0.00     0.167 HD
ATOM     62  C   UNL A   1      44.908  26.770  27.968  1.00  0.00     0.074 A 
ATOM     63  C   UNL A   1      44.622  25.740  26.991  1.00  0.00     0.031 C 
ATOM     64  C   UNL A   1      46.134  27.318  28.161  1.00  0.00     0.034 A 
BRANCH  51  65
ATOM     65  C   UNL A   1      46.196  31.854  32.368  1.00  0.00     0.023 A 
ATOM     66  C   UNL A   1      46.152  33.177  31.882  1.00  0.00     0.012 A 
ATOM     67  C   UNL A   1      46.962  31.566  33.514  1.00  0.00     0.148 A 
ATOM     68  C   UNL A   1      46.897  34.184  32.494  1.00  0.00     0.002 A 
ATOM     69  C   UNL A   1      47.659  32.585  34.151  1.00  0.00     0.091 A 
ATOM     70  F   UNL A   1      47.014  30.299  33.949  1.00  0.00    -0.205 F 
ATOM     71  C   UNL A   1      47.643  33.890  33.632  1.00  0.00     0.022 A 
BRANCH  69  72
ATOM     72  S   UNL A   1      48.575  32.323  35.673  1.00  0.00     0.127 S 
ATOM     73  O   UNL A   1      47.601  31.593  36.483  1.00  0.00    -0.237 OA
ATOM     74  O   UNL A   1      49.709  31.521  35.213  1.00  0.00    -0.237 OA
ATOM     75  O   UNL A   1      48.930  33.648  36.162  1.00  0.00    -0.744 OA
ENDBRANCH  69  72
ENDBRANCH  51  65
BRANCH  52  76
ATOM     76  C   UNL A   1      40.518  25.083  27.712  1.00  0.00     0.023 A 
ATOM     77  C   UNL A   1      39.359  25.512  27.033  1.00  0.00     0.012 A 
ATOM     78  C   UNL A   1      40.864  23.718  27.683  1.00  0.00     0.148 A 
ATOM     79  C   UNL A   1      38.547  24.598  26.362  1.00  0.00     0.002 A 
ATOM     80  C   UNL A   1      40.080  22.820  26.968  1.00  0.00     0.091 A 
ATOM     81  F   UNL A   1      41.962  23.329  28.344  1.00  0.00    -0.205 F 
ATOM     82  C   UNL A   1      38.912  23.255  26.322  1.00  0.00     0.022 A 
BRANCH  80  83
ATOM     83  S   UNL A   1      40.526  21.093  26.760  1.00  0.00     0.127 S 
ATOM     84  O   UNL A   1      40.976  20.737  28.105  1.00  0.00    -0.237 OA
ATOM     85  O   UNL A   1      39.248  20.503  26.362  1.00  0.00    -0.237 OA
ATOM     86  O   UNL A   1      41.554  21.069  25.729  1.00  0.00    -0.744 OA
ENDBRANCH  80  83
ENDBRANCH  52  76
BRANCH  64  87
ATOM     87  C   UNL A   1      47.288  26.770  27.358  1.00  0.00     0.023 A 
ATOM     88  C   UNL A   1      48.118  25.765  27.892  1.00  0.00     0.012 A 
ATOM     89  C   UNL A   1      47.502  27.210  26.036  1.00  0.00     0.148 A 
ATOM     90  C   UNL A   1      49.168  25.238  27.138  1.00  0.00     0.002 A 
ATOM     91  C   UNL A   1      48.513  26.640  25.271  1.00  0.00     0.091 A 
ATOM     92  F   UNL A   1      46.714  28.179  25.548  1.00  0.00    -0.205 F 
ATOM     93  C   UNL A   1      49.358  25.665  25.826  1.00  0.00     0.022 A 
BRANCH  91  94
ATOM     94  S   UNL A   1      48.762  27.056  23.541  1.00  0.00     0.127 S 
ATOM     95  O   UNL A   1      48.343  25.824  22.875  1.00  0.00    -0.237 OA
ATOM     96  O   UNL A   1      47.851  28.187  23.361  1.00  0.00    -0.237 OA
ATOM     97  O   UNL A   1      50.174  27.390  23.406  1.00  0.00    -0.744 OA
ENDBRANCH  91  94
ENDBRANCH  64  87
ENDBRANCH  38  39
ENDBRANCH  31  33
ENDBRANCH  30  31
ENDBRANCH  29  30
ENDBRANCH  28  29
ENDBRANCH  27  28
ENDBRANCH  26  27
ENDBRANCH   1  26
TORSDOF 25
ENDMDL
MODEL 3
REMARK VINA RESULT:      -7.7      8.727     16.490
REMARK SMILES CC(C)C[C@H](NS(=O)(=O)N1C[C@@H](C)C[C@H](C)C1)C(=O)OCCOCCOCCOC(=O)c1ccc(-c2c3nc(c(-c4cccc(S(=O)(=O)[O-])c4F)c4ccc([nH]4)c(-c4cccc(S(=O)(=O)[O-])c4F)c4nc(c(-c5cccc(S(=O)(=O)[O-])c5F)c5ccc2[nH]5)C=C4)C=C3)cc1
REMARK SMILES IDX 24 1 23 2 22 3 21 4 20 5 18 6 19 7 5 8 4 9 2 10 1 11 3 12
REMARK SMILES IDX 6 13 7 15 8 16 9 17 10 18 11 19 17 20 12 21 15 22 13 23
REMARK SMILES IDX 14 24 16 25 25 26 26 27 27 28 28 29 29 30 30 31 31 32 32 33
REMARK SMILES IDX 33 34 94 35 34 36 93 37 35 38 36 39 37 40 87 41 38 42 92 43
REMARK SMILES IDX 86 44 88 45 39 46 91 47 85 48 84 49 40 51 72 52 52 53 71 54
REMARK SMILES IDX 53 55 56 56 70 57 89 58 54 59 55 60 69 62 90 63 57 64 41 65
REMARK SMILES IDX 42 66 50 67 43 68 45 69 51 70 44 71 46 72 47 73 48 74 49 75
REMARK SMILES IDX 73 76 74 77 82 78 75 79 77 80 83 81 76 82 78 83 79 84 80 85
REMARK SMILES IDX 81 86 58 87 59 88 67 89 60 90 62 91 68 92 61 93 63 94 64 95
REMARK SMILES IDX 65 96 66 97
REMARK H PARENT 6 14 88 50 56 61
REMARK Flexibility Score: inf
ROOT
ATOM      1  C   UNL A   1      51.670  22.556  38.724  1.00  0.00     0.188 C 
ENDROOT
BRANCH   1   2
ATOM      2  O   UNL A   1      51.060  21.902  39.812  1.00  0.00    -0.376 OA
BRANCH   2   3
ATOM      3  C   UNL A   1      49.924  21.075  39.640  1.00  0.00     0.202 C 
BRANCH   3   4
ATOM      4  C   UNL A   1      48.615  21.114  40.457  1.00  0.00     0.261 C 
BRANCH   4   5
ATOM      5  O   UNL A   1      47.367  21.356  39.793  1.00  0.00    -0.462 OA
BRANCH   5   6
ATOM      6  C   UNL A   1      46.263  20.963  40.495  1.00  0.00     0.324 C 
ATOM      7  O   UNL A   1      45.284  21.682  40.664  1.00  0.00    -0.250 OA
BRANCH   6   8
ATOM      8  C   UNL A   1      46.402  19.548  41.096  1.00  0.00     0.181 C 
BRANCH   8   9
ATOM      9  C   UNL A   1      45.952  18.561  40.023  1.00  0.00     0.035 C 
BRANCH   9  10
ATOM     10  C   UNL A   1      46.818  17.286  39.911  1.00  0.00    -0.015 C 
ATOM     11  C   UNL A   1      48.095  17.348  40.757  1.00  0.00     0.007 C 
ATOM     12  C   UNL A   1      45.989  16.067  40.303  1.00  0.00     0.007 C 
ENDBRANCH   9  10
ENDBRANCH   8   9
BRANCH   8  13
ATOM     13  N   UNL A   1      45.645  19.442  42.362  1.00  0.00    -0.188 NA
ATOM     14  H   UNL A   1      44.831  18.872  42.131  1.00  0.00     0.143 HD
BRANCH  13  15
ATOM     15  S   UNL A   1      46.178  18.848  43.807  1.00  0.00     0.280 S 
ATOM     16  O   UNL A   1      46.338  17.437  43.565  1.00  0.00    -0.195 OA
ATOM     17  O   UNL A   1      47.301  19.662  44.211  1.00  0.00    -0.195 OA
BRANCH  15  18
ATOM     18  N   UNL A   1      44.886  19.088  44.862  1.00  0.00    -0.188 NA
ATOM     19  C   UNL A   1      44.549  17.992  45.820  1.00  0.00     0.106 C 
ATOM     20  C   UNL A   1      44.729  20.413  45.507  1.00  0.00     0.106 C 
ATOM     21  C   UNL A   1      45.379  18.050  47.120  1.00  0.00     0.001 C 
ATOM     22  C   UNL A   1      45.694  20.548  46.693  1.00  0.00     0.001 C 
ATOM     23  C   UNL A   1      46.799  17.505  46.949  1.00  0.00     0.009 C 
ATOM     24  C   UNL A   1      45.395  19.462  47.733  1.00  0.00     0.009 C 
ATOM     25  C   UNL A   1      45.614  21.942  47.308  1.00  0.00     0.009 C 
ENDBRANCH  15  18
ENDBRANCH  13  15
ENDBRANCH   8  13
ENDBRANCH   6   8
ENDBRANCH   5   6
ENDBRANCH   4   5
ENDBRANCH   3   4
ENDBRANCH   2   3
ENDBRANCH   1   2
BRANCH   1  26
ATOM     26  C   UNL A   1      51.283  22.087  37.316  1.00  0.00     0.188 C 
BRANCH  26  27
ATOM     27  O   UNL A   1      50.318  22.844  36.624  1.00  0.00    -0.376 OA
BRANCH  27  28
ATOM     28  C   UNL A   1      50.046  24.165  37.073  1.00  0.00     0.202 C 
BRANCH  28  29
ATOM     29  C   UNL A   1      48.736  24.962  36.833  1.00  0.00     0.261 C 
BRANCH  29  30
ATOM     30  O   UNL A   1      48.077  24.857  35.565  1.00  0.00    -0.460 OA
BRANCH  30  31
ATOM     31  C   UNL A   1      48.301  25.868  34.685  1.00  0.00     0.338 C 
ATOM     32  O   UNL A   1      49.316  26.063  34.040  1.00  0.00    -0.246 OA
BRANCH  31  33
ATOM     33  C   UNL A   1      47.022  26.571  34.434  1.00  0.00     0.060 A 
ATOM     34  C   UNL A   1      45.817  25.940  34.791  1.00  0.00     0.016 A 
ATOM     35  C   UNL A   1      47.005  27.830  33.836  1.00  0.00     0.016 A 
ATOM     36  C   UNL A   1      44.594  26.548  34.518  1.00  0.00     0.010 A 
ATOM     37  C   UNL A   1      45.775  28.423  33.529  1.00  0.00     0.010 A 
ATOM     38  C   UNL A   1      44.566  27.765  33.828  1.00  0.00    -0.014 A 
BRANCH  38  39
ATOM     39  C   UNL A   1      43.305  28.213  33.187  1.00  0.00     0.031 A 
ATOM     40  C   UNL A   1      43.034  27.757  31.779  1.00  0.00     0.074 A 
ATOM     41  C   UNL A   1      42.419  29.000  33.822  1.00  0.00     0.049 A 
ATOM     42  N   UNL A   1      42.040  28.050  30.984  1.00  0.00    -0.248 NA
ATOM     43  C   UNL A   1      44.033  26.850  31.184  1.00  0.00     0.031 C 
ATOM     44  C   UNL A   1      42.546  29.488  35.193  1.00  0.00     0.029 A 
ATOM     45  N   UNL A   1      41.242  29.547  33.374  1.00  0.00    -0.354 N 
ATOM     46  C   UNL A   1      42.315  27.404  29.783  1.00  0.00     0.074 A 
ATOM     47  C   UNL A   1      43.572  26.712  29.951  1.00  0.00     0.031 C 
ATOM     48  C   UNL A   1      41.499  30.287  35.467  1.00  0.00     0.029 A 
ATOM     49  C   UNL A   1      40.647  30.390  34.283  1.00  0.00     0.049 A 
ATOM     50  H   UNL A   1      40.860  29.355  32.488  1.00  0.00     0.167 HD
ATOM     51  C   UNL A   1      41.586  27.384  28.643  1.00  0.00     0.034 A 
ATOM     52  C   UNL A   1      39.553  31.169  34.162  1.00  0.00     0.034 A 
ATOM     53  C   UNL A   1      40.332  28.066  28.477  1.00  0.00     0.049 A 
ATOM     54  C   UNL A   1      38.772  31.157  32.871  1.00  0.00     0.074 A 
ATOM     55  C   UNL A   1      39.492  28.068  27.378  1.00  0.00     0.029 A 
ATOM     56  N   UNL A   1      39.748  28.887  29.430  1.00  0.00    -0.354 N 
ATOM     57  N   UNL A   1      38.988  30.464  31.778  1.00  0.00    -0.248 NA
ATOM     58  C   UNL A   1      37.577  32.011  32.809  1.00  0.00     0.031 C 
ATOM     59  C   UNL A   1      38.422  28.927  27.650  1.00  0.00     0.029 A 
ATOM     60  C   UNL A   1      38.565  29.414  28.939  1.00  0.00     0.049 A 
ATOM     61  H   UNL A   1      40.119  29.067  30.323  1.00  0.00     0.167 HD
ATOM     62  C   UNL A   1      37.930  30.757  30.922  1.00  0.00     0.074 A 
ATOM     63  C   UNL A   1      37.072  31.688  31.626  1.00  0.00     0.031 C 
ATOM     64  C   UNL A   1      37.691  30.300  29.668  1.00  0.00     0.034 A 
BRANCH  51  65
ATOM     65  C   UNL A   1      42.144  26.603  27.479  1.00  0.00     0.023 A 
ATOM     66  C   UNL A   1      42.905  27.255  26.487  1.00  0.00     0.012 A 
ATOM     67  C   UNL A   1      41.923  25.216  27.378  1.00  0.00     0.148 A 
ATOM     68  C   UNL A   1      43.392  26.550  25.387  1.00  0.00     0.002 A 
ATOM     69  C   UNL A   1      42.458  24.510  26.307  1.00  0.00     0.091 A 
ATOM     70  F   UNL A   1      41.177  24.615  28.316  1.00  0.00    -0.205 F 
ATOM     71  C   UNL A   1      43.176  25.178  25.302  1.00  0.00     0.022 A 
BRANCH  69  72
ATOM     72  S   UNL A   1      42.309  22.727  26.157  1.00  0.00     0.127 S 
ATOM     73  O   UNL A   1      43.067  22.267  27.320  1.00  0.00    -0.237 OA
ATOM     74  O   UNL A   1      40.862  22.531  26.256  1.00  0.00    -0.237 OA
ATOM     75  O   UNL A   1      42.878  22.384  24.861  1.00  0.00    -0.744 OA
ENDBRANCH  69  72
ENDBRANCH  51  65
BRANCH  52  76
ATOM     76  C   UNL A   1      39.097  31.999  35.313  1.00  0.00     0.023 A 
ATOM     77  C   UNL A   1      38.134  31.480  36.202  1.00  0.00     0.012 A 
ATOM     78  C   UNL A   1      39.617  33.287  35.541  1.00  0.00     0.148 A 
ATOM     79  C   UNL A   1      37.678  32.239  37.280  1.00  0.00     0.002 A 
ATOM     80  C   UNL A   1      39.198  34.018  36.646  1.00  0.00     0.091 A 
ATOM     81  F   UNL A   1      40.523  33.766  34.677  1.00  0.00    -0.205 F 
ATOM     82  C   UNL A   1      38.216  33.503  37.507  1.00  0.00     0.022 A 
BRANCH  80  83
ATOM     83  S   UNL A   1      39.913  35.605  37.090  1.00  0.00     0.127 S 
ATOM     84  O   UNL A   1      39.543  36.430  35.941  1.00  0.00    -0.237 OA
ATOM     85  O   UNL A   1      39.199  35.916  38.327  1.00  0.00    -0.237 OA
ATOM     86  O   UNL A   1      41.340  35.366  37.255  1.00  0.00    -0.744 OA
ENDBRANCH  80  83
ENDBRANCH  52  76
BRANCH  64  87
ATOM     87  C   UNL A   1      36.415  30.731  28.988  1.00  0.00     0.023 A 
ATOM     88  C   UNL A   1      35.518  29.772  28.475  1.00  0.00     0.012 A 
ATOM     89  C   UNL A   1      36.072  32.097  28.925  1.00  0.00     0.148 A 
ATOM     90  C   UNL A   1      34.324  30.170  27.873  1.00  0.00     0.002 A 
ATOM     91  C   UNL A   1      34.855  32.482  28.376  1.00  0.00     0.091 A 
ATOM     92  F   UNL A   1      36.944  32.997  29.403  1.00  0.00    -0.205 F 
ATOM     93  C   UNL A   1      33.987  31.521  27.834  1.00  0.00     0.022 A 
BRANCH  91  94
ATOM     94  S   UNL A   1      34.296  34.189  28.378  1.00  0.00     0.127 S 
ATOM     95  O   UNL A   1      35.052  34.752  27.260  1.00  0.00    -0.237 OA
ATOM     96  O   UNL A   1      32.861  34.044  28.131  1.00  0.00    -0.237 OA
ATOM     97  O   UNL A   1      34.632  34.721  29.691  1.00  0.00    -0.744 OA
ENDBRANCH  91  94
ENDBRANCH  64  87
ENDBRANCH  38  39
ENDBRANCH  31  33
ENDBRANCH  30  31
ENDBRANCH  29  30
ENDBRANCH  28  29
ENDBRANCH  27  28
ENDBRANCH  26  27
ENDBRANCH   1  26
TORSDOF 25
ENDMDL
