MODEL 1
REMARK VINA RESULT:     -10.9      0.000      0.000
REMARK SMILES O=C(Cc1ccccc1-c1ccn(C(F)F)c(=O)c1)OCCOCCOCCOC(=O)c1ccc(-c2c3nc(c(-c4cccc(S(=O)(=O)[O-])c4F)c4ccc([nH]4)c(-c4cccc(S(=O)(=O)[O-])c4F)c4nc(c(-c5cccc(S(=O)(=O)[O-])c5F)c5ccc2[nH]5)C=C4)C=C3)cc1
REMARK SMILES IDX 24 1 23 2 22 3 21 4 20 5 2 6 1 7 3 8 4 9 5 10 9 11 6 12 8 13
REMARK SMILES IDX 7 14 10 15 11 16 19 17 12 18 17 19 13 20 18 21 14 22 15 23
REMARK SMILES IDX 16 24 25 25 26 26 27 27 28 28 29 29 30 30 31 31 32 32 33 33
REMARK SMILES IDX 94 34 34 35 93 36 35 37 36 38 37 39 87 40 38 41 92 42 86 43
REMARK SMILES IDX 88 44 39 45 91 46 85 47 84 48 40 50 72 51 52 52 71 53 53 54
REMARK SMILES IDX 56 55 70 56 89 57 54 58 55 59 69 61 90 62 57 63 41 64 42 65
REMARK SMILES IDX 50 66 43 67 45 68 51 69 44 70 46 71 47 72 48 73 49 74 73 75
REMARK SMILES IDX 74 76 82 77 75 78 77 79 83 80 76 81 78 82 79 83 80 84 81 85
REMARK SMILES IDX 58 86 59 87 67 88 60 89 62 90 68 91 61 92 63 93 64 94 65 95
REMARK SMILES IDX 66 96
REMARK H PARENT 88 49 56 60
REMARK Flexibility Score: inf
ROOT
ATOM      1  C   UNL A   1      34.907  23.281  23.281  1.00  0.00     0.188 C 
ENDROOT
BRANCH   1   2
ATOM      2  O   UNL A   1      33.713  24.043  23.278  1.00  0.00    -0.376 OA
BRANCH   2   3
ATOM      3  C   UNL A   1      33.851  25.414  22.969  1.00  0.00     0.202 C 
BRANCH   3   4
ATOM      4  C   UNL A   1      33.698  26.234  24.241  1.00  0.00     0.261 C 
BRANCH   4   5
ATOM      5  O   UNL A   1      33.679  27.670  24.061  1.00  0.00    -0.463 OA
BRANCH   5   6
ATOM      6  C   UNL A   1      32.625  28.467  23.779  1.00  0.00     0.310 C 
ATOM      7  O   UNL A   1      32.308  29.344  24.584  1.00  0.00    -0.252 OA
BRANCH   6   8
ATOM      8  C   UNL A   1      31.789  28.223  22.543  1.00  0.00     0.158 C 
BRANCH   8   9
ATOM      9  C   UNL A   1      30.306  28.493  22.643  1.00  0.00    -0.029 A 
ATOM     10  C   UNL A   1      29.799  29.725  22.181  1.00  0.00     0.005 A 
ATOM     11  C   UNL A   1      29.419  27.578  23.260  1.00  0.00    -0.014 A 
ATOM     12  C   UNL A   1      28.444  30.030  22.282  1.00  0.00     0.000 A 
ATOM     13  C   UNL A   1      28.062  27.926  23.389  1.00  0.00     0.009 A 
ATOM     14  C   UNL A   1      27.576  29.134  22.892  1.00  0.00     0.001 A 
BRANCH  11  15
ATOM     15  C   UNL A   1      29.828  26.261  23.808  1.00  0.00    -0.011 A 
ATOM     16  C   UNL A   1      30.067  25.096  22.980  1.00  0.00     0.027 A 
ATOM     17  C   UNL A   1      30.090  26.173  25.126  1.00  0.00     0.080 A 
ATOM     18  C   UNL A   1      30.544  23.967  23.520  1.00  0.00     0.095 A 
ATOM     19  C   UNL A   1      30.573  24.906  25.747  1.00  0.00     0.255 A 
ATOM     20  N   UNL A   1      30.766  23.850  24.878  1.00  0.00    -0.258 N 
ATOM     21  O   UNL A   1      30.747  24.891  26.963  1.00  0.00    -0.269 OA
BRANCH  20  22
ATOM     22  C   UNL A   1      31.283  22.617  25.424  1.00  0.00     0.451 C 
ATOM     23  F   UNL A   1      32.434  22.829  26.106  1.00  0.00    -0.185 F 
ATOM     24  F   UNL A   1      30.391  22.087  26.304  1.00  0.00    -0.185 F 
ENDBRANCH  20  22
ENDBRANCH  11  15
ENDBRANCH   8   9
ENDBRANCH   6   8
ENDBRANCH   5   6
ENDBRANCH   4   5
ENDBRANCH   3   4
ENDBRANCH   2   3
ENDBRANCH   1   2
BRANCH   1  25
ATOM     25  C   UNL A   1      34.818  22.103  24.264  1.00  0.00     0.188 C 
BRANCH  25  26
ATOM     26  O   UNL A   1      35.997  21.612  24.895  1.00  0.00    -0.376 OA
BRANCH  26  27
ATOM     27  C   UNL A   1      36.333  20.235  24.789  1.00  0.00     0.202 C 
BRANCH  27  28
ATOM     28  C   UNL A   1      37.779  19.831  25.090  1.00  0.00     0.261 C 
BRANCH  28  29
ATOM     29  O   UNL A   1      38.683  20.934  25.278  1.00  0.00    -0.460 OA
BRANCH  29  30
ATOM     30  C   UNL A   1      39.628  20.747  26.233  1.00  0.00     0.338 C 
ATOM     31  O   UNL A   1      40.203  19.706  26.499  1.00  0.00    -0.246 OA
BRANCH  30  32
ATOM     32  C   UNL A   1      40.004  22.026  26.870  1.00  0.00     0.060 A 
ATOM     33  C   UNL A   1      39.413  23.202  26.388  1.00  0.00     0.016 A 
ATOM     34  C   UNL A   1      41.025  22.095  27.817  1.00  0.00     0.016 A 
ATOM     35  C   UNL A   1      39.878  24.452  26.807  1.00  0.00     0.010 A 
ATOM     36  C   UNL A   1      41.499  23.350  28.222  1.00  0.00     0.010 A 
ATOM     37  C   UNL A   1      40.956  24.537  27.695  1.00  0.00    -0.014 A 
BRANCH  37  38
ATOM     38  C   UNL A   1      41.620  25.840  27.970  1.00  0.00     0.031 A 
ATOM     39  C   UNL A   1      40.821  26.959  28.590  1.00  0.00     0.074 A 
ATOM     40  C   UNL A   1      42.911  26.054  27.660  1.00  0.00     0.049 A 
ATOM     41  N   UNL A   1      41.191  28.185  28.856  1.00  0.00    -0.248 NA
ATOM     42  C   UNL A   1      39.437  26.648  28.983  1.00  0.00     0.031 C 
ATOM     43  C   UNL A   1      43.835  25.061  27.120  1.00  0.00     0.029 A 
ATOM     44  N   UNL A   1      43.656  27.210  27.710  1.00  0.00    -0.354 N 
ATOM     45  C   UNL A   1      40.100  28.784  29.473  1.00  0.00     0.074 A 
ATOM     46  C   UNL A   1      39.032  27.806  29.486  1.00  0.00     0.031 C 
ATOM     47  C   UNL A   1      44.989  25.673  26.797  1.00  0.00     0.029 A 
ATOM     48  C   UNL A   1      44.876  27.098  27.088  1.00  0.00     0.049 A 
ATOM     49  H   UNL A   1      43.345  28.036  28.147  1.00  0.00     0.167 HD
ATOM     50  C   UNL A   1      40.006  30.016  30.029  1.00  0.00     0.034 A 
ATOM     51  C   UNL A   1      45.781  28.039  26.750  1.00  0.00     0.034 A 
ATOM     52  C   UNL A   1      41.060  30.994  30.031  1.00  0.00     0.049 A 
ATOM     53  C   UNL A   1      45.589  29.456  27.217  1.00  0.00     0.074 A 
ATOM     54  C   UNL A   1      41.080  32.238  30.637  1.00  0.00     0.029 A 
ATOM     55  N   UNL A   1      42.272  30.850  29.379  1.00  0.00    -0.354 N 
ATOM     56  N   UNL A   1      44.619  29.957  27.939  1.00  0.00    -0.248 NA
ATOM     57  C   UNL A   1      46.649  30.420  26.884  1.00  0.00     0.031 C 
ATOM     58  C   UNL A   1      42.298  32.857  30.331  1.00  0.00     0.029 A 
ATOM     59  C   UNL A   1      43.041  31.990  29.549  1.00  0.00     0.049 A 
ATOM     60  H   UNL A   1      42.548  30.055  28.868  1.00  0.00     0.167 HD
ATOM     61  C   UNL A   1      44.995  31.266  28.223  1.00  0.00     0.074 A 
ATOM     62  C   UNL A   1      46.270  31.487  27.574  1.00  0.00     0.031 C 
ATOM     63  C   UNL A   1      44.343  32.192  28.968  1.00  0.00     0.034 A 
BRANCH  50  64
ATOM     64  C   UNL A   1      38.735  30.350  30.760  1.00  0.00     0.023 A 
ATOM     65  C   UNL A   1      38.591  29.935  32.101  1.00  0.00     0.012 A 
ATOM     66  C   UNL A   1      37.723  31.124  30.162  1.00  0.00     0.148 A 
ATOM     67  C   UNL A   1      37.450  30.265  32.828  1.00  0.00     0.002 A 
ATOM     68  C   UNL A   1      36.604  31.480  30.905  1.00  0.00     0.091 A 
ATOM     69  F   UNL A   1      37.873  31.490  28.881  1.00  0.00    -0.205 F 
ATOM     70  C   UNL A   1      36.462  31.045  32.234  1.00  0.00     0.022 A 
BRANCH  68  71
ATOM     71  S   UNL A   1      35.305  32.536  30.255  1.00  0.00     0.127 S 
ATOM     72  O   UNL A   1      34.838  31.757  29.109  1.00  0.00    -0.237 OA
ATOM     73  O   UNL A   1      34.366  32.594  31.376  1.00  0.00    -0.237 OA
ATOM     74  O   UNL A   1      35.943  33.804  29.930  1.00  0.00    -0.744 OA
ENDBRANCH  68  71
ENDBRANCH  50  64
BRANCH  51  75
ATOM     75  C   UNL A   1      46.963  27.674  25.924  1.00  0.00     0.023 A 
ATOM     76  C   UNL A   1      46.916  27.807  24.525  1.00  0.00     0.012 A 
ATOM     77  C   UNL A   1      48.127  27.162  26.530  1.00  0.00     0.148 A 
ATOM     78  C   UNL A   1      47.993  27.394  23.738  1.00  0.00     0.002 A 
ATOM     79  C   UNL A   1      49.210  26.789  25.742  1.00  0.00     0.091 A 
ATOM     80  F   UNL A   1      48.149  27.048  27.866  1.00  0.00    -0.205 F 
ATOM     81  C   UNL A   1      49.140  26.889  24.346  1.00  0.00     0.022 A 
BRANCH  79  82
ATOM     82  S   UNL A   1      50.761  26.234  26.456  1.00  0.00     0.127 S 
ATOM     83  O   UNL A   1      50.381  24.949  27.036  1.00  0.00    -0.237 OA
ATOM     84  O   UNL A   1      51.623  26.153  25.276  1.00  0.00    -0.237 OA
ATOM     85  O   UNL A   1      51.140  27.279  27.398  1.00  0.00    -0.744 OA
ENDBRANCH  79  82
ENDBRANCH  51  75
BRANCH  63  86
ATOM     86  C   UNL A   1      45.028  33.513  29.204  1.00  0.00     0.023 A 
ATOM     87  C   UNL A   1      45.816  33.705  30.357  1.00  0.00     0.012 A 
ATOM     88  C   UNL A   1      44.930  34.548  28.254  1.00  0.00     0.148 A 
ATOM     89  C   UNL A   1      46.467  34.919  30.574  1.00  0.00     0.002 A 
ATOM     90  C   UNL A   1      45.620  35.738  28.455  1.00  0.00     0.091 A 
ATOM     91  F   UNL A   1      44.155  34.359  27.176  1.00  0.00    -0.205 F 
ATOM     92  C   UNL A   1      46.379  35.930  29.620  1.00  0.00     0.022 A 
BRANCH  90  93
ATOM     93  S   UNL A   1      45.634  37.055  27.232  1.00  0.00     0.127 S 
ATOM     94  O   UNL A   1      46.429  38.081  27.906  1.00  0.00    -0.237 OA
ATOM     95  O   UNL A   1      46.299  36.419  26.094  1.00  0.00    -0.237 OA
ATOM     96  O   UNL A   1      44.236  37.393  26.998  1.00  0.00    -0.744 OA
ENDBRANCH  90  93
ENDBRANCH  63  86
ENDBRANCH  37  38
ENDBRANCH  30  32
ENDBRANCH  29  30
ENDBRANCH  28  29
ENDBRANCH  27  28
ENDBRANCH  26  27
ENDBRANCH  25  26
ENDBRANCH   1  25
TORSDOF 23
ENDMDL
MODEL 2
REMARK VINA RESULT:     -10.7      2.637      8.175
REMARK SMILES O=C(Cc1ccccc1-c1ccn(C(F)F)c(=O)c1)OCCOCCOCCOC(=O)c1ccc(-c2c3nc(c(-c4cccc(S(=O)(=O)[O-])c4F)c4ccc([nH]4)c(-c4cccc(S(=O)(=O)[O-])c4F)c4nc(c(-c5cccc(S(=O)(=O)[O-])c5F)c5ccc2[nH]5)C=C4)C=C3)cc1
REMARK SMILES IDX 24 1 23 2 22 3 21 4 20 5 2 6 1 7 3 8 4 9 5 10 9 11 6 12 8 13
REMARK SMILES IDX 7 14 10 15 11 16 19 17 12 18 17 19 13 20 18 21 14 22 15 23
REMARK SMILES IDX 16 24 25 25 26 26 27 27 28 28 29 29 30 30 31 31 32 32 33 33
REMARK SMILES IDX 94 34 34 35 93 36 35 37 36 38 37 39 87 40 38 41 92 42 86 43
REMARK SMILES IDX 88 44 39 45 91 46 85 47 84 48 40 50 72 51 52 52 71 53 53 54
REMARK SMILES IDX 56 55 70 56 89 57 54 58 55 59 69 61 90 62 57 63 41 64 42 65
REMARK SMILES IDX 50 66 43 67 45 68 51 69 44 70 46 71 47 72 48 73 49 74 73 75
REMARK SMILES IDX 74 76 82 77 75 78 77 79 83 80 76 81 78 82 79 83 80 84 81 85
REMARK SMILES IDX 58 86 59 87 67 88 60 89 62 90 68 91 61 92 63 93 64 94 65 95
REMARK SMILES IDX 66 96
REMARK H PARENT 88 49 56 60
REMARK Flexibility Score: inf
ROOT
ATOM      1  C   UNL A   1      35.675  23.502  25.393  1.00  0.00     0.188 C 
ENDROOT
BRANCH   1   2
ATOM      2  O   UNL A   1      35.475  23.038  26.716  1.00  0.00    -0.376 OA
BRANCH   2   3
ATOM      3  C   UNL A   1      34.401  22.141  26.905  1.00  0.00     0.202 C 
BRANCH   3   4
ATOM      4  C   UNL A   1      33.588  22.578  28.115  1.00  0.00     0.261 C 
BRANCH   4   5
ATOM      5  O   UNL A   1      32.150  22.540  27.950  1.00  0.00    -0.463 OA
BRANCH   5   6
ATOM      6  C   UNL A   1      31.408  23.044  26.941  1.00  0.00     0.310 C 
ATOM      7  O   UNL A   1      30.769  24.080  27.131  1.00  0.00    -0.252 OA
BRANCH   6   8
ATOM      8  C   UNL A   1      31.283  22.296  25.633  1.00  0.00     0.158 C 
BRANCH   8   9
ATOM      9  C   UNL A   1      31.882  22.941  24.404  1.00  0.00    -0.029 A 
ATOM     10  C   UNL A   1      31.638  24.308  24.159  1.00  0.00     0.005 A 
ATOM     11  C   UNL A   1      32.614  22.196  23.449  1.00  0.00    -0.014 A 
ATOM     12  C   UNL A   1      32.143  24.938  23.024  1.00  0.00     0.000 A 
ATOM     13  C   UNL A   1      33.078  22.844  22.290  1.00  0.00     0.009 A 
ATOM     14  C   UNL A   1      32.856  24.204  22.085  1.00  0.00     0.001 A 
BRANCH  11  15
ATOM     15  C   UNL A   1      32.918  20.749  23.577  1.00  0.00    -0.011 A 
ATOM     16  C   UNL A   1      33.750  20.202  24.629  1.00  0.00     0.027 A 
ATOM     17  C   UNL A   1      32.308  19.893  22.735  1.00  0.00     0.080 A 
ATOM     18  C   UNL A   1      33.897  18.877  24.759  1.00  0.00     0.095 A 
ATOM     19  C   UNL A   1      32.504  18.418  22.837  1.00  0.00     0.255 A 
ATOM     20  N   UNL A   1      33.317  17.994  23.869  1.00  0.00    -0.258 N 
ATOM     21  O   UNL A   1      31.949  17.705  22.005  1.00  0.00    -0.269 OA
BRANCH  20  22
ATOM     22  C   UNL A   1      33.495  16.570  24.042  1.00  0.00     0.451 C 
ATOM     23  F   UNL A   1      34.776  16.205  23.795  1.00  0.00    -0.185 F 
ATOM     24  F   UNL A   1      33.223  16.219  25.328  1.00  0.00    -0.185 F 
ENDBRANCH  20  22
ENDBRANCH  11  15
ENDBRANCH   8   9
ENDBRANCH   6   8
ENDBRANCH   5   6
ENDBRANCH   4   5
ENDBRANCH   3   4
ENDBRANCH   2   3
ENDBRANCH   1   2
BRANCH   1  25
ATOM     25  C   UNL A   1      36.972  22.937  24.791  1.00  0.00     0.188 C 
BRANCH  25  26
ATOM     26  O   UNL A   1      37.675  21.898  25.465  1.00  0.00    -0.376 OA
BRANCH  26  27
ATOM     27  C   UNL A   1      37.578  20.560  24.994  1.00  0.00     0.202 C 
BRANCH  27  28
ATOM     28  C   UNL A   1      38.761  19.625  25.261  1.00  0.00     0.261 C 
BRANCH  28  29
ATOM     29  O   UNL A   1      39.589  20.009  26.374  1.00  0.00    -0.460 OA
BRANCH  29  30
ATOM     30  C   UNL A   1      40.920  19.825  26.190  1.00  0.00     0.338 C 
ATOM     31  O   UNL A   1      41.469  18.820  25.776  1.00  0.00    -0.246 OA
BRANCH  30  32
ATOM     32  C   UNL A   1      41.669  21.076  26.432  1.00  0.00     0.060 A 
ATOM     33  C   UNL A   1      41.811  21.514  27.756  1.00  0.00     0.016 A 
ATOM     34  C   UNL A   1      42.096  21.884  25.379  1.00  0.00     0.016 A 
ATOM     35  C   UNL A   1      42.326  22.785  28.030  1.00  0.00     0.010 A 
ATOM     36  C   UNL A   1      42.597  23.163  25.658  1.00  0.00     0.010 A 
ATOM     37  C   UNL A   1      42.683  23.637  26.980  1.00  0.00    -0.014 A 
BRANCH  37  38
ATOM     38  C   UNL A   1      43.007  25.068  27.233  1.00  0.00     0.031 A 
ATOM     39  C   UNL A   1      44.393  25.576  26.930  1.00  0.00     0.074 A 
ATOM     40  C   UNL A   1      42.098  25.917  27.747  1.00  0.00     0.049 A 
ATOM     41  N   UNL A   1      44.897  26.767  27.131  1.00  0.00    -0.248 NA
ATOM     42  C   UNL A   1      45.323  24.628  26.296  1.00  0.00     0.031 C 
ATOM     43  C   UNL A   1      40.701  25.603  28.031  1.00  0.00     0.029 A 
ATOM     44  N   UNL A   1      42.240  27.218  28.171  1.00  0.00    -0.354 N 
ATOM     45  C   UNL A   1      46.189  26.722  26.623  1.00  0.00     0.074 A 
ATOM     46  C   UNL A   1      46.415  25.369  26.162  1.00  0.00     0.031 C 
ATOM     47  C   UNL A   1      40.144  26.646  28.672  1.00  0.00     0.029 A 
ATOM     48  C   UNL A   1      41.148  27.688  28.859  1.00  0.00     0.049 A 
ATOM     49  H   UNL A   1      43.045  27.759  27.999  1.00  0.00     0.167 HD
ATOM     50  C   UNL A   1      47.091  27.726  26.501  1.00  0.00     0.034 A 
ATOM     51  C   UNL A   1      40.986  28.807  29.594  1.00  0.00     0.034 A 
ATOM     52  C   UNL A   1      46.876  29.076  26.947  1.00  0.00     0.049 A 
ATOM     53  C   UNL A   1      42.067  29.852  29.605  1.00  0.00     0.074 A 
ATOM     54  C   UNL A   1      47.703  30.175  26.795  1.00  0.00     0.029 A 
ATOM     55  N   UNL A   1      45.767  29.508  27.653  1.00  0.00    -0.354 N 
ATOM     56  N   UNL A   1      43.218  29.848  28.980  1.00  0.00    -0.248 NA
ATOM     57  C   UNL A   1      41.799  31.085  30.360  1.00  0.00     0.031 C 
ATOM     58  C   UNL A   1      47.103  31.269  27.430  1.00  0.00     0.029 A 
ATOM     59  C   UNL A   1      45.895  30.852  27.962  1.00  0.00     0.049 A 
ATOM     60  H   UNL A   1      45.000  28.943  27.900  1.00  0.00     0.167 HD
ATOM     61  C   UNL A   1      43.769  31.107  29.193  1.00  0.00     0.074 A 
ATOM     62  C   UNL A   1      42.836  31.839  30.024  1.00  0.00     0.031 C 
ATOM     63  C   UNL A   1      44.938  31.610  28.726  1.00  0.00     0.034 A 
BRANCH  50  64
ATOM     64  C   UNL A   1      48.372  27.419  25.777  1.00  0.00     0.023 A 
ATOM     65  C   UNL A   1      49.475  26.943  26.518  1.00  0.00     0.012 A 
ATOM     66  C   UNL A   1      48.472  27.526  24.378  1.00  0.00     0.148 A 
ATOM     67  C   UNL A   1      50.665  26.601  25.879  1.00  0.00     0.002 A 
ATOM     68  C   UNL A   1      49.650  27.149  23.744  1.00  0.00     0.091 A 
ATOM     69  F   UNL A   1      47.417  27.998  23.698  1.00  0.00    -0.205 F 
ATOM     70  C   UNL A   1      50.749  26.695  24.492  1.00  0.00     0.022 A 
BRANCH  68  71
ATOM     71  S   UNL A   1      49.839  27.169  21.958  1.00  0.00     0.127 S 
ATOM     72  O   UNL A   1      48.768  26.265  21.539  1.00  0.00    -0.237 OA
ATOM     73  O   UNL A   1      49.606  28.579  21.640  1.00  0.00    -0.237 OA
ATOM     74  O   UNL A   1      51.191  26.701  21.692  1.00  0.00    -0.744 OA
ENDBRANCH  68  71
ENDBRANCH  50  64
BRANCH  51  75
ATOM     75  C   UNL A   1      39.741  29.006  30.386  1.00  0.00     0.023 A 
ATOM     76  C   UNL A   1      39.545  28.297  31.585  1.00  0.00     0.012 A 
ATOM     77  C   UNL A   1      38.735  29.878  29.927  1.00  0.00     0.148 A 
ATOM     78  C   UNL A   1      38.348  28.420  32.292  1.00  0.00     0.002 A 
ATOM     79  C   UNL A   1      37.562  30.024  30.657  1.00  0.00     0.091 A 
ATOM     80  F   UNL A   1      38.946  30.545  28.783  1.00  0.00    -0.205 F 
ATOM     81  C   UNL A   1      37.359  29.285  31.831  1.00  0.00     0.022 A 
BRANCH  79  82
ATOM     82  S   UNL A   1      36.288  31.200  30.188  1.00  0.00     0.127 S 
ATOM     83  O   UNL A   1      35.521  31.320  31.424  1.00  0.00    -0.237 OA
ATOM     84  O   UNL A   1      37.082  32.376  29.831  1.00  0.00    -0.237 OA
ATOM     85  O   UNL A   1      35.600  30.582  29.061  1.00  0.00    -0.744 OA
ENDBRANCH  79  82
ENDBRANCH  51  75
BRANCH  63  86
ATOM     86  C   UNL A   1      45.251  33.053  29.023  1.00  0.00     0.023 A 
ATOM     87  C   UNL A   1      45.785  33.418  30.275  1.00  0.00     0.012 A 
ATOM     88  C   UNL A   1      45.060  34.043  28.038  1.00  0.00     0.148 A 
ATOM     89  C   UNL A   1      46.093  34.750  30.552  1.00  0.00     0.002 A 
ATOM     90  C   UNL A   1      45.414  35.361  28.306  1.00  0.00     0.091 A 
ATOM     91  F   UNL A   1      44.527  33.683  26.862  1.00  0.00    -0.205 F 
ATOM     92  C   UNL A   1      45.919  35.718  29.566  1.00  0.00     0.022 A 
BRANCH  90  93
ATOM     93  S   UNL A   1      45.306  36.652  27.060  1.00  0.00     0.127 S 
ATOM     94  O   UNL A   1      43.860  36.812  26.919  1.00  0.00    -0.237 OA
ATOM     95  O   UNL A   1      45.982  37.775  27.713  1.00  0.00    -0.237 OA
ATOM     96  O   UNL A   1      46.000  36.133  25.890  1.00  0.00    -0.744 OA
ENDBRANCH  90  93
ENDBRANCH  63  86
ENDBRANCH  37  38
ENDBRANCH  30  32
ENDBRANCH  29  30
ENDBRANCH  28  29
ENDBRANCH  27  28
ENDBRANCH  26  27
ENDBRANCH  25  26
ENDBRANCH   1  25
TORSDOF 23
ENDMDL
MODEL 3
REMARK VINA RESULT:     -10.7      2.497      3.746
REMARK SMILES O=C(Cc1ccccc1-c1ccn(C(F)F)c(=O)c1)OCCOCCOCCOC(=O)c1ccc(-c2c3nc(c(-c4cccc(S(=O)(=O)[O-])c4F)c4ccc([nH]4)c(-c4cccc(S(=O)(=O)[O-])c4F)c4nc(c(-c5cccc(S(=O)(=O)[O-])c5F)c5ccc2[nH]5)C=C4)C=C3)cc1
REMARK SMILES IDX 24 1 23 2 22 3 21 4 20 5 2 6 1 7 3 8 4 9 5 10 9 11 6 12 8 13
REMARK SMILES IDX 7 14 10 15 11 16 19 17 12 18 17 19 13 20 18 21 14 22 15 23
REMARK SMILES IDX 16 24 25 25 26 26 27 27 28 28 29 29 30 30 31 31 32 32 33 33
REMARK SMILES IDX 94 34 34 35 93 36 35 37 36 38 37 39 87 40 38 41 92 42 86 43
REMARK SMILES IDX 88 44 39 45 91 46 85 47 84 48 40 50 72 51 52 52 71 53 53 54
REMARK SMILES IDX 56 55 70 56 89 57 54 58 55 59 69 61 90 62 57 63 41 64 42 65
REMARK SMILES IDX 50 66 43 67 45 68 51 69 44 70 46 71 47 72 48 73 49 74 73 75
REMARK SMILES IDX 74 76 82 77 75 78 77 79 83 80 76 81 78 82 79 83 80 84 81 85
REMARK SMILES IDX 58 86 59 87 67 88 60 89 62 90 68 91 61 92 63 93 64 94 65 95
REMARK SMILES IDX 66 96
REMARK H PARENT 88 49 56 60
REMARK Flexibility Score: inf
ROOT
ATOM      1  C   UNL A   1      35.930  23.667  25.440  1.00  0.00     0.188 C 
ENDROOT
BRANCH   1   2
ATOM      2  O   UNL A   1      35.143  22.753  26.182  1.00  0.00    -0.376 OA
BRANCH   2   3
ATOM      3  C   UNL A   1      34.227  23.320  27.096  1.00  0.00     0.202 C 
BRANCH   3   4
ATOM      4  C   UNL A   1      33.423  22.209  27.756  1.00  0.00     0.261 C 
BRANCH   4   5
ATOM      5  O   UNL A   1      32.000  22.446  27.865  1.00  0.00    -0.463 OA
BRANCH   5   6
ATOM      6  C   UNL A   1      31.161  22.958  26.938  1.00  0.00     0.310 C 
ATOM      7  O   UNL A   1      30.436  23.904  27.248  1.00  0.00    -0.252 OA
BRANCH   6   8
ATOM      8  C   UNL A   1      31.043  22.318  25.573  1.00  0.00     0.158 C 
BRANCH   8   9
ATOM      9  C   UNL A   1      31.780  22.977  24.431  1.00  0.00    -0.029 A 
ATOM     10  C   UNL A   1      31.573  24.349  24.180  1.00  0.00     0.005 A 
ATOM     11  C   UNL A   1      32.611  22.241  23.552  1.00  0.00    -0.014 A 
ATOM     12  C   UNL A   1      32.205  24.992  23.119  1.00  0.00     0.000 A 
ATOM     13  C   UNL A   1      33.206  22.903  22.462  1.00  0.00     0.009 A 
ATOM     14  C   UNL A   1      33.016  24.268  22.256  1.00  0.00     0.001 A 
BRANCH  11  15
ATOM     15  C   UNL A   1      32.891  20.790  23.690  1.00  0.00    -0.011 A 
ATOM     16  C   UNL A   1      33.619  20.225  24.808  1.00  0.00     0.027 A 
ATOM     17  C   UNL A   1      32.354  19.949  22.786  1.00  0.00     0.080 A 
ATOM     18  C   UNL A   1      33.743  18.897  24.935  1.00  0.00     0.095 A 
ATOM     19  C   UNL A   1      32.528  18.471  22.889  1.00  0.00     0.255 A 
ATOM     20  N   UNL A   1      33.240  18.028  23.986  1.00  0.00    -0.258 N 
ATOM     21  O   UNL A   1      32.046  17.771  22.002  1.00  0.00    -0.269 OA
BRANCH  20  22
ATOM     22  C   UNL A   1      33.391  16.602  24.158  1.00  0.00     0.451 C 
ATOM     23  F   UNL A   1      34.397  16.121  23.389  1.00  0.00    -0.185 F 
ATOM     24  F   UNL A   1      33.710  16.319  25.450  1.00  0.00    -0.185 F 
ENDBRANCH  20  22
ENDBRANCH  11  15
ENDBRANCH   8   9
ENDBRANCH   6   8
ENDBRANCH   5   6
ENDBRANCH   4   5
ENDBRANCH   3   4
ENDBRANCH   2   3
ENDBRANCH   1   2
BRANCH   1  25
ATOM     25  C   UNL A   1      37.221  23.009  24.928  1.00  0.00     0.188 C 
BRANCH  25  26
ATOM     26  O   UNL A   1      37.747  21.864  25.592  1.00  0.00    -0.376 OA
BRANCH  26  27
ATOM     27  C   UNL A   1      37.697  20.594  24.955  1.00  0.00     0.202 C 
BRANCH  27  28
ATOM     28  C   UNL A   1      38.801  19.587  25.289  1.00  0.00     0.261 C 
BRANCH  28  29
ATOM     29  O   UNL A   1      39.662  19.979  26.373  1.00  0.00    -0.460 OA
BRANCH  29  30
ATOM     30  C   UNL A   1      40.976  19.694  26.194  1.00  0.00     0.338 C 
ATOM     31  O   UNL A   1      41.447  18.660  25.753  1.00  0.00    -0.246 OA
BRANCH  30  32
ATOM     32  C   UNL A   1      41.822  20.870  26.485  1.00  0.00     0.060 A 
ATOM     33  C   UNL A   1      42.028  21.220  27.827  1.00  0.00     0.016 A 
ATOM     34  C   UNL A   1      42.282  21.705  25.467  1.00  0.00     0.016 A 
ATOM     35  C   UNL A   1      42.643  22.431  28.157  1.00  0.00     0.010 A 
ATOM     36  C   UNL A   1      42.883  22.926  25.802  1.00  0.00     0.010 A 
ATOM     37  C   UNL A   1      43.037  23.315  27.147  1.00  0.00    -0.014 A 
BRANCH  37  38
ATOM     38  C   UNL A   1      43.471  24.702  27.470  1.00  0.00     0.031 A 
ATOM     39  C   UNL A   1      42.438  25.725  27.866  1.00  0.00     0.074 A 
ATOM     40  C   UNL A   1      44.763  25.072  27.398  1.00  0.00     0.049 A 
ATOM     41  N   UNL A   1      42.596  26.997  28.130  1.00  0.00    -0.248 NA
ATOM     42  C   UNL A   1      41.052  25.249  28.008  1.00  0.00     0.031 C 
ATOM     43  C   UNL A   1      45.888  24.191  27.097  1.00  0.00     0.029 A 
ATOM     44  N   UNL A   1      45.337  26.316  27.523  1.00  0.00    -0.354 N 
ATOM     45  C   UNL A   1      41.342  27.467  28.496  1.00  0.00     0.074 A 
ATOM     46  C   UNL A   1      40.420  26.359  28.361  1.00  0.00     0.031 C 
ATOM     47  C   UNL A   1      46.999  24.937  26.964  1.00  0.00     0.029 A 
ATOM     48  C   UNL A   1      46.659  26.344  27.150  1.00  0.00     0.049 A 
ATOM     49  H   UNL A   1      44.849  27.107  27.848  1.00  0.00     0.167 HD
ATOM     50  C   UNL A   1      40.993  28.693  28.956  1.00  0.00     0.034 A 
ATOM     51  C   UNL A   1      47.491  27.384  26.938  1.00  0.00     0.034 A 
ATOM     52  C   UNL A   1      41.900  29.799  29.103  1.00  0.00     0.049 A 
ATOM     53  C   UNL A   1      47.041  28.778  27.282  1.00  0.00     0.074 A 
ATOM     54  C   UNL A   1      41.650  31.053  29.633  1.00  0.00     0.029 A 
ATOM     55  N   UNL A   1      43.224  29.794  28.700  1.00  0.00    -0.354 N 
ATOM     56  N   UNL A   1      45.896  29.171  27.780  1.00  0.00    -0.248 NA
ATOM     57  C   UNL A   1      48.020  29.861  27.103  1.00  0.00     0.031 C 
ATOM     58  C   UNL A   1      42.820  31.816  29.529  1.00  0.00     0.029 A 
ATOM     59  C   UNL A   1      43.800  31.029  28.949  1.00  0.00     0.049 A 
ATOM     60  H   UNL A   1      43.688  29.027  28.295  1.00  0.00     0.167 HD
ATOM     61  C   UNL A   1      46.047  30.525  28.057  1.00  0.00     0.074 A 
ATOM     62  C   UNL A   1      47.388  30.890  27.649  1.00  0.00     0.031 C 
ATOM     63  C   UNL A   1      45.156  31.381  28.615  1.00  0.00     0.034 A 
BRANCH  50  64
ATOM     64  C   UNL A   1      39.573  28.881  29.415  1.00  0.00     0.023 A 
ATOM     65  C   UNL A   1      39.242  28.568  30.750  1.00  0.00     0.012 A 
ATOM     66  C   UNL A   1      38.592  29.427  28.567  1.00  0.00     0.148 A 
ATOM     67  C   UNL A   1      37.949  28.773  31.228  1.00  0.00     0.002 A 
ATOM     68  C   UNL A   1      37.314  29.662  29.060  1.00  0.00     0.091 A 
ATOM     69  F   UNL A   1      38.925  29.698  27.297  1.00  0.00    -0.205 F 
ATOM     70  C   UNL A   1      36.989  29.328  30.387  1.00  0.00     0.022 A 
BRANCH  68  71
ATOM     71  S   UNL A   1      36.023  30.434  28.080  1.00  0.00     0.127 S 
ATOM     72  O   UNL A   1      36.485  31.821  28.025  1.00  0.00    -0.237 OA
ATOM     73  O   UNL A   1      36.123  29.708  26.813  1.00  0.00    -0.237 OA
ATOM     74  O   UNL A   1      34.781  30.218  28.809  1.00  0.00    -0.744 OA
ENDBRANCH  68  71
ENDBRANCH  50  64
BRANCH  51  75
ATOM     75  C   UNL A   1      48.847  27.151  26.371  1.00  0.00     0.023 A 
ATOM     76  C   UNL A   1      49.025  27.060  24.979  1.00  0.00     0.012 A 
ATOM     77  C   UNL A   1      49.957  26.986  27.221  1.00  0.00     0.148 A 
ATOM     78  C   UNL A   1      50.279  26.765  24.443  1.00  0.00     0.002 A 
ATOM     79  C   UNL A   1      51.211  26.731  26.678  1.00  0.00     0.091 A 
ATOM     80  F   UNL A   1      49.763  27.081  28.544  1.00  0.00    -0.205 F 
ATOM     81  C   UNL A   1      51.372  26.604  25.291  1.00  0.00     0.022 A 
BRANCH  79  82
ATOM     82  S   UNL A   1      52.686  26.620  27.697  1.00  0.00     0.127 S 
ATOM     83  O   UNL A   1      52.147  26.098  28.949  1.00  0.00    -0.237 OA
ATOM     84  O   UNL A   1      53.509  25.680  26.934  1.00  0.00    -0.237 OA
ATOM     85  O   UNL A   1      53.218  27.976  27.741  1.00  0.00    -0.744 OA
ENDBRANCH  79  82
ENDBRANCH  51  75
BRANCH  63  86
ATOM     86  C   UNL A   1      45.616  32.786  28.903  1.00  0.00     0.023 A 
ATOM     87  C   UNL A   1      46.274  33.080  30.114  1.00  0.00     0.012 A 
ATOM     88  C   UNL A   1      45.440  33.806  27.947  1.00  0.00     0.148 A 
ATOM     89  C   UNL A   1      46.718  34.375  30.381  1.00  0.00     0.002 A 
ATOM     90  C   UNL A   1      45.928  35.082  28.201  1.00  0.00     0.091 A 
ATOM     91  F   UNL A   1      44.789  33.515  26.811  1.00  0.00    -0.205 F 
ATOM     92  C   UNL A   1      46.556  35.372  29.422  1.00  0.00     0.022 A 
BRANCH  90  93
ATOM     93  S   UNL A   1      45.841  36.400  26.982  1.00  0.00     0.127 S 
ATOM     94  O   UNL A   1      44.411  36.702  26.969  1.00  0.00    -0.237 OA
ATOM     95  O   UNL A   1      46.678  37.440  27.583  1.00  0.00    -0.237 OA
ATOM     96  O   UNL A   1      46.377  35.837  25.750  1.00  0.00    -0.744 OA
ENDBRANCH  90  93
ENDBRANCH  63  86
ENDBRANCH  37  38
ENDBRANCH  30  32
ENDBRANCH  29  30
ENDBRANCH  28  29
ENDBRANCH  27  28
ENDBRANCH  26  27
ENDBRANCH  25  26
ENDBRANCH   1  25
TORSDOF 23
ENDMDL
