MODEL 1
REMARK VINA RESULT:      -9.3      0.000      0.000
REMARK SMILES COc1cc(/C=C/C(=O)c2ccc(OCC(=O)OCCOCCOCCOC(=O)c3ccc(-c4c5nc(c(-c6cccc(S(=O)(=O)[O-])c6F)c6ccc([nH]6)c(-c6cccc(S(=O)(=O)[O-])c6F)c6nc(c(-c7cccc(S(=O)(=O)[O-])c7F)c7ccc4[nH]7)C=C6)C=C5)cc3)cc2)cc2c1OCCO2
REMARK SMILES IDX 21 1 20 2 19 3 18 4 16 5 17 6 15 7 14 8 13 9 10 10 11 11
REMARK SMILES IDX 94 12 12 13 93 14 8 15 9 16 7 17 6 18 5 19 3 20 4 21 97 22
REMARK SMILES IDX 96 23 98 24 95 25 101 26 99 27 100 28 2 29 1 30 22 31 23 32
REMARK SMILES IDX 24 33 25 34 26 35 27 36 28 37 29 38 30 39 31 40 92 41 32 42
REMARK SMILES IDX 91 43 33 44 34 45 35 46 85 47 36 48 90 49 84 50 86 51 37 52
REMARK SMILES IDX 89 53 83 54 82 55 38 57 70 58 50 59 69 60 51 61 54 62 68 63
REMARK SMILES IDX 87 64 52 65 53 66 67 68 88 69 55 70 39 71 40 72 48 73 41 74
REMARK SMILES IDX 43 75 49 76 42 77 44 78 45 79 46 80 47 81 71 82 72 83 80 84
REMARK SMILES IDX 73 85 75 86 81 87 74 88 76 89 77 90 78 91 79 92 56 93 57 94
REMARK SMILES IDX 65 95 58 96 60 97 66 98 59 99 61 100 62 101 63 102 64 103
REMARK H PARENT 86 56 54 67
REMARK Flexibility Score: inf
ROOT
ATOM      1  O   UNL A   1      51.587  22.526  35.009  1.00  0.00    -0.376 OA
ENDROOT
BRANCH   1   2
ATOM      2  C   UNL A   1      52.456  21.792  35.865  1.00  0.00     0.202 C 
BRANCH   2   3
ATOM      3  C   UNL A   1      52.127  20.294  35.945  1.00  0.00     0.261 C 
BRANCH   3   4
ATOM      4  O   UNL A   1      50.937  20.057  36.739  1.00  0.00    -0.461 OA
BRANCH   4   5
ATOM      5  C   UNL A   1      50.947  20.470  38.036  1.00  0.00     0.344 C 
ATOM      6  O   UNL A   1      51.484  21.505  38.416  1.00  0.00    -0.248 OA
BRANCH   5   7
ATOM      7  C   UNL A   1      50.071  19.588  38.965  1.00  0.00     0.351 C 
BRANCH   7   8
ATOM      8  O   UNL A   1      48.687  19.440  38.657  1.00  0.00    -0.482 OA
BRANCH   8   9
ATOM      9  C   UNL A   1      47.801  18.983  39.606  1.00  0.00     0.120 A 
ATOM     10  C   UNL A   1      45.561  18.277  41.241  1.00  0.00     0.022 A 
ATOM     11  C   UNL A   1      45.634  17.885  39.896  1.00  0.00     0.016 A 
ATOM     12  C   UNL A   1      46.694  18.879  41.795  1.00  0.00     0.016 A 
ATOM     13  C   UNL A   1      46.734  18.241  39.093  1.00  0.00     0.047 A 
ATOM     14  C   UNL A   1      47.816  19.216  40.982  1.00  0.00     0.047 A 
BRANCH  10  15
ATOM     15  C   UNL A   1      44.240  18.077  41.942  1.00  0.00     0.185 C 
ATOM     16  O   UNL A   1      43.746  19.022  42.555  1.00  0.00    -0.289 OA
BRANCH  15  17
ATOM     17  C   UNL A   1      43.627  16.698  42.041  1.00  0.00     0.053 C 
ATOM     18  C   UNL A   1      43.754  16.020  43.206  1.00  0.00     0.012 C 
BRANCH  18  19
ATOM     19  C   UNL A   1      43.441  14.596  43.506  1.00  0.00    -0.018 A 
ATOM     20  C   UNL A   1      42.305  12.526  42.720  1.00  0.00     0.165 A 
ATOM     21  C   UNL A   1      42.593  13.896  42.646  1.00  0.00     0.058 A 
ATOM     22  C   UNL A   1      42.962  11.778  43.681  1.00  0.00     0.203 A 
ATOM     23  C   UNL A   1      43.863  12.437  44.542  1.00  0.00     0.165 A 
ATOM     24  O   UNL A   1      42.770  10.420  43.697  1.00  0.00    -0.483 OA
ATOM     25  C   UNL A   1      44.078  13.835  44.478  1.00  0.00     0.058 A 
ATOM     26  O   UNL A   1      44.629  11.755  45.459  1.00  0.00    -0.486 OA
ATOM     27  C   UNL A   1      43.320   9.807  44.863  1.00  0.00     0.271 C 
ATOM     28  C   UNL A   1      44.704  10.361  45.138  1.00  0.00     0.271 C 
BRANCH  20  29
ATOM     29  O   UNL A   1      41.471  12.056  41.740  1.00  0.00    -0.493 OA
ATOM     30  C   UNL A   1      41.422  12.821  40.535  1.00  0.00     0.278 C 
ENDBRANCH  20  29
ENDBRANCH  18  19
ENDBRANCH  15  17
ENDBRANCH  10  15
ENDBRANCH   8   9
ENDBRANCH   7   8
ENDBRANCH   5   7
ENDBRANCH   4   5
ENDBRANCH   3   4
ENDBRANCH   2   3
ENDBRANCH   1   2
BRANCH   1  31
ATOM     31  C   UNL A   1      50.730  23.475  35.638  1.00  0.00     0.188 C 
BRANCH  31  32
ATOM     32  C   UNL A   1      49.249  23.097  35.736  1.00  0.00     0.188 C 
BRANCH  32  33
ATOM     33  O   UNL A   1      48.812  23.152  37.089  1.00  0.00    -0.376 OA
BRANCH  33  34
ATOM     34  C   UNL A   1      49.535  24.095  37.849  1.00  0.00     0.202 C 
BRANCH  34  35
ATOM     35  C   UNL A   1      48.935  25.496  37.708  1.00  0.00     0.261 C 
BRANCH  35  36
ATOM     36  O   UNL A   1      47.835  25.703  36.767  1.00  0.00    -0.460 OA
BRANCH  36  37
ATOM     37  C   UNL A   1      48.030  26.617  35.792  1.00  0.00     0.338 C 
ATOM     38  O   UNL A   1      49.084  27.205  35.628  1.00  0.00    -0.246 OA
BRANCH  37  39
ATOM     39  C   UNL A   1      46.866  26.906  34.909  1.00  0.00     0.060 A 
ATOM     40  C   UNL A   1      46.927  28.045  34.106  1.00  0.00     0.016 A 
ATOM     41  C   UNL A   1      45.623  26.292  35.097  1.00  0.00     0.016 A 
ATOM     42  C   UNL A   1      45.760  28.613  33.572  1.00  0.00     0.010 A 
ATOM     43  C   UNL A   1      44.456  26.830  34.515  1.00  0.00     0.010 A 
ATOM     44  C   UNL A   1      44.503  28.011  33.759  1.00  0.00    -0.014 A 
BRANCH  44  45
ATOM     45  C   UNL A   1      43.294  28.541  33.051  1.00  0.00     0.031 A 
ATOM     46  C   UNL A   1      42.284  29.454  33.709  1.00  0.00     0.074 A 
ATOM     47  C   UNL A   1      43.081  28.149  31.778  1.00  0.00     0.049 A 
ATOM     48  N   UNL A   1      41.140  29.891  33.239  1.00  0.00    -0.248 NA
ATOM     49  C   UNL A   1      42.594  29.946  35.060  1.00  0.00     0.031 C 
ATOM     50  C   UNL A   1      43.962  27.257  31.021  1.00  0.00     0.029 A 
ATOM     51  N   UNL A   1      42.057  28.423  30.902  1.00  0.00    -0.354 N 
ATOM     52  C   UNL A   1      40.567  30.664  34.246  1.00  0.00     0.074 A 
ATOM     53  C   UNL A   1      41.507  30.657  35.349  1.00  0.00     0.031 C 
ATOM     54  C   UNL A   1      43.447  27.057  29.802  1.00  0.00     0.029 A 
ATOM     55  C   UNL A   1      42.162  27.740  29.710  1.00  0.00     0.049 A 
ATOM     56  H   UNL A   1      41.322  29.044  31.106  1.00  0.00     0.167 HD
ATOM     57  C   UNL A   1      39.375  31.316  34.250  1.00  0.00     0.034 A 
ATOM     58  C   UNL A   1      41.311  27.622  28.674  1.00  0.00     0.034 A 
ATOM     59  C   UNL A   1      38.457  31.358  33.137  1.00  0.00     0.049 A 
ATOM     60  C   UNL A   1      40.003  28.355  28.705  1.00  0.00     0.074 A 
ATOM     61  C   UNL A   1      37.253  32.040  33.041  1.00  0.00     0.029 A 
ATOM     62  N   UNL A   1      38.629  30.695  31.933  1.00  0.00    -0.354 N 
ATOM     63  N   UNL A   1      39.528  29.146  29.634  1.00  0.00    -0.248 NA
ATOM     64  C   UNL A   1      39.121  28.192  27.540  1.00  0.00     0.031 C 
ATOM     65  C   UNL A   1      36.690  31.774  31.787  1.00  0.00     0.029 A 
ATOM     66  C   UNL A   1      37.551  30.940  31.094  1.00  0.00     0.049 A 
ATOM     67  H   UNL A   1      39.403  30.131  31.705  1.00  0.00     0.167 HD
ATOM     68  C   UNL A   1      38.298  29.588  29.162  1.00  0.00     0.074 A 
ATOM     69  C   UNL A   1      38.117  29.001  27.850  1.00  0.00     0.031 C 
ATOM     70  C   UNL A   1      37.393  30.389  29.773  1.00  0.00     0.034 A 
BRANCH  57  71
ATOM     71  C   UNL A   1      38.974  32.076  35.494  1.00  0.00     0.023 A 
ATOM     72  C   UNL A   1      38.203  31.436  36.484  1.00  0.00     0.012 A 
ATOM     73  C   UNL A   1      39.467  33.375  35.738  1.00  0.00     0.148 A 
ATOM     74  C   UNL A   1      37.916  32.080  37.688  1.00  0.00     0.002 A 
ATOM     75  C   UNL A   1      39.204  33.999  36.954  1.00  0.00     0.091 A 
ATOM     76  F   UNL A   1      40.191  33.974  34.781  1.00  0.00    -0.205 F 
ATOM     77  C   UNL A   1      38.423  33.356  37.927  1.00  0.00     0.022 A 
BRANCH  75  78
ATOM     78  S   UNL A   1      39.878  35.610  37.383  1.00  0.00     0.127 S 
ATOM     79  O   UNL A   1      41.300  35.305  37.534  1.00  0.00    -0.237 OA
ATOM     80  O   UNL A   1      39.549  36.410  36.203  1.00  0.00    -0.237 OA
ATOM     81  O   UNL A   1      39.191  36.018  38.601  1.00  0.00    -0.744 OA
ENDBRANCH  75  78
ENDBRANCH  57  71
BRANCH  58  82
ATOM     82  C   UNL A   1      41.694  26.767  27.515  1.00  0.00     0.023 A 
ATOM     83  C   UNL A   1      42.422  27.323  26.448  1.00  0.00     0.012 A 
ATOM     84  C   UNL A   1      41.414  25.386  27.512  1.00  0.00     0.148 A 
ATOM     85  C   UNL A   1      42.859  26.518  25.395  1.00  0.00     0.002 A 
ATOM     86  C   UNL A   1      41.912  24.581  26.497  1.00  0.00     0.091 A 
ATOM     87  F   UNL A   1      40.693  24.879  28.524  1.00  0.00    -0.205 F 
ATOM     88  C   UNL A   1      42.622  25.146  25.429  1.00  0.00     0.022 A 
BRANCH  86  89
ATOM     89  S   UNL A   1      41.795  22.789  26.579  1.00  0.00     0.127 S 
ATOM     90  O   UNL A   1      40.420  22.557  26.148  1.00  0.00    -0.237 OA
ATOM     91  O   UNL A   1      42.821  22.366  25.625  1.00  0.00    -0.237 OA
ATOM     92  O   UNL A   1      42.101  22.453  27.964  1.00  0.00    -0.744 OA
ENDBRANCH  86  89
ENDBRANCH  58  82
BRANCH  70  93
ATOM     93  C   UNL A   1      36.122  30.690  29.025  1.00  0.00     0.023 A 
ATOM     94  C   UNL A   1      35.392  29.634  28.444  1.00  0.00     0.012 A 
ATOM     95  C   UNL A   1      35.628  32.006  28.932  1.00  0.00     0.148 A 
ATOM     96  C   UNL A   1      34.206  29.885  27.757  1.00  0.00     0.002 A 
ATOM     97  C   UNL A   1      34.423  32.243  28.278  1.00  0.00     0.091 A 
ATOM     98  F   UNL A   1      36.349  33.000  29.468  1.00  0.00    -0.205 F 
ATOM     99  C   UNL A   1      33.716  31.187  27.682  1.00  0.00     0.022 A 
BRANCH  97 100
ATOM    100  S   UNL A   1      33.683  33.879  28.203  1.00  0.00     0.127 S 
ATOM    101  O   UNL A   1      33.640  34.253  29.614  1.00  0.00    -0.237 OA
ATOM    102  O   UNL A   1      34.654  34.628  27.403  1.00  0.00    -0.237 OA
ATOM    103  O   UNL A   1      32.388  33.699  27.559  1.00  0.00    -0.744 OA
ENDBRANCH  97 100
ENDBRANCH  70  93
ENDBRANCH  44  45
ENDBRANCH  37  39
ENDBRANCH  36  37
ENDBRANCH  35  36
ENDBRANCH  34  35
ENDBRANCH  33  34
ENDBRANCH  32  33
ENDBRANCH  31  32
ENDBRANCH   1  31
TORSDOF 26
ENDMDL
MODEL 2
REMARK VINA RESULT:      -9.0      4.699      7.283
REMARK SMILES COc1cc(/C=C/C(=O)c2ccc(OCC(=O)OCCOCCOCCOC(=O)c3ccc(-c4c5nc(c(-c6cccc(S(=O)(=O)[O-])c6F)c6ccc([nH]6)c(-c6cccc(S(=O)(=O)[O-])c6F)c6nc(c(-c7cccc(S(=O)(=O)[O-])c7F)c7ccc4[nH]7)C=C6)C=C5)cc3)cc2)cc2c1OCCO2
REMARK SMILES IDX 21 1 20 2 19 3 18 4 16 5 17 6 15 7 14 8 13 9 10 10 11 11
REMARK SMILES IDX 94 12 12 13 93 14 8 15 9 16 7 17 6 18 5 19 3 20 4 21 97 22
REMARK SMILES IDX 96 23 98 24 95 25 101 26 99 27 100 28 2 29 1 30 22 31 23 32
REMARK SMILES IDX 24 33 25 34 26 35 27 36 28 37 29 38 30 39 31 40 92 41 32 42
REMARK SMILES IDX 91 43 33 44 34 45 35 46 85 47 36 48 90 49 84 50 86 51 37 52
REMARK SMILES IDX 89 53 83 54 82 55 38 57 70 58 50 59 69 60 51 61 54 62 68 63
REMARK SMILES IDX 87 64 52 65 53 66 67 68 88 69 55 70 39 71 40 72 48 73 41 74
REMARK SMILES IDX 43 75 49 76 42 77 44 78 45 79 46 80 47 81 71 82 72 83 80 84
REMARK SMILES IDX 73 85 75 86 81 87 74 88 76 89 77 90 78 91 79 92 56 93 57 94
REMARK SMILES IDX 65 95 58 96 60 97 66 98 59 99 61 100 62 101 63 102 64 103
REMARK H PARENT 86 56 54 67
REMARK Flexibility Score: inf
ROOT
ATOM      1  O   UNL A   1      52.891  22.087  34.256  1.00  0.00    -0.376 OA
ENDROOT
BRANCH   1   2
ATOM      2  C   UNL A   1      51.987  21.070  34.673  1.00  0.00     0.202 C 
BRANCH   2   3
ATOM      3  C   UNL A   1      50.894  20.751  33.643  1.00  0.00     0.261 C 
BRANCH   3   4
ATOM      4  O   UNL A   1      49.820  19.978  34.235  1.00  0.00    -0.461 OA
BRANCH   4   5
ATOM      5  C   UNL A   1      48.630  19.937  33.576  1.00  0.00     0.344 C 
ATOM      6  O   UNL A   1      48.459  19.342  32.517  1.00  0.00    -0.248 OA
BRANCH   5   7
ATOM      7  C   UNL A   1      47.465  20.577  34.378  1.00  0.00     0.351 C 
BRANCH   7   8
ATOM      8  O   UNL A   1      47.606  20.718  35.789  1.00  0.00    -0.482 OA
BRANCH   8   9
ATOM      9  C   UNL A   1      46.764  21.543  36.500  1.00  0.00     0.120 A 
ATOM     10  C   UNL A   1      45.206  23.666  37.619  1.00  0.00     0.022 A 
ATOM     11  C   UNL A   1      45.106  23.326  36.262  1.00  0.00     0.016 A 
ATOM     12  C   UNL A   1      45.966  22.825  38.436  1.00  0.00     0.016 A 
ATOM     13  C   UNL A   1      45.880  22.286  35.713  1.00  0.00     0.047 A 
ATOM     14  C   UNL A   1      46.730  21.758  37.879  1.00  0.00     0.047 A 
BRANCH  10  15
ATOM     15  C   UNL A   1      44.541  24.949  38.055  1.00  0.00     0.185 C 
ATOM     16  O   UNL A   1      43.404  25.191  37.654  1.00  0.00    -0.289 OA
BRANCH  15  17
ATOM     17  C   UNL A   1      45.322  25.995  38.818  1.00  0.00     0.053 C 
ATOM     18  C   UNL A   1      45.092  27.300  38.538  1.00  0.00     0.012 C 
BRANCH  18  19
ATOM     19  C   UNL A   1      45.850  28.504  38.974  1.00  0.00    -0.018 A 
ATOM     20  C   UNL A   1      46.254  30.932  38.603  1.00  0.00     0.165 A 
ATOM     21  C   UNL A   1      45.710  29.689  38.248  1.00  0.00     0.058 A 
ATOM     22  C   UNL A   1      46.933  31.023  39.805  1.00  0.00     0.203 A 
ATOM     23  C   UNL A   1      47.058  29.859  40.592  1.00  0.00     0.165 A 
ATOM     24  O   UNL A   1      47.378  32.254  40.213  1.00  0.00    -0.483 OA
ATOM     25  C   UNL A   1      46.551  28.607  40.169  1.00  0.00     0.058 A 
ATOM     26  O   UNL A   1      47.631  29.882  41.843  1.00  0.00    -0.486 OA
ATOM     27  C   UNL A   1      48.247  32.170  41.343  1.00  0.00     0.271 C 
ATOM     28  C   UNL A   1      47.674  31.213  42.370  1.00  0.00     0.271 C 
BRANCH  20  29
ATOM     29  O   UNL A   1      45.949  31.960  37.751  1.00  0.00    -0.493 OA
ATOM     30  C   UNL A   1      46.013  31.662  36.355  1.00  0.00     0.278 C 
ENDBRANCH  20  29
ENDBRANCH  18  19
ENDBRANCH  15  17
ENDBRANCH  10  15
ENDBRANCH   8   9
ENDBRANCH   7   8
ENDBRANCH   5   7
ENDBRANCH   4   5
ENDBRANCH   3   4
ENDBRANCH   2   3
ENDBRANCH   1   2
BRANCH   1  31
ATOM     31  C   UNL A   1      52.389  23.037  33.319  1.00  0.00     0.188 C 
BRANCH  31  32
ATOM     32  C   UNL A   1      52.058  24.427  33.868  1.00  0.00     0.188 C 
BRANCH  32  33
ATOM     33  O   UNL A   1      50.675  24.518  34.187  1.00  0.00    -0.376 OA
BRANCH  33  34
ATOM     34  C   UNL A   1      49.929  25.151  33.170  1.00  0.00     0.202 C 
BRANCH  34  35
ATOM     35  C   UNL A   1      48.504  25.454  33.637  1.00  0.00     0.261 C 
BRANCH  35  36
ATOM     36  O   UNL A   1      48.218  25.473  35.071  1.00  0.00    -0.460 OA
BRANCH  36  37
ATOM     37  C   UNL A   1      48.008  26.682  35.635  1.00  0.00     0.338 C 
ATOM     38  O   UNL A   1      48.741  27.161  36.483  1.00  0.00    -0.246 OA
BRANCH  37  39
ATOM     39  C   UNL A   1      46.799  27.426  35.186  1.00  0.00     0.060 A 
ATOM     40  C   UNL A   1      45.577  26.753  35.206  1.00  0.00     0.016 A 
ATOM     41  C   UNL A   1      46.891  28.614  34.453  1.00  0.00     0.016 A 
ATOM     42  C   UNL A   1      44.493  27.207  34.440  1.00  0.00     0.010 A 
ATOM     43  C   UNL A   1      45.784  29.101  33.726  1.00  0.00     0.010 A 
ATOM     44  C   UNL A   1      44.572  28.394  33.692  1.00  0.00    -0.014 A 
BRANCH  44  45
ATOM     45  C   UNL A   1      43.358  28.946  33.010  1.00  0.00     0.031 A 
ATOM     46  C   UNL A   1      42.326  29.795  33.717  1.00  0.00     0.074 A 
ATOM     47  C   UNL A   1      43.162  28.633  31.712  1.00  0.00     0.049 A 
ATOM     48  N   UNL A   1      41.177  30.239  33.266  1.00  0.00    -0.248 NA
ATOM     49  C   UNL A   1      42.616  30.204  35.099  1.00  0.00     0.031 C 
ATOM     50  C   UNL A   1      44.065  27.809  30.907  1.00  0.00     0.029 A 
ATOM     51  N   UNL A   1      42.139  28.943  30.847  1.00  0.00    -0.354 N 
ATOM     52  C   UNL A   1      40.581  30.934  34.316  1.00  0.00     0.074 A 
ATOM     53  C   UNL A   1      41.513  30.873  35.425  1.00  0.00     0.031 C 
ATOM     54  C   UNL A   1      43.564  27.678  29.673  1.00  0.00     0.029 A 
ATOM     55  C   UNL A   1      42.266  28.341  29.615  1.00  0.00     0.049 A 
ATOM     56  H   UNL A   1      41.391  29.536  31.084  1.00  0.00     0.167 HD
ATOM     57  C   UNL A   1      39.377  31.561  34.353  1.00  0.00     0.034 A 
ATOM     58  C   UNL A   1      41.425  28.275  28.565  1.00  0.00     0.034 A 
ATOM     59  C   UNL A   1      38.466  31.658  33.237  1.00  0.00     0.049 A 
ATOM     60  C   UNL A   1      40.102  28.979  28.633  1.00  0.00     0.074 A 
ATOM     61  C   UNL A   1      37.249  32.322  33.175  1.00  0.00     0.029 A 
ATOM     62  N   UNL A   1      38.659  31.078  31.994  1.00  0.00    -0.354 N 
ATOM     63  N   UNL A   1      39.606  29.699  29.607  1.00  0.00    -0.248 NA
ATOM     64  C   UNL A   1      39.233  28.875  27.452  1.00  0.00     0.031 C 
ATOM     65  C   UNL A   1      36.701  32.126  31.902  1.00  0.00     0.029 A 
ATOM     66  C   UNL A   1      37.584  31.356  31.163  1.00  0.00     0.049 A 
ATOM     67  H   UNL A   1      39.447  30.545  31.737  1.00  0.00     0.167 HD
ATOM     68  C   UNL A   1      38.371  30.147  29.154  1.00  0.00     0.074 A 
ATOM     69  C   UNL A   1      38.211  29.643  27.805  1.00  0.00     0.031 C 
ATOM     70  C   UNL A   1      37.445  30.889  29.808  1.00  0.00     0.034 A 
BRANCH  57  71
ATOM     71  C   UNL A   1      38.952  32.231  35.640  1.00  0.00     0.023 A 
ATOM     72  C   UNL A   1      38.096  31.552  36.529  1.00  0.00     0.012 A 
ATOM     73  C   UNL A   1      39.500  33.472  36.024  1.00  0.00     0.148 A 
ATOM     74  C   UNL A   1      37.780  32.104  37.772  1.00  0.00     0.002 A 
ATOM     75  C   UNL A   1      39.207  34.002  37.277  1.00  0.00     0.091 A 
ATOM     76  F   UNL A   1      40.305  34.111  35.161  1.00  0.00    -0.205 F 
ATOM     77  C   UNL A   1      38.342  33.322  38.150  1.00  0.00     0.022 A 
BRANCH  75  78
ATOM     78  S   UNL A   1      39.943  35.527  37.882  1.00  0.00     0.127 S 
ATOM     79  O   UNL A   1      39.390  35.607  39.233  1.00  0.00    -0.237 OA
ATOM     80  O   UNL A   1      41.374  35.227  37.827  1.00  0.00    -0.237 OA
ATOM     81  O   UNL A   1      39.508  36.571  36.964  1.00  0.00    -0.744 OA
ENDBRANCH  75  78
ENDBRANCH  57  71
BRANCH  58  82
ATOM     82  C   UNL A   1      41.833  27.504  27.357  1.00  0.00     0.023 A 
ATOM     83  C   UNL A   1      42.394  28.177  26.257  1.00  0.00     0.012 A 
ATOM     84  C   UNL A   1      41.747  26.098  27.334  1.00  0.00     0.148 A 
ATOM     85  C   UNL A   1      42.857  27.462  25.151  1.00  0.00     0.002 A 
ATOM     86  C   UNL A   1      42.273  25.390  26.261  1.00  0.00     0.091 A 
ATOM     87  F   UNL A   1      41.182  25.476  28.379  1.00  0.00    -0.205 F 
ATOM     88  C   UNL A   1      42.815  26.070  25.162  1.00  0.00     0.022 A 
BRANCH  86  89
ATOM     89  S   UNL A   1      42.411  23.599  26.299  1.00  0.00     0.127 S 
ATOM     90  O   UNL A   1      43.130  23.326  25.058  1.00  0.00    -0.237 OA
ATOM     91  O   UNL A   1      43.182  23.372  27.522  1.00  0.00    -0.237 OA
ATOM     92  O   UNL A   1      41.038  23.114  26.366  1.00  0.00    -0.744 OA
ENDBRANCH  86  89
ENDBRANCH  58  82
BRANCH  70  93
ATOM     93  C   UNL A   1      36.174  31.213  29.070  1.00  0.00     0.023 A 
ATOM     94  C   UNL A   1      35.466  30.182  28.421  1.00  0.00     0.012 A 
ATOM     95  C   UNL A   1      35.658  32.524  29.053  1.00  0.00     0.148 A 
ATOM     96  C   UNL A   1      34.280  30.455  27.742  1.00  0.00     0.002 A 
ATOM     97  C   UNL A   1      34.454  32.781  28.406  1.00  0.00     0.091 A 
ATOM     98  F   UNL A   1      36.360  33.496  29.653  1.00  0.00    -0.205 F 
ATOM     99  C   UNL A   1      33.769  31.751  27.742  1.00  0.00     0.022 A 
BRANCH  97 100
ATOM    100  S   UNL A   1      33.687  34.406  28.424  1.00  0.00     0.127 S 
ATOM    101  O   UNL A   1      33.753  34.752  29.842  1.00  0.00    -0.237 OA
ATOM    102  O   UNL A   1      34.579  35.184  27.564  1.00  0.00    -0.237 OA
ATOM    103  O   UNL A   1      32.346  34.217  27.884  1.00  0.00    -0.744 OA
ENDBRANCH  97 100
ENDBRANCH  70  93
ENDBRANCH  44  45
ENDBRANCH  37  39
ENDBRANCH  36  37
ENDBRANCH  35  36
ENDBRANCH  34  35
ENDBRANCH  33  34
ENDBRANCH  32  33
ENDBRANCH  31  32
ENDBRANCH   1  31
TORSDOF 26
ENDMDL
MODEL 3
REMARK VINA RESULT:      -8.9      8.181     16.049
REMARK SMILES COc1cc(/C=C/C(=O)c2ccc(OCC(=O)OCCOCCOCCOC(=O)c3ccc(-c4c5nc(c(-c6cccc(S(=O)(=O)[O-])c6F)c6ccc([nH]6)c(-c6cccc(S(=O)(=O)[O-])c6F)c6nc(c(-c7cccc(S(=O)(=O)[O-])c7F)c7ccc4[nH]7)C=C6)C=C5)cc3)cc2)cc2c1OCCO2
REMARK SMILES IDX 21 1 20 2 19 3 18 4 16 5 17 6 15 7 14 8 13 9 10 10 11 11
REMARK SMILES IDX 94 12 12 13 93 14 8 15 9 16 7 17 6 18 5 19 3 20 4 21 97 22
REMARK SMILES IDX 96 23 98 24 95 25 101 26 99 27 100 28 2 29 1 30 22 31 23 32
REMARK SMILES IDX 24 33 25 34 26 35 27 36 28 37 29 38 30 39 31 40 92 41 32 42
REMARK SMILES IDX 91 43 33 44 34 45 35 46 85 47 36 48 90 49 84 50 86 51 37 52
REMARK SMILES IDX 89 53 83 54 82 55 38 57 70 58 50 59 69 60 51 61 54 62 68 63
REMARK SMILES IDX 87 64 52 65 53 66 67 68 88 69 55 70 39 71 40 72 48 73 41 74
REMARK SMILES IDX 43 75 49 76 42 77 44 78 45 79 46 80 47 81 71 82 72 83 80 84
REMARK SMILES IDX 73 85 75 86 81 87 74 88 76 89 77 90 78 91 79 92 56 93 57 94
REMARK SMILES IDX 65 95 58 96 60 97 66 98 59 99 61 100 62 101 63 102 64 103
REMARK H PARENT 86 56 54 67
REMARK Flexibility Score: inf
ROOT
ATOM      1  O   UNL A   1      44.535  42.805  29.096  1.00  0.00    -0.376 OA
ENDROOT
BRANCH   1   2
ATOM      2  C   UNL A   1      45.503  41.883  28.607  1.00  0.00     0.202 C 
BRANCH   2   3
ATOM      3  C   UNL A   1      44.902  40.568  28.090  1.00  0.00     0.261 C 
BRANCH   3   4
ATOM      4  O   UNL A   1      44.479  40.688  26.709  1.00  0.00    -0.461 OA
BRANCH   4   5
ATOM      5  C   UNL A   1      43.145  40.790  26.461  1.00  0.00     0.344 C 
ATOM      6  O   UNL A   1      42.642  41.692  25.801  1.00  0.00    -0.248 OA
BRANCH   5   7
ATOM      7  C   UNL A   1      42.335  39.561  26.958  1.00  0.00     0.351 C 
BRANCH   7   8
ATOM      8  O   UNL A   1      42.715  38.266  26.500  1.00  0.00    -0.482 OA
BRANCH   8   9
ATOM      9  C   UNL A   1      42.866  37.225  27.386  1.00  0.00     0.120 A 
ATOM     10  C   UNL A   1      42.703  34.853  28.980  1.00  0.00     0.022 A 
ATOM     11  C   UNL A   1      42.772  34.787  27.581  1.00  0.00     0.016 A 
ATOM     12  C   UNL A   1      42.885  36.106  29.572  1.00  0.00     0.016 A 
ATOM     13  C   UNL A   1      42.844  35.956  26.799  1.00  0.00     0.047 A 
ATOM     14  C   UNL A   1      42.982  37.285  28.776  1.00  0.00     0.047 A 
BRANCH  10  15
ATOM     15  C   UNL A   1      42.368  33.576  29.710  1.00  0.00     0.185 C 
ATOM     16  O   UNL A   1      43.257  32.744  29.886  1.00  0.00    -0.289 OA
BRANCH  15  17
ATOM     17  C   UNL A   1      40.934  33.246  30.058  1.00  0.00     0.053 C 
ATOM     18  C   UNL A   1      40.039  34.260  30.126  1.00  0.00     0.012 C 
BRANCH  18  19
ATOM     19  C   UNL A   1      38.643  34.250  30.642  1.00  0.00    -0.018 A 
ATOM     20  C   UNL A   1      36.314  33.454  30.271  1.00  0.00     0.165 A 
ATOM     21  C   UNL A   1      37.643  33.654  29.870  1.00  0.00     0.058 A 
ATOM     22  C   UNL A   1      35.966  33.810  31.561  1.00  0.00     0.203 A 
ATOM     23  C   UNL A   1      36.958  34.373  32.390  1.00  0.00     0.165 A 
ATOM     24  O   UNL A   1      34.699  33.523  32.000  1.00  0.00    -0.483 OA
ATOM     25  C   UNL A   1      38.273  34.620  31.928  1.00  0.00     0.058 A 
ATOM     26  O   UNL A   1      36.724  34.666  33.715  1.00  0.00    -0.486 OA
ATOM     27  C   UNL A   1      34.405  34.139  33.254  1.00  0.00     0.271 C 
ATOM     28  C   UNL A   1      35.574  33.967  34.205  1.00  0.00     0.271 C 
BRANCH  20  29
ATOM     29  O   UNL A   1      35.524  32.812  29.353  1.00  0.00    -0.493 OA
ATOM     30  C   UNL A   1      34.494  33.597  28.752  1.00  0.00     0.278 C 
ENDBRANCH  20  29
ENDBRANCH  18  19
ENDBRANCH  15  17
ENDBRANCH  10  15
ENDBRANCH   8   9
ENDBRANCH   7   8
ENDBRANCH   5   7
ENDBRANCH   4   5
ENDBRANCH   3   4
ENDBRANCH   2   3
ENDBRANCH   1   2
BRANCH   1  31
ATOM     31  C   UNL A   1      43.438  42.250  29.816  1.00  0.00     0.188 C 
BRANCH  31  32
ATOM     32  C   UNL A   1      42.950  43.040  31.033  1.00  0.00     0.188 C 
BRANCH  32  33
ATOM     33  O   UNL A   1      43.484  44.358  31.016  1.00  0.00    -0.376 OA
BRANCH  33  34
ATOM     34  C   UNL A   1      44.157  44.681  32.213  1.00  0.00     0.202 C 
BRANCH  34  35
ATOM     35  C   UNL A   1      45.233  43.643  32.540  1.00  0.00     0.261 C 
BRANCH  35  36
ATOM     36  O   UNL A   1      45.319  43.119  33.903  1.00  0.00    -0.460 OA
BRANCH  36  37
ATOM     37  C   UNL A   1      44.156  42.779  34.501  1.00  0.00     0.338 C 
ATOM     38  O   UNL A   1      43.442  43.579  35.079  1.00  0.00    -0.246 OA
BRANCH  37  39
ATOM     39  C   UNL A   1      43.775  41.341  34.445  1.00  0.00     0.060 A 
ATOM     40  C   UNL A   1      44.424  40.462  35.313  1.00  0.00     0.016 A 
ATOM     41  C   UNL A   1      43.065  40.804  33.365  1.00  0.00     0.016 A 
ATOM     42  C   UNL A   1      44.440  39.082  35.060  1.00  0.00     0.010 A 
ATOM     43  C   UNL A   1      43.035  39.411  33.141  1.00  0.00     0.010 A 
ATOM     44  C   UNL A   1      43.739  38.529  33.975  1.00  0.00    -0.014 A 
BRANCH  44  45
ATOM     45  C   UNL A   1      43.636  37.043  33.813  1.00  0.00     0.031 A 
ATOM     46  C   UNL A   1      42.648  36.194  34.580  1.00  0.00     0.074 A 
ATOM     47  C   UNL A   1      44.497  36.435  32.970  1.00  0.00     0.049 A 
ATOM     48  N   UNL A   1      42.536  34.887  34.611  1.00  0.00    -0.248 NA
ATOM     49  C   UNL A   1      41.657  36.891  35.412  1.00  0.00     0.031 C 
ATOM     50  C   UNL A   1      45.516  37.126  32.177  1.00  0.00     0.029 A 
ATOM     51  N   UNL A   1      44.676  35.109  32.654  1.00  0.00    -0.354 N 
ATOM     52  C   UNL A   1      41.503  34.599  35.500  1.00  0.00     0.074 A 
ATOM     53  C   UNL A   1      41.001  35.876  35.968  1.00  0.00     0.031 C 
ATOM     54  C   UNL A   1      46.210  36.227  31.468  1.00  0.00     0.029 A 
ATOM     55  C   UNL A   1      45.742  34.889  31.810  1.00  0.00     0.049 A 
ATOM     56  H   UNL A   1      44.100  34.389  32.996  1.00  0.00     0.167 HD
ATOM     57  C   UNL A   1      41.019  33.390  35.886  1.00  0.00     0.034 A 
ATOM     58  C   UNL A   1      46.324  33.750  31.390  1.00  0.00     0.034 A 
ATOM     59  C   UNL A   1      41.489  32.119  35.389  1.00  0.00     0.049 A 
ATOM     60  C   UNL A   1      45.768  32.429  31.832  1.00  0.00     0.074 A 
ATOM     61  C   UNL A   1      41.017  30.850  35.689  1.00  0.00     0.029 A 
ATOM     62  N   UNL A   1      42.535  31.947  34.497  1.00  0.00    -0.354 N 
ATOM     63  N   UNL A   1      44.737  32.190  32.603  1.00  0.00    -0.248 NA
ATOM     64  C   UNL A   1      46.443  31.223  31.332  1.00  0.00     0.031 C 
ATOM     65  C   UNL A   1      41.789  29.912  34.993  1.00  0.00     0.029 A 
ATOM     66  C   UNL A   1      42.732  30.597  34.245  1.00  0.00     0.049 A 
ATOM     67  H   UNL A   1      43.064  32.677  34.100  1.00  0.00     0.167 HD
ATOM     68  C   UNL A   1      44.629  30.807  32.672  1.00  0.00     0.074 A 
ATOM     69  C   UNL A   1      45.681  30.262  31.838  1.00  0.00     0.031 C 
ATOM     70  C   UNL A   1      43.752  30.059  33.383  1.00  0.00     0.034 A 
BRANCH  57  71
ATOM     71  C   UNL A   1      39.892  33.353  36.892  1.00  0.00     0.023 A 
ATOM     72  C   UNL A   1      38.558  33.286  36.444  1.00  0.00     0.012 A 
ATOM     73  C   UNL A   1      40.159  33.256  38.274  1.00  0.00     0.148 A 
ATOM     74  C   UNL A   1      37.509  33.139  37.353  1.00  0.00     0.002 A 
ATOM     75  C   UNL A   1      39.110  33.078  39.172  1.00  0.00     0.091 A 
ATOM     76  F   UNL A   1      41.433  33.333  38.686  1.00  0.00    -0.205 F 
ATOM     77  C   UNL A   1      37.784  33.026  38.714  1.00  0.00     0.022 A 
BRANCH  75  78
ATOM     78  S   UNL A   1      39.373  32.845  40.936  1.00  0.00     0.127 S 
ATOM     79  O   UNL A   1      38.468  33.843  41.504  1.00  0.00    -0.237 OA
ATOM     80  O   UNL A   1      38.951  31.458  41.134  1.00  0.00    -0.237 OA
ATOM     81  O   UNL A   1      40.792  33.083  41.162  1.00  0.00    -0.744 OA
ENDBRANCH  75  78
ENDBRANCH  57  71
BRANCH  58  82
ATOM     82  C   UNL A   1      47.510  33.831  30.491  1.00  0.00     0.023 A 
ATOM     83  C   UNL A   1      48.804  33.836  31.041  1.00  0.00     0.012 A 
ATOM     84  C   UNL A   1      47.356  33.813  29.090  1.00  0.00     0.148 A 
ATOM     85  C   UNL A   1      49.925  33.829  30.210  1.00  0.00     0.002 A 
ATOM     86  C   UNL A   1      48.476  33.735  28.272  1.00  0.00     0.091 A 
ATOM     87  F   UNL A   1      46.114  33.838  28.584  1.00  0.00    -0.205 F 
ATOM     88  C   UNL A   1      49.762  33.758  28.829  1.00  0.00     0.022 A 
BRANCH  86  89
ATOM     89  S   UNL A   1      48.326  33.460  26.502  1.00  0.00     0.127 S 
ATOM     90  O   UNL A   1      47.552  32.224  26.455  1.00  0.00    -0.237 OA
ATOM     91  O   UNL A   1      47.605  34.656  26.062  1.00  0.00    -0.237 OA
ATOM     92  O   UNL A   1      49.696  33.382  26.013  1.00  0.00    -0.744 OA
ENDBRANCH  86  89
ENDBRANCH  58  82
BRANCH  70  93
ATOM     93  C   UNL A   1      43.882  28.562  33.283  1.00  0.00     0.023 A 
ATOM     94  C   UNL A   1      43.325  27.890  32.177  1.00  0.00     0.012 A 
ATOM     95  C   UNL A   1      44.587  27.827  34.256  1.00  0.00     0.148 A 
ATOM     96  C   UNL A   1      43.443  26.506  32.055  1.00  0.00     0.002 A 
ATOM     97  C   UNL A   1      44.734  26.452  34.107  1.00  0.00     0.091 A 
ATOM     98  F   UNL A   1      45.087  28.481  35.314  1.00  0.00    -0.205 F 
ATOM     99  C   UNL A   1      44.155  25.789  33.013  1.00  0.00     0.022 A 
BRANCH  97 100
ATOM    100  S   UNL A   1      45.701  25.464  35.255  1.00  0.00     0.127 S 
ATOM    101  O   UNL A   1      45.587  24.130  34.671  1.00  0.00    -0.237 OA
ATOM    102  O   UNL A   1      47.031  26.066  35.145  1.00  0.00    -0.237 OA
ATOM    103  O   UNL A   1      45.069  25.638  36.557  1.00  0.00    -0.744 OA
ENDBRANCH  97 100
ENDBRANCH  70  93
ENDBRANCH  44  45
ENDBRANCH  37  39
ENDBRANCH  36  37
ENDBRANCH  35  36
ENDBRANCH  34  35
ENDBRANCH  33  34
ENDBRANCH  32  33
ENDBRANCH  31  32
ENDBRANCH   1  31
TORSDOF 26
ENDMDL
