MODEL 1
REMARK VINA RESULT:     -11.1      0.000      0.000
REMARK SMILES O=C(OCCOCCOCCOC(=O)[C@H]1Cc2c([nH]c3ccccc23)[C@H](c2c[nH]c3ccccc23)[NH2+]1)c1ccc(-c2c3nc(c(-c4cccc(S(=O)(=O)[O-])c4F)c4ccc([nH]4)c(-c4cccc(S(=O)(=O)[O-])c4F)c4nc(c(-c5cccc(S(=O)(=O)[O-])c5F)c5ccc2[nH]5)C=C4)C=C3)cc1
REMARK SMILES IDX 7 1 6 2 5 3 4 4 3 5 2 6 1 7 37 8 38 9 99 10 39 11 98 12
REMARK SMILES IDX 40 13 41 14 42 15 92 16 43 17 97 18 91 19 93 20 44 21 96 22
REMARK SMILES IDX 90 23 89 24 45 26 77 27 57 28 76 29 58 30 61 31 75 32 94 33
REMARK SMILES IDX 59 34 60 35 74 37 95 38 62 39 46 40 47 41 55 42 48 43 50 44
REMARK SMILES IDX 56 45 49 46 51 47 52 48 53 49 54 50 78 51 79 52 87 53 80 54
REMARK SMILES IDX 82 55 88 56 81 57 83 58 84 59 85 60 86 61 63 62 64 63 72 64
REMARK SMILES IDX 65 65 67 66 73 67 66 68 68 69 69 70 70 71 71 72 8 73 9 74
REMARK SMILES IDX 10 75 11 76 12 77 13 78 14 79 15 80 16 81 36 82 17 83 26 84
REMARK SMILES IDX 18 87 25 88 19 89 20 90 24 91 21 93 23 94 22 95 27 96 28 97
REMARK SMILES IDX 35 98 29 99 30 100 34 101 31 103 33 104 32 105
REMARK H PARENT 93 25 61 36 36 85 36 86 19 92 29 102
REMARK Flexibility Score: inf
ROOT
ATOM      1  C   UNL A   1      34.046  32.630  28.563  1.00  0.00     0.188 C 
ENDROOT
BRANCH   1   2
ATOM      2  O   UNL A   1      34.069  33.999  28.143  1.00  0.00    -0.376 OA
BRANCH   2   3
ATOM      3  C   UNL A   1      32.832  34.678  28.391  1.00  0.00     0.202 C 
BRANCH   3   4
ATOM      4  C   UNL A   1      32.943  36.073  29.046  1.00  0.00     0.261 C 
BRANCH   4   5
ATOM      5  O   UNL A   1      32.416  36.158  30.384  1.00  0.00    -0.460 OA
BRANCH   5   6
ATOM      6  C   UNL A   1      32.725  35.436  31.495  1.00  0.00     0.338 C 
ATOM      7  O   UNL A   1      31.924  35.442  32.429  1.00  0.00    -0.246 OA
BRANCH   6   8
ATOM      8  C   UNL A   1      33.974  34.621  31.636  1.00  0.00     0.060 A 
ATOM      9  C   UNL A   1      34.029  33.369  32.236  1.00  0.00     0.016 A 
ATOM     10  C   UNL A   1      35.178  35.142  31.133  1.00  0.00     0.016 A 
ATOM     11  C   UNL A   1      35.224  32.712  32.471  1.00  0.00     0.010 A 
ATOM     12  C   UNL A   1      36.384  34.433  31.276  1.00  0.00     0.010 A 
ATOM     13  C   UNL A   1      36.418  33.219  31.983  1.00  0.00    -0.014 A 
BRANCH  13  14
ATOM     14  C   UNL A   1      37.678  32.536  32.356  1.00  0.00     0.031 A 
ATOM     15  C   UNL A   1      38.319  32.901  33.654  1.00  0.00     0.074 A 
ATOM     16  C   UNL A   1      38.138  31.437  31.723  1.00  0.00     0.049 A 
ATOM     17  N   UNL A   1      39.358  32.347  34.212  1.00  0.00    -0.248 NA
ATOM     18  C   UNL A   1      37.637  33.901  34.492  1.00  0.00     0.031 C 
ATOM     19  C   UNL A   1      37.402  30.657  30.741  1.00  0.00     0.029 A 
ATOM     20  N   UNL A   1      39.337  30.766  31.812  1.00  0.00    -0.354 N 
ATOM     21  C   UNL A   1      39.407  32.862  35.491  1.00  0.00     0.074 A 
ATOM     22  C   UNL A   1      38.349  33.841  35.608  1.00  0.00     0.031 C 
ATOM     23  C   UNL A   1      38.201  29.710  30.228  1.00  0.00     0.029 A 
ATOM     24  C   UNL A   1      39.515  29.857  30.787  1.00  0.00     0.049 A 
ATOM     25  H   UNL A   1      39.996  30.917  32.528  1.00  0.00     0.167 HD
ATOM     26  C   UNL A   1      40.226  32.487  36.494  1.00  0.00     0.034 A 
ATOM     27  C   UNL A   1      40.617  29.239  30.328  1.00  0.00     0.034 A 
ATOM     28  C   UNL A   1      41.285  31.528  36.350  1.00  0.00     0.049 A 
ATOM     29  C   UNL A   1      41.740  29.163  31.290  1.00  0.00     0.074 A 
ATOM     30  C   UNL A   1      42.222  31.139  37.287  1.00  0.00     0.029 A 
ATOM     31  N   UNL A   1      41.570  30.830  35.183  1.00  0.00    -0.354 N 
ATOM     32  N   UNL A   1      41.803  29.687  32.485  1.00  0.00    -0.248 NA
ATOM     33  C   UNL A   1      42.836  28.259  30.938  1.00  0.00     0.031 C 
ATOM     34  C   UNL A   1      43.114  30.256  36.669  1.00  0.00     0.029 A 
ATOM     35  C   UNL A   1      42.706  30.057  35.361  1.00  0.00     0.049 A 
ATOM     36  H   UNL A   1      41.043  30.878  34.353  1.00  0.00     0.167 HD
ATOM     37  C   UNL A   1      42.879  29.077  33.087  1.00  0.00     0.074 A 
ATOM     38  C   UNL A   1      43.458  28.178  32.104  1.00  0.00     0.031 C 
ATOM     39  C   UNL A   1      43.303  29.211  34.363  1.00  0.00     0.034 A 
BRANCH  26  40
ATOM     40  C   UNL A   1      40.020  33.170  37.811  1.00  0.00     0.023 A 
ATOM     41  C   UNL A   1      39.044  32.707  38.715  1.00  0.00     0.012 A 
ATOM     42  C   UNL A   1      40.799  34.293  38.134  1.00  0.00     0.148 A 
ATOM     43  C   UNL A   1      38.836  33.369  39.924  1.00  0.00     0.002 A 
ATOM     44  C   UNL A   1      40.614  34.923  39.354  1.00  0.00     0.091 A 
ATOM     45  F   UNL A   1      41.687  34.732  37.230  1.00  0.00    -0.205 F 
ATOM     46  C   UNL A   1      39.627  34.471  40.246  1.00  0.00     0.022 A 
BRANCH  44  47
ATOM     47  S   UNL A   1      41.619  36.313  39.875  1.00  0.00     0.127 S 
ATOM     48  O   UNL A   1      40.967  36.694  41.127  1.00  0.00    -0.237 OA
ATOM     49  O   UNL A   1      42.933  35.691  40.032  1.00  0.00    -0.237 OA
ATOM     50  O   UNL A   1      41.529  37.300  38.808  1.00  0.00    -0.744 OA
ENDBRANCH  44  47
ENDBRANCH  26  40
BRANCH  27  51
ATOM     51  C   UNL A   1      40.717  28.568  29.005  1.00  0.00     0.023 A 
ATOM     52  C   UNL A   1      41.147  29.252  27.855  1.00  0.00     0.012 A 
ATOM     53  C   UNL A   1      40.299  27.230  28.877  1.00  0.00     0.148 A 
ATOM     54  C   UNL A   1      41.149  28.617  26.606  1.00  0.00     0.002 A 
ATOM     55  C   UNL A   1      40.373  26.579  27.646  1.00  0.00     0.091 A 
ATOM     56  F   UNL A   1      39.842  26.598  29.970  1.00  0.00    -0.205 F 
ATOM     57  C   UNL A   1      40.775  27.277  26.501  1.00  0.00     0.022 A 
BRANCH  55  58
ATOM     58  S   UNL A   1      40.258  24.783  27.537  1.00  0.00     0.127 S 
ATOM     59  O   UNL A   1      40.527  24.533  26.126  1.00  0.00    -0.237 OA
ATOM     60  O   UNL A   1      41.307  24.353  28.460  1.00  0.00    -0.237 OA
ATOM     61  O   UNL A   1      38.906  24.491  28.004  1.00  0.00    -0.744 OA
ENDBRANCH  55  58
ENDBRANCH  27  51
BRANCH  39  62
ATOM     62  C   UNL A   1      44.472  28.357  34.734  1.00  0.00     0.023 A 
ATOM     63  C   UNL A   1      45.778  28.822  34.481  1.00  0.00     0.012 A 
ATOM     64  C   UNL A   1      44.272  27.075  35.272  1.00  0.00     0.148 A 
ATOM     65  C   UNL A   1      46.870  27.988  34.690  1.00  0.00     0.002 A 
ATOM     66  C   UNL A   1      45.371  26.277  35.545  1.00  0.00     0.091 A 
ATOM     67  F   UNL A   1      43.016  26.648  35.467  1.00  0.00    -0.205 F 
ATOM     68  C   UNL A   1      46.667  26.721  35.231  1.00  0.00     0.022 A 
BRANCH  66  69
ATOM     69  S   UNL A   1      45.217  24.678  36.338  1.00  0.00     0.127 S 
ATOM     70  O   UNL A   1      44.498  25.020  37.564  1.00  0.00    -0.237 OA
ATOM     71  O   UNL A   1      44.432  23.929  35.356  1.00  0.00    -0.237 OA
ATOM     72  O   UNL A   1      46.575  24.188  36.529  1.00  0.00    -0.744 OA
ENDBRANCH  66  69
ENDBRANCH  39  62
ENDBRANCH  13  14
ENDBRANCH   6   8
ENDBRANCH   5   6
ENDBRANCH   4   5
ENDBRANCH   3   4
ENDBRANCH   2   3
ENDBRANCH   1   2
BRANCH   1  73
ATOM     73  C   UNL A   1      34.740  31.642  27.626  1.00  0.00     0.188 C 
BRANCH  73  74
ATOM     74  O   UNL A   1      34.760  30.270  28.006  1.00  0.00    -0.376 OA
BRANCH  74  75
ATOM     75  C   UNL A   1      34.384  29.307  27.027  1.00  0.00     0.202 C 
BRANCH  75  76
ATOM     76  C   UNL A   1      33.183  29.611  26.123  1.00  0.00     0.261 C 
BRANCH  76  77
ATOM     77  O   UNL A   1      31.911  29.461  26.763  1.00  0.00    -0.459 OA
BRANCH  77  78
ATOM     78  C   UNL A   1      31.606  28.205  27.209  1.00  0.00     0.365 C 
ATOM     79  O   UNL A   1      31.303  27.941  28.373  1.00  0.00    -0.245 OA
BRANCH  78  80
ATOM     80  C   UNL A   1      31.737  27.154  26.114  1.00  0.00     0.298 C 
ATOM     81  C   UNL A   1      32.819  26.108  26.442  1.00  0.00     0.115 C 
ATOM     82  N   UNL A   1      30.448  26.432  25.804  1.00  0.00    -0.323 N 
ATOM     83  C   UNL A   1      32.891  25.146  25.300  1.00  0.00    -0.006 A 
ATOM     84  C   UNL A   1      30.538  25.815  24.457  1.00  0.00     0.264 C 
ATOM     85  H   UNL A   1      29.674  27.095  25.823  1.00  0.00     0.347 HD
ATOM     86  H   UNL A   1      30.290  25.704  26.501  1.00  0.00     0.347 HD
ATOM     87  C   UNL A   1      31.818  24.997  24.438  1.00  0.00     0.083 A 
ATOM     88  C   UNL A   1      33.980  24.407  24.775  1.00  0.00     0.003 A 
ATOM     89  N   UNL A   1      32.197  24.128  23.448  1.00  0.00    -0.353 N 
ATOM     90  C   UNL A   1      33.532  23.806  23.596  1.00  0.00     0.046 A 
ATOM     91  C   UNL A   1      35.329  24.252  25.146  1.00  0.00     0.010 A 
ATOM     92  H   UNL A   1      31.607  23.785  22.739  1.00  0.00     0.166 HD
ATOM     93  C   UNL A   1      34.380  23.075  22.755  1.00  0.00     0.026 A 
ATOM     94  C   UNL A   1      36.187  23.520  24.320  1.00  0.00     0.001 A 
ATOM     95  C   UNL A   1      35.718  22.946  23.139  1.00  0.00     0.002 A 
BRANCH  84  96
ATOM     96  C   UNL A   1      30.582  26.873  23.371  1.00  0.00     0.041 A 
ATOM     97  C   UNL A   1      31.666  27.076  22.531  1.00  0.00     0.093 A 
ATOM     98  C   UNL A   1      29.627  27.901  23.003  1.00  0.00     0.009 A 
ATOM     99  N   UNL A   1      31.591  28.358  22.061  1.00  0.00    -0.361 N 
ATOM    100  C   UNL A   1      30.335  28.866  22.289  1.00  0.00     0.046 A 
ATOM    101  C   UNL A   1      28.247  28.150  23.220  1.00  0.00     0.011 A 
ATOM    102  H   UNL A   1      32.328  28.844  21.624  1.00  0.00     0.166 HD
ATOM    103  C   UNL A   1      29.761  30.078  21.889  1.00  0.00     0.026 A 
ATOM    104  C   UNL A   1      27.642  29.322  22.757  1.00  0.00     0.001 A 
ATOM    105  C   UNL A   1      28.399  30.282  22.107  1.00  0.00     0.002 A 
ENDBRANCH  84  96
ENDBRANCH  78  80
ENDBRANCH  77  78
ENDBRANCH  76  77
ENDBRANCH  75  76
ENDBRANCH  74  75
ENDBRANCH  73  74
ENDBRANCH   1  73
TORSDOF 21
ENDMDL
MODEL 2
REMARK VINA RESULT:     -10.7      5.387     10.908
REMARK SMILES O=C(OCCOCCOCCOC(=O)[C@H]1Cc2c([nH]c3ccccc23)[C@H](c2c[nH]c3ccccc23)[NH2+]1)c1ccc(-c2c3nc(c(-c4cccc(S(=O)(=O)[O-])c4F)c4ccc([nH]4)c(-c4cccc(S(=O)(=O)[O-])c4F)c4nc(c(-c5cccc(S(=O)(=O)[O-])c5F)c5ccc2[nH]5)C=C4)C=C3)cc1
REMARK SMILES IDX 7 1 6 2 5 3 4 4 3 5 2 6 1 7 37 8 38 9 99 10 39 11 98 12
REMARK SMILES IDX 40 13 41 14 42 15 92 16 43 17 97 18 91 19 93 20 44 21 96 22
REMARK SMILES IDX 90 23 89 24 45 26 77 27 57 28 76 29 58 30 61 31 75 32 94 33
REMARK SMILES IDX 59 34 60 35 74 37 95 38 62 39 46 40 47 41 55 42 48 43 50 44
REMARK SMILES IDX 56 45 49 46 51 47 52 48 53 49 54 50 78 51 79 52 87 53 80 54
REMARK SMILES IDX 82 55 88 56 81 57 83 58 84 59 85 60 86 61 63 62 64 63 72 64
REMARK SMILES IDX 65 65 67 66 73 67 66 68 68 69 69 70 70 71 71 72 8 73 9 74
REMARK SMILES IDX 10 75 11 76 12 77 13 78 14 79 15 80 16 81 36 82 17 83 26 84
REMARK SMILES IDX 18 87 25 88 19 89 20 90 24 91 21 93 23 94 22 95 27 96 28 97
REMARK SMILES IDX 35 98 29 99 30 100 34 101 31 103 33 104 32 105
REMARK H PARENT 93 25 61 36 36 85 36 86 19 92 29 102
REMARK Flexibility Score: inf
ROOT
ATOM      1  C   UNL A   1      37.163  22.381  24.874  1.00  0.00     0.188 C 
ENDROOT
BRANCH   1   2
ATOM      2  O   UNL A   1      38.286  21.570  25.236  1.00  0.00    -0.376 OA
BRANCH   2   3
ATOM      3  C   UNL A   1      38.077  20.178  24.973  1.00  0.00     0.202 C 
BRANCH   3   4
ATOM      4  C   UNL A   1      39.088  19.204  25.618  1.00  0.00     0.261 C 
BRANCH   4   5
ATOM      5  O   UNL A   1      40.461  19.638  25.573  1.00  0.00    -0.460 OA
BRANCH   5   6
ATOM      6  C   UNL A   1      41.287  20.039  26.578  1.00  0.00     0.338 C 
ATOM      7  O   UNL A   1      41.925  19.175  27.179  1.00  0.00    -0.246 OA
BRANCH   6   8
ATOM      8  C   UNL A   1      41.477  21.469  26.979  1.00  0.00     0.060 A 
ATOM      9  C   UNL A   1      41.220  22.555  26.151  1.00  0.00     0.016 A 
ATOM     10  C   UNL A   1      41.943  21.749  28.275  1.00  0.00     0.016 A 
ATOM     11  C   UNL A   1      41.540  23.852  26.511  1.00  0.00     0.010 A 
ATOM     12  C   UNL A   1      42.174  23.073  28.686  1.00  0.00     0.010 A 
ATOM     13  C   UNL A   1      42.005  24.139  27.785  1.00  0.00    -0.014 A 
BRANCH  13  14
ATOM     14  C   UNL A   1      42.436  25.524  28.082  1.00  0.00     0.031 A 
ATOM     15  C   UNL A   1      43.842  25.909  27.760  1.00  0.00     0.074 A 
ATOM     16  C   UNL A   1      41.574  26.517  28.386  1.00  0.00     0.049 A 
ATOM     17  N   UNL A   1      44.383  27.092  27.841  1.00  0.00    -0.248 NA
ATOM     18  C   UNL A   1      44.702  24.886  27.140  1.00  0.00     0.031 C 
ATOM     19  C   UNL A   1      40.126  26.442  28.278  1.00  0.00     0.029 A 
ATOM     20  N   UNL A   1      41.783  27.801  28.838  1.00  0.00    -0.354 N 
ATOM     21  C   UNL A   1      45.605  26.982  27.209  1.00  0.00     0.074 A 
ATOM     22  C   UNL A   1      45.774  25.598  26.825  1.00  0.00     0.031 C 
ATOM     23  C   UNL A   1      39.579  27.561  28.774  1.00  0.00     0.029 A 
ATOM     24  C   UNL A   1      40.624  28.398  29.295  1.00  0.00     0.049 A 
ATOM     25  H   UNL A   1      42.661  28.245  28.836  1.00  0.00     0.167 HD
ATOM     26  C   UNL A   1      46.469  27.974  26.919  1.00  0.00     0.034 A 
ATOM     27  C   UNL A   1      40.426  29.476  30.073  1.00  0.00     0.034 A 
ATOM     28  C   UNL A   1      46.291  29.339  27.330  1.00  0.00     0.049 A 
ATOM     29  C   UNL A   1      41.555  30.433  30.118  1.00  0.00     0.074 A 
ATOM     30  C   UNL A   1      47.150  30.406  27.154  1.00  0.00     0.029 A 
ATOM     31  N   UNL A   1      45.192  29.820  28.030  1.00  0.00    -0.354 N 
ATOM     32  N   UNL A   1      42.727  30.310  29.555  1.00  0.00    -0.248 NA
ATOM     33  C   UNL A   1      41.274  31.740  30.713  1.00  0.00     0.031 C 
ATOM     34  C   UNL A   1      46.603  31.517  27.805  1.00  0.00     0.029 A 
ATOM     35  C   UNL A   1      45.381  31.156  28.345  1.00  0.00     0.049 A 
ATOM     36  H   UNL A   1      44.397  29.290  28.268  1.00  0.00     0.167 HD
ATOM     37  C   UNL A   1      43.284  31.566  29.609  1.00  0.00     0.074 A 
ATOM     38  C   UNL A   1      42.332  32.420  30.298  1.00  0.00     0.031 C 
ATOM     39  C   UNL A   1      44.455  31.979  29.075  1.00  0.00     0.034 A 
BRANCH  26  40
ATOM     40  C   UNL A   1      47.701  27.584  26.163  1.00  0.00     0.023 A 
ATOM     41  C   UNL A   1      48.843  27.118  26.843  1.00  0.00     0.012 A 
ATOM     42  C   UNL A   1      47.718  27.704  24.764  1.00  0.00     0.148 A 
ATOM     43  C   UNL A   1      49.998  26.790  26.135  1.00  0.00     0.002 A 
ATOM     44  C   UNL A   1      48.855  27.338  24.062  1.00  0.00     0.091 A 
ATOM     45  F   UNL A   1      46.629  28.192  24.155  1.00  0.00    -0.205 F 
ATOM     46  C   UNL A   1      50.000  26.892  24.744  1.00  0.00     0.022 A 
BRANCH  44  47
ATOM     47  S   UNL A   1      48.932  27.386  22.272  1.00  0.00     0.127 S 
ATOM     48  O   UNL A   1      50.356  27.625  22.045  1.00  0.00    -0.237 OA
ATOM     49  O   UNL A   1      48.470  26.045  21.916  1.00  0.00    -0.237 OA
ATOM     50  O   UNL A   1      48.052  28.470  21.858  1.00  0.00    -0.744 OA
ENDBRANCH  44  47
ENDBRANCH  26  40
BRANCH  27  51
ATOM     51  C   UNL A   1      39.150  29.789  30.771  1.00  0.00     0.023 A 
ATOM     52  C   UNL A   1      38.759  29.117  31.941  1.00  0.00     0.012 A 
ATOM     53  C   UNL A   1      38.269  30.730  30.205  1.00  0.00     0.148 A 
ATOM     54  C   UNL A   1      37.512  29.374  32.528  1.00  0.00     0.002 A 
ATOM     55  C   UNL A   1      37.062  31.036  30.833  1.00  0.00     0.091 A 
ATOM     56  F   UNL A   1      38.626  31.330  29.059  1.00  0.00    -0.205 F 
ATOM     57  C   UNL A   1      36.668  30.341  31.983  1.00  0.00     0.022 A 
BRANCH  55  58
ATOM     58  S   UNL A   1      36.129  32.512  30.383  1.00  0.00     0.127 S 
ATOM     59  O   UNL A   1      36.360  32.608  28.947  1.00  0.00    -0.237 OA
ATOM     60  O   UNL A   1      34.769  32.146  30.776  1.00  0.00    -0.237 OA
ATOM     61  O   UNL A   1      36.719  33.561  31.209  1.00  0.00    -0.744 OA
ENDBRANCH  55  58
ENDBRANCH  27  51
BRANCH  39  62
ATOM     62  C   UNL A   1      44.752  33.433  29.251  1.00  0.00     0.023 A 
ATOM     63  C   UNL A   1      45.625  33.843  30.279  1.00  0.00     0.012 A 
ATOM     64  C   UNL A   1      44.118  34.390  28.442  1.00  0.00     0.148 A 
ATOM     65  C   UNL A   1      45.804  35.195  30.547  1.00  0.00     0.002 A 
ATOM     66  C   UNL A   1      44.359  35.734  28.669  1.00  0.00     0.091 A 
ATOM     67  F   UNL A   1      43.264  33.969  27.497  1.00  0.00    -0.205 F 
ATOM     68  C   UNL A   1      45.179  36.140  29.736  1.00  0.00     0.022 A 
BRANCH  66  69
ATOM     69  S   UNL A   1      43.686  37.018  27.615  1.00  0.00     0.127 S 
ATOM     70  O   UNL A   1      42.515  37.447  28.378  1.00  0.00    -0.237 OA
ATOM     71  O   UNL A   1      44.782  37.986  27.581  1.00  0.00    -0.237 OA
ATOM     72  O   UNL A   1      43.398  36.383  26.336  1.00  0.00    -0.744 OA
ENDBRANCH  66  69
ENDBRANCH  39  62
ENDBRANCH  13  14
ENDBRANCH   6   8
ENDBRANCH   5   6
ENDBRANCH   4   5
ENDBRANCH   3   4
ENDBRANCH   2   3
ENDBRANCH   1   2
BRANCH   1  73
ATOM     73  C   UNL A   1      35.986  21.634  24.249  1.00  0.00     0.188 C 
BRANCH  73  74
ATOM     74  O   UNL A   1      34.829  21.425  25.053  1.00  0.00    -0.376 OA
BRANCH  74  75
ATOM     75  C   UNL A   1      34.201  22.573  25.615  1.00  0.00     0.202 C 
BRANCH  75  76
ATOM     76  C   UNL A   1      33.291  22.385  26.836  1.00  0.00     0.261 C 
BRANCH  76  77
ATOM     77  O   UNL A   1      32.230  23.342  26.933  1.00  0.00    -0.459 OA
BRANCH  77  78
ATOM     78  C   UNL A   1      31.594  23.657  25.764  1.00  0.00     0.365 C 
ATOM     79  O   UNL A   1      30.982  22.843  25.072  1.00  0.00    -0.245 OA
BRANCH  78  80
ATOM     80  C   UNL A   1      31.773  25.121  25.383  1.00  0.00     0.298 C 
ATOM     81  C   UNL A   1      32.960  25.770  26.122  1.00  0.00     0.115 C 
ATOM     82  N   UNL A   1      31.945  25.350  23.901  1.00  0.00    -0.323 N 
ATOM     83  C   UNL A   1      33.031  27.204  25.706  1.00  0.00    -0.006 A 
ATOM     84  C   UNL A   1      31.627  26.762  23.579  1.00  0.00     0.264 C 
ATOM     85  H   UNL A   1      31.316  24.733  23.387  1.00  0.00     0.347 HD
ATOM     86  H   UNL A   1      32.910  25.150  23.636  1.00  0.00     0.347 HD
ATOM     87  C   UNL A   1      32.457  27.621  24.517  1.00  0.00     0.083 A 
ATOM     88  C   UNL A   1      33.463  28.355  26.410  1.00  0.00     0.003 A 
ATOM     89  N   UNL A   1      32.596  28.983  24.443  1.00  0.00    -0.353 N 
ATOM     90  C   UNL A   1      33.149  29.460  25.616  1.00  0.00     0.046 A 
ATOM     91  C   UNL A   1      34.021  28.572  27.684  1.00  0.00     0.010 A 
ATOM     92  H   UNL A   1      32.341  29.537  23.671  1.00  0.00     0.166 HD
ATOM     93  C   UNL A   1      33.345  30.777  26.047  1.00  0.00     0.026 A 
ATOM     94  C   UNL A   1      34.230  29.882  28.127  1.00  0.00     0.001 A 
ATOM     95  C   UNL A   1      33.890  30.967  27.321  1.00  0.00     0.002 A 
BRANCH  84  96
ATOM     96  C   UNL A   1      30.151  27.052  23.778  1.00  0.00     0.041 A 
ATOM     97  C   UNL A   1      29.221  26.103  24.174  1.00  0.00     0.093 A 
ATOM     98  C   UNL A   1      29.380  28.262  23.560  1.00  0.00     0.009 A 
ATOM     99  N   UNL A   1      27.989  26.536  23.769  1.00  0.00    -0.361 N 
ATOM    100  C   UNL A   1      28.048  27.869  23.441  1.00  0.00     0.046 A 
ATOM    101  C   UNL A   1      29.655  29.646  23.414  1.00  0.00     0.011 A 
ATOM    102  H   UNL A   1      27.181  25.977  23.721  1.00  0.00     0.166 HD
ATOM    103  C   UNL A   1      27.030  28.762  23.088  1.00  0.00     0.026 A 
ATOM    104  C   UNL A   1      28.634  30.561  23.139  1.00  0.00     0.001 A 
ATOM    105  C   UNL A   1      27.335  30.117  22.966  1.00  0.00     0.002 A 
ENDBRANCH  84  96
ENDBRANCH  78  80
ENDBRANCH  77  78
ENDBRANCH  76  77
ENDBRANCH  75  76
ENDBRANCH  74  75
ENDBRANCH  73  74
ENDBRANCH   1  73
TORSDOF 21
ENDMDL
MODEL 3
REMARK VINA RESULT:     -10.4      5.891     11.203
REMARK SMILES O=C(OCCOCCOCCOC(=O)[C@H]1Cc2c([nH]c3ccccc23)[C@H](c2c[nH]c3ccccc23)[NH2+]1)c1ccc(-c2c3nc(c(-c4cccc(S(=O)(=O)[O-])c4F)c4ccc([nH]4)c(-c4cccc(S(=O)(=O)[O-])c4F)c4nc(c(-c5cccc(S(=O)(=O)[O-])c5F)c5ccc2[nH]5)C=C4)C=C3)cc1
REMARK SMILES IDX 7 1 6 2 5 3 4 4 3 5 2 6 1 7 37 8 38 9 99 10 39 11 98 12
REMARK SMILES IDX 40 13 41 14 42 15 92 16 43 17 97 18 91 19 93 20 44 21 96 22
REMARK SMILES IDX 90 23 89 24 45 26 77 27 57 28 76 29 58 30 61 31 75 32 94 33
REMARK SMILES IDX 59 34 60 35 74 37 95 38 62 39 46 40 47 41 55 42 48 43 50 44
REMARK SMILES IDX 56 45 49 46 51 47 52 48 53 49 54 50 78 51 79 52 87 53 80 54
REMARK SMILES IDX 82 55 88 56 81 57 83 58 84 59 85 60 86 61 63 62 64 63 72 64
REMARK SMILES IDX 65 65 67 66 73 67 66 68 68 69 69 70 70 71 71 72 8 73 9 74
REMARK SMILES IDX 10 75 11 76 12 77 13 78 14 79 15 80 16 81 36 82 17 83 26 84
REMARK SMILES IDX 18 87 25 88 19 89 20 90 24 91 21 93 23 94 22 95 27 96 28 97
REMARK SMILES IDX 35 98 29 99 30 100 34 101 31 103 33 104 32 105
REMARK H PARENT 93 25 61 36 36 85 36 86 19 92 29 102
REMARK Flexibility Score: inf
ROOT
ATOM      1  C   UNL A   1      37.340  22.583  25.724  1.00  0.00     0.188 C 
ENDROOT
BRANCH   1   2
ATOM      2  O   UNL A   1      38.527  21.787  25.632  1.00  0.00    -0.376 OA
BRANCH   2   3
ATOM      3  C   UNL A   1      38.283  20.486  25.085  1.00  0.00     0.202 C 
BRANCH   3   4
ATOM      4  C   UNL A   1      39.041  19.315  25.752  1.00  0.00     0.261 C 
BRANCH   4   5
ATOM      5  O   UNL A   1      40.429  19.203  25.382  1.00  0.00    -0.460 OA
BRANCH   5   6
ATOM      6  C   UNL A   1      41.552  19.396  26.126  1.00  0.00     0.338 C 
ATOM      7  O   UNL A   1      42.139  18.402  26.554  1.00  0.00    -0.246 OA
BRANCH   6   8
ATOM      8  C   UNL A   1      42.123  20.746  26.436  1.00  0.00     0.060 A 
ATOM      9  C   UNL A   1      42.542  21.147  27.699  1.00  0.00     0.016 A 
ATOM     10  C   UNL A   1      42.252  21.678  25.393  1.00  0.00     0.016 A 
ATOM     11  C   UNL A   1      42.931  22.447  27.971  1.00  0.00     0.010 A 
ATOM     12  C   UNL A   1      42.745  22.971  25.641  1.00  0.00     0.010 A 
ATOM     13  C   UNL A   1      43.058  23.376  26.950  1.00  0.00    -0.014 A 
BRANCH  13  14
ATOM     14  C   UNL A   1      43.371  24.778  27.309  1.00  0.00     0.031 A 
ATOM     15  C   UNL A   1      44.749  25.284  27.035  1.00  0.00     0.074 A 
ATOM     16  C   UNL A   1      42.428  25.689  27.627  1.00  0.00     0.049 A 
ATOM     17  N   UNL A   1      45.193  26.502  27.172  1.00  0.00    -0.248 NA
ATOM     18  C   UNL A   1      45.700  24.356  26.399  1.00  0.00     0.031 C 
ATOM     19  C   UNL A   1      40.992  25.504  27.481  1.00  0.00     0.029 A 
ATOM     20  N   UNL A   1      42.524  26.966  28.131  1.00  0.00    -0.354 N 
ATOM     21  C   UNL A   1      46.433  26.512  26.567  1.00  0.00     0.074 A 
ATOM     22  C   UNL A   1      46.719  25.161  26.137  1.00  0.00     0.031 C 
ATOM     23  C   UNL A   1      40.348  26.558  28.004  1.00  0.00     0.029 A 
ATOM     24  C   UNL A   1      41.312  27.453  28.581  1.00  0.00     0.049 A 
ATOM     25  H   UNL A   1      43.364  27.478  28.166  1.00  0.00     0.167 HD
ATOM     26  C   UNL A   1      47.222  27.579  26.334  1.00  0.00     0.034 A 
ATOM     27  C   UNL A   1      41.012  28.482  29.393  1.00  0.00     0.034 A 
ATOM     28  C   UNL A   1      46.928  28.909  26.790  1.00  0.00     0.049 A 
ATOM     29  C   UNL A   1      42.061  29.521  29.500  1.00  0.00     0.074 A 
ATOM     30  C   UNL A   1      47.703  30.046  26.674  1.00  0.00     0.029 A 
ATOM     31  N   UNL A   1      45.779  29.276  27.480  1.00  0.00    -0.354 N 
ATOM     32  N   UNL A   1      43.251  29.512  28.962  1.00  0.00    -0.248 NA
ATOM     33  C   UNL A   1      41.665  30.779  30.134  1.00  0.00     0.031 C 
ATOM     34  C   UNL A   1      47.056  31.085  27.351  1.00  0.00     0.029 A 
ATOM     35  C   UNL A   1      45.855  30.609  27.848  1.00  0.00     0.049 A 
ATOM     36  H   UNL A   1      45.024  28.676  27.679  1.00  0.00     0.167 HD
ATOM     37  C   UNL A   1      43.705  30.805  29.074  1.00  0.00     0.074 A 
ATOM     38  C   UNL A   1      42.674  31.555  29.771  1.00  0.00     0.031 C 
ATOM     39  C   UNL A   1      44.851  31.329  28.585  1.00  0.00     0.034 A 
BRANCH  26  40
ATOM     40  C   UNL A   1      48.496  27.316  25.595  1.00  0.00     0.023 A 
ATOM     41  C   UNL A   1      49.671  26.966  26.290  1.00  0.00     0.012 A 
ATOM     42  C   UNL A   1      48.521  27.438  24.196  1.00  0.00     0.148 A 
ATOM     43  C   UNL A   1      50.862  26.757  25.597  1.00  0.00     0.002 A 
ATOM     44  C   UNL A   1      49.698  27.190  23.509  1.00  0.00     0.091 A 
ATOM     45  F   UNL A   1      47.396  27.816  23.572  1.00  0.00    -0.205 F 
ATOM     46  C   UNL A   1      50.872  26.860  24.207  1.00  0.00     0.022 A 
BRANCH  44  47
ATOM     47  S   UNL A   1      49.793  27.248  21.720  1.00  0.00     0.127 S 
ATOM     48  O   UNL A   1      51.183  26.859  21.487  1.00  0.00    -0.237 OA
ATOM     49  O   UNL A   1      48.802  26.243  21.335  1.00  0.00    -0.237 OA
ATOM     50  O   UNL A   1      49.463  28.614  21.341  1.00  0.00    -0.744 OA
ENDBRANCH  44  47
ENDBRANCH  26  40
BRANCH  27  51
ATOM     51  C   UNL A   1      39.701  28.667  30.070  1.00  0.00     0.023 A 
ATOM     52  C   UNL A   1      39.423  28.092  31.321  1.00  0.00     0.012 A 
ATOM     53  C   UNL A   1      38.679  29.374  29.409  1.00  0.00     0.148 A 
ATOM     54  C   UNL A   1      38.150  28.213  31.894  1.00  0.00     0.002 A 
ATOM     55  C   UNL A   1      37.436  29.554  30.016  1.00  0.00     0.091 A 
ATOM     56  F   UNL A   1      38.935  29.877  28.191  1.00  0.00    -0.205 F 
ATOM     57  C   UNL A   1      37.159  28.954  31.250  1.00  0.00     0.022 A 
BRANCH  55  58
ATOM     58  S   UNL A   1      36.275  30.791  29.405  1.00  0.00     0.127 S 
ATOM     59  O   UNL A   1      35.535  31.153  30.607  1.00  0.00    -0.237 OA
ATOM     60  O   UNL A   1      37.171  31.823  28.887  1.00  0.00    -0.237 OA
ATOM     61  O   UNL A   1      35.528  30.085  28.369  1.00  0.00    -0.744 OA
ENDBRANCH  55  58
ENDBRANCH  27  51
BRANCH  39  62
ATOM     62  C   UNL A   1      45.028  32.794  28.821  1.00  0.00     0.023 A 
ATOM     63  C   UNL A   1      45.557  33.240  30.049  1.00  0.00     0.012 A 
ATOM     64  C   UNL A   1      44.612  33.724  27.854  1.00  0.00     0.148 A 
ATOM     65  C   UNL A   1      45.600  34.598  30.341  1.00  0.00     0.002 A 
ATOM     66  C   UNL A   1      44.726  35.077  28.124  1.00  0.00     0.091 A 
ATOM     67  F   UNL A   1      44.080  33.268  26.710  1.00  0.00    -0.205 F 
ATOM     68  C   UNL A   1      45.193  35.516  29.375  1.00  0.00     0.022 A 
BRANCH  66  69
ATOM     69  S   UNL A   1      44.329  36.332  26.908  1.00  0.00     0.127 S 
ATOM     70  O   UNL A   1      44.417  37.556  27.702  1.00  0.00    -0.237 OA
ATOM     71  O   UNL A   1      45.405  36.156  25.932  1.00  0.00    -0.237 OA
ATOM     72  O   UNL A   1      43.000  36.007  26.409  1.00  0.00    -0.744 OA
ENDBRANCH  66  69
ENDBRANCH  39  62
ENDBRANCH  13  14
ENDBRANCH   6   8
ENDBRANCH   5   6
ENDBRANCH   4   5
ENDBRANCH   3   4
ENDBRANCH   2   3
ENDBRANCH   1   2
BRANCH   1  73
ATOM     73  C   UNL A   1      36.086  21.971  25.103  1.00  0.00     0.188 C 
BRANCH  73  74
ATOM     74  O   UNL A   1      35.058  21.530  25.983  1.00  0.00    -0.376 OA
BRANCH  74  75
ATOM     75  C   UNL A   1      34.220  22.521  26.570  1.00  0.00     0.202 C 
BRANCH  75  76
ATOM     76  C   UNL A   1      32.933  22.071  27.272  1.00  0.00     0.261 C 
BRANCH  76  77
ATOM     77  O   UNL A   1      32.151  23.141  27.813  1.00  0.00    -0.459 OA
BRANCH  77  78
ATOM     78  C   UNL A   1      30.922  23.335  27.247  1.00  0.00     0.365 C 
ATOM     79  O   UNL A   1      29.887  22.802  27.647  1.00  0.00    -0.245 OA
BRANCH  78  80
ATOM     80  C   UNL A   1      30.983  24.246  26.027  1.00  0.00     0.298 C 
ATOM     81  C   UNL A   1      31.120  23.449  24.716  1.00  0.00     0.115 C 
ATOM     82  N   UNL A   1      29.803  25.179  25.903  1.00  0.00    -0.323 N 
ATOM     83  C   UNL A   1      31.203  24.427  23.589  1.00  0.00    -0.006 A 
ATOM     84  C   UNL A   1      30.162  26.315  25.020  1.00  0.00     0.264 C 
ATOM     85  H   UNL A   1      29.549  25.532  26.825  1.00  0.00     0.347 HD
ATOM     86  H   UNL A   1      29.011  24.674  25.502  1.00  0.00     0.347 HD
ATOM     87  C   UNL A   1      30.714  25.714  23.739  1.00  0.00     0.083 A 
ATOM     88  C   UNL A   1      31.877  24.357  22.345  1.00  0.00     0.003 A 
ATOM     89  N   UNL A   1      31.004  26.405  22.591  1.00  0.00    -0.353 N 
ATOM     90  C   UNL A   1      31.770  25.617  21.753  1.00  0.00     0.046 A 
ATOM     91  C   UNL A   1      32.639  23.366  21.699  1.00  0.00     0.010 A 
ATOM     92  H   UNL A   1      30.710  27.323  22.393  1.00  0.00     0.166 HD
ATOM     93  C   UNL A   1      32.411  25.941  20.551  1.00  0.00     0.026 A 
ATOM     94  C   UNL A   1      33.279  23.671  20.494  1.00  0.00     0.001 A 
ATOM     95  C   UNL A   1      33.171  24.943  19.933  1.00  0.00     0.002 A 
BRANCH  84  96
ATOM     96  C   UNL A   1      31.206  27.205  25.667  1.00  0.00     0.041 A 
ATOM     97  C   UNL A   1      32.263  26.732  26.429  1.00  0.00     0.093 A 
ATOM     98  C   UNL A   1      31.326  28.650  25.720  1.00  0.00     0.009 A 
ATOM     99  N   UNL A   1      32.675  27.749  27.244  1.00  0.00    -0.361 N 
ATOM    100  C   UNL A   1      32.159  28.942  26.798  1.00  0.00     0.046 A 
ATOM    101  C   UNL A   1      30.799  29.754  25.001  1.00  0.00     0.011 A 
ATOM    102  H   UNL A   1      33.254  27.643  28.033  1.00  0.00     0.166 HD
ATOM    103  C   UNL A   1      32.391  30.251  27.236  1.00  0.00     0.026 A 
ATOM    104  C   UNL A   1      31.087  31.069  25.380  1.00  0.00     0.001 A 
ATOM    105  C   UNL A   1      31.868  31.311  26.497  1.00  0.00     0.002 A 
ENDBRANCH  84  96
ENDBRANCH  78  80
ENDBRANCH  77  78
ENDBRANCH  76  77
ENDBRANCH  75  76
ENDBRANCH  74  75
ENDBRANCH  73  74
ENDBRANCH   1  73
TORSDOF 21
ENDMDL
