MODEL 1
REMARK VINA RESULT:     -11.0      0.000      0.000
REMARK SMILES COc1ccc2c(CC(=O)OCCOCCOCCOC(=O)c3ccc(-c4c5nc(c(-c6cccc(S(=O)(=O)[O-])c6F)c6ccc([nH]6)c(-c6cccc(S(=O)(=O)[O-])c6F)c6nc(c(-c7cccc(S(=O)(=O)[O-])c7F)c7ccc4[nH]7)C=C6)C=C5)cc3)c(C(=O)c3cc(C)ccn3)[nH]c2c1
REMARK SMILES IDX 15 1 14 2 13 3 12 4 11 5 9 6 10 7 8 8 7 9 3 10 4 11 98 12
REMARK SMILES IDX 5 13 97 14 6 15 96 16 86 17 2 19 1 20 87 21 88 22 89 23
REMARK SMILES IDX 90 24 95 25 91 26 94 27 92 28 93 29 16 30 17 31 18 32 19 33
REMARK SMILES IDX 20 34 21 35 22 36 23 37 24 38 85 39 25 40 84 41 26 42 27 43
REMARK SMILES IDX 28 44 78 45 29 46 83 47 77 48 79 49 30 50 82 51 76 52 75 53
REMARK SMILES IDX 31 55 63 56 43 57 62 58 44 59 47 60 61 61 80 62 45 63 46 64
REMARK SMILES IDX 60 66 81 67 48 68 32 69 33 70 41 71 34 72 36 73 42 74 35 75
REMARK SMILES IDX 37 76 38 77 39 78 40 79 64 80 65 81 73 82 66 83 68 84 74 85
REMARK SMILES IDX 67 86 69 87 70 88 71 89 72 90 49 91 50 92 58 93 51 94 53 95
REMARK SMILES IDX 59 96 52 97 54 98 55 99 56 100 57 101
REMARK H PARENT 96 18 79 54 47 65
REMARK Flexibility Score: inf
ROOT
ATOM      1  C   UNL A   1      34.441  33.013  28.597  1.00  0.00     0.188 C 
ENDROOT
BRANCH   1   2
ATOM      2  O   UNL A   1      33.811  31.852  28.060  1.00  0.00    -0.376 OA
BRANCH   2   3
ATOM      3  C   UNL A   1      34.636  30.771  27.645  1.00  0.00     0.202 C 
BRANCH   3   4
ATOM      4  C   UNL A   1      33.922  29.615  26.931  1.00  0.00     0.261 C 
BRANCH   4   5
ATOM      5  O   UNL A   1      32.498  29.634  27.169  1.00  0.00    -0.463 OA
BRANCH   5   6
ATOM      6  C   UNL A   1      31.733  28.819  26.398  1.00  0.00     0.310 C 
ATOM      7  O   UNL A   1      31.214  27.787  26.815  1.00  0.00    -0.252 OA
BRANCH   6   8
ATOM      8  C   UNL A   1      31.438  29.391  25.013  1.00  0.00     0.161 C 
BRANCH   8   9
ATOM      9  C   UNL A   1      31.429  28.438  23.838  1.00  0.00     0.000 A 
ATOM     10  C   UNL A   1      33.693  25.053  22.799  1.00  0.00     0.120 A 
ATOM     11  C   UNL A   1      34.171  25.776  23.891  1.00  0.00     0.047 A 
ATOM     12  C   UNL A   1      32.628  25.529  22.033  1.00  0.00     0.073 A 
ATOM     13  C   UNL A   1      33.542  26.962  24.292  1.00  0.00     0.014 A 
ATOM     14  C   UNL A   1      31.985  26.688  22.481  1.00  0.00     0.050 A 
ATOM     15  C   UNL A   1      32.397  27.405  23.601  1.00  0.00     0.004 A 
ATOM     16  N   UNL A   1      30.870  27.319  21.992  1.00  0.00    -0.351 N 
ATOM     17  C   UNL A   1      30.381  28.197  22.933  1.00  0.00     0.093 A 
ATOM     18  H   UNL A   1      30.478  27.167  21.101  1.00  0.00     0.167 HD
BRANCH  10  19
ATOM     19  O   UNL A   1      34.245  23.866  22.390  1.00  0.00    -0.497 OA
ATOM     20  C   UNL A   1      33.491  22.733  22.821  1.00  0.00     0.278 C 
ENDBRANCH  10  19
BRANCH  17  21
ATOM     21  C   UNL A   1      28.998  28.654  22.962  1.00  0.00     0.227 C 
ATOM     22  O   UNL A   1      28.076  27.952  23.362  1.00  0.00    -0.285 OA
BRANCH  21  23
ATOM     23  C   UNL A   1      28.662  30.010  22.429  1.00  0.00     0.113 A 
ATOM     24  C   UNL A   1      28.999  31.155  23.147  1.00  0.00     0.036 A 
ATOM     25  N   UNL A   1      28.088  30.031  21.199  1.00  0.00    -0.253 NA
ATOM     26  C   UNL A   1      28.766  32.402  22.554  1.00  0.00    -0.047 A 
ATOM     27  C   UNL A   1      27.949  31.246  20.624  1.00  0.00     0.112 A 
ATOM     28  C   UNL A   1      29.051  33.691  23.267  1.00  0.00     0.044 C 
ATOM     29  C   UNL A   1      28.273  32.439  21.249  1.00  0.00     0.023 A 
ENDBRANCH  21  23
ENDBRANCH  17  21
ENDBRANCH   8   9
ENDBRANCH   6   8
ENDBRANCH   5   6
ENDBRANCH   4   5
ENDBRANCH   3   4
ENDBRANCH   2   3
ENDBRANCH   1   2
BRANCH   1  30
ATOM     30  C   UNL A   1      34.182  34.377  27.917  1.00  0.00     0.188 C 
BRANCH  30  31
ATOM     31  O   UNL A   1      34.636  35.493  28.673  1.00  0.00    -0.376 OA
BRANCH  31  32
ATOM     32  C   UNL A   1      33.813  36.646  28.558  1.00  0.00     0.202 C 
BRANCH  32  33
ATOM     33  C   UNL A   1      32.658  36.642  29.560  1.00  0.00     0.261 C 
BRANCH  33  34
ATOM     34  O   UNL A   1      33.110  36.937  30.899  1.00  0.00    -0.460 OA
BRANCH  34  35
ATOM     35  C   UNL A   1      32.688  36.144  31.899  1.00  0.00     0.338 C 
ATOM     36  O   UNL A   1      31.601  36.224  32.471  1.00  0.00    -0.246 OA
BRANCH  35  37
ATOM     37  C   UNL A   1      33.727  35.151  32.269  1.00  0.00     0.060 A 
ATOM     38  C   UNL A   1      33.421  33.933  32.885  1.00  0.00     0.016 A 
ATOM     39  C   UNL A   1      35.065  35.496  32.095  1.00  0.00     0.016 A 
ATOM     40  C   UNL A   1      34.433  33.103  33.385  1.00  0.00     0.010 A 
ATOM     41  C   UNL A   1      36.078  34.633  32.532  1.00  0.00     0.010 A 
ATOM     42  C   UNL A   1      35.777  33.438  33.211  1.00  0.00    -0.014 A 
BRANCH  42  43
ATOM     43  C   UNL A   1      36.881  32.590  33.749  1.00  0.00     0.031 A 
ATOM     44  C   UNL A   1      37.549  32.962  35.049  1.00  0.00     0.074 A 
ATOM     45  C   UNL A   1      37.344  31.526  33.061  1.00  0.00     0.049 A 
ATOM     46  N   UNL A   1      38.682  32.543  35.552  1.00  0.00    -0.248 NA
ATOM     47  C   UNL A   1      36.849  33.948  35.890  1.00  0.00     0.031 C 
ATOM     48  C   UNL A   1      36.777  31.003  31.818  1.00  0.00     0.029 A 
ATOM     49  N   UNL A   1      38.432  30.717  33.294  1.00  0.00    -0.354 N 
ATOM     50  C   UNL A   1      38.873  33.268  36.722  1.00  0.00     0.074 A 
ATOM     51  C   UNL A   1      37.725  34.140  36.866  1.00  0.00     0.031 C 
ATOM     52  C   UNL A   1      37.531  29.981  31.386  1.00  0.00     0.029 A 
ATOM     53  C   UNL A   1      38.676  29.824  32.277  1.00  0.00     0.049 A 
ATOM     54  H   UNL A   1      38.982  30.772  34.109  1.00  0.00     0.167 HD
ATOM     55  C   UNL A   1      39.907  33.215  37.597  1.00  0.00     0.034 A 
ATOM     56  C   UNL A   1      39.728  29.010  32.046  1.00  0.00     0.034 A 
ATOM     57  C   UNL A   1      41.021  32.309  37.487  1.00  0.00     0.049 A 
ATOM     58  C   UNL A   1      40.880  28.989  33.015  1.00  0.00     0.074 A 
ATOM     59  C   UNL A   1      42.101  32.165  38.343  1.00  0.00     0.029 A 
ATOM     60  N   UNL A   1      41.203  31.391  36.464  1.00  0.00    -0.354 N 
ATOM     61  N   UNL A   1      41.033  29.656  34.133  1.00  0.00    -0.248 NA
ATOM     62  C   UNL A   1      41.998  28.091  32.695  1.00  0.00     0.031 C 
ATOM     63  C   UNL A   1      42.944  31.175  37.828  1.00  0.00     0.029 A 
ATOM     64  C   UNL A   1      42.376  30.681  36.666  1.00  0.00     0.049 A 
ATOM     65  H   UNL A   1      40.588  31.261  35.706  1.00  0.00     0.167 HD
ATOM     66  C   UNL A   1      42.247  29.233  34.664  1.00  0.00     0.074 A 
ATOM     67  C   UNL A   1      42.776  28.236  33.759  1.00  0.00     0.031 C 
ATOM     68  C   UNL A   1      42.874  29.649  35.793  1.00  0.00     0.034 A 
BRANCH  55  69
ATOM     69  C   UNL A   1      39.888  34.164  38.767  1.00  0.00     0.023 A 
ATOM     70  C   UNL A   1      40.573  35.392  38.689  1.00  0.00     0.012 A 
ATOM     71  C   UNL A   1      39.132  33.865  39.920  1.00  0.00     0.148 A 
ATOM     72  C   UNL A   1      40.532  36.296  39.750  1.00  0.00     0.002 A 
ATOM     73  C   UNL A   1      39.061  34.790  40.955  1.00  0.00     0.091 A 
ATOM     74  F   UNL A   1      38.503  32.684  39.984  1.00  0.00    -0.205 F 
ATOM     75  C   UNL A   1      39.768  36.001  40.877  1.00  0.00     0.022 A 
BRANCH  73  76
ATOM     76  S   UNL A   1      38.040  34.534  42.413  1.00  0.00     0.127 S 
ATOM     77  O   UNL A   1      38.329  35.740  43.188  1.00  0.00    -0.237 OA
ATOM     78  O   UNL A   1      36.695  34.485  41.842  1.00  0.00    -0.237 OA
ATOM     79  O   UNL A   1      38.494  33.285  43.005  1.00  0.00    -0.744 OA
ENDBRANCH  73  76
ENDBRANCH  55  69
BRANCH  56  80
ATOM     80  C   UNL A   1      39.744  28.143  30.833  1.00  0.00     0.023 A 
ATOM     81  C   UNL A   1      38.849  27.060  30.744  1.00  0.00     0.012 A 
ATOM     82  C   UNL A   1      40.627  28.394  29.763  1.00  0.00     0.148 A 
ATOM     83  C   UNL A   1      38.849  26.227  29.625  1.00  0.00     0.002 A 
ATOM     84  C   UNL A   1      40.579  27.599  28.625  1.00  0.00     0.091 A 
ATOM     85  F   UNL A   1      41.490  29.414  29.877  1.00  0.00    -0.205 F 
ATOM     86  C   UNL A   1      39.703  26.505  28.560  1.00  0.00     0.022 A 
BRANCH  84  87
ATOM     87  S   UNL A   1      41.545  27.963  27.155  1.00  0.00     0.127 S 
ATOM     88  O   UNL A   1      41.276  29.386  26.965  1.00  0.00    -0.237 OA
ATOM     89  O   UNL A   1      42.903  27.647  27.600  1.00  0.00    -0.237 OA
ATOM     90  O   UNL A   1      41.032  27.077  26.119  1.00  0.00    -0.744 OA
ENDBRANCH  84  87
ENDBRANCH  56  80
BRANCH  68  91
ATOM     91  C   UNL A   1      44.185  28.993  36.147  1.00  0.00     0.023 A 
ATOM     92  C   UNL A   1      45.401  29.628  35.822  1.00  0.00     0.012 A 
ATOM     93  C   UNL A   1      44.212  27.771  36.847  1.00  0.00     0.148 A 
ATOM     94  C   UNL A   1      46.621  29.039  36.155  1.00  0.00     0.002 A 
ATOM     95  C   UNL A   1      45.432  27.213  37.219  1.00  0.00     0.091 A 
ATOM     96  F   UNL A   1      43.049  27.169  37.132  1.00  0.00    -0.205 F 
ATOM     97  C   UNL A   1      46.637  27.839  36.861  1.00  0.00     0.022 A 
BRANCH  95  98
ATOM     98  S   UNL A   1      45.544  25.718  38.209  1.00  0.00     0.127 S 
ATOM     99  O   UNL A   1      44.776  26.089  39.397  1.00  0.00    -0.237 OA
ATOM    100  O   UNL A   1      44.896  24.726  37.350  1.00  0.00    -0.237 OA
ATOM    101  O   UNL A   1      46.966  25.489  38.428  1.00  0.00    -0.744 OA
ENDBRANCH  95  98
ENDBRANCH  68  91
ENDBRANCH  42  43
ENDBRANCH  35  37
ENDBRANCH  34  35
ENDBRANCH  33  34
ENDBRANCH  32  33
ENDBRANCH  31  32
ENDBRANCH  30  31
ENDBRANCH   1  30
TORSDOF 24
ENDMDL
MODEL 2
REMARK VINA RESULT:     -10.0      1.518      7.566
REMARK SMILES COc1ccc2c(CC(=O)OCCOCCOCCOC(=O)c3ccc(-c4c5nc(c(-c6cccc(S(=O)(=O)[O-])c6F)c6ccc([nH]6)c(-c6cccc(S(=O)(=O)[O-])c6F)c6nc(c(-c7cccc(S(=O)(=O)[O-])c7F)c7ccc4[nH]7)C=C6)C=C5)cc3)c(C(=O)c3cc(C)ccn3)[nH]c2c1
REMARK SMILES IDX 15 1 14 2 13 3 12 4 11 5 9 6 10 7 8 8 7 9 3 10 4 11 98 12
REMARK SMILES IDX 5 13 97 14 6 15 96 16 86 17 2 19 1 20 87 21 88 22 89 23
REMARK SMILES IDX 90 24 95 25 91 26 94 27 92 28 93 29 16 30 17 31 18 32 19 33
REMARK SMILES IDX 20 34 21 35 22 36 23 37 24 38 85 39 25 40 84 41 26 42 27 43
REMARK SMILES IDX 28 44 78 45 29 46 83 47 77 48 79 49 30 50 82 51 76 52 75 53
REMARK SMILES IDX 31 55 63 56 43 57 62 58 44 59 47 60 61 61 80 62 45 63 46 64
REMARK SMILES IDX 60 66 81 67 48 68 32 69 33 70 41 71 34 72 36 73 42 74 35 75
REMARK SMILES IDX 37 76 38 77 39 78 40 79 64 80 65 81 73 82 66 83 68 84 74 85
REMARK SMILES IDX 67 86 69 87 70 88 71 89 72 90 49 91 50 92 58 93 51 94 53 95
REMARK SMILES IDX 59 96 52 97 54 98 55 99 56 100 57 101
REMARK H PARENT 96 18 79 54 47 65
REMARK Flexibility Score: inf
ROOT
ATOM      1  C   UNL A   1      34.559  32.946  28.583  1.00  0.00     0.188 C 
ENDROOT
BRANCH   1   2
ATOM      2  O   UNL A   1      33.935  31.781  28.048  1.00  0.00    -0.376 OA
BRANCH   2   3
ATOM      3  C   UNL A   1      34.761  30.682  27.687  1.00  0.00     0.202 C 
BRANCH   3   4
ATOM      4  C   UNL A   1      34.051  29.500  27.013  1.00  0.00     0.261 C 
BRANCH   4   5
ATOM      5  O   UNL A   1      32.632  29.501  27.280  1.00  0.00    -0.463 OA
BRANCH   5   6
ATOM      6  C   UNL A   1      31.852  28.736  26.474  1.00  0.00     0.310 C 
ATOM      7  O   UNL A   1      31.246  27.743  26.867  1.00  0.00    -0.252 OA
BRANCH   6   8
ATOM      8  C   UNL A   1      31.663  29.321  25.076  1.00  0.00     0.161 C 
BRANCH   8   9
ATOM      9  C   UNL A   1      31.644  28.366  23.903  1.00  0.00     0.000 A 
ATOM     10  C   UNL A   1      33.775  24.874  22.938  1.00  0.00     0.120 A 
ATOM     11  C   UNL A   1      34.253  25.577  24.042  1.00  0.00     0.047 A 
ATOM     12  C   UNL A   1      32.757  25.398  22.139  1.00  0.00     0.073 A 
ATOM     13  C   UNL A   1      33.670  26.793  24.423  1.00  0.00     0.014 A 
ATOM     14  C   UNL A   1      32.156  26.588  22.566  1.00  0.00     0.050 A 
ATOM     15  C   UNL A   1      32.568  27.288  23.697  1.00  0.00     0.004 A 
ATOM     16  N   UNL A   1      31.088  27.269  22.042  1.00  0.00    -0.351 N 
ATOM     17  C   UNL A   1      30.613  28.172  22.967  1.00  0.00     0.093 A 
ATOM     18  H   UNL A   1      30.715  27.133  21.141  1.00  0.00     0.167 HD
BRANCH  10  19
ATOM     19  O   UNL A   1      34.282  23.661  22.548  1.00  0.00    -0.497 OA
ATOM     20  C   UNL A   1      33.835  22.588  23.376  1.00  0.00     0.278 C 
ENDBRANCH  10  19
BRANCH  17  21
ATOM     21  C   UNL A   1      29.253  28.694  22.954  1.00  0.00     0.227 C 
ATOM     22  O   UNL A   1      28.269  27.986  23.141  1.00  0.00    -0.285 OA
BRANCH  21  23
ATOM     23  C   UNL A   1      29.024  30.138  22.640  1.00  0.00     0.113 A 
ATOM     24  C   UNL A   1      28.623  30.530  21.366  1.00  0.00     0.036 A 
ATOM     25  N   UNL A   1      29.167  30.994  23.684  1.00  0.00    -0.253 NA
ATOM     26  C   UNL A   1      28.313  31.879  21.153  1.00  0.00    -0.047 A 
ATOM     27  C   UNL A   1      28.785  32.272  23.466  1.00  0.00     0.112 A 
ATOM     28  C   UNL A   1      27.917  32.404  19.804  1.00  0.00     0.044 C 
ATOM     29  C   UNL A   1      28.353  32.752  22.241  1.00  0.00     0.023 A 
ENDBRANCH  21  23
ENDBRANCH  17  21
ENDBRANCH   8   9
ENDBRANCH   6   8
ENDBRANCH   5   6
ENDBRANCH   4   5
ENDBRANCH   3   4
ENDBRANCH   2   3
ENDBRANCH   1   2
BRANCH   1  30
ATOM     30  C   UNL A   1      34.345  34.297  27.863  1.00  0.00     0.188 C 
BRANCH  30  31
ATOM     31  O   UNL A   1      34.649  35.432  28.664  1.00  0.00    -0.376 OA
BRANCH  31  32
ATOM     32  C   UNL A   1      33.623  36.415  28.692  1.00  0.00     0.202 C 
BRANCH  32  33
ATOM     33  C   UNL A   1      32.636  36.199  29.840  1.00  0.00     0.261 C 
BRANCH  33  34
ATOM     34  O   UNL A   1      33.288  36.276  31.127  1.00  0.00    -0.460 OA
BRANCH  34  35
ATOM     35  C   UNL A   1      33.123  35.254  31.983  1.00  0.00     0.338 C 
ATOM     36  O   UNL A   1      32.074  34.955  32.554  1.00  0.00    -0.246 OA
BRANCH  35  37
ATOM     37  C   UNL A   1      34.397  34.521  32.192  1.00  0.00     0.060 A 
ATOM     38  C   UNL A   1      34.455  33.277  32.829  1.00  0.00     0.016 A 
ATOM     39  C   UNL A   1      35.588  35.150  31.839  1.00  0.00     0.016 A 
ATOM     40  C   UNL A   1      35.684  32.699  33.173  1.00  0.00     0.010 A 
ATOM     41  C   UNL A   1      36.817  34.540  32.120  1.00  0.00     0.010 A 
ATOM     42  C   UNL A   1      36.885  33.320  32.819  1.00  0.00    -0.014 A 
BRANCH  42  43
ATOM     43  C   UNL A   1      38.212  32.745  33.187  1.00  0.00     0.031 A 
ATOM     44  C   UNL A   1      38.805  31.634  32.358  1.00  0.00     0.074 A 
ATOM     45  C   UNL A   1      38.868  33.155  34.292  1.00  0.00     0.049 A 
ATOM     46  N   UNL A   1      39.786  30.816  32.644  1.00  0.00    -0.248 NA
ATOM     47  C   UNL A   1      38.205  31.409  31.033  1.00  0.00     0.031 C 
ATOM     48  C   UNL A   1      38.457  34.250  35.170  1.00  0.00     0.029 A 
ATOM     49  N   UNL A   1      40.005  32.661  34.889  1.00  0.00    -0.354 N 
ATOM     50  C   UNL A   1      39.869  29.930  31.576  1.00  0.00     0.074 A 
ATOM     51  C   UNL A   1      38.851  30.325  30.625  1.00  0.00     0.031 C 
ATOM     52  C   UNL A   1      39.311  34.332  36.201  1.00  0.00     0.029 A 
ATOM     53  C   UNL A   1      40.284  33.249  36.101  1.00  0.00     0.049 A 
ATOM     54  H   UNL A   1      40.564  31.957  34.488  1.00  0.00     0.167 HD
ATOM     55  C   UNL A   1      40.714  28.884  31.403  1.00  0.00     0.034 A 
ATOM     56  C   UNL A   1      41.179  32.925  37.058  1.00  0.00     0.034 A 
ATOM     57  C   UNL A   1      41.764  28.524  32.320  1.00  0.00     0.049 A 
ATOM     58  C   UNL A   1      42.086  31.740  36.857  1.00  0.00     0.074 A 
ATOM     59  C   UNL A   1      42.686  27.496  32.211  1.00  0.00     0.029 A 
ATOM     60  N   UNL A   1      42.038  29.176  33.512  1.00  0.00    -0.354 N 
ATOM     61  N   UNL A   1      42.175  30.930  35.831  1.00  0.00    -0.248 NA
ATOM     62  C   UNL A   1      43.027  31.434  37.945  1.00  0.00     0.031 C 
ATOM     63  C   UNL A   1      43.504  27.514  33.346  1.00  0.00     0.029 A 
ATOM     64  C   UNL A   1      43.111  28.572  34.148  1.00  0.00     0.049 A 
ATOM     65  H   UNL A   1      41.544  29.955  33.856  1.00  0.00     0.167 HD
ATOM     66  C   UNL A   1      43.202  30.042  36.135  1.00  0.00     0.074 A 
ATOM     67  C   UNL A   1      43.719  30.428  37.431  1.00  0.00     0.031 C 
ATOM     68  C   UNL A   1      43.661  28.991  35.412  1.00  0.00     0.034 A 
BRANCH  55  69
ATOM     69  C   UNL A   1      40.546  28.043  30.164  1.00  0.00     0.023 A 
ATOM     70  C   UNL A   1      39.511  27.091  30.093  1.00  0.00     0.012 A 
ATOM     71  C   UNL A   1      41.376  28.247  29.041  1.00  0.00     0.148 A 
ATOM     72  C   UNL A   1      39.321  26.334  28.937  1.00  0.00     0.002 A 
ATOM     73  C   UNL A   1      41.154  27.520  27.879  1.00  0.00     0.091 A 
ATOM     74  F   UNL A   1      42.368  29.144  29.134  1.00  0.00    -0.205 F 
ATOM     75  C   UNL A   1      40.134  26.555  27.828  1.00  0.00     0.022 A 
BRANCH  73  76
ATOM     76  S   UNL A   1      42.096  27.789  26.373  1.00  0.00     0.127 S 
ATOM     77  O   UNL A   1      41.820  29.199  26.101  1.00  0.00    -0.237 OA
ATOM     78  O   UNL A   1      43.464  27.509  26.810  1.00  0.00    -0.237 OA
ATOM     79  O   UNL A   1      41.568  26.848  25.396  1.00  0.00    -0.744 OA
ENDBRANCH  73  76
ENDBRANCH  55  69
BRANCH  56  80
ATOM     80  C   UNL A   1      41.259  33.736  38.307  1.00  0.00     0.023 A 
ATOM     81  C   UNL A   1      42.258  34.719  38.429  1.00  0.00     0.012 A 
ATOM     82  C   UNL A   1      40.344  33.551  39.362  1.00  0.00     0.148 A 
ATOM     83  C   UNL A   1      42.363  35.487  39.590  1.00  0.00     0.002 A 
ATOM     84  C   UNL A   1      40.414  34.360  40.489  1.00  0.00     0.091 A 
ATOM     85  F   UNL A   1      39.415  32.591  39.238  1.00  0.00    -0.205 F 
ATOM     86  C   UNL A   1      41.433  35.317  40.613  1.00  0.00     0.022 A 
BRANCH  84  87
ATOM     87  S   UNL A   1      39.180  34.303  41.793  1.00  0.00     0.127 S 
ATOM     88  O   UNL A   1      38.836  32.884  41.817  1.00  0.00    -0.237 OA
ATOM     89  O   UNL A   1      39.942  34.772  42.951  1.00  0.00    -0.237 OA
ATOM     90  O   UNL A   1      38.118  35.206  41.368  1.00  0.00    -0.744 OA
ENDBRANCH  84  87
ENDBRANCH  56  80
BRANCH  68  91
ATOM     91  C   UNL A   1      44.816  28.203  35.978  1.00  0.00     0.023 A 
ATOM     92  C   UNL A   1      44.572  27.110  36.833  1.00  0.00     0.012 A 
ATOM     93  C   UNL A   1      46.143  28.516  35.622  1.00  0.00     0.148 A 
ATOM     94  C   UNL A   1      45.629  26.365  37.354  1.00  0.00     0.002 A 
ATOM     95  C   UNL A   1      47.191  27.739  36.106  1.00  0.00     0.091 A 
ATOM     96  F   UNL A   1      46.361  29.571  34.824  1.00  0.00    -0.205 F 
ATOM     97  C   UNL A   1      46.937  26.672  36.983  1.00  0.00     0.022 A 
BRANCH  95  98
ATOM     98  S   UNL A   1      48.897  28.006  35.607  1.00  0.00     0.127 S 
ATOM     99  O   UNL A   1      48.768  28.119  34.155  1.00  0.00    -0.237 OA
ATOM    100  O   UNL A   1      49.228  29.257  36.289  1.00  0.00    -0.237 OA
ATOM    101  O   UNL A   1      49.638  26.845  36.084  1.00  0.00    -0.744 OA
ENDBRANCH  95  98
ENDBRANCH  68  91
ENDBRANCH  42  43
ENDBRANCH  35  37
ENDBRANCH  34  35
ENDBRANCH  33  34
ENDBRANCH  32  33
ENDBRANCH  31  32
ENDBRANCH  30  31
ENDBRANCH   1  30
TORSDOF 24
ENDMDL
MODEL 3
REMARK VINA RESULT:      -9.4      1.914      8.392
REMARK SMILES COc1ccc2c(CC(=O)OCCOCCOCCOC(=O)c3ccc(-c4c5nc(c(-c6cccc(S(=O)(=O)[O-])c6F)c6ccc([nH]6)c(-c6cccc(S(=O)(=O)[O-])c6F)c6nc(c(-c7cccc(S(=O)(=O)[O-])c7F)c7ccc4[nH]7)C=C6)C=C5)cc3)c(C(=O)c3cc(C)ccn3)[nH]c2c1
REMARK SMILES IDX 15 1 14 2 13 3 12 4 11 5 9 6 10 7 8 8 7 9 3 10 4 11 98 12
REMARK SMILES IDX 5 13 97 14 6 15 96 16 86 17 2 19 1 20 87 21 88 22 89 23
REMARK SMILES IDX 90 24 95 25 91 26 94 27 92 28 93 29 16 30 17 31 18 32 19 33
REMARK SMILES IDX 20 34 21 35 22 36 23 37 24 38 85 39 25 40 84 41 26 42 27 43
REMARK SMILES IDX 28 44 78 45 29 46 83 47 77 48 79 49 30 50 82 51 76 52 75 53
REMARK SMILES IDX 31 55 63 56 43 57 62 58 44 59 47 60 61 61 80 62 45 63 46 64
REMARK SMILES IDX 60 66 81 67 48 68 32 69 33 70 41 71 34 72 36 73 42 74 35 75
REMARK SMILES IDX 37 76 38 77 39 78 40 79 64 80 65 81 73 82 66 83 68 84 74 85
REMARK SMILES IDX 67 86 69 87 70 88 71 89 72 90 49 91 50 92 58 93 51 94 53 95
REMARK SMILES IDX 59 96 52 97 54 98 55 99 56 100 57 101
REMARK H PARENT 96 18 79 54 47 65
REMARK Flexibility Score: inf
ROOT
ATOM      1  C   UNL A   1      34.713  33.393  28.231  1.00  0.00     0.188 C 
ENDROOT
BRANCH   1   2
ATOM      2  O   UNL A   1      33.855  32.325  27.835  1.00  0.00    -0.376 OA
BRANCH   2   3
ATOM      3  C   UNL A   1      34.423  31.034  27.660  1.00  0.00     0.202 C 
BRANCH   3   4
ATOM      4  C   UNL A   1      33.592  30.038  26.840  1.00  0.00     0.261 C 
BRANCH   4   5
ATOM      5  O   UNL A   1      34.427  29.112  26.113  1.00  0.00    -0.463 OA
BRANCH   5   6
ATOM      6  C   UNL A   1      33.875  28.503  25.032  1.00  0.00     0.310 C 
ATOM      7  O   UNL A   1      34.260  28.693  23.881  1.00  0.00    -0.252 OA
BRANCH   6   8
ATOM      8  C   UNL A   1      32.847  27.433  25.394  1.00  0.00     0.161 C 
BRANCH   8   9
ATOM      9  C   UNL A   1      31.624  27.297  24.514  1.00  0.00     0.000 A 
ATOM     10  C   UNL A   1      28.854  30.022  22.913  1.00  0.00     0.120 A 
ATOM     11  C   UNL A   1      29.730  30.551  23.859  1.00  0.00     0.047 A 
ATOM     12  C   UNL A   1      28.822  28.652  22.650  1.00  0.00     0.073 A 
ATOM     13  C   UNL A   1      30.655  29.728  24.515  1.00  0.00     0.014 A 
ATOM     14  C   UNL A   1      29.786  27.857  23.280  1.00  0.00     0.050 A 
ATOM     15  C   UNL A   1      30.716  28.359  24.186  1.00  0.00     0.004 A 
ATOM     16  N   UNL A   1      30.050  26.519  23.139  1.00  0.00    -0.351 N 
ATOM     17  C   UNL A   1      31.292  26.232  23.660  1.00  0.00     0.093 A 
ATOM     18  H   UNL A   1      29.443  25.862  22.726  1.00  0.00     0.167 HD
BRANCH  10  19
ATOM     19  O   UNL A   1      27.959  30.790  22.212  1.00  0.00    -0.497 OA
ATOM     20  C   UNL A   1      28.551  31.975  21.680  1.00  0.00     0.278 C 
ENDBRANCH  10  19
BRANCH  17  21
ATOM     21  C   UNL A   1      32.079  25.071  23.264  1.00  0.00     0.227 C 
ATOM     22  O   UNL A   1      32.871  25.095  22.327  1.00  0.00    -0.285 OA
BRANCH  21  23
ATOM     23  C   UNL A   1      31.883  23.773  23.978  1.00  0.00     0.113 A 
ATOM     24  C   UNL A   1      32.259  22.573  23.381  1.00  0.00     0.036 A 
ATOM     25  N   UNL A   1      31.391  23.867  25.240  1.00  0.00    -0.253 NA
ATOM     26  C   UNL A   1      32.160  21.396  24.134  1.00  0.00    -0.047 A 
ATOM     27  C   UNL A   1      31.381  22.726  25.965  1.00  0.00     0.112 A 
ATOM     28  C   UNL A   1      32.496  20.051  23.562  1.00  0.00     0.044 C 
ATOM     29  C   UNL A   1      31.755  21.490  25.467  1.00  0.00     0.023 A 
ENDBRANCH  21  23
ENDBRANCH  17  21
ENDBRANCH   8   9
ENDBRANCH   6   8
ENDBRANCH   5   6
ENDBRANCH   4   5
ENDBRANCH   3   4
ENDBRANCH   2   3
ENDBRANCH   1   2
BRANCH   1  30
ATOM     30  C   UNL A   1      34.467  34.799  27.640  1.00  0.00     0.188 C 
BRANCH  30  31
ATOM     31  O   UNL A   1      34.452  35.838  28.610  1.00  0.00    -0.376 OA
BRANCH  31  32
ATOM     32  C   UNL A   1      33.158  36.356  28.888  1.00  0.00     0.202 C 
BRANCH  32  33
ATOM     33  C   UNL A   1      32.680  36.008  30.298  1.00  0.00     0.261 C 
BRANCH  33  34
ATOM     34  O   UNL A   1      33.786  35.829  31.210  1.00  0.00    -0.460 OA
BRANCH  34  35
ATOM     35  C   UNL A   1      33.726  34.812  32.086  1.00  0.00     0.338 C 
ATOM     36  O   UNL A   1      32.747  34.506  32.767  1.00  0.00    -0.246 OA
BRANCH  35  37
ATOM     37  C   UNL A   1      35.024  34.098  32.167  1.00  0.00     0.060 A 
ATOM     38  C   UNL A   1      35.160  32.848  32.781  1.00  0.00     0.016 A 
ATOM     39  C   UNL A   1      36.167  34.748  31.709  1.00  0.00     0.016 A 
ATOM     40  C   UNL A   1      36.424  32.287  33.001  1.00  0.00     0.010 A 
ATOM     41  C   UNL A   1      37.426  34.154  31.866  1.00  0.00     0.010 A 
ATOM     42  C   UNL A   1      37.577  32.929  32.542  1.00  0.00    -0.014 A 
BRANCH  42  43
ATOM     43  C   UNL A   1      38.941  32.372  32.778  1.00  0.00     0.031 A 
ATOM     44  C   UNL A   1      39.483  31.302  31.863  1.00  0.00     0.074 A 
ATOM     45  C   UNL A   1      39.680  32.759  33.837  1.00  0.00     0.049 A 
ATOM     46  N   UNL A   1      40.500  30.496  32.037  1.00  0.00    -0.248 NA
ATOM     47  C   UNL A   1      38.777  31.108  30.586  1.00  0.00     0.031 C 
ATOM     48  C   UNL A   1      39.325  33.815  34.784  1.00  0.00     0.029 A 
ATOM     49  N   UNL A   1      40.874  32.270  34.318  1.00  0.00    -0.354 N 
ATOM     50  C   UNL A   1      40.509  29.648  30.936  1.00  0.00     0.074 A 
ATOM     51  C   UNL A   1      39.407  30.053  30.088  1.00  0.00     0.031 C 
ATOM     52  C   UNL A   1      40.262  33.881  35.742  1.00  0.00     0.029 A 
ATOM     53  C   UNL A   1      41.244  32.824  35.522  1.00  0.00     0.049 A 
ATOM     54  H   UNL A   1      41.410  31.592  33.847  1.00  0.00     0.167 HD
ATOM     55  C   UNL A   1      41.355  28.627  30.656  1.00  0.00     0.034 A 
ATOM     56  C   UNL A   1      42.222  32.487  36.389  1.00  0.00     0.034 A 
ATOM     57  C   UNL A   1      42.486  28.260  31.468  1.00  0.00     0.049 A 
ATOM     58  C   UNL A   1      43.131  31.330  36.071  1.00  0.00     0.074 A 
ATOM     59  C   UNL A   1      43.415  27.256  31.246  1.00  0.00     0.029 A 
ATOM     60  N   UNL A   1      42.848  28.878  32.655  1.00  0.00    -0.354 N 
ATOM     61  N   UNL A   1      43.148  30.557  35.013  1.00  0.00    -0.248 NA
ATOM     62  C   UNL A   1      44.166  31.009  37.065  1.00  0.00     0.031 C 
ATOM     63  C   UNL A   1      44.326  27.255  32.308  1.00  0.00     0.029 A 
ATOM     64  C   UNL A   1      43.982  28.276  33.177  1.00  0.00     0.049 A 
ATOM     65  H   UNL A   1      42.370  29.634  33.066  1.00  0.00     0.167 HD
ATOM     66  C   UNL A   1      44.214  29.682  35.199  1.00  0.00     0.074 A 
ATOM     67  C   UNL A   1      44.831  30.036  36.459  1.00  0.00     0.031 C 
ATOM     68  C   UNL A   1      44.630  28.665  34.403  1.00  0.00     0.034 A 
BRANCH  55  69
ATOM     69  C   UNL A   1      41.099  27.825  29.406  1.00  0.00     0.023 A 
ATOM     70  C   UNL A   1      40.025  26.915  29.361  1.00  0.00     0.012 A 
ATOM     71  C   UNL A   1      41.885  28.025  28.252  1.00  0.00     0.148 A 
ATOM     72  C   UNL A   1      39.754  26.194  28.198  1.00  0.00     0.002 A 
ATOM     73  C   UNL A   1      41.582  27.335  27.084  1.00  0.00     0.091 A 
ATOM     74  F   UNL A   1      42.914  28.881  28.319  1.00  0.00    -0.205 F 
ATOM     75  C   UNL A   1      40.524  26.412  27.058  1.00  0.00     0.022 A 
BRANCH  73  76
ATOM     76  S   UNL A   1      42.465  27.606  25.543  1.00  0.00     0.127 S 
ATOM     77  O   UNL A   1      43.853  27.645  26.003  1.00  0.00    -0.237 OA
ATOM     78  O   UNL A   1      42.114  26.413  24.772  1.00  0.00    -0.237 OA
ATOM     79  O   UNL A   1      41.950  28.854  24.999  1.00  0.00    -0.744 OA
ENDBRANCH  73  76
ENDBRANCH  55  69
BRANCH  56  80
ATOM     80  C   UNL A   1      42.392  33.258  37.654  1.00  0.00     0.023 A 
ATOM     81  C   UNL A   1      43.446  34.185  37.762  1.00  0.00     0.012 A 
ATOM     82  C   UNL A   1      41.510  33.091  38.740  1.00  0.00     0.148 A 
ATOM     83  C   UNL A   1      43.635  34.913  38.937  1.00  0.00     0.002 A 
ATOM     84  C   UNL A   1      41.665  33.864  39.883  1.00  0.00     0.091 A 
ATOM     85  F   UNL A   1      40.527  32.185  38.627  1.00  0.00    -0.205 F 
ATOM     86  C   UNL A   1      42.737  34.764  39.992  1.00  0.00     0.022 A 
BRANCH  84  87
ATOM     87  S   UNL A   1      40.481  33.835  41.233  1.00  0.00     0.127 S 
ATOM     88  O   UNL A   1      40.551  32.441  41.663  1.00  0.00    -0.237 OA
ATOM     89  O   UNL A   1      41.064  34.798  42.168  1.00  0.00    -0.237 OA
ATOM     90  O   UNL A   1      39.213  34.256  40.652  1.00  0.00    -0.744 OA
ENDBRANCH  84  87
ENDBRANCH  56  80
BRANCH  68  91
ATOM     91  C   UNL A   1      45.843  27.885  34.843  1.00  0.00     0.023 A 
ATOM     92  C   UNL A   1      47.133  28.329  34.488  1.00  0.00     0.012 A 
ATOM     93  C   UNL A   1      45.707  26.738  35.650  1.00  0.00     0.148 A 
ATOM     94  C   UNL A   1      48.264  27.624  34.898  1.00  0.00     0.002 A 
ATOM     95  C   UNL A   1      46.842  26.067  36.096  1.00  0.00     0.091 A 
ATOM     96  F   UNL A   1      44.474  26.317  35.962  1.00  0.00    -0.205 F 
ATOM     97  C   UNL A   1      48.121  26.501  35.709  1.00  0.00     0.022 A 
BRANCH  95  98
ATOM     98  S   UNL A   1      46.753  24.667  37.219  1.00  0.00     0.127 S 
ATOM     99  O   UNL A   1      48.023  23.993  36.957  1.00  0.00    -0.237 OA
ATOM    100  O   UNL A   1      46.668  25.321  38.525  1.00  0.00    -0.237 OA
ATOM    101  O   UNL A   1      45.558  23.925  36.838  1.00  0.00    -0.744 OA
ENDBRANCH  95  98
ENDBRANCH  68  91
ENDBRANCH  42  43
ENDBRANCH  35  37
ENDBRANCH  34  35
ENDBRANCH  33  34
ENDBRANCH  32  33
ENDBRANCH  31  32
ENDBRANCH  30  31
ENDBRANCH   1  30
TORSDOF 24
ENDMDL
