MODEL 1
REMARK VINA RESULT:      -9.0      0.000      0.000
REMARK SMILES C[C@@H](C(=O)OCCOCCOCCOC(=O)c1ccc(-c2c3nc(c(-c4cccc(S(=O)(=O)[O-])c4F)c4ccc([nH]4)c(-c4cccc(S(=O)(=O)[O-])c4F)c4nc(c(-c5cccc(S(=O)(=O)[O-])c5F)c5ccc2[nH]5)C=C4)C=C3)cc1)c1ccc(-c2ccc3[nH]ccc3c2)cc1
REMARK SMILES IDX 10 1 9 2 8 3 7 4 6 5 5 6 3 7 4 8 2 9 1 10 80 11 81 12 94 13
REMARK SMILES IDX 82 14 93 15 83 16 84 17 85 18 92 19 86 20 91 21 87 22 90 23
REMARK SMILES IDX 88 24 89 25 11 27 12 28 13 29 14 30 15 31 16 32 17 33 18 34
REMARK SMILES IDX 79 35 19 36 78 37 20 38 21 39 22 40 72 41 23 42 77 43 71 44
REMARK SMILES IDX 73 45 24 46 76 47 70 48 69 49 25 51 57 52 37 53 56 54 38 55
REMARK SMILES IDX 41 56 55 57 74 58 39 59 40 60 54 62 75 63 42 64 26 65 27 66
REMARK SMILES IDX 35 67 28 68 30 69 36 70 29 71 31 72 32 73 33 74 34 75 58 76
REMARK SMILES IDX 59 77 67 78 60 79 62 80 68 81 61 82 63 83 64 84 65 85 66 86
REMARK SMILES IDX 43 87 44 88 52 89 45 90 47 91 53 92 46 93 48 94 49 95 50 96
REMARK SMILES IDX 51 97
REMARK H PARENT 88 26 73 50 41 61
REMARK Flexibility Score: inf
ROOT
ATOM      1  C   UNL A   1      45.428  21.118  25.258  1.00  0.00     0.188 C 
ENDROOT
BRANCH   1   2
ATOM      2  C   UNL A   1      45.234  19.872  24.384  1.00  0.00     0.188 C 
BRANCH   2   3
ATOM      3  O   UNL A   1      43.935  19.326  24.355  1.00  0.00    -0.376 OA
BRANCH   3   4
ATOM      4  C   UNL A   1      43.248  19.097  25.574  1.00  0.00     0.202 C 
BRANCH   4   5
ATOM      5  C   UNL A   1      41.896  19.736  25.961  1.00  0.00     0.261 C 
BRANCH   5   6
ATOM      6  O   UNL A   1      41.829  21.171  25.967  1.00  0.00    -0.463 OA
BRANCH   6   7
ATOM      7  C   UNL A   1      41.524  21.761  27.157  1.00  0.00     0.313 C 
ATOM      8  O   UNL A   1      40.746  21.273  27.972  1.00  0.00    -0.252 OA
BRANCH   7   9
ATOM      9  C   UNL A   1      42.257  23.090  27.410  1.00  0.00     0.126 C 
ATOM     10  C   UNL A   1      43.642  22.911  28.058  1.00  0.00     0.025 C 
BRANCH   9  11
ATOM     11  C   UNL A   1      41.388  24.221  27.989  1.00  0.00    -0.034 A 
ATOM     12  C   UNL A   1      40.054  24.392  27.581  1.00  0.00     0.005 A 
ATOM     13  C   UNL A   1      41.925  25.212  28.831  1.00  0.00     0.005 A 
ATOM     14  C   UNL A   1      39.301  25.508  27.978  1.00  0.00     0.009 A 
ATOM     15  C   UNL A   1      41.169  26.332  29.226  1.00  0.00     0.009 A 
ATOM     16  C   UNL A   1      39.852  26.507  28.789  1.00  0.00    -0.018 A 
BRANCH  16  17
ATOM     17  C   UNL A   1      39.047  27.667  29.199  1.00  0.00    -0.018 A 
ATOM     18  C   UNL A   1      38.609  27.760  30.523  1.00  0.00     0.011 A 
ATOM     19  C   UNL A   1      38.671  28.679  28.291  1.00  0.00     0.019 A 
ATOM     20  C   UNL A   1      37.843  28.834  30.982  1.00  0.00     0.027 A 
ATOM     21  C   UNL A   1      37.828  29.737  28.714  1.00  0.00    -0.000 A 
ATOM     22  C   UNL A   1      37.452  29.794  30.054  1.00  0.00     0.045 A 
ATOM     23  C   UNL A   1      37.196  30.839  28.071  1.00  0.00     0.028 A 
ATOM     24  N   UNL A   1      36.674  30.915  30.228  1.00  0.00    -0.361 N 
ATOM     25  C   UNL A   1      36.464  31.523  29.018  1.00  0.00     0.083 A 
ATOM     26  H   UNL A   1      36.323  31.233  31.091  1.00  0.00     0.166 HD
ENDBRANCH  16  17
ENDBRANCH   9  11
ENDBRANCH   7   9
ENDBRANCH   6   7
ENDBRANCH   5   6
ENDBRANCH   4   5
ENDBRANCH   3   4
ENDBRANCH   2   3
ENDBRANCH   1   2
BRANCH   1  27
ATOM     27  O   UNL A   1      46.346  22.123  24.885  1.00  0.00    -0.376 OA
BRANCH  27  28
ATOM     28  C   UNL A   1      46.018  23.491  25.060  1.00  0.00     0.202 C 
BRANCH  28  29
ATOM     29  C   UNL A   1      44.631  24.115  24.795  1.00  0.00     0.261 C 
BRANCH  29  30
ATOM     30  O   UNL A   1      44.462  25.511  25.030  1.00  0.00    -0.460 OA
BRANCH  30  31
ATOM     31  C   UNL A   1      43.181  25.935  25.176  1.00  0.00     0.338 C 
ATOM     32  O   UNL A   1      42.171  25.391  24.762  1.00  0.00    -0.246 OA
BRANCH  31  33
ATOM     33  C   UNL A   1      43.194  27.078  26.110  1.00  0.00     0.060 A 
ATOM     34  C   UNL A   1      42.220  28.082  25.988  1.00  0.00     0.016 A 
ATOM     35  C   UNL A   1      44.164  27.148  27.109  1.00  0.00     0.016 A 
ATOM     36  C   UNL A   1      42.223  29.166  26.864  1.00  0.00     0.010 A 
ATOM     37  C   UNL A   1      44.184  28.248  27.965  1.00  0.00     0.010 A 
ATOM     38  C   UNL A   1      43.230  29.272  27.831  1.00  0.00    -0.014 A 
BRANCH  38  39
ATOM     39  C   UNL A   1      43.417  30.533  28.583  1.00  0.00     0.031 A 
ATOM     40  C   UNL A   1      44.446  31.509  28.085  1.00  0.00     0.074 A 
ATOM     41  C   UNL A   1      42.722  30.784  29.706  1.00  0.00     0.049 A 
ATOM     42  N   UNL A   1      44.762  32.688  28.549  1.00  0.00    -0.248 NA
ATOM     43  C   UNL A   1      45.242  31.083  26.921  1.00  0.00     0.031 C 
ATOM     44  C   UNL A   1      41.699  29.908  30.272  1.00  0.00     0.029 A 
ATOM     45  N   UNL A   1      42.740  31.872  30.546  1.00  0.00    -0.354 N 
ATOM     46  C   UNL A   1      45.856  33.102  27.797  1.00  0.00     0.074 A 
ATOM     47  C   UNL A   1      46.116  32.071  26.818  1.00  0.00     0.031 C 
ATOM     48  C   UNL A   1      41.125  30.531  31.317  1.00  0.00     0.029 A 
ATOM     49  C   UNL A   1      41.759  31.834  31.513  1.00  0.00     0.049 A 
ATOM     50  H   UNL A   1      43.391  32.606  30.465  1.00  0.00     0.167 HD
ATOM     51  C   UNL A   1      46.594  34.227  27.933  1.00  0.00     0.034 A 
ATOM     52  C   UNL A   1      41.377  32.779  32.398  1.00  0.00     0.034 A 
ATOM     53  C   UNL A   1      46.309  35.261  28.890  1.00  0.00     0.049 A 
ATOM     54  C   UNL A   1      42.120  34.095  32.426  1.00  0.00     0.074 A 
ATOM     55  C   UNL A   1      46.980  36.454  29.092  1.00  0.00     0.029 A 
ATOM     56  N   UNL A   1      45.275  35.222  29.811  1.00  0.00    -0.354 N 
ATOM     57  N   UNL A   1      43.055  34.540  31.618  1.00  0.00    -0.248 NA
ATOM     58  C   UNL A   1      41.736  35.054  33.474  1.00  0.00     0.031 C 
ATOM     59  C   UNL A   1      46.372  37.118  30.163  1.00  0.00     0.029 A 
ATOM     60  C   UNL A   1      45.295  36.360  30.595  1.00  0.00     0.049 A 
ATOM     61  H   UNL A   1      44.622  34.489  29.895  1.00  0.00     0.167 HD
ATOM     62  C   UNL A   1      43.378  35.817  32.069  1.00  0.00     0.074 A 
ATOM     63  C   UNL A   1      42.478  36.109  33.165  1.00  0.00     0.031 C 
ATOM     64  C   UNL A   1      44.358  36.657  31.650  1.00  0.00     0.034 A 
BRANCH  51  65
ATOM     65  C   UNL A   1      47.807  34.380  27.055  1.00  0.00     0.023 A 
ATOM     66  C   UNL A   1      47.716  35.046  25.817  1.00  0.00     0.012 A 
ATOM     67  C   UNL A   1      49.058  33.894  27.488  1.00  0.00     0.148 A 
ATOM     68  C   UNL A   1      48.844  35.195  25.009  1.00  0.00     0.002 A 
ATOM     69  C   UNL A   1      50.184  34.092  26.703  1.00  0.00     0.091 A 
ATOM     70  F   UNL A   1      49.118  33.240  28.658  1.00  0.00    -0.205 F 
ATOM     71  C   UNL A   1      50.078  34.730  25.457  1.00  0.00     0.022 A 
BRANCH  69  72
ATOM     72  S   UNL A   1      51.831  33.607  27.232  1.00  0.00     0.127 S 
ATOM     73  O   UNL A   1      51.920  32.246  26.706  1.00  0.00    -0.237 OA
ATOM     74  O   UNL A   1      52.675  34.584  26.542  1.00  0.00    -0.237 OA
ATOM     75  O   UNL A   1      51.837  33.715  28.684  1.00  0.00    -0.744 OA
ENDBRANCH  69  72
ENDBRANCH  51  65
BRANCH  52  76
ATOM     76  C   UNL A   1      40.156  32.585  33.240  1.00  0.00     0.023 A 
ATOM     77  C   UNL A   1      40.283  31.943  34.490  1.00  0.00     0.012 A 
ATOM     78  C   UNL A   1      38.886  33.040  32.842  1.00  0.00     0.148 A 
ATOM     79  C   UNL A   1      39.171  31.726  35.305  1.00  0.00     0.002 A 
ATOM     80  C   UNL A   1      37.795  32.893  33.694  1.00  0.00     0.091 A 
ATOM     81  F   UNL A   1      38.764  33.617  31.638  1.00  0.00    -0.205 F 
ATOM     82  C   UNL A   1      37.930  32.215  34.914  1.00  0.00     0.022 A 
BRANCH  80  83
ATOM     83  S   UNL A   1      36.205  33.654  33.345  1.00  0.00     0.127 S 
ATOM     84  O   UNL A   1      35.381  33.143  34.437  1.00  0.00    -0.237 OA
ATOM     85  O   UNL A   1      36.523  35.080  33.427  1.00  0.00    -0.237 OA
ATOM     86  O   UNL A   1      35.847  33.199  32.008  1.00  0.00    -0.744 OA
ENDBRANCH  80  83
ENDBRANCH  52  76
BRANCH  64  87
ATOM     87  C   UNL A   1      44.524  37.971  32.375  1.00  0.00     0.023 A 
ATOM     88  C   UNL A   1      45.338  38.036  33.523  1.00  0.00     0.012 A 
ATOM     89  C   UNL A   1      43.954  39.155  31.867  1.00  0.00     0.148 A 
ATOM     90  C   UNL A   1      45.549  39.249  34.178  1.00  0.00     0.002 A 
ATOM     91  C   UNL A   1      44.212  40.369  32.494  1.00  0.00     0.091 A 
ATOM     92  F   UNL A   1      43.173  39.074  30.781  1.00  0.00    -0.205 F 
ATOM     93  C   UNL A   1      44.996  40.416  33.658  1.00  0.00     0.022 A 
BRANCH  91  94
ATOM     94  S   UNL A   1      43.628  41.939  31.842  1.00  0.00     0.127 S 
ATOM     95  O   UNL A   1      44.273  42.892  32.744  1.00  0.00    -0.237 OA
ATOM     96  O   UNL A   1      44.163  41.926  30.480  1.00  0.00    -0.237 OA
ATOM     97  O   UNL A   1      42.175  41.891  31.923  1.00  0.00    -0.744 OA
ENDBRANCH  91  94
ENDBRANCH  64  87
ENDBRANCH  38  39
ENDBRANCH  31  33
ENDBRANCH  30  31
ENDBRANCH  29  30
ENDBRANCH  28  29
ENDBRANCH  27  28
ENDBRANCH   1  27
TORSDOF 22
ENDMDL
MODEL 2
REMARK VINA RESULT:      -8.1      4.362     11.632
REMARK SMILES C[C@@H](C(=O)OCCOCCOCCOC(=O)c1ccc(-c2c3nc(c(-c4cccc(S(=O)(=O)[O-])c4F)c4ccc([nH]4)c(-c4cccc(S(=O)(=O)[O-])c4F)c4nc(c(-c5cccc(S(=O)(=O)[O-])c5F)c5ccc2[nH]5)C=C4)C=C3)cc1)c1ccc(-c2ccc3[nH]ccc3c2)cc1
REMARK SMILES IDX 10 1 9 2 8 3 7 4 6 5 5 6 3 7 4 8 2 9 1 10 80 11 81 12 94 13
REMARK SMILES IDX 82 14 93 15 83 16 84 17 85 18 92 19 86 20 91 21 87 22 90 23
REMARK SMILES IDX 88 24 89 25 11 27 12 28 13 29 14 30 15 31 16 32 17 33 18 34
REMARK SMILES IDX 79 35 19 36 78 37 20 38 21 39 22 40 72 41 23 42 77 43 71 44
REMARK SMILES IDX 73 45 24 46 76 47 70 48 69 49 25 51 57 52 37 53 56 54 38 55
REMARK SMILES IDX 41 56 55 57 74 58 39 59 40 60 54 62 75 63 42 64 26 65 27 66
REMARK SMILES IDX 35 67 28 68 30 69 36 70 29 71 31 72 32 73 33 74 34 75 58 76
REMARK SMILES IDX 59 77 67 78 60 79 62 80 68 81 61 82 63 83 64 84 65 85 66 86
REMARK SMILES IDX 43 87 44 88 52 89 45 90 47 91 53 92 46 93 48 94 49 95 50 96
REMARK SMILES IDX 51 97
REMARK H PARENT 88 26 73 50 41 61
REMARK Flexibility Score: inf
ROOT
ATOM      1  C   UNL A   1      38.496  32.827  38.080  1.00  0.00     0.188 C 
ENDROOT
BRANCH   1   2
ATOM      2  C   UNL A   1      37.606  31.605  37.821  1.00  0.00     0.188 C 
BRANCH   2   3
ATOM      3  O   UNL A   1      37.934  30.822  36.696  1.00  0.00    -0.376 OA
BRANCH   3   4
ATOM      4  C   UNL A   1      38.226  31.460  35.463  1.00  0.00     0.202 C 
BRANCH   4   5
ATOM      5  C   UNL A   1      38.292  30.749  34.093  1.00  0.00     0.261 C 
BRANCH   5   6
ATOM      6  O   UNL A   1      37.136  30.848  33.248  1.00  0.00    -0.463 OA
BRANCH   6   7
ATOM      7  C   UNL A   1      37.223  30.253  32.025  1.00  0.00     0.313 C 
ATOM      8  O   UNL A   1      36.292  29.647  31.502  1.00  0.00    -0.252 OA
BRANCH   7   9
ATOM      9  C   UNL A   1      38.588  30.423  31.335  1.00  0.00     0.126 C 
ATOM     10  C   UNL A   1      38.745  31.773  30.612  1.00  0.00     0.025 C 
BRANCH   9  11
ATOM     11  C   UNL A   1      39.094  29.188  30.567  1.00  0.00    -0.034 A 
ATOM     12  C   UNL A   1      39.546  29.294  29.241  1.00  0.00     0.005 A 
ATOM     13  C   UNL A   1      38.990  27.889  31.099  1.00  0.00     0.005 A 
ATOM     14  C   UNL A   1      39.859  28.158  28.477  1.00  0.00     0.009 A 
ATOM     15  C   UNL A   1      39.301  26.752  30.331  1.00  0.00     0.009 A 
ATOM     16  C   UNL A   1      39.722  26.868  29.002  1.00  0.00    -0.018 A 
BRANCH  16  17
ATOM     17  C   UNL A   1      40.058  25.689  28.190  1.00  0.00    -0.018 A 
ATOM     18  C   UNL A   1      39.041  25.021  27.502  1.00  0.00     0.011 A 
ATOM     19  C   UNL A   1      41.372  25.184  28.107  1.00  0.00     0.019 A 
ATOM     20  C   UNL A   1      39.288  23.897  26.712  1.00  0.00     0.027 A 
ATOM     21  C   UNL A   1      41.634  23.999  27.376  1.00  0.00    -0.000 A 
ATOM     22  C   UNL A   1      40.586  23.397  26.684  1.00  0.00     0.045 A 
ATOM     23  C   UNL A   1      42.780  23.181  27.161  1.00  0.00     0.028 A 
ATOM     24  N   UNL A   1      41.087  22.296  26.029  1.00  0.00    -0.361 N 
ATOM     25  C   UNL A   1      42.405  22.123  26.361  1.00  0.00     0.083 A 
ATOM     26  H   UNL A   1      40.576  21.721  25.415  1.00  0.00     0.166 HD
ENDBRANCH  16  17
ENDBRANCH   9  11
ENDBRANCH   7   9
ENDBRANCH   6   7
ENDBRANCH   5   6
ENDBRANCH   4   5
ENDBRANCH   3   4
ENDBRANCH   2   3
ENDBRANCH   1   2
BRANCH   1  27
ATOM     27  O   UNL A   1      39.061  33.047  39.355  1.00  0.00    -0.376 OA
BRANCH  27  28
ATOM     28  C   UNL A   1      38.565  34.084  40.186  1.00  0.00     0.202 C 
BRANCH  28  29
ATOM     29  C   UNL A   1      39.174  35.497  40.306  1.00  0.00     0.261 C 
BRANCH  29  30
ATOM     30  O   UNL A   1      39.540  36.180  39.109  1.00  0.00    -0.460 OA
BRANCH  30  31
ATOM     31  C   UNL A   1      40.868  36.404  38.939  1.00  0.00     0.338 C 
ATOM     32  O   UNL A   1      41.650  36.862  39.756  1.00  0.00    -0.246 OA
BRANCH  31  33
ATOM     33  C   UNL A   1      41.260  35.804  37.649  1.00  0.00     0.060 A 
ATOM     34  C   UNL A   1      40.298  35.650  36.637  1.00  0.00     0.016 A 
ATOM     35  C   UNL A   1      42.580  35.405  37.441  1.00  0.00     0.016 A 
ATOM     36  C   UNL A   1      40.658  35.084  35.415  1.00  0.00     0.010 A 
ATOM     37  C   UNL A   1      42.930  34.813  36.229  1.00  0.00     0.010 A 
ATOM     38  C   UNL A   1      41.967  34.627  35.222  1.00  0.00    -0.014 A 
BRANCH  38  39
ATOM     39  C   UNL A   1      42.301  33.784  34.052  1.00  0.00     0.031 A 
ATOM     40  C   UNL A   1      42.181  32.293  34.197  1.00  0.00     0.074 A 
ATOM     41  C   UNL A   1      42.745  34.327  32.905  1.00  0.00     0.049 A 
ATOM     42  N   UNL A   1      42.381  31.356  33.309  1.00  0.00    -0.248 NA
ATOM     43  C   UNL A   1      41.811  31.793  35.532  1.00  0.00     0.031 C 
ATOM     44  C   UNL A   1      42.894  35.760  32.659  1.00  0.00     0.029 A 
ATOM     45  N   UNL A   1      43.108  33.740  31.717  1.00  0.00    -0.354 N 
ATOM     46  C   UNL A   1      42.256  30.156  34.001  1.00  0.00     0.074 A 
ATOM     47  C   UNL A   1      41.917  30.484  35.367  1.00  0.00     0.031 C 
ATOM     48  C   UNL A   1      43.233  35.945  31.371  1.00  0.00     0.029 A 
ATOM     49  C   UNL A   1      43.356  34.647  30.709  1.00  0.00     0.049 A 
ATOM     50  H   UNL A   1      43.183  32.765  31.597  1.00  0.00     0.167 HD
ATOM     51  C   UNL A   1      42.439  28.897  33.542  1.00  0.00     0.034 A 
ATOM     52  C   UNL A   1      43.580  34.441  29.394  1.00  0.00     0.034 A 
ATOM     53  C   UNL A   1      42.746  28.579  32.174  1.00  0.00     0.049 A 
ATOM     54  C   UNL A   1      43.624  33.023  28.874  1.00  0.00     0.074 A 
ATOM     55  C   UNL A   1      42.925  27.333  31.600  1.00  0.00     0.029 A 
ATOM     56  N   UNL A   1      42.929  29.514  31.168  1.00  0.00    -0.354 N 
ATOM     57  N   UNL A   1      43.360  31.899  29.499  1.00  0.00    -0.248 NA
ATOM     58  C   UNL A   1      43.972  32.846  27.455  1.00  0.00     0.031 C 
ATOM     59  C   UNL A   1      43.255  27.518  30.254  1.00  0.00     0.029 A 
ATOM     60  C   UNL A   1      43.235  28.877  29.979  1.00  0.00     0.049 A 
ATOM     61  H   UNL A   1      42.855  30.489  31.283  1.00  0.00     0.167 HD
ATOM     62  C   UNL A   1      43.525  30.887  28.558  1.00  0.00     0.074 A 
ATOM     63  C   UNL A   1      43.824  31.536  27.299  1.00  0.00     0.031 C 
ATOM     64  C   UNL A   1      43.480  29.540  28.723  1.00  0.00     0.034 A 
BRANCH  51  65
ATOM     65  C   UNL A   1      42.353  27.769  34.535  1.00  0.00     0.023 A 
ATOM     66  C   UNL A   1      41.250  26.893  34.531  1.00  0.00     0.012 A 
ATOM     67  C   UNL A   1      43.402  27.557  35.454  1.00  0.00     0.148 A 
ATOM     68  C   UNL A   1      41.177  25.843  35.447  1.00  0.00     0.002 A 
ATOM     69  C   UNL A   1      43.346  26.479  36.326  1.00  0.00     0.091 A 
ATOM     70  F   UNL A   1      44.429  28.418  35.459  1.00  0.00    -0.205 F 
ATOM     71  C   UNL A   1      42.229  25.629  36.334  1.00  0.00     0.022 A 
BRANCH  69  72
ATOM     72  S   UNL A   1      44.690  26.071  37.447  1.00  0.00     0.127 S 
ATOM     73  O   UNL A   1      44.265  26.744  38.673  1.00  0.00    -0.237 OA
ATOM     74  O   UNL A   1      44.614  24.610  37.495  1.00  0.00    -0.237 OA
ATOM     75  O   UNL A   1      45.901  26.598  36.834  1.00  0.00    -0.744 OA
ENDBRANCH  69  72
ENDBRANCH  51  65
BRANCH  52  76
ATOM     76  C   UNL A   1      43.644  35.595  28.444  1.00  0.00     0.023 A 
ATOM     77  C   UNL A   1      42.443  36.108  27.909  1.00  0.00     0.012 A 
ATOM     78  C   UNL A   1      44.857  36.208  28.083  1.00  0.00     0.148 A 
ATOM     79  C   UNL A   1      42.452  37.174  27.009  1.00  0.00     0.002 A 
ATOM     80  C   UNL A   1      44.853  37.322  27.249  1.00  0.00     0.091 A 
ATOM     81  F   UNL A   1      45.999  35.696  28.567  1.00  0.00    -0.205 F 
ATOM     82  C   UNL A   1      43.656  37.792  26.691  1.00  0.00     0.022 A 
BRANCH  80  83
ATOM     83  S   UNL A   1      46.340  38.283  26.938  1.00  0.00     0.127 S 
ATOM     84  O   UNL A   1      46.991  37.498  25.892  1.00  0.00    -0.237 OA
ATOM     85  O   UNL A   1      45.790  39.565  26.494  1.00  0.00    -0.237 OA
ATOM     86  O   UNL A   1      47.034  38.343  28.218  1.00  0.00    -0.744 OA
ENDBRANCH  80  83
ENDBRANCH  52  76
BRANCH  64  87
ATOM     87  C   UNL A   1      43.766  28.669  27.524  1.00  0.00     0.023 A 
ATOM     88  C   UNL A   1      42.714  28.307  26.658  1.00  0.00     0.012 A 
ATOM     89  C   UNL A   1      45.084  28.289  27.201  1.00  0.00     0.148 A 
ATOM     90  C   UNL A   1      42.962  27.548  25.515  1.00  0.00     0.002 A 
ATOM     91  C   UNL A   1      45.331  27.579  26.032  1.00  0.00     0.091 A 
ATOM     92  F   UNL A   1      46.071  28.633  28.041  1.00  0.00    -0.205 F 
ATOM     93  C   UNL A   1      44.270  27.195  25.196  1.00  0.00     0.022 A 
BRANCH  91  94
ATOM     94  S   UNL A   1      46.992  27.165  25.484  1.00  0.00     0.127 S 
ATOM     95  O   UNL A   1      47.519  26.456  26.649  1.00  0.00    -0.237 OA
ATOM     96  O   UNL A   1      46.730  26.318  24.320  1.00  0.00    -0.237 OA
ATOM     97  O   UNL A   1      47.642  28.432  25.178  1.00  0.00    -0.744 OA
ENDBRANCH  91  94
ENDBRANCH  64  87
ENDBRANCH  38  39
ENDBRANCH  31  33
ENDBRANCH  30  31
ENDBRANCH  29  30
ENDBRANCH  28  29
ENDBRANCH  27  28
ENDBRANCH   1  27
TORSDOF 22
ENDMDL
MODEL 3
REMARK VINA RESULT:      -7.9      3.858      9.778
REMARK SMILES C[C@@H](C(=O)OCCOCCOCCOC(=O)c1ccc(-c2c3nc(c(-c4cccc(S(=O)(=O)[O-])c4F)c4ccc([nH]4)c(-c4cccc(S(=O)(=O)[O-])c4F)c4nc(c(-c5cccc(S(=O)(=O)[O-])c5F)c5ccc2[nH]5)C=C4)C=C3)cc1)c1ccc(-c2ccc3[nH]ccc3c2)cc1
REMARK SMILES IDX 10 1 9 2 8 3 7 4 6 5 5 6 3 7 4 8 2 9 1 10 80 11 81 12 94 13
REMARK SMILES IDX 82 14 93 15 83 16 84 17 85 18 92 19 86 20 91 21 87 22 90 23
REMARK SMILES IDX 88 24 89 25 11 27 12 28 13 29 14 30 15 31 16 32 17 33 18 34
REMARK SMILES IDX 79 35 19 36 78 37 20 38 21 39 22 40 72 41 23 42 77 43 71 44
REMARK SMILES IDX 73 45 24 46 76 47 70 48 69 49 25 51 57 52 37 53 56 54 38 55
REMARK SMILES IDX 41 56 55 57 74 58 39 59 40 60 54 62 75 63 42 64 26 65 27 66
REMARK SMILES IDX 35 67 28 68 30 69 36 70 29 71 31 72 32 73 33 74 34 75 58 76
REMARK SMILES IDX 59 77 67 78 60 79 62 80 68 81 61 82 63 83 64 84 65 85 66 86
REMARK SMILES IDX 43 87 44 88 52 89 45 90 47 91 53 92 46 93 48 94 49 95 50 96
REMARK SMILES IDX 51 97
REMARK H PARENT 88 26 73 50 41 61
REMARK Flexibility Score: inf
ROOT
ATOM      1  C   UNL A   1      35.487  34.973  33.103  1.00  0.00     0.188 C 
ENDROOT
BRANCH   1   2
ATOM      2  C   UNL A   1      34.138  34.371  33.514  1.00  0.00     0.188 C 
BRANCH   2   3
ATOM      3  O   UNL A   1      33.091  34.489  32.578  1.00  0.00    -0.376 OA
BRANCH   3   4
ATOM      4  C   UNL A   1      32.979  35.672  31.803  1.00  0.00     0.202 C 
BRANCH   4   5
ATOM      5  C   UNL A   1      33.164  35.748  30.272  1.00  0.00     0.261 C 
BRANCH   5   6
ATOM      6  O   UNL A   1      32.885  34.557  29.520  1.00  0.00    -0.463 OA
BRANCH   6   7
ATOM      7  C   UNL A   1      33.895  34.078  28.741  1.00  0.00     0.313 C 
ATOM      8  O   UNL A   1      34.344  34.681  27.770  1.00  0.00    -0.252 OA
BRANCH   7   9
ATOM      9  C   UNL A   1      34.451  32.716  29.194  1.00  0.00     0.126 C 
ATOM     10  C   UNL A   1      35.803  32.819  29.925  1.00  0.00     0.025 C 
BRANCH   9  11
ATOM     11  C   UNL A   1      34.333  31.582  28.161  1.00  0.00    -0.034 A 
ATOM     12  C   UNL A   1      33.153  31.393  27.420  1.00  0.00     0.005 A 
ATOM     13  C   UNL A   1      35.334  30.602  28.016  1.00  0.00     0.005 A 
ATOM     14  C   UNL A   1      32.974  30.273  26.594  1.00  0.00     0.009 A 
ATOM     15  C   UNL A   1      35.151  29.478  27.189  1.00  0.00     0.009 A 
ATOM     16  C   UNL A   1      33.960  29.287  26.481  1.00  0.00    -0.018 A 
BRANCH  16  17
ATOM     17  C   UNL A   1      33.757  28.121  25.607  1.00  0.00    -0.018 A 
ATOM     18  C   UNL A   1      33.765  26.840  26.165  1.00  0.00     0.011 A 
ATOM     19  C   UNL A   1      33.589  28.249  24.213  1.00  0.00     0.019 A 
ATOM     20  C   UNL A   1      33.578  25.690  25.396  1.00  0.00     0.027 A 
ATOM     21  C   UNL A   1      33.477  27.092  23.402  1.00  0.00    -0.000 A 
ATOM     22  C   UNL A   1      33.457  25.844  24.019  1.00  0.00     0.045 A 
ATOM     23  C   UNL A   1      33.391  26.850  22.000  1.00  0.00     0.028 A 
ATOM     24  N   UNL A   1      33.306  24.889  23.040  1.00  0.00    -0.361 N 
ATOM     25  C   UNL A   1      33.326  25.486  21.807  1.00  0.00     0.083 A 
ATOM     26  H   UNL A   1      33.200  23.924  23.202  1.00  0.00     0.166 HD
ENDBRANCH  16  17
ENDBRANCH   9  11
ENDBRANCH   7   9
ENDBRANCH   6   7
ENDBRANCH   5   6
ENDBRANCH   4   5
ENDBRANCH   3   4
ENDBRANCH   2   3
ENDBRANCH   1   2
BRANCH   1  27
ATOM     27  O   UNL A   1      36.614  34.853  33.945  1.00  0.00    -0.376 OA
BRANCH  27  28
ATOM     28  C   UNL A   1      37.318  33.625  34.026  1.00  0.00     0.202 C 
BRANCH  28  29
ATOM     29  C   UNL A   1      36.832  32.280  33.445  1.00  0.00     0.261 C 
BRANCH  29  30
ATOM     30  O   UNL A   1      37.535  31.093  33.808  1.00  0.00    -0.460 OA
BRANCH  30  31
ATOM     31  C   UNL A   1      37.764  30.212  32.802  1.00  0.00     0.338 C 
ATOM     32  O   UNL A   1      37.008  29.348  32.389  1.00  0.00    -0.246 OA
BRANCH  31  33
ATOM     33  C   UNL A   1      39.024  30.607  32.142  1.00  0.00     0.060 A 
ATOM     34  C   UNL A   1      40.179  30.800  32.916  1.00  0.00     0.016 A 
ATOM     35  C   UNL A   1      39.060  30.775  30.758  1.00  0.00     0.016 A 
ATOM     36  C   UNL A   1      41.374  31.173  32.303  1.00  0.00     0.010 A 
ATOM     37  C   UNL A   1      40.248  31.178  30.151  1.00  0.00     0.010 A 
ATOM     38  C   UNL A   1      41.402  31.402  30.922  1.00  0.00    -0.014 A 
BRANCH  38  39
ATOM     39  C   UNL A   1      42.571  32.058  30.294  1.00  0.00     0.031 A 
ATOM     40  C   UNL A   1      43.669  31.184  29.757  1.00  0.00     0.074 A 
ATOM     41  C   UNL A   1      42.675  33.397  30.246  1.00  0.00     0.049 A 
ATOM     42  N   UNL A   1      44.767  31.522  29.135  1.00  0.00    -0.248 NA
ATOM     43  C   UNL A   1      43.519  29.735  29.975  1.00  0.00     0.031 C 
ATOM     44  C   UNL A   1      41.667  34.335  30.733  1.00  0.00     0.029 A 
ATOM     45  N   UNL A   1      43.659  34.201  29.720  1.00  0.00    -0.354 N 
ATOM     46  C   UNL A   1      45.482  30.340  28.975  1.00  0.00     0.074 A 
ATOM     47  C   UNL A   1      44.672  29.274  29.520  1.00  0.00     0.031 C 
ATOM     48  C   UNL A   1      42.043  35.584  30.406  1.00  0.00     0.029 A 
ATOM     49  C   UNL A   1      43.330  35.539  29.715  1.00  0.00     0.049 A 
ATOM     50  H   UNL A   1      44.516  33.854  29.380  1.00  0.00     0.167 HD
ATOM     51  C   UNL A   1      46.716  30.167  28.448  1.00  0.00     0.034 A 
ATOM     52  C   UNL A   1      43.967  36.586  29.147  1.00  0.00     0.034 A 
ATOM     53  C   UNL A   1      47.500  31.229  27.880  1.00  0.00     0.049 A 
ATOM     54  C   UNL A   1      45.271  36.342  28.425  1.00  0.00     0.074 A 
ATOM     55  C   UNL A   1      48.752  31.155  27.296  1.00  0.00     0.029 A 
ATOM     56  N   UNL A   1      47.114  32.559  27.835  1.00  0.00    -0.354 N 
ATOM     57  N   UNL A   1      45.869  35.206  28.148  1.00  0.00    -0.248 NA
ATOM     58  C   UNL A   1      45.979  37.526  27.912  1.00  0.00     0.031 C 
ATOM     59  C   UNL A   1      49.139  32.449  26.932  1.00  0.00     0.029 A 
ATOM     60  C   UNL A   1      48.107  33.320  27.246  1.00  0.00     0.049 A 
ATOM     61  H   UNL A   1      46.259  32.910  28.173  1.00  0.00     0.167 HD
ATOM     62  C   UNL A   1      47.024  35.541  27.445  1.00  0.00     0.074 A 
ATOM     63  C   UNL A   1      46.997  36.977  27.262  1.00  0.00     0.031 C 
ATOM     64  C   UNL A   1      48.040  34.743  27.028  1.00  0.00     0.034 A 
BRANCH  51  65
ATOM     65  C   UNL A   1      47.311  28.785  28.497  1.00  0.00     0.023 A 
ATOM     66  C   UNL A   1      48.124  28.394  29.579  1.00  0.00     0.012 A 
ATOM     67  C   UNL A   1      47.023  27.856  27.476  1.00  0.00     0.148 A 
ATOM     68  C   UNL A   1      48.667  27.109  29.628  1.00  0.00     0.002 A 
ATOM     69  C   UNL A   1      47.525  26.565  27.558  1.00  0.00     0.091 A 
ATOM     70  F   UNL A   1      46.270  28.257  26.442  1.00  0.00    -0.205 F 
ATOM     71  C   UNL A   1      48.357  26.193  28.625  1.00  0.00     0.022 A 
BRANCH  69  72
ATOM     72  S   UNL A   1      47.113  25.289  26.362  1.00  0.00     0.127 S 
ATOM     73  O   UNL A   1      47.701  24.103  26.983  1.00  0.00    -0.237 OA
ATOM     74  O   UNL A   1      45.650  25.321  26.373  1.00  0.00    -0.237 OA
ATOM     75  O   UNL A   1      47.722  25.702  25.106  1.00  0.00    -0.744 OA
ENDBRANCH  69  72
ENDBRANCH  51  65
BRANCH  52  76
ATOM     76  C   UNL A   1      43.326  37.937  29.113  1.00  0.00     0.023 A 
ATOM     77  C   UNL A   1      42.412  38.233  28.079  1.00  0.00     0.012 A 
ATOM     78  C   UNL A   1      43.581  38.918  30.088  1.00  0.00     0.148 A 
ATOM     79  C   UNL A   1      41.798  39.484  27.996  1.00  0.00     0.002 A 
ATOM     80  C   UNL A   1      42.905  40.134  30.046  1.00  0.00     0.091 A 
ATOM     81  F   UNL A   1      44.477  38.644  31.048  1.00  0.00    -0.205 F 
ATOM     82  C   UNL A   1      42.033  40.429  28.988  1.00  0.00     0.022 A 
BRANCH  80  83
ATOM     83  S   UNL A   1      43.015  41.330  31.383  1.00  0.00     0.127 S 
ATOM     84  O   UNL A   1      42.673  40.514  32.545  1.00  0.00    -0.237 OA
ATOM     85  O   UNL A   1      44.417  41.743  31.310  1.00  0.00    -0.237 OA
ATOM     86  O   UNL A   1      42.065  42.380  31.038  1.00  0.00    -0.744 OA
ENDBRANCH  80  83
ENDBRANCH  52  76
BRANCH  64  87
ATOM     87  C   UNL A   1      49.214  35.395  26.337  1.00  0.00     0.023 A 
ATOM     88  C   UNL A   1      49.216  35.521  24.933  1.00  0.00     0.012 A 
ATOM     89  C   UNL A   1      50.266  35.965  27.080  1.00  0.00     0.148 A 
ATOM     90  C   UNL A   1      50.264  36.166  24.278  1.00  0.00     0.002 A 
ATOM     91  C   UNL A   1      51.280  36.654  26.425  1.00  0.00     0.091 A 
ATOM     92  F   UNL A   1      50.255  35.826  28.414  1.00  0.00    -0.205 F 
ATOM     93  C   UNL A   1      51.289  36.742  25.023  1.00  0.00     0.022 A 
BRANCH  91  94
ATOM     94  S   UNL A   1      52.590  37.516  27.303  1.00  0.00     0.127 S 
ATOM     95  O   UNL A   1      53.113  36.458  28.167  1.00  0.00    -0.237 OA
ATOM     96  O   UNL A   1      53.483  37.913  26.214  1.00  0.00    -0.237 OA
ATOM     97  O   UNL A   1      51.948  38.624  27.995  1.00  0.00    -0.744 OA
ENDBRANCH  91  94
ENDBRANCH  64  87
ENDBRANCH  38  39
ENDBRANCH  31  33
ENDBRANCH  30  31
ENDBRANCH  29  30
ENDBRANCH  28  29
ENDBRANCH  27  28
ENDBRANCH   1  27
TORSDOF 22
ENDMDL
