MODEL 1
REMARK VINA RESULT:     -10.5      0.000      0.000
REMARK SMILES Cc1cc2c(c(C)c1Br)C=C(C(=O)OCCOCCOCCOC(=O)c1ccc(-c3c4nc(c(-c5cccc(S(=O)(=O)[O-])c5F)c5ccc([nH]5)c(-c5cccc(S(=O)(=O)[O-])c5F)c5nc(c(-c6cccc(S(=O)(=O)[O-])c6F)c6ccc3[nH]6)C=C5)C=C4)cc1)[C@@H](C(F)(F)F)O2
REMARK SMILES IDX 19 1 18 2 17 3 16 4 15 5 14 6 12 7 13 8 11 9 1 10 2 11 3 12
REMARK SMILES IDX 8 13 4 14 6 15 9 16 5 17 94 18 7 19 10 20 89 21 90 22 91 23
REMARK SMILES IDX 92 24 93 25 20 26 21 27 22 28 23 29 24 30 25 31 26 32 27 33
REMARK SMILES IDX 88 34 28 35 87 36 29 37 30 38 31 39 81 40 32 41 86 42 80 43
REMARK SMILES IDX 82 44 33 45 85 46 79 47 78 48 34 50 66 51 46 52 65 53 47 54
REMARK SMILES IDX 50 55 64 56 83 57 48 58 49 59 63 61 84 62 51 63 35 64 36 65
REMARK SMILES IDX 44 66 37 67 39 68 45 69 38 70 40 71 41 72 42 73 43 74 67 75
REMARK SMILES IDX 68 76 76 77 69 78 71 79 77 80 70 81 72 82 73 83 74 84 75 85
REMARK SMILES IDX 52 86 53 87 61 88 54 89 56 90 62 91 55 92 57 93 58 94 59 95
REMARK SMILES IDX 60 96
REMARK H PARENT 82 49 50 60
REMARK Flexibility Score: inf
ROOT
ATOM      1  C   UNL A   1      35.228  33.434  28.009  1.00  0.00     0.188 C 
ENDROOT
BRANCH   1   2
ATOM      2  C   UNL A   1      34.420  32.176  28.395  1.00  0.00     0.188 C 
BRANCH   2   3
ATOM      3  O   UNL A   1      34.444  31.185  27.393  1.00  0.00    -0.376 OA
BRANCH   3   4
ATOM      4  C   UNL A   1      33.415  30.217  27.333  1.00  0.00     0.202 C 
BRANCH   4   5
ATOM      5  C   UNL A   1      33.692  28.706  27.228  1.00  0.00     0.261 C 
BRANCH   5   6
ATOM      6  O   UNL A   1      32.842  27.948  26.361  1.00  0.00    -0.460 OA
BRANCH   6   7
ATOM      7  C   UNL A   1      33.412  27.428  25.252  1.00  0.00     0.338 C 
ATOM      8  O   UNL A   1      33.962  28.044  24.355  1.00  0.00    -0.246 OA
BRANCH   7   9
ATOM      9  C   UNL A   1      33.350  25.954  25.334  1.00  0.00     0.087 C 
ATOM     10  C   UNL A   1      34.130  19.578  24.708  1.00  0.00     0.046 C 
ATOM     11  C   UNL A   1      34.333  21.033  25.041  1.00  0.00    -0.033 A 
ATOM     12  C   UNL A   1      33.179  21.817  25.168  1.00  0.00     0.051 A 
ATOM     13  C   UNL A   1      35.592  21.662  25.148  1.00  0.00     0.024 A 
ATOM     14  C   UNL A   1      33.258  23.197  25.327  1.00  0.00     0.128 A 
ATOM     15  C   UNL A   1      35.690  23.060  25.372  1.00  0.00    -0.026 A 
ATOM     16  Br  UNL A   1      37.175  20.609  24.925  1.00  0.00    -0.050 Br
ATOM     17  C   UNL A   1      34.501  23.834  25.385  1.00  0.00     0.021 A 
ATOM     18  O   UNL A   1      32.052  23.834  25.403  1.00  0.00    -0.475 OA
ATOM     19  C   UNL A   1      37.021  23.753  25.573  1.00  0.00     0.046 C 
ATOM     20  C   UNL A   1      34.516  25.298  25.374  1.00  0.00     0.027 C 
ATOM     21  C   UNL A   1      32.008  25.282  25.381  1.00  0.00     0.316 C 
BRANCH  21  22
ATOM     22  C   UNL A   1      31.089  25.710  24.229  1.00  0.00     0.430 C 
ATOM     23  F   UNL A   1      30.119  24.787  24.007  1.00  0.00    -0.167 F 
ATOM     24  F   UNL A   1      30.452  26.876  24.493  1.00  0.00    -0.167 F 
ATOM     25  F   UNL A   1      31.763  25.870  23.068  1.00  0.00    -0.167 F 
ENDBRANCH  21  22
ENDBRANCH   7   9
ENDBRANCH   6   7
ENDBRANCH   5   6
ENDBRANCH   4   5
ENDBRANCH   3   4
ENDBRANCH   2   3
ENDBRANCH   1   2
BRANCH   1  26
ATOM     26  O   UNL A   1      34.624  34.722  28.082  1.00  0.00    -0.376 OA
BRANCH  26  27
ATOM     27  C   UNL A   1      33.253  34.826  28.451  1.00  0.00     0.202 C 
BRANCH  27  28
ATOM     28  C   UNL A   1      32.791  35.948  29.395  1.00  0.00     0.261 C 
BRANCH  28  29
ATOM     29  O   UNL A   1      32.092  35.516  30.571  1.00  0.00    -0.460 OA
BRANCH  29  30
ATOM     30  C   UNL A   1      32.704  35.804  31.747  1.00  0.00     0.338 C 
ATOM     31  O   UNL A   1      32.307  36.556  32.621  1.00  0.00    -0.246 OA
BRANCH  30  32
ATOM     32  C   UNL A   1      33.868  34.914  31.926  1.00  0.00     0.060 A 
ATOM     33  C   UNL A   1      33.687  33.721  32.640  1.00  0.00     0.016 A 
ATOM     34  C   UNL A   1      35.128  35.269  31.442  1.00  0.00     0.016 A 
ATOM     35  C   UNL A   1      34.773  32.885  32.891  1.00  0.00     0.010 A 
ATOM     36  C   UNL A   1      36.221  34.443  31.722  1.00  0.00     0.010 A 
ATOM     37  C   UNL A   1      36.052  33.264  32.468  1.00  0.00    -0.014 A 
BRANCH  37  38
ATOM     38  C   UNL A   1      37.236  32.519  32.954  1.00  0.00     0.031 A 
ATOM     39  C   UNL A   1      37.872  32.945  34.248  1.00  0.00     0.074 A 
ATOM     40  C   UNL A   1      37.738  31.486  32.256  1.00  0.00     0.049 A 
ATOM     41  N   UNL A   1      38.937  32.473  34.840  1.00  0.00    -0.248 NA
ATOM     42  C   UNL A   1      37.217  34.048  34.972  1.00  0.00     0.031 C 
ATOM     43  C   UNL A   1      37.191  30.966  31.005  1.00  0.00     0.029 A 
ATOM     44  N   UNL A   1      38.839  30.701  32.497  1.00  0.00    -0.354 N 
ATOM     45  C   UNL A   1      39.089  33.227  35.998  1.00  0.00     0.074 A 
ATOM     46  C   UNL A   1      38.016  34.197  36.018  1.00  0.00     0.031 C 
ATOM     47  C   UNL A   1      37.976  29.964  30.571  1.00  0.00     0.029 A 
ATOM     48  C   UNL A   1      39.092  29.789  31.500  1.00  0.00     0.049 A 
ATOM     49  H   UNL A   1      39.395  30.784  33.305  1.00  0.00     0.167 HD
ATOM     50  C   UNL A   1      40.027  33.111  36.965  1.00  0.00     0.034 A 
ATOM     51  C   UNL A   1      40.117  28.926  31.349  1.00  0.00     0.034 A 
ATOM     52  C   UNL A   1      41.091  32.146  36.942  1.00  0.00     0.049 A 
ATOM     53  C   UNL A   1      41.183  28.853  32.414  1.00  0.00     0.074 A 
ATOM     54  C   UNL A   1      42.091  31.948  37.879  1.00  0.00     0.029 A 
ATOM     55  N   UNL A   1      41.302  31.222  35.930  1.00  0.00    -0.354 N 
ATOM     56  N   UNL A   1      41.267  29.514  33.544  1.00  0.00    -0.248 NA
ATOM     57  C   UNL A   1      42.280  27.897  32.198  1.00  0.00     0.031 C 
ATOM     58  C   UNL A   1      42.917  30.917  37.422  1.00  0.00     0.029 A 
ATOM     59  C   UNL A   1      42.416  30.453  36.216  1.00  0.00     0.049 A 
ATOM     60  H   UNL A   1      40.741  31.128  35.127  1.00  0.00     0.167 HD
ATOM     61  C   UNL A   1      42.398  29.024  34.191  1.00  0.00     0.074 A 
ATOM     62  C   UNL A   1      42.960  28.003  33.332  1.00  0.00     0.031 C 
ATOM     63  C   UNL A   1      42.930  29.396  35.383  1.00  0.00     0.034 A 
BRANCH  50  64
ATOM     64  C   UNL A   1      39.925  34.027  38.156  1.00  0.00     0.023 A 
ATOM     65  C   UNL A   1      40.537  35.295  38.104  1.00  0.00     0.012 A 
ATOM     66  C   UNL A   1      39.165  33.669  39.285  1.00  0.00     0.148 A 
ATOM     67  C   UNL A   1      40.411  36.187  39.167  1.00  0.00     0.002 A 
ATOM     68  C   UNL A   1      39.008  34.581  40.323  1.00  0.00     0.091 A 
ATOM     69  F   UNL A   1      38.612  32.448  39.323  1.00  0.00    -0.205 F 
ATOM     70  C   UNL A   1      39.636  35.836  40.269  1.00  0.00     0.022 A 
BRANCH  68  71
ATOM     71  S   UNL A   1      37.966  34.255  41.749  1.00  0.00     0.127 S 
ATOM     72  O   UNL A   1      38.673  33.143  42.383  1.00  0.00    -0.237 OA
ATOM     73  O   UNL A   1      38.041  35.521  42.480  1.00  0.00    -0.237 OA
ATOM     74  O   UNL A   1      36.647  33.936  41.221  1.00  0.00    -0.744 OA
ENDBRANCH  68  71
ENDBRANCH  50  64
BRANCH  51  75
ATOM     75  C   UNL A   1      40.156  28.021  30.165  1.00  0.00     0.023 A 
ATOM     76  C   UNL A   1      39.284  26.918  30.111  1.00  0.00     0.012 A 
ATOM     77  C   UNL A   1      41.020  28.265  29.079  1.00  0.00     0.148 A 
ATOM     78  C   UNL A   1      39.283  26.062  29.008  1.00  0.00     0.002 A 
ATOM     79  C   UNL A   1      40.975  27.443  27.958  1.00  0.00     0.091 A 
ATOM     80  F   UNL A   1      41.858  29.310  29.156  1.00  0.00    -0.205 F 
ATOM     81  C   UNL A   1      40.119  26.331  27.928  1.00  0.00     0.022 A 
BRANCH  79  82
ATOM     82  S   UNL A   1      41.918  27.786  26.469  1.00  0.00     0.127 S 
ATOM     83  O   UNL A   1      41.586  29.187  26.220  1.00  0.00    -0.237 OA
ATOM     84  O   UNL A   1      43.290  27.548  26.920  1.00  0.00    -0.237 OA
ATOM     85  O   UNL A   1      41.439  26.838  25.472  1.00  0.00    -0.744 OA
ENDBRANCH  79  82
ENDBRANCH  51  75
BRANCH  63  86
ATOM     86  C   UNL A   1      44.166  28.682  35.866  1.00  0.00     0.023 A 
ATOM     87  C   UNL A   1      45.438  29.133  35.462  1.00  0.00     0.012 A 
ATOM     88  C   UNL A   1      44.071  27.643  36.814  1.00  0.00     0.148 A 
ATOM     89  C   UNL A   1      46.594  28.547  35.976  1.00  0.00     0.002 A 
ATOM     90  C   UNL A   1      45.227  27.096  37.358  1.00  0.00     0.091 A 
ATOM     91  F   UNL A   1      42.852  27.215  37.174  1.00  0.00    -0.205 F 
ATOM     92  C   UNL A   1      46.489  27.540  36.933  1.00  0.00     0.022 A 
BRANCH  90  93
ATOM     93  S   UNL A   1      45.187  25.873  38.675  1.00  0.00     0.127 S 
ATOM     94  O   UNL A   1      44.716  24.686  37.964  1.00  0.00    -0.237 OA
ATOM     95  O   UNL A   1      46.589  25.817  39.092  1.00  0.00    -0.237 OA
ATOM     96  O   UNL A   1      44.279  26.402  39.685  1.00  0.00    -0.744 OA
ENDBRANCH  90  93
ENDBRANCH  63  86
ENDBRANCH  37  38
ENDBRANCH  30  32
ENDBRANCH  29  30
ENDBRANCH  28  29
ENDBRANCH  27  28
ENDBRANCH  26  27
ENDBRANCH   1  26
TORSDOF 21
ENDMDL
MODEL 2
REMARK VINA RESULT:     -10.5      6.064     11.517
REMARK SMILES Cc1cc2c(c(C)c1Br)C=C(C(=O)OCCOCCOCCOC(=O)c1ccc(-c3c4nc(c(-c5cccc(S(=O)(=O)[O-])c5F)c5ccc([nH]5)c(-c5cccc(S(=O)(=O)[O-])c5F)c5nc(c(-c6cccc(S(=O)(=O)[O-])c6F)c6ccc3[nH]6)C=C5)C=C4)cc1)[C@@H](C(F)(F)F)O2
REMARK SMILES IDX 19 1 18 2 17 3 16 4 15 5 14 6 12 7 13 8 11 9 1 10 2 11 3 12
REMARK SMILES IDX 8 13 4 14 6 15 9 16 5 17 94 18 7 19 10 20 89 21 90 22 91 23
REMARK SMILES IDX 92 24 93 25 20 26 21 27 22 28 23 29 24 30 25 31 26 32 27 33
REMARK SMILES IDX 88 34 28 35 87 36 29 37 30 38 31 39 81 40 32 41 86 42 80 43
REMARK SMILES IDX 82 44 33 45 85 46 79 47 78 48 34 50 66 51 46 52 65 53 47 54
REMARK SMILES IDX 50 55 64 56 83 57 48 58 49 59 63 61 84 62 51 63 35 64 36 65
REMARK SMILES IDX 44 66 37 67 39 68 45 69 38 70 40 71 41 72 42 73 43 74 67 75
REMARK SMILES IDX 68 76 76 77 69 78 71 79 77 80 70 81 72 82 73 83 74 84 75 85
REMARK SMILES IDX 52 86 53 87 61 88 54 89 56 90 62 91 55 92 57 93 58 94 59 95
REMARK SMILES IDX 60 96
REMARK H PARENT 82 49 50 60
REMARK Flexibility Score: inf
ROOT
ATOM      1  C   UNL A   1      42.305  20.059  26.103  1.00  0.00     0.188 C 
ENDROOT
BRANCH   1   2
ATOM      2  C   UNL A   1      40.822  20.020  26.532  1.00  0.00     0.188 C 
BRANCH   2   3
ATOM      3  O   UNL A   1      40.553  20.849  27.640  1.00  0.00    -0.376 OA
BRANCH   3   4
ATOM      4  C   UNL A   1      41.301  22.033  27.833  1.00  0.00     0.202 C 
BRANCH   4   5
ATOM      5  C   UNL A   1      40.871  23.397  27.261  1.00  0.00     0.261 C 
BRANCH   5   6
ATOM      6  O   UNL A   1      40.934  24.521  28.145  1.00  0.00    -0.460 OA
BRANCH   6   7
ATOM      7  C   UNL A   1      40.039  25.511  27.936  1.00  0.00     0.338 C 
ATOM      8  O   UNL A   1      38.940  25.406  27.419  1.00  0.00    -0.246 OA
BRANCH   7   9
ATOM      9  C   UNL A   1      40.565  26.759  28.526  1.00  0.00     0.087 C 
ATOM     10  C   UNL A   1      41.478  32.477  31.377  1.00  0.00     0.046 C 
ATOM     11  C   UNL A   1      41.164  31.027  31.113  1.00  0.00    -0.033 A 
ATOM     12  C   UNL A   1      41.758  30.451  29.983  1.00  0.00     0.051 A 
ATOM     13  C   UNL A   1      40.261  30.252  31.871  1.00  0.00     0.024 A 
ATOM     14  C   UNL A   1      41.421  29.167  29.566  1.00  0.00     0.128 A 
ATOM     15  C   UNL A   1      39.953  28.919  31.494  1.00  0.00    -0.026 A 
ATOM     16  Br  UNL A   1      39.404  31.047  33.387  1.00  0.00    -0.050 Br
ATOM     17  C   UNL A   1      40.490  28.410  30.283  1.00  0.00     0.021 A 
ATOM     18  O   UNL A   1      42.053  28.749  28.429  1.00  0.00    -0.475 OA
ATOM     19  C   UNL A   1      39.053  28.033  32.330  1.00  0.00     0.046 C 
ATOM     20  C   UNL A   1      40.047  27.143  29.699  1.00  0.00     0.027 C 
ATOM     21  C   UNL A   1      41.644  27.510  27.800  1.00  0.00     0.316 C 
BRANCH  21  22
ATOM     22  C   UNL A   1      41.276  27.819  26.343  1.00  0.00     0.430 C 
ATOM     23  F   UNL A   1      40.102  28.497  26.267  1.00  0.00    -0.167 F 
ATOM     24  F   UNL A   1      42.205  28.597  25.738  1.00  0.00    -0.167 F 
ATOM     25  F   UNL A   1      41.140  26.698  25.600  1.00  0.00    -0.167 F 
ENDBRANCH  21  22
ENDBRANCH   7   9
ENDBRANCH   6   7
ENDBRANCH   5   6
ENDBRANCH   4   5
ENDBRANCH   3   4
ENDBRANCH   2   3
ENDBRANCH   1   2
BRANCH   1  26
ATOM     26  O   UNL A   1      42.806  19.101  25.175  1.00  0.00    -0.376 OA
BRANCH  26  27
ATOM     27  C   UNL A   1      44.207  18.859  25.116  1.00  0.00     0.202 C 
BRANCH  27  28
ATOM     28  C   UNL A   1      45.107  19.748  24.243  1.00  0.00     0.261 C 
BRANCH  28  29
ATOM     29  O   UNL A   1      45.426  21.034  24.794  1.00  0.00    -0.460 OA
BRANCH  29  30
ATOM     30  C   UNL A   1      44.907  22.095  24.127  1.00  0.00     0.338 C 
ATOM     31  O   UNL A   1      44.326  22.079  23.055  1.00  0.00    -0.246 OA
BRANCH  30  32
ATOM     32  C   UNL A   1      44.974  23.295  24.983  1.00  0.00     0.060 A 
ATOM     33  C   UNL A   1      46.197  23.604  25.597  1.00  0.00     0.016 A 
ATOM     34  C   UNL A   1      43.843  24.077  25.221  1.00  0.00     0.016 A 
ATOM     35  C   UNL A   1      46.289  24.689  26.466  1.00  0.00     0.010 A 
ATOM     36  C   UNL A   1      43.930  25.145  26.118  1.00  0.00     0.010 A 
ATOM     37  C   UNL A   1      45.144  25.438  26.763  1.00  0.00    -0.014 A 
BRANCH  37  38
ATOM     38  C   UNL A   1      45.175  26.417  27.874  1.00  0.00     0.031 A 
ATOM     39  C   UNL A   1      45.065  25.907  29.283  1.00  0.00     0.074 A 
ATOM     40  C   UNL A   1      45.295  27.734  27.634  1.00  0.00     0.049 A 
ATOM     41  N   UNL A   1      45.023  26.576  30.404  1.00  0.00    -0.248 NA
ATOM     42  C   UNL A   1      44.997  24.444  29.451  1.00  0.00     0.031 C 
ATOM     43  C   UNL A   1      45.437  28.342  26.312  1.00  0.00     0.029 A 
ATOM     44  N   UNL A   1      45.297  28.799  28.500  1.00  0.00    -0.354 N 
ATOM     45  C   UNL A   1      44.911  25.623  31.409  1.00  0.00     0.074 A 
ATOM     46  C   UNL A   1      44.876  24.329  30.766  1.00  0.00     0.031 C 
ATOM     47  C   UNL A   1      45.483  29.679  26.453  1.00  0.00     0.029 A 
ATOM     48  C   UNL A   1      45.351  30.019  27.869  1.00  0.00     0.049 A 
ATOM     49  H   UNL A   1      45.262  28.699  29.478  1.00  0.00     0.167 HD
ATOM     50  C   UNL A   1      44.858  25.809  32.748  1.00  0.00     0.034 A 
ATOM     51  C   UNL A   1      45.283  31.267  28.378  1.00  0.00     0.034 A 
ATOM     52  C   UNL A   1      44.892  27.097  33.384  1.00  0.00     0.049 A 
ATOM     53  C   UNL A   1      45.168  31.448  29.871  1.00  0.00     0.074 A 
ATOM     54  C   UNL A   1      44.847  27.388  34.736  1.00  0.00     0.029 A 
ATOM     55  N   UNL A   1      44.972  28.308  32.716  1.00  0.00    -0.354 N 
ATOM     56  N   UNL A   1      45.148  30.537  30.815  1.00  0.00    -0.248 NA
ATOM     57  C   UNL A   1      45.094  32.829  30.373  1.00  0.00     0.031 C 
ATOM     58  C   UNL A   1      44.880  28.777  34.884  1.00  0.00     0.029 A 
ATOM     59  C   UNL A   1      44.975  29.351  33.626  1.00  0.00     0.049 A 
ATOM     60  H   UNL A   1      45.020  28.412  31.739  1.00  0.00     0.167 HD
ATOM     61  C   UNL A   1      45.103  31.233  32.019  1.00  0.00     0.074 A 
ATOM     62  C   UNL A   1      45.110  32.643  31.686  1.00  0.00     0.031 C 
ATOM     63  C   UNL A   1      45.047  30.749  33.285  1.00  0.00     0.034 A 
BRANCH  50  64
ATOM     64  C   UNL A   1      44.796  24.586  33.624  1.00  0.00     0.023 A 
ATOM     65  C   UNL A   1      43.543  24.013  33.921  1.00  0.00     0.012 A 
ATOM     66  C   UNL A   1      45.971  23.962  34.085  1.00  0.00     0.148 A 
ATOM     67  C   UNL A   1      43.459  22.848  34.680  1.00  0.00     0.002 A 
ATOM     68  C   UNL A   1      45.880  22.777  34.806  1.00  0.00     0.091 A 
ATOM     69  F   UNL A   1      47.150  24.538  33.812  1.00  0.00    -0.205 F 
ATOM     70  C   UNL A   1      44.626  22.223  35.111  1.00  0.00     0.022 A 
BRANCH  68  71
ATOM     71  S   UNL A   1      47.326  21.853  35.337  1.00  0.00     0.127 S 
ATOM     72  O   UNL A   1      48.088  22.880  36.047  1.00  0.00    -0.237 OA
ATOM     73  O   UNL A   1      46.736  20.827  36.198  1.00  0.00    -0.237 OA
ATOM     74  O   UNL A   1      47.948  21.343  34.123  1.00  0.00    -0.744 OA
ENDBRANCH  68  71
ENDBRANCH  50  64
BRANCH  51  75
ATOM     75  C   UNL A   1      45.376  32.444  27.469  1.00  0.00     0.023 A 
ATOM     76  C   UNL A   1      44.197  33.010  26.950  1.00  0.00     0.012 A 
ATOM     77  C   UNL A   1      46.617  33.029  27.146  1.00  0.00     0.148 A 
ATOM     78  C   UNL A   1      44.249  34.124  26.110  1.00  0.00     0.002 A 
ATOM     79  C   UNL A   1      46.660  34.172  26.355  1.00  0.00     0.091 A 
ATOM     80  F   UNL A   1      47.732  32.464  27.633  1.00  0.00    -0.205 F 
ATOM     81  C   UNL A   1      45.478  34.712  25.823  1.00  0.00     0.022 A 
BRANCH  79  82
ATOM     82  S   UNL A   1      48.181  35.073  26.040  1.00  0.00     0.127 S 
ATOM     83  O   UNL A   1      47.680  36.310  25.447  1.00  0.00    -0.237 OA
ATOM     84  O   UNL A   1      48.731  35.213  27.389  1.00  0.00    -0.237 OA
ATOM     85  O   UNL A   1      48.967  34.223  25.156  1.00  0.00    -0.744 OA
ENDBRANCH  79  82
ENDBRANCH  51  75
BRANCH  63  86
ATOM     86  C   UNL A   1      45.024  31.735  34.425  1.00  0.00     0.023 A 
ATOM     87  C   UNL A   1      46.234  32.227  34.949  1.00  0.00     0.012 A 
ATOM     88  C   UNL A   1      43.803  32.262  34.894  1.00  0.00     0.148 A 
ATOM     89  C   UNL A   1      46.232  33.212  35.937  1.00  0.00     0.002 A 
ATOM     90  C   UNL A   1      43.809  33.278  35.843  1.00  0.00     0.091 A 
ATOM     91  F   UNL A   1      42.660  31.769  34.396  1.00  0.00    -0.205 F 
ATOM     92  C   UNL A   1      45.021  33.746  36.372  1.00  0.00     0.022 A 
BRANCH  90  93
ATOM     93  S   UNL A   1      42.304  34.100  36.383  1.00  0.00     0.127 S 
ATOM     94  O   UNL A   1      42.786  34.890  37.513  1.00  0.00    -0.237 OA
ATOM     95  O   UNL A   1      41.937  34.885  35.203  1.00  0.00    -0.237 OA
ATOM     96  O   UNL A   1      41.364  33.037  36.715  1.00  0.00    -0.744 OA
ENDBRANCH  90  93
ENDBRANCH  63  86
ENDBRANCH  37  38
ENDBRANCH  30  32
ENDBRANCH  29  30
ENDBRANCH  28  29
ENDBRANCH  27  28
ENDBRANCH  26  27
ENDBRANCH   1  26
TORSDOF 21
ENDMDL
MODEL 3
REMARK VINA RESULT:     -10.3      1.635      1.961
REMARK SMILES Cc1cc2c(c(C)c1Br)C=C(C(=O)OCCOCCOCCOC(=O)c1ccc(-c3c4nc(c(-c5cccc(S(=O)(=O)[O-])c5F)c5ccc([nH]5)c(-c5cccc(S(=O)(=O)[O-])c5F)c5nc(c(-c6cccc(S(=O)(=O)[O-])c6F)c6ccc3[nH]6)C=C5)C=C4)cc1)[C@@H](C(F)(F)F)O2
REMARK SMILES IDX 19 1 18 2 17 3 16 4 15 5 14 6 12 7 13 8 11 9 1 10 2 11 3 12
REMARK SMILES IDX 8 13 4 14 6 15 9 16 5 17 94 18 7 19 10 20 89 21 90 22 91 23
REMARK SMILES IDX 92 24 93 25 20 26 21 27 22 28 23 29 24 30 25 31 26 32 27 33
REMARK SMILES IDX 88 34 28 35 87 36 29 37 30 38 31 39 81 40 32 41 86 42 80 43
REMARK SMILES IDX 82 44 33 45 85 46 79 47 78 48 34 50 66 51 46 52 65 53 47 54
REMARK SMILES IDX 50 55 64 56 83 57 48 58 49 59 63 61 84 62 51 63 35 64 36 65
REMARK SMILES IDX 44 66 37 67 39 68 45 69 38 70 40 71 41 72 42 73 43 74 67 75
REMARK SMILES IDX 68 76 76 77 69 78 71 79 77 80 70 81 72 82 73 83 74 84 75 85
REMARK SMILES IDX 52 86 53 87 61 88 54 89 56 90 62 91 55 92 57 93 58 94 59 95
REMARK SMILES IDX 60 96
REMARK H PARENT 82 49 50 60
REMARK Flexibility Score: inf
ROOT
ATOM      1  C   UNL A   1      35.072  32.544  28.348  1.00  0.00     0.188 C 
ENDROOT
BRANCH   1   2
ATOM      2  C   UNL A   1      34.951  31.178  27.636  1.00  0.00     0.188 C 
BRANCH   2   3
ATOM      3  O   UNL A   1      33.619  30.726  27.550  1.00  0.00    -0.376 OA
BRANCH   3   4
ATOM      4  C   UNL A   1      33.346  29.421  27.079  1.00  0.00     0.202 C 
BRANCH   4   5
ATOM      5  C   UNL A   1      32.988  29.118  25.612  1.00  0.00     0.261 C 
BRANCH   5   6
ATOM      6  O   UNL A   1      32.586  27.779  25.305  1.00  0.00    -0.460 OA
BRANCH   6   7
ATOM      7  C   UNL A   1      33.227  27.170  24.284  1.00  0.00     0.338 C 
ATOM      8  O   UNL A   1      33.788  27.711  23.346  1.00  0.00    -0.246 OA
BRANCH   7   9
ATOM      9  C   UNL A   1      33.229  25.713  24.526  1.00  0.00     0.087 C 
ATOM     10  C   UNL A   1      34.333  19.355  24.655  1.00  0.00     0.046 C 
ATOM     11  C   UNL A   1      34.451  20.846  24.833  1.00  0.00    -0.033 A 
ATOM     12  C   UNL A   1      33.257  21.579  24.815  1.00  0.00     0.051 A 
ATOM     13  C   UNL A   1      35.672  21.547  24.932  1.00  0.00     0.024 A 
ATOM     14  C   UNL A   1      33.263  22.970  24.822  1.00  0.00     0.128 A 
ATOM     15  C   UNL A   1      35.693  22.965  25.004  1.00  0.00    -0.026 A 
ATOM     16  Br  UNL A   1      37.312  20.559  24.907  1.00  0.00    -0.050 Br
ATOM     17  C   UNL A   1      34.471  23.673  24.870  1.00  0.00     0.021 A 
ATOM     18  O   UNL A   1      32.027  23.549  24.766  1.00  0.00    -0.475 OA
ATOM     19  C   UNL A   1      36.978  23.743  25.192  1.00  0.00     0.046 C 
ATOM     20  C   UNL A   1      34.420  25.126  24.698  1.00  0.00     0.027 C 
ATOM     21  C   UNL A   1      31.918  24.982  24.581  1.00  0.00     0.316 C 
BRANCH  21  22
ATOM     22  C   UNL A   1      31.045  25.233  23.344  1.00  0.00     0.430 C 
ATOM     23  F   UNL A   1      31.805  25.375  22.228  1.00  0.00    -0.167 F 
ATOM     24  F   UNL A   1      30.201  24.203  23.101  1.00  0.00    -0.167 F 
ATOM     25  F   UNL A   1      30.297  26.352  23.464  1.00  0.00    -0.167 F 
ENDBRANCH  21  22
ENDBRANCH   7   9
ENDBRANCH   6   7
ENDBRANCH   5   6
ENDBRANCH   4   5
ENDBRANCH   3   4
ENDBRANCH   2   3
ENDBRANCH   1   2
BRANCH   1  26
ATOM     26  O   UNL A   1      34.588  33.725  27.715  1.00  0.00    -0.376 OA
BRANCH  26  27
ATOM     27  C   UNL A   1      33.279  34.190  28.024  1.00  0.00     0.202 C 
BRANCH  27  28
ATOM     28  C   UNL A   1      33.087  35.354  29.009  1.00  0.00     0.261 C 
BRANCH  28  29
ATOM     29  O   UNL A   1      32.584  34.992  30.303  1.00  0.00    -0.460 OA
BRANCH  29  30
ATOM     30  C   UNL A   1      33.351  35.382  31.352  1.00  0.00     0.338 C 
ATOM     31  O   UNL A   1      33.082  36.229  32.188  1.00  0.00    -0.246 OA
BRANCH  30  32
ATOM     32  C   UNL A   1      34.518  34.486  31.468  1.00  0.00     0.060 A 
ATOM     33  C   UNL A   1      34.323  33.210  32.014  1.00  0.00     0.016 A 
ATOM     34  C   UNL A   1      35.794  34.910  31.094  1.00  0.00     0.016 A 
ATOM     35  C   UNL A   1      35.407  32.356  32.204  1.00  0.00     0.010 A 
ATOM     36  C   UNL A   1      36.885  34.065  31.314  1.00  0.00     0.010 A 
ATOM     37  C   UNL A   1      36.699  32.797  31.894  1.00  0.00    -0.014 A 
BRANCH  37  38
ATOM     38  C   UNL A   1      37.871  32.006  32.333  1.00  0.00     0.031 A 
ATOM     39  C   UNL A   1      38.504  32.334  33.656  1.00  0.00     0.074 A 
ATOM     40  C   UNL A   1      38.363  31.016  31.570  1.00  0.00     0.049 A 
ATOM     41  N   UNL A   1      39.559  31.809  34.221  1.00  0.00    -0.248 NA
ATOM     42  C   UNL A   1      37.859  33.394  34.450  1.00  0.00     0.031 C 
ATOM     43  C   UNL A   1      37.817  30.590  30.283  1.00  0.00     0.029 A 
ATOM     44  N   UNL A   1      39.453  30.202  31.761  1.00  0.00    -0.354 N 
ATOM     45  C   UNL A   1      39.714  32.480  35.428  1.00  0.00     0.074 A 
ATOM     46  C   UNL A   1      38.654  33.461  35.508  1.00  0.00     0.031 C 
ATOM     47  C   UNL A   1      38.591  29.609  29.785  1.00  0.00     0.029 A 
ATOM     48  C   UNL A   1      39.700  29.357  30.706  1.00  0.00     0.049 A 
ATOM     49  H   UNL A   1      40.004  30.222  32.576  1.00  0.00     0.167 HD
ATOM     50  C   UNL A   1      40.645  32.286  36.390  1.00  0.00     0.034 A 
ATOM     51  C   UNL A   1      40.715  28.492  30.501  1.00  0.00     0.034 A 
ATOM     52  C   UNL A   1      41.697  31.311  36.306  1.00  0.00     0.049 A 
ATOM     53  C   UNL A   1      41.773  28.333  31.564  1.00  0.00     0.074 A 
ATOM     54  C   UNL A   1      42.689  31.037  37.232  1.00  0.00     0.029 A 
ATOM     55  N   UNL A   1      41.902  30.456  35.235  1.00  0.00    -0.354 N 
ATOM     56  N   UNL A   1      41.859  28.914  32.738  1.00  0.00    -0.248 NA
ATOM     57  C   UNL A   1      42.858  27.380  31.290  1.00  0.00     0.031 C 
ATOM     58  C   UNL A   1      43.504  30.029  36.710  1.00  0.00     0.029 A 
ATOM     59  C   UNL A   1      43.004  29.655  35.473  1.00  0.00     0.049 A 
ATOM     60  H   UNL A   1      41.345  30.423  34.424  1.00  0.00     0.167 HD
ATOM     61  C   UNL A   1      42.980  28.367  33.355  1.00  0.00     0.074 A 
ATOM     62  C   UNL A   1      43.534  27.399  32.431  1.00  0.00     0.031 C 
ATOM     63  C   UNL A   1      43.509  28.650  34.572  1.00  0.00     0.034 A 
BRANCH  50  64
ATOM     64  C   UNL A   1      40.548  33.120  37.639  1.00  0.00     0.023 A 
ATOM     65  C   UNL A   1      39.661  32.729  38.661  1.00  0.00     0.012 A 
ATOM     66  C   UNL A   1      41.383  34.236  37.834  1.00  0.00     0.148 A 
ATOM     67  C   UNL A   1      39.592  33.448  39.853  1.00  0.00     0.002 A 
ATOM     68  C   UNL A   1      41.339  34.923  39.043  1.00  0.00     0.091 A 
ATOM     69  F   UNL A   1      42.202  34.605  36.839  1.00  0.00    -0.205 F 
ATOM     70  C   UNL A   1      40.439  34.535  40.049  1.00  0.00     0.022 A 
BRANCH  68  71
ATOM     71  S   UNL A   1      42.444  36.286  39.424  1.00  0.00     0.127 S 
ATOM     72  O   UNL A   1      43.754  35.678  39.190  1.00  0.00    -0.237 OA
ATOM     73  O   UNL A   1      42.051  37.287  38.432  1.00  0.00    -0.237 OA
ATOM     74  O   UNL A   1      42.167  36.657  40.804  1.00  0.00    -0.744 OA
ENDBRANCH  68  71
ENDBRANCH  50  64
BRANCH  51  75
ATOM     75  C   UNL A   1      40.749  27.670  29.259  1.00  0.00     0.023 A 
ATOM     76  C   UNL A   1      39.852  26.594  29.119  1.00  0.00     0.012 A 
ATOM     77  C   UNL A   1      41.632  27.967  28.203  1.00  0.00     0.148 A 
ATOM     78  C   UNL A   1      39.846  25.815  27.961  1.00  0.00     0.002 A 
ATOM     79  C   UNL A   1      41.584  27.224  27.028  1.00  0.00     0.091 A 
ATOM     80  F   UNL A   1      42.493  28.983  28.362  1.00  0.00    -0.205 F 
ATOM     81  C   UNL A   1      40.703  26.137  26.911  1.00  0.00     0.022 A 
BRANCH  79  82
ATOM     82  S   UNL A   1      42.555  27.645  25.577  1.00  0.00     0.127 S 
ATOM     83  O   UNL A   1      43.904  27.722  26.130  1.00  0.00    -0.237 OA
ATOM     84  O   UNL A   1      42.308  26.494  24.707  1.00  0.00    -0.237 OA
ATOM     85  O   UNL A   1      42.002  28.900  25.084  1.00  0.00    -0.744 OA
ENDBRANCH  79  82
ENDBRANCH  51  75
BRANCH  63  86
ATOM     86  C   UNL A   1      44.734  27.888  35.011  1.00  0.00     0.023 A 
ATOM     87  C   UNL A   1      46.009  28.463  34.855  1.00  0.00     0.012 A 
ATOM     88  C   UNL A   1      44.609  26.657  35.688  1.00  0.00     0.148 A 
ATOM     89  C   UNL A   1      47.144  27.817  35.344  1.00  0.00     0.002 A 
ATOM     90  C   UNL A   1      45.738  26.042  36.216  1.00  0.00     0.091 A 
ATOM     91  F   UNL A   1      43.388  26.116  35.813  1.00  0.00    -0.205 F 
ATOM     92  C   UNL A   1      47.007  26.615  36.036  1.00  0.00     0.022 A 
BRANCH  90  93
ATOM     93  S   UNL A   1      45.644  24.550  37.215  1.00  0.00     0.127 S 
ATOM     94  O   UNL A   1      44.978  25.042  38.420  1.00  0.00    -0.237 OA
ATOM     95  O   UNL A   1      44.824  23.669  36.383  1.00  0.00    -0.237 OA
ATOM     96  O   UNL A   1      47.018  24.103  37.396  1.00  0.00    -0.744 OA
ENDBRANCH  90  93
ENDBRANCH  63  86
ENDBRANCH  37  38
ENDBRANCH  30  32
ENDBRANCH  29  30
ENDBRANCH  28  29
ENDBRANCH  27  28
ENDBRANCH  26  27
ENDBRANCH   1  26
TORSDOF 21
ENDMDL
