MODEL 1
REMARK VINA RESULT:     -10.7      0.000      0.000
REMARK SMILES CC1=C(C)C[C@@H](C(=O)OCCOCCOCCOC(=O)c2ccc(-c3c4nc(c(-c5cccc(S(=O)(=O)[O-])c5F)c5ccc([nH]5)c(-c5cccc(S(=O)(=O)[O-])c5F)c5nc(c(-c6cccc(S(=O)(=O)[O-])c6F)c6ccc3[nH]6)C=C5)C=C4)cc2)[C@@H](C(=O)NCC[NH+]2CCOCC2)C1
REMARK SMILES IDX 13 1 12 2 11 3 10 4 9 5 7 6 8 7 6 8 1 9 2 10 3 11 96 12 4 13
REMARK SMILES IDX 5 14 84 15 85 16 86 17 87 18 88 20 89 21 90 22 91 23 95 24
REMARK SMILES IDX 92 26 94 27 93 28 14 29 15 30 16 31 17 32 18 33 19 34 20 35
REMARK SMILES IDX 21 36 22 37 83 38 23 39 82 40 24 41 25 42 26 43 76 44 27 45
REMARK SMILES IDX 81 46 75 47 77 48 28 49 80 50 74 51 73 52 29 54 61 55 41 56
REMARK SMILES IDX 60 57 42 58 45 59 59 60 78 61 43 62 44 63 58 65 79 66 46 67
REMARK SMILES IDX 30 68 31 69 39 70 32 71 34 72 40 73 33 74 35 75 36 76 37 77
REMARK SMILES IDX 38 78 62 79 63 80 71 81 64 82 66 83 72 84 65 85 67 86 68 87
REMARK SMILES IDX 69 88 70 89 47 90 48 91 56 92 49 93 51 94 57 95 50 96 52 97
REMARK SMILES IDX 53 98 54 99 55 100
REMARK H PARENT 87 19 90 25 77 53 45 64
REMARK Flexibility Score: inf
ROOT
ATOM      1  C   UNL A   1      39.049  21.616  25.920  1.00  0.00     0.188 C 
ENDROOT
BRANCH   1   2
ATOM      2  O   UNL A   1      38.033  21.049  25.128  1.00  0.00    -0.376 OA
BRANCH   2   3
ATOM      3  C   UNL A   1      36.775  21.677  25.274  1.00  0.00     0.202 C 
BRANCH   3   4
ATOM      4  C   UNL A   1      36.254  22.361  24.001  1.00  0.00     0.261 C 
BRANCH   4   5
ATOM      5  O   UNL A   1      35.993  23.796  24.131  1.00  0.00    -0.463 OA
BRANCH   5   6
ATOM      6  C   UNL A   1      34.692  24.111  24.346  1.00  0.00     0.310 C 
ATOM      7  O   UNL A   1      34.350  25.174  24.870  1.00  0.00    -0.252 OA
BRANCH   6   8
ATOM      8  C   UNL A   1      33.608  23.151  23.844  1.00  0.00     0.116 C 
ATOM      9  C   UNL A   1      30.352  26.022  23.318  1.00  0.00     0.039 C 
ATOM     10  C   UNL A   1      31.367  24.909  23.250  1.00  0.00    -0.074 C 
ATOM     11  C   UNL A   1      32.426  24.858  22.418  1.00  0.00    -0.073 C 
ATOM     12  C   UNL A   1      31.096  23.773  24.219  1.00  0.00     0.045 C 
ATOM     13  C   UNL A   1      32.867  25.935  21.469  1.00  0.00     0.039 C 
ATOM     14  C   UNL A   1      33.291  23.615  22.409  1.00  0.00     0.046 C 
ATOM     15  C   UNL A   1      32.272  22.790  24.521  1.00  0.00     0.097 C 
BRANCH  15  16
ATOM     16  C   UNL A   1      32.295  22.398  25.993  1.00  0.00     0.224 C 
ATOM     17  O   UNL A   1      31.866  23.161  26.862  1.00  0.00    -0.275 OA
ATOM     18  N   UNL A   1      32.733  21.169  26.409  1.00  0.00    -0.350 N 
ATOM     19  H   UNL A   1      32.617  21.027  27.377  1.00  0.00     0.163 HD
BRANCH  18  20
ATOM     20  C   UNL A   1      33.334  20.017  25.734  1.00  0.00     0.177 C 
BRANCH  20  21
ATOM     21  C   UNL A   1      32.705  19.382  24.389  1.00  0.00     0.283 C 
BRANCH  21  22
ATOM     22  N   UNL A   1      32.206  17.983  24.229  1.00  0.00    -0.330 N 
ATOM     23  C   UNL A   1      32.444  16.968  25.292  1.00  0.00     0.291 C 
ATOM     24  C   UNL A   1      32.781  17.293  23.031  1.00  0.00     0.291 C 
ATOM     25  H   UNL A   1      31.212  18.217  24.207  1.00  0.00     0.348 HD
ATOM     26  C   UNL A   1      33.872  16.361  25.393  1.00  0.00     0.221 C 
ATOM     27  C   UNL A   1      34.231  16.823  23.144  1.00  0.00     0.221 C 
ATOM     28  O   UNL A   1      34.302  15.809  24.151  1.00  0.00    -0.370 OA
ENDBRANCH  21  22
ENDBRANCH  20  21
ENDBRANCH  18  20
ENDBRANCH  15  16
ENDBRANCH   6   8
ENDBRANCH   5   6
ENDBRANCH   4   5
ENDBRANCH   3   4
ENDBRANCH   2   3
ENDBRANCH   1   2
BRANCH   1  29
ATOM     29  C   UNL A   1      40.309  20.784  26.173  1.00  0.00     0.188 C 
BRANCH  29  30
ATOM     30  O   UNL A   1      40.324  19.405  25.818  1.00  0.00    -0.376 OA
BRANCH  30  31
ATOM     31  C   UNL A   1      41.611  18.841  26.182  1.00  0.00     0.202 C 
BRANCH  31  32
ATOM     32  C   UNL A   1      42.828  19.608  25.625  1.00  0.00     0.261 C 
BRANCH  32  33
ATOM     33  O   UNL A   1      43.885  18.797  25.051  1.00  0.00    -0.460 OA
BRANCH  33  34
ATOM     34  C   UNL A   1      44.772  19.357  24.183  1.00  0.00     0.338 C 
ATOM     35  O   UNL A   1      45.243  18.816  23.194  1.00  0.00    -0.246 OA
BRANCH  34  36
ATOM     36  C   UNL A   1      44.997  20.793  24.542  1.00  0.00     0.060 A 
ATOM     37  C   UNL A   1      44.688  21.813  23.631  1.00  0.00     0.016 A 
ATOM     38  C   UNL A   1      45.448  21.151  25.811  1.00  0.00     0.016 A 
ATOM     39  C   UNL A   1      44.606  23.161  24.056  1.00  0.00     0.010 A 
ATOM     40  C   UNL A   1      45.420  22.500  26.211  1.00  0.00     0.010 A 
ATOM     41  C   UNL A   1      44.904  23.515  25.376  1.00  0.00    -0.014 A 
BRANCH  41  42
ATOM     42  C   UNL A   1      44.972  24.946  25.835  1.00  0.00     0.031 A 
ATOM     43  C   UNL A   1      46.362  25.496  25.963  1.00  0.00     0.074 A 
ATOM     44  C   UNL A   1      43.931  25.731  26.212  1.00  0.00     0.049 A 
ATOM     45  N   UNL A   1      46.755  26.677  26.349  1.00  0.00    -0.248 NA
ATOM     46  C   UNL A   1      47.453  24.582  25.582  1.00  0.00     0.031 C 
ATOM     47  C   UNL A   1      42.510  25.413  26.109  1.00  0.00     0.029 A 
ATOM     48  N   UNL A   1      43.912  26.975  26.822  1.00  0.00    -0.354 N 
ATOM     49  C   UNL A   1      48.137  26.647  26.255  1.00  0.00     0.074 A 
ATOM     50  C   UNL A   1      48.516  25.321  25.826  1.00  0.00     0.031 C 
ATOM     51  C   UNL A   1      41.775  26.336  26.758  1.00  0.00     0.029 A 
ATOM     52  C   UNL A   1      42.660  27.386  27.247  1.00  0.00     0.049 A 
ATOM     53  H   UNL A   1      44.722  27.521  26.944  1.00  0.00     0.167 HD
ATOM     54  C   UNL A   1      49.026  27.639  26.469  1.00  0.00     0.034 A 
ATOM     55  C   UNL A   1      42.259  28.488  27.923  1.00  0.00     0.034 A 
ATOM     56  C   UNL A   1      48.678  28.942  26.942  1.00  0.00     0.049 A 
ATOM     57  C   UNL A   1      43.277  29.561  28.229  1.00  0.00     0.074 A 
ATOM     58  C   UNL A   1      49.511  30.018  27.177  1.00  0.00     0.029 A 
ATOM     59  N   UNL A   1      47.398  29.329  27.302  1.00  0.00    -0.354 N 
ATOM     60  N   UNL A   1      44.557  29.582  27.949  1.00  0.00    -0.248 NA
ATOM     61  C   UNL A   1      42.790  30.791  28.881  1.00  0.00     0.031 C 
ATOM     62  C   UNL A   1      48.740  31.044  27.726  1.00  0.00     0.029 A 
ATOM     63  C   UNL A   1      47.420  30.623  27.785  1.00  0.00     0.049 A 
ATOM     64  H   UNL A   1      46.593  28.767  27.225  1.00  0.00     0.167 HD
ATOM     65  C   UNL A   1      45.015  30.836  28.337  1.00  0.00     0.074 A 
ATOM     66  C   UNL A   1      43.877  31.554  28.869  1.00  0.00     0.031 C 
ATOM     67  C   UNL A   1      46.268  31.346  28.259  1.00  0.00     0.034 A 
BRANCH  54  68
ATOM     68  C   UNL A   1      50.460  27.295  26.206  1.00  0.00     0.023 A 
ATOM     69  C   UNL A   1      51.292  26.898  27.276  1.00  0.00     0.012 A 
ATOM     70  C   UNL A   1      51.004  27.463  24.922  1.00  0.00     0.148 A 
ATOM     71  C   UNL A   1      52.661  26.738  27.081  1.00  0.00     0.002 A 
ATOM     72  C   UNL A   1      52.360  27.251  24.726  1.00  0.00     0.091 A 
ATOM     73  F   UNL A   1      50.198  27.879  23.936  1.00  0.00    -0.205 F 
ATOM     74  C   UNL A   1      53.193  26.910  25.806  1.00  0.00     0.022 A 
BRANCH  72  75
ATOM     75  S   UNL A   1      53.128  27.390  23.113  1.00  0.00     0.127 S 
ATOM     76  O   UNL A   1      52.136  26.740  22.257  1.00  0.00    -0.237 OA
ATOM     77  O   UNL A   1      53.223  28.841  22.948  1.00  0.00    -0.237 OA
ATOM     78  O   UNL A   1      54.409  26.704  23.217  1.00  0.00    -0.744 OA
ENDBRANCH  72  75
ENDBRANCH  54  68
BRANCH  55  79
ATOM     79  C   UNL A   1      40.822  28.700  28.299  1.00  0.00     0.023 A 
ATOM     80  C   UNL A   1      39.894  29.111  27.318  1.00  0.00     0.012 A 
ATOM     81  C   UNL A   1      40.378  28.556  29.630  1.00  0.00     0.148 A 
ATOM     82  C   UNL A   1      38.572  29.416  27.659  1.00  0.00     0.002 A 
ATOM     83  C   UNL A   1      39.048  28.822  29.956  1.00  0.00     0.091 A 
ATOM     84  F   UNL A   1      41.269  28.171  30.554  1.00  0.00    -0.205 F 
ATOM     85  C   UNL A   1      38.149  29.269  28.976  1.00  0.00     0.022 A 
BRANCH  83  86
ATOM     86  S   UNL A   1      38.377  28.585  31.608  1.00  0.00     0.127 S 
ATOM     87  O   UNL A   1      38.567  27.149  31.805  1.00  0.00    -0.237 OA
ATOM     88  O   UNL A   1      39.255  29.438  32.408  1.00  0.00    -0.237 OA
ATOM     89  O   UNL A   1      36.993  29.031  31.536  1.00  0.00    -0.744 OA
ENDBRANCH  83  86
ENDBRANCH  55  79
BRANCH  67  90
ATOM     90  C   UNL A   1      46.500  32.764  28.708  1.00  0.00     0.023 A 
ATOM     91  C   UNL A   1      46.795  33.040  30.056  1.00  0.00     0.012 A 
ATOM     92  C   UNL A   1      46.579  33.798  27.752  1.00  0.00     0.148 A 
ATOM     93  C   UNL A   1      47.158  34.328  30.448  1.00  0.00     0.002 A 
ATOM     94  C   UNL A   1      46.996  35.063  28.141  1.00  0.00     0.091 A 
ATOM     95  F   UNL A   1      46.273  33.514  26.478  1.00  0.00    -0.205 F 
ATOM     96  C   UNL A   1      47.276  35.333  29.490  1.00  0.00     0.022 A 
BRANCH  94  97
ATOM     97  S   UNL A   1      47.297  36.380  26.957  1.00  0.00     0.127 S 
ATOM     98  O   UNL A   1      47.239  37.566  27.809  1.00  0.00    -0.237 OA
ATOM     99  O   UNL A   1      48.634  36.050  26.460  1.00  0.00    -0.237 OA
ATOM    100  O   UNL A   1      46.240  36.277  25.960  1.00  0.00    -0.744 OA
ENDBRANCH  94  97
ENDBRANCH  67  90
ENDBRANCH  41  42
ENDBRANCH  34  36
ENDBRANCH  33  34
ENDBRANCH  32  33
ENDBRANCH  31  32
ENDBRANCH  30  31
ENDBRANCH  29  30
ENDBRANCH   1  29
TORSDOF 24
ENDMDL
MODEL 2
REMARK VINA RESULT:     -10.5      2.114      3.110
REMARK SMILES CC1=C(C)C[C@@H](C(=O)OCCOCCOCCOC(=O)c2ccc(-c3c4nc(c(-c5cccc(S(=O)(=O)[O-])c5F)c5ccc([nH]5)c(-c5cccc(S(=O)(=O)[O-])c5F)c5nc(c(-c6cccc(S(=O)(=O)[O-])c6F)c6ccc3[nH]6)C=C5)C=C4)cc2)[C@@H](C(=O)NCC[NH+]2CCOCC2)C1
REMARK SMILES IDX 13 1 12 2 11 3 10 4 9 5 7 6 8 7 6 8 1 9 2 10 3 11 96 12 4 13
REMARK SMILES IDX 5 14 84 15 85 16 86 17 87 18 88 20 89 21 90 22 91 23 95 24
REMARK SMILES IDX 92 26 94 27 93 28 14 29 15 30 16 31 17 32 18 33 19 34 20 35
REMARK SMILES IDX 21 36 22 37 83 38 23 39 82 40 24 41 25 42 26 43 76 44 27 45
REMARK SMILES IDX 81 46 75 47 77 48 28 49 80 50 74 51 73 52 29 54 61 55 41 56
REMARK SMILES IDX 60 57 42 58 45 59 59 60 78 61 43 62 44 63 58 65 79 66 46 67
REMARK SMILES IDX 30 68 31 69 39 70 32 71 34 72 40 73 33 74 35 75 36 76 37 77
REMARK SMILES IDX 38 78 62 79 63 80 71 81 64 82 66 83 72 84 65 85 67 86 68 87
REMARK SMILES IDX 69 88 70 89 47 90 48 91 56 92 49 93 51 94 57 95 50 96 52 97
REMARK SMILES IDX 53 98 54 99 55 100
REMARK H PARENT 87 19 90 25 77 53 45 64
REMARK Flexibility Score: inf
ROOT
ATOM      1  C   UNL A   1      36.520  23.685  24.948  1.00  0.00     0.188 C 
ENDROOT
BRANCH   1   2
ATOM      2  O   UNL A   1      35.118  23.630  25.052  1.00  0.00    -0.376 OA
BRANCH   2   3
ATOM      3  C   UNL A   1      34.553  24.711  25.766  1.00  0.00     0.202 C 
BRANCH   3   4
ATOM      4  C   UNL A   1      34.154  25.911  24.892  1.00  0.00     0.261 C 
BRANCH   4   5
ATOM      5  O   UNL A   1      33.861  25.589  23.494  1.00  0.00    -0.463 OA
BRANCH   5   6
ATOM      6  C   UNL A   1      32.625  25.962  23.082  1.00  0.00     0.310 C 
ATOM      7  O   UNL A   1      32.342  27.134  22.823  1.00  0.00    -0.252 OA
BRANCH   6   8
ATOM      8  C   UNL A   1      31.568  24.876  22.847  1.00  0.00     0.116 C 
ATOM      9  C   UNL A   1      31.080  23.504  26.970  1.00  0.00     0.039 C 
ATOM     10  C   UNL A   1      30.953  23.936  25.531  1.00  0.00    -0.074 C 
ATOM     11  C   UNL A   1      30.476  25.123  25.103  1.00  0.00    -0.073 C 
ATOM     12  C   UNL A   1      31.404  22.886  24.534  1.00  0.00     0.045 C 
ATOM     13  C   UNL A   1      30.072  26.285  25.965  1.00  0.00     0.039 C 
ATOM     14  C   UNL A   1      30.321  25.355  23.616  1.00  0.00     0.046 C 
ATOM     15  C   UNL A   1      31.699  23.359  23.075  1.00  0.00     0.097 C 
BRANCH  15  16
ATOM     16  C   UNL A   1      32.920  22.650  22.504  1.00  0.00     0.224 C 
ATOM     17  O   UNL A   1      33.326  22.898  21.365  1.00  0.00    -0.275 OA
ATOM     18  N   UNL A   1      33.652  21.757  23.241  1.00  0.00    -0.350 N 
ATOM     19  H   UNL A   1      34.456  21.438  22.771  1.00  0.00     0.163 HD
BRANCH  18  20
ATOM     20  C   UNL A   1      33.504  21.173  24.576  1.00  0.00     0.177 C 
BRANCH  20  21
ATOM     21  C   UNL A   1      33.683  19.591  24.848  1.00  0.00     0.283 C 
BRANCH  21  22
ATOM     22  N   UNL A   1      32.674  18.530  24.554  1.00  0.00    -0.330 N 
ATOM     23  C   UNL A   1      32.531  17.351  25.451  1.00  0.00     0.291 C 
ATOM     24  C   UNL A   1      32.897  17.865  23.230  1.00  0.00     0.291 C 
ATOM     25  H   UNL A   1      31.849  19.125  24.649  1.00  0.00     0.348 HD
ATOM     26  C   UNL A   1      33.612  16.239  25.347  1.00  0.00     0.221 C 
ATOM     27  C   UNL A   1      34.053  16.867  23.154  1.00  0.00     0.221 C 
ATOM     28  O   UNL A   1      33.754  15.762  24.012  1.00  0.00    -0.370 OA
ENDBRANCH  21  22
ENDBRANCH  20  21
ENDBRANCH  18  20
ENDBRANCH  15  16
ENDBRANCH   6   8
ENDBRANCH   5   6
ENDBRANCH   4   5
ENDBRANCH   3   4
ENDBRANCH   2   3
ENDBRANCH   1   2
BRANCH   1  29
ATOM     29  C   UNL A   1      37.334  22.593  25.648  1.00  0.00     0.188 C 
BRANCH  29  30
ATOM     30  O   UNL A   1      36.959  21.228  25.492  1.00  0.00    -0.376 OA
BRANCH  30  31
ATOM     31  C   UNL A   1      38.086  20.490  24.954  1.00  0.00     0.202 C 
BRANCH  31  32
ATOM     32  C   UNL A   1      39.106  20.016  26.010  1.00  0.00     0.261 C 
BRANCH  32  33
ATOM     33  O   UNL A   1      40.475  19.867  25.553  1.00  0.00    -0.460 OA
BRANCH  33  34
ATOM     34  C   UNL A   1      41.494  19.873  26.456  1.00  0.00     0.338 C 
ATOM     35  O   UNL A   1      42.039  18.887  26.927  1.00  0.00    -0.246 OA
BRANCH  34  36
ATOM     36  C   UNL A   1      41.948  21.280  26.700  1.00  0.00     0.060 A 
ATOM     37  C   UNL A   1      42.036  22.195  25.641  1.00  0.00     0.016 A 
ATOM     38  C   UNL A   1      42.220  21.729  27.990  1.00  0.00     0.016 A 
ATOM     39  C   UNL A   1      42.163  23.582  25.894  1.00  0.00     0.010 A 
ATOM     40  C   UNL A   1      42.406  23.104  28.230  1.00  0.00     0.010 A 
ATOM     41  C   UNL A   1      42.280  24.064  27.202  1.00  0.00    -0.014 A 
BRANCH  41  42
ATOM     42  C   UNL A   1      42.563  25.508  27.511  1.00  0.00     0.031 A 
ATOM     43  C   UNL A   1      43.953  25.959  27.170  1.00  0.00     0.074 A 
ATOM     44  C   UNL A   1      41.732  26.389  28.125  1.00  0.00     0.049 A 
ATOM     45  N   UNL A   1      44.509  27.128  27.329  1.00  0.00    -0.248 NA
ATOM     46  C   UNL A   1      44.823  24.947  26.546  1.00  0.00     0.031 C 
ATOM     47  C   UNL A   1      40.333  26.172  28.482  1.00  0.00     0.029 A 
ATOM     48  N   UNL A   1      41.969  27.662  28.618  1.00  0.00    -0.354 N 
ATOM     49  C   UNL A   1      45.791  26.990  26.823  1.00  0.00     0.074 A 
ATOM     50  C   UNL A   1      45.948  25.618  26.400  1.00  0.00     0.031 C 
ATOM     51  C   UNL A   1      39.885  27.181  29.252  1.00  0.00     0.029 A 
ATOM     52  C   UNL A   1      40.932  28.187  29.370  1.00  0.00     0.049 A 
ATOM     53  H   UNL A   1      42.806  28.152  28.447  1.00  0.00     0.167 HD
ATOM     54  C   UNL A   1      46.756  27.923  26.684  1.00  0.00     0.034 A 
ATOM     55  C   UNL A   1      40.819  29.351  30.052  1.00  0.00     0.034 A 
ATOM     56  C   UNL A   1      46.641  29.272  27.141  1.00  0.00     0.049 A 
ATOM     57  C   UNL A   1      41.938  30.361  29.954  1.00  0.00     0.074 A 
ATOM     58  C   UNL A   1      47.562  30.294  27.031  1.00  0.00     0.029 A 
ATOM     59  N   UNL A   1      45.557  29.773  27.842  1.00  0.00    -0.354 N 
ATOM     60  N   UNL A   1      43.069  30.271  29.298  1.00  0.00    -0.248 NA
ATOM     61  C   UNL A   1      41.743  31.657  30.628  1.00  0.00     0.031 C 
ATOM     62  C   UNL A   1      47.054  31.404  27.710  1.00  0.00     0.029 A 
ATOM     63  C   UNL A   1      45.796  31.085  28.197  1.00  0.00     0.049 A 
ATOM     64  H   UNL A   1      44.738  29.268  28.054  1.00  0.00     0.167 HD
ATOM     65  C   UNL A   1      43.692  31.507  29.435  1.00  0.00     0.074 A 
ATOM     66  C   UNL A   1      42.813  32.335  30.231  1.00  0.00     0.031 C 
ATOM     67  C   UNL A   1      44.886  31.917  28.942  1.00  0.00     0.034 A 
BRANCH  54  68
ATOM     68  C   UNL A   1      48.019  27.459  26.025  1.00  0.00     0.023 A 
ATOM     69  C   UNL A   1      49.099  27.016  26.818  1.00  0.00     0.012 A 
ATOM     70  C   UNL A   1      48.168  27.559  24.631  1.00  0.00     0.148 A 
ATOM     71  C   UNL A   1      50.334  26.742  26.236  1.00  0.00     0.002 A 
ATOM     72  C   UNL A   1      49.386  27.234  24.054  1.00  0.00     0.091 A 
ATOM     73  F   UNL A   1      47.137  28.020  23.909  1.00  0.00    -0.205 F 
ATOM     74  C   UNL A   1      50.475  26.847  24.855  1.00  0.00     0.022 A 
BRANCH  72  75
ATOM     75  S   UNL A   1      49.649  27.281  22.282  1.00  0.00     0.127 S 
ATOM     76  O   UNL A   1      51.064  26.925  22.186  1.00  0.00    -0.237 OA
ATOM     77  O   UNL A   1      48.725  26.248  21.813  1.00  0.00    -0.237 OA
ATOM     78  O   UNL A   1      49.314  28.633  21.861  1.00  0.00    -0.744 OA
ENDBRANCH  72  75
ENDBRANCH  54  68
BRANCH  55  79
ATOM     79  C   UNL A   1      39.580  29.690  30.828  1.00  0.00     0.023 A 
ATOM     80  C   UNL A   1      39.396  29.157  32.122  1.00  0.00     0.012 A 
ATOM     81  C   UNL A   1      38.557  30.487  30.274  1.00  0.00     0.148 A 
ATOM     82  C   UNL A   1      38.208  29.372  32.827  1.00  0.00     0.002 A 
ATOM     83  C   UNL A   1      37.391  30.731  30.999  1.00  0.00     0.091 A 
ATOM     84  F   UNL A   1      38.740  30.983  29.043  1.00  0.00    -0.205 F 
ATOM     85  C   UNL A   1      37.207  30.160  32.268  1.00  0.00     0.022 A 
BRANCH  83  86
ATOM     86  S   UNL A   1      36.073  31.802  30.406  1.00  0.00     0.127 S 
ATOM     87  O   UNL A   1      36.786  33.057  30.178  1.00  0.00    -0.237 OA
ATOM     88  O   UNL A   1      35.650  31.104  29.192  1.00  0.00    -0.237 OA
ATOM     89  O   UNL A   1      35.081  31.829  31.471  1.00  0.00    -0.744 OA
ENDBRANCH  83  86
ENDBRANCH  55  79
BRANCH  67  90
ATOM     90  C   UNL A   1      45.321  33.336  29.192  1.00  0.00     0.023 A 
ATOM     91  C   UNL A   1      46.136  33.642  30.298  1.00  0.00     0.012 A 
ATOM     92  C   UNL A   1      45.045  34.333  28.234  1.00  0.00     0.148 A 
ATOM     93  C   UNL A   1      46.664  34.923  30.451  1.00  0.00     0.002 A 
ATOM     94  C   UNL A   1      45.622  35.589  28.363  1.00  0.00     0.091 A 
ATOM     95  F   UNL A   1      44.250  34.023  27.201  1.00  0.00    -0.205 F 
ATOM     96  C   UNL A   1      46.423  35.889  29.476  1.00  0.00     0.022 A 
BRANCH  94  97
ATOM     97  S   UNL A   1      45.468  36.851  27.094  1.00  0.00     0.127 S 
ATOM     98  O   UNL A   1      46.220  37.958  27.681  1.00  0.00    -0.237 OA
ATOM     99  O   UNL A   1      46.115  36.214  25.945  1.00  0.00    -0.237 OA
ATOM    100  O   UNL A   1      44.040  37.086  26.929  1.00  0.00    -0.744 OA
ENDBRANCH  94  97
ENDBRANCH  67  90
ENDBRANCH  41  42
ENDBRANCH  34  36
ENDBRANCH  33  34
ENDBRANCH  32  33
ENDBRANCH  31  32
ENDBRANCH  30  31
ENDBRANCH  29  30
ENDBRANCH   1  29
TORSDOF 24
ENDMDL
MODEL 3
REMARK VINA RESULT:      -9.7      3.227      5.432
REMARK SMILES CC1=C(C)C[C@@H](C(=O)OCCOCCOCCOC(=O)c2ccc(-c3c4nc(c(-c5cccc(S(=O)(=O)[O-])c5F)c5ccc([nH]5)c(-c5cccc(S(=O)(=O)[O-])c5F)c5nc(c(-c6cccc(S(=O)(=O)[O-])c6F)c6ccc3[nH]6)C=C5)C=C4)cc2)[C@@H](C(=O)NCC[NH+]2CCOCC2)C1
REMARK SMILES IDX 13 1 12 2 11 3 10 4 9 5 7 6 8 7 6 8 1 9 2 10 3 11 96 12 4 13
REMARK SMILES IDX 5 14 84 15 85 16 86 17 87 18 88 20 89 21 90 22 91 23 95 24
REMARK SMILES IDX 92 26 94 27 93 28 14 29 15 30 16 31 17 32 18 33 19 34 20 35
REMARK SMILES IDX 21 36 22 37 83 38 23 39 82 40 24 41 25 42 26 43 76 44 27 45
REMARK SMILES IDX 81 46 75 47 77 48 28 49 80 50 74 51 73 52 29 54 61 55 41 56
REMARK SMILES IDX 60 57 42 58 45 59 59 60 78 61 43 62 44 63 58 65 79 66 46 67
REMARK SMILES IDX 30 68 31 69 39 70 32 71 34 72 40 73 33 74 35 75 36 76 37 77
REMARK SMILES IDX 38 78 62 79 63 80 71 81 64 82 66 83 72 84 65 85 67 86 68 87
REMARK SMILES IDX 69 88 70 89 47 90 48 91 56 92 49 93 51 94 57 95 50 96 52 97
REMARK SMILES IDX 53 98 54 99 55 100
REMARK H PARENT 87 19 90 25 77 53 45 64
REMARK Flexibility Score: inf
ROOT
ATOM      1  C   UNL A   1      35.718  21.820  25.475  1.00  0.00     0.188 C 
ENDROOT
BRANCH   1   2
ATOM      2  O   UNL A   1      35.261  20.555  25.062  1.00  0.00    -0.376 OA
BRANCH   2   3
ATOM      3  C   UNL A   1      33.956  20.566  24.520  1.00  0.00     0.202 C 
BRANCH   3   4
ATOM      4  C   UNL A   1      33.544  21.901  23.880  1.00  0.00     0.261 C 
BRANCH   4   5
ATOM      5  O   UNL A   1      33.965  23.096  24.614  1.00  0.00    -0.463 OA
BRANCH   5   6
ATOM      6  C   UNL A   1      33.730  24.263  23.966  1.00  0.00     0.310 C 
ATOM      7  O   UNL A   1      34.017  24.425  22.777  1.00  0.00    -0.252 OA
BRANCH   6   8
ATOM      8  C   UNL A   1      33.008  25.390  24.713  1.00  0.00     0.116 C 
ATOM      9  C   UNL A   1      29.988  23.002  26.785  1.00  0.00     0.039 C 
ATOM     10  C   UNL A   1      31.037  23.982  26.324  1.00  0.00    -0.074 C 
ATOM     11  C   UNL A   1      32.337  23.971  26.682  1.00  0.00    -0.073 C 
ATOM     12  C   UNL A   1      30.506  25.055  25.393  1.00  0.00     0.045 C 
ATOM     13  C   UNL A   1      33.022  22.933  27.524  1.00  0.00     0.039 C 
ATOM     14  C   UNL A   1      33.235  25.093  26.208  1.00  0.00     0.046 C 
ATOM     15  C   UNL A   1      31.549  25.854  24.548  1.00  0.00     0.097 C 
BRANCH  15  16
ATOM     16  C   UNL A   1      31.031  26.113  23.139  1.00  0.00     0.224 C 
ATOM     17  O   UNL A   1      31.135  25.258  22.255  1.00  0.00    -0.275 OA
ATOM     18  N   UNL A   1      30.380  27.271  22.806  1.00  0.00    -0.350 N 
ATOM     19  H   UNL A   1      30.035  27.267  21.884  1.00  0.00     0.163 HD
BRANCH  18  20
ATOM     20  C   UNL A   1      30.083  28.516  23.519  1.00  0.00     0.177 C 
BRANCH  20  21
ATOM     21  C   UNL A   1      29.662  29.870  22.747  1.00  0.00     0.283 C 
BRANCH  21  22
ATOM     22  N   UNL A   1      28.290  30.457  22.689  1.00  0.00    -0.330 N 
ATOM     23  C   UNL A   1      27.703  30.886  21.390  1.00  0.00     0.291 C 
ATOM     24  C   UNL A   1      28.158  31.712  23.497  1.00  0.00     0.291 C 
ATOM     25  H   UNL A   1      27.795  29.628  23.023  1.00  0.00     0.348 HD
ATOM     26  C   UNL A   1      28.213  32.222  20.781  1.00  0.00     0.221 C 
ATOM     27  C   UNL A   1      28.785  32.974  22.904  1.00  0.00     0.221 C 
ATOM     28  O   UNL A   1      28.087  33.304  21.700  1.00  0.00    -0.370 OA
ENDBRANCH  21  22
ENDBRANCH  20  21
ENDBRANCH  18  20
ENDBRANCH  15  16
ENDBRANCH   6   8
ENDBRANCH   5   6
ENDBRANCH   4   5
ENDBRANCH   3   4
ENDBRANCH   2   3
ENDBRANCH   1   2
BRANCH   1  29
ATOM     29  C   UNL A   1      37.229  22.031  25.601  1.00  0.00     0.188 C 
BRANCH  29  30
ATOM     30  O   UNL A   1      38.122  21.084  25.022  1.00  0.00    -0.376 OA
BRANCH  30  31
ATOM     31  C   UNL A   1      39.250  20.897  25.914  1.00  0.00     0.202 C 
BRANCH  31  32
ATOM     32  C   UNL A   1      39.917  19.508  25.822  1.00  0.00     0.261 C 
BRANCH  32  33
ATOM     33  O   UNL A   1      41.321  19.498  25.458  1.00  0.00    -0.460 OA
BRANCH  33  34
ATOM     34  C   UNL A   1      42.273  19.577  26.428  1.00  0.00     0.338 C 
ATOM     35  O   UNL A   1      42.853  18.631  26.939  1.00  0.00    -0.246 OA
BRANCH  34  36
ATOM     36  C   UNL A   1      42.607  21.012  26.696  1.00  0.00     0.060 A 
ATOM     37  C   UNL A   1      42.843  21.900  25.637  1.00  0.00     0.016 A 
ATOM     38  C   UNL A   1      42.618  21.512  27.997  1.00  0.00     0.016 A 
ATOM     39  C   UNL A   1      42.856  23.298  25.855  1.00  0.00     0.010 A 
ATOM     40  C   UNL A   1      42.690  22.901  28.214  1.00  0.00     0.010 A 
ATOM     41  C   UNL A   1      42.709  23.823  27.144  1.00  0.00    -0.014 A 
BRANCH  41  42
ATOM     42  C   UNL A   1      42.861  25.289  27.443  1.00  0.00     0.031 A 
ATOM     43  C   UNL A   1      44.269  25.802  27.354  1.00  0.00     0.074 A 
ATOM     44  C   UNL A   1      41.889  26.143  27.855  1.00  0.00     0.049 A 
ATOM     45  N   UNL A   1      44.730  27.002  27.570  1.00  0.00    -0.248 NA
ATOM     46  C   UNL A   1      45.287  24.818  26.946  1.00  0.00     0.031 C 
ATOM     47  C   UNL A   1      40.460  25.864  27.949  1.00  0.00     0.029 A 
ATOM     48  N   UNL A   1      41.970  27.440  28.333  1.00  0.00    -0.354 N 
ATOM     49  C   UNL A   1      46.091  26.916  27.321  1.00  0.00     0.074 A 
ATOM     50  C   UNL A   1      46.387  25.542  26.989  1.00  0.00     0.031 C 
ATOM     51  C   UNL A   1      39.827  26.870  28.580  1.00  0.00     0.029 A 
ATOM     52  C   UNL A   1      40.786  27.933  28.854  1.00  0.00     0.049 A 
ATOM     53  H   UNL A   1      42.800  27.968  28.304  1.00  0.00     0.167 HD
ATOM     54  C   UNL A   1      47.020  27.894  27.329  1.00  0.00     0.034 A 
ATOM     55  C   UNL A   1      40.491  29.109  29.456  1.00  0.00     0.034 A 
ATOM     56  C   UNL A   1      46.759  29.248  27.703  1.00  0.00     0.049 A 
ATOM     57  C   UNL A   1      41.561  30.173  29.532  1.00  0.00     0.074 A 
ATOM     58  C   UNL A   1      47.637  30.313  27.729  1.00  0.00     0.029 A 
ATOM     59  N   UNL A   1      45.539  29.712  28.166  1.00  0.00    -0.354 N 
ATOM     60  N   UNL A   1      42.799  30.123  29.105  1.00  0.00    -0.248 NA
ATOM     61  C   UNL A   1      41.182  31.477  30.106  1.00  0.00     0.031 C 
ATOM     62  C   UNL A   1      46.958  31.414  28.256  1.00  0.00     0.029 A 
ATOM     63  C   UNL A   1      45.646  31.045  28.508  1.00  0.00     0.049 A 
ATOM     64  H   UNL A   1      44.719  29.172  28.240  1.00  0.00     0.167 HD
ATOM     65  C   UNL A   1      43.328  31.394  29.309  1.00  0.00     0.074 A 
ATOM     66  C   UNL A   1      42.276  32.198  29.892  1.00  0.00     0.031 C 
ATOM     67  C   UNL A   1      44.574  31.851  29.035  1.00  0.00     0.034 A 
BRANCH  54  68
ATOM     68  C   UNL A   1      48.405  27.478  26.940  1.00  0.00     0.023 A 
ATOM     69  C   UNL A   1      48.685  27.150  25.595  1.00  0.00     0.012 A 
ATOM     70  C   UNL A   1      49.398  27.315  27.920  1.00  0.00     0.148 A 
ATOM     71  C   UNL A   1      49.916  26.602  25.245  1.00  0.00     0.002 A 
ATOM     72  C   UNL A   1      50.639  26.817  27.554  1.00  0.00     0.091 A 
ATOM     73  F   UNL A   1      49.090  27.596  29.194  1.00  0.00    -0.205 F 
ATOM     74  C   UNL A   1      50.893  26.440  26.224  1.00  0.00     0.022 A 
BRANCH  72  75
ATOM     75  S   UNL A   1      51.979  26.626  28.728  1.00  0.00     0.127 S 
ATOM     76  O   UNL A   1      51.405  25.677  29.680  1.00  0.00    -0.237 OA
ATOM     77  O   UNL A   1      53.043  26.080  27.885  1.00  0.00    -0.237 OA
ATOM     78  O   UNL A   1      52.245  27.957  29.255  1.00  0.00    -0.744 OA
ENDBRANCH  72  75
ENDBRANCH  54  68
BRANCH  55  79
ATOM     79  C   UNL A   1      39.113  29.406  29.971  1.00  0.00     0.023 A 
ATOM     80  C   UNL A   1      38.729  28.952  31.250  1.00  0.00     0.012 A 
ATOM     81  C   UNL A   1      38.161  30.084  29.181  1.00  0.00     0.148 A 
ATOM     82  C   UNL A   1      37.421  29.124  31.714  1.00  0.00     0.002 A 
ATOM     83  C   UNL A   1      36.869  30.288  29.666  1.00  0.00     0.091 A 
ATOM     84  F   UNL A   1      38.534  30.505  27.965  1.00  0.00    -0.205 F 
ATOM     85  C   UNL A   1      36.493  29.793  30.924  1.00  0.00     0.022 A 
BRANCH  83  86
ATOM     86  S   UNL A   1      35.617  31.212  28.763  1.00  0.00     0.127 S 
ATOM     87  O   UNL A   1      36.415  32.266  28.139  1.00  0.00    -0.237 OA
ATOM     88  O   UNL A   1      35.108  30.197  27.841  1.00  0.00    -0.237 OA
ATOM     89  O   UNL A   1      34.661  31.659  29.766  1.00  0.00    -0.744 OA
ENDBRANCH  83  86
ENDBRANCH  55  79
BRANCH  67  90
ATOM     90  C   UNL A   1      44.887  33.297  29.307  1.00  0.00     0.023 A 
ATOM     91  C   UNL A   1      45.514  33.671  30.510  1.00  0.00     0.012 A 
ATOM     92  C   UNL A   1      44.699  34.258  28.292  1.00  0.00     0.148 A 
ATOM     93  C   UNL A   1      45.943  34.984  30.703  1.00  0.00     0.002 A 
ATOM     94  C   UNL A   1      45.180  35.548  28.469  1.00  0.00     0.091 A 
ATOM     95  F   UNL A   1      44.082  33.882  27.164  1.00  0.00    -0.205 F 
ATOM     96  C   UNL A   1      45.793  35.916  29.678  1.00  0.00     0.022 A 
BRANCH  94  97
ATOM     97  S   UNL A   1      45.143  36.775  27.157  1.00  0.00     0.127 S 
ATOM     98  O   UNL A   1      45.665  37.957  27.839  1.00  0.00    -0.237 OA
ATOM     99  O   UNL A   1      46.047  36.193  26.165  1.00  0.00    -0.237 OA
ATOM    100  O   UNL A   1      43.754  36.866  26.729  1.00  0.00    -0.744 OA
ENDBRANCH  94  97
ENDBRANCH  67  90
ENDBRANCH  41  42
ENDBRANCH  34  36
ENDBRANCH  33  34
ENDBRANCH  32  33
ENDBRANCH  31  32
ENDBRANCH  30  31
ENDBRANCH  29  30
ENDBRANCH   1  29
TORSDOF 24
ENDMDL
