MODEL 1
REMARK VINA RESULT:     -11.3      0.000      0.000
REMARK SMILES CC(=O)NS(=O)(=O)c1cc(-c2ccn(C(F)F)c(=O)c2)ccc1C(=O)OCCOCCOCCOC(=O)c1ccc(-c2c3nc(c(-c4cccc(S(=O)(=O)[O-])c4F)c4ccc([nH]4)c(-c4cccc(S(=O)(=O)[O-])c4F)c4nc(c(-c5cccc(S(=O)(=O)[O-])c5F)c5ccc2[nH]5)C=C4)C=C3)cc1
REMARK SMILES IDX 31 1 30 2 29 3 28 4 27 5 26 6 24 7 25 8 23 9 8 10 9 11 10 12
REMARK SMILES IDX 22 13 21 14 5 15 6 16 7 17 4 18 1 19 2 20 3 21 11 23 12 24
REMARK SMILES IDX 20 25 13 26 18 27 14 28 19 29 15 30 16 31 17 32 32 33 33 34
REMARK SMILES IDX 34 35 35 36 36 37 37 38 38 39 39 40 100 41 40 42 99 43 41 44
REMARK SMILES IDX 42 45 43 46 93 47 44 48 98 49 92 50 94 51 45 52 97 53 91 54
REMARK SMILES IDX 90 55 46 57 78 58 58 59 77 60 59 61 62 62 76 63 95 64 60 65
REMARK SMILES IDX 61 66 75 68 96 69 63 70 47 71 48 72 56 73 49 74 51 75 57 76
REMARK SMILES IDX 50 77 52 78 53 79 54 80 55 81 79 82 80 83 88 84 81 85 83 86
REMARK SMILES IDX 89 87 82 88 84 89 85 90 86 91 87 92 64 93 65 94 73 95 66 96
REMARK SMILES IDX 68 97 74 98 67 99 69 100 70 101 71 102 72 103
REMARK H PARENT 4 22 94 56 62 67
REMARK Flexibility Score: inf
ROOT
ATOM      1  C   UNL A   1      30.879  30.508  25.044  1.00  0.00     0.188 C 
ENDROOT
BRANCH   1   2
ATOM      2  C   UNL A   1      31.316  29.331  24.148  1.00  0.00     0.188 C 
BRANCH   2   3
ATOM      3  O   UNL A   1      30.895  29.458  22.795  1.00  0.00    -0.376 OA
BRANCH   3   4
ATOM      4  C   UNL A   1      30.117  28.380  22.293  1.00  0.00     0.202 C 
BRANCH   4   5
ATOM      5  C   UNL A   1      30.239  27.135  23.165  1.00  0.00     0.261 C 
BRANCH   5   6
ATOM      6  O   UNL A   1      31.026  26.094  22.561  1.00  0.00    -0.460 OA
BRANCH   6   7
ATOM      7  C   UNL A   1      32.270  25.912  23.043  1.00  0.00     0.339 C 
ATOM      8  O   UNL A   1      33.132  26.760  23.177  1.00  0.00    -0.246 OA
BRANCH   7   9
ATOM      9  C   UNL A   1      32.441  24.503  23.462  1.00  0.00     0.080 A 
ATOM     10  C   UNL A   1      32.276  24.034  24.767  1.00  0.00     0.103 A 
ATOM     11  C   UNL A   1      32.411  22.657  25.041  1.00  0.00     0.032 A 
ATOM     12  C   UNL A   1      32.679  21.740  24.017  1.00  0.00    -0.017 A 
ATOM     13  C   UNL A   1      32.744  23.586  22.441  1.00  0.00     0.018 A 
ATOM     14  C   UNL A   1      32.864  22.218  22.717  1.00  0.00     0.010 A 
BRANCH  10  15
ATOM     15  S   UNL A   1      31.746  25.039  26.124  1.00  0.00     0.264 S 
ATOM     16  O   UNL A   1      31.968  24.274  27.331  1.00  0.00    -0.201 OA
ATOM     17  O   UNL A   1      30.426  25.534  25.799  1.00  0.00    -0.201 OA
BRANCH  15  18
ATOM     18  N   UNL A   1      32.735  26.353  26.196  1.00  0.00    -0.249 N 
ATOM     19  C   UNL A   1      31.379  27.855  27.667  1.00  0.00     0.115 C 
ATOM     20  C   UNL A   1      32.669  27.506  26.983  1.00  0.00     0.230 C 
ATOM     21  O   UNL A   1      33.636  28.256  26.994  1.00  0.00    -0.274 OA
ATOM     22  H   UNL A   1      33.503  26.322  25.580  1.00  0.00     0.183 HD
ENDBRANCH  15  18
ENDBRANCH  10  15
BRANCH  12  23
ATOM     23  C   UNL A   1      32.672  20.288  24.289  1.00  0.00    -0.011 A 
ATOM     24  C   UNL A   1      32.737  19.714  25.619  1.00  0.00     0.027 A 
ATOM     25  C   UNL A   1      32.655  19.460  23.228  1.00  0.00     0.080 A 
ATOM     26  C   UNL A   1      32.805  18.387  25.786  1.00  0.00     0.095 A 
ATOM     27  C   UNL A   1      32.707  17.982  23.397  1.00  0.00     0.255 A 
ATOM     28  N   UNL A   1      32.799  17.528  24.701  1.00  0.00    -0.258 N 
ATOM     29  O   UNL A   1      32.669  17.278  22.392  1.00  0.00    -0.269 OA
BRANCH  28  30
ATOM     30  C   UNL A   1      32.899  16.103  24.888  1.00  0.00     0.451 C 
ATOM     31  F   UNL A   1      34.186  15.687  24.788  1.00  0.00    -0.185 F 
ATOM     32  F   UNL A   1      32.437  15.738  26.108  1.00  0.00    -0.185 F 
ENDBRANCH  28  30
ENDBRANCH  12  23
ENDBRANCH   7   9
ENDBRANCH   6   7
ENDBRANCH   5   6
ENDBRANCH   4   5
ENDBRANCH   3   4
ENDBRANCH   2   3
ENDBRANCH   1   2
BRANCH   1  33
ATOM     33  O   UNL A   1      31.779  31.054  26.000  1.00  0.00    -0.376 OA
BRANCH  33  34
ATOM     34  C   UNL A   1      31.329  32.096  26.852  1.00  0.00     0.202 C 
BRANCH  34  35
ATOM     35  C   UNL A   1      32.239  33.320  26.990  1.00  0.00     0.261 C 
BRANCH  35  36
ATOM     36  O   UNL A   1      33.122  33.252  28.122  1.00  0.00    -0.460 OA
BRANCH  36  37
ATOM     37  C   UNL A   1      34.277  33.952  28.006  1.00  0.00     0.338 C 
ATOM     38  O   UNL A   1      34.399  35.142  27.766  1.00  0.00    -0.246 OA
BRANCH  37  39
ATOM     39  C   UNL A   1      35.412  33.100  28.417  1.00  0.00     0.060 A 
ATOM     40  C   UNL A   1      35.136  31.784  28.816  1.00  0.00     0.016 A 
ATOM     41  C   UNL A   1      36.719  33.587  28.440  1.00  0.00     0.016 A 
ATOM     42  C   UNL A   1      36.165  30.953  29.257  1.00  0.00     0.010 A 
ATOM     43  C   UNL A   1      37.746  32.764  28.911  1.00  0.00     0.010 A 
ATOM     44  C   UNL A   1      37.471  31.454  29.343  1.00  0.00    -0.014 A 
BRANCH  44  45
ATOM     45  C   UNL A   1      38.523  30.675  30.036  1.00  0.00     0.031 A 
ATOM     46  C   UNL A   1      38.901  31.070  31.435  1.00  0.00     0.074 A 
ATOM     47  C   UNL A   1      39.160  29.666  29.418  1.00  0.00     0.049 A 
ATOM     48  N   UNL A   1      39.853  30.601  32.198  1.00  0.00    -0.248 NA
ATOM     49  C   UNL A   1      38.096  32.133  32.059  1.00  0.00     0.031 C 
ATOM     50  C   UNL A   1      38.866  29.177  28.073  1.00  0.00     0.029 A 
ATOM     51  N   UNL A   1      40.215  28.893  29.836  1.00  0.00    -0.354 N 
ATOM     52  C   UNL A   1      39.779  31.327  33.380  1.00  0.00     0.074 A 
ATOM     53  C   UNL A   1      38.689  32.266  33.236  1.00  0.00     0.031 C 
ATOM     54  C   UNL A   1      39.750  28.213  27.758  1.00  0.00     0.029 A 
ATOM     55  C   UNL A   1      40.689  28.041  28.867  1.00  0.00     0.049 A 
ATOM     56  H   UNL A   1      40.596  28.946  30.743  1.00  0.00     0.167 HD
ATOM     57  C   UNL A   1      40.546  31.217  34.489  1.00  0.00     0.034 A 
ATOM     58  C   UNL A   1      41.776  27.243  28.865  1.00  0.00     0.034 A 
ATOM     59  C   UNL A   1      41.632  30.289  34.632  1.00  0.00     0.049 A 
ATOM     60  C   UNL A   1      42.659  27.194  30.085  1.00  0.00     0.074 A 
ATOM     61  C   UNL A   1      42.449  30.082  35.729  1.00  0.00     0.029 A 
ATOM     62  N   UNL A   1      42.070  29.429  33.639  1.00  0.00    -0.354 N 
ATOM     63  N   UNL A   1      42.510  27.801  31.238  1.00  0.00    -0.248 NA
ATOM     64  C   UNL A   1      43.852  26.337  30.010  1.00  0.00     0.031 C 
ATOM     65  C   UNL A   1      43.394  29.108  35.392  1.00  0.00     0.029 A 
ATOM     66  C   UNL A   1      43.155  28.698  34.089  1.00  0.00     0.049 A 
ATOM     67  H   UNL A   1      41.668  29.348  32.744  1.00  0.00     0.167 HD
ATOM     68  C   UNL A   1      43.570  27.376  32.034  1.00  0.00     0.074 A 
ATOM     69  C   UNL A   1      44.344  26.446  31.238  1.00  0.00     0.031 C 
ATOM     70  C   UNL A   1      43.883  27.734  33.304  1.00  0.00     0.034 A 
BRANCH  57  71
ATOM     71  C   UNL A   1      40.214  32.116  35.649  1.00  0.00     0.023 A 
ATOM     72  C   UNL A   1      40.989  33.273  35.868  1.00  0.00     0.012 A 
ATOM     73  C   UNL A   1      39.124  31.840  36.494  1.00  0.00     0.148 A 
ATOM     74  C   UNL A   1      40.699  34.127  36.931  1.00  0.00     0.002 A 
ATOM     75  C   UNL A   1      38.819  32.715  37.529  1.00  0.00     0.091 A 
ATOM     76  F   UNL A   1      38.420  30.717  36.286  1.00  0.00    -0.205 F 
ATOM     77  C   UNL A   1      39.610  33.854  37.755  1.00  0.00     0.022 A 
BRANCH  75  78
ATOM     78  S   UNL A   1      37.400  32.477  38.602  1.00  0.00     0.127 S 
ATOM     79  O   UNL A   1      37.707  33.388  39.704  1.00  0.00    -0.237 OA
ATOM     80  O   UNL A   1      36.291  32.905  37.749  1.00  0.00    -0.237 OA
ATOM     81  O   UNL A   1      37.390  31.061  38.940  1.00  0.00    -0.744 OA
ENDBRANCH  75  78
ENDBRANCH  57  71
BRANCH  58  82
ATOM     82  C   UNL A   1      42.086  26.407  27.671  1.00  0.00     0.023 A 
ATOM     83  C   UNL A   1      42.786  26.979  26.591  1.00  0.00     0.012 A 
ATOM     84  C   UNL A   1      41.703  25.054  27.601  1.00  0.00     0.148 A 
ATOM     85  C   UNL A   1      43.078  26.225  25.454  1.00  0.00     0.002 A 
ATOM     86  C   UNL A   1      42.043  24.294  26.487  1.00  0.00     0.091 A 
ATOM     87  F   UNL A   1      41.016  24.533  28.628  1.00  0.00    -0.205 F 
ATOM     88  C   UNL A   1      42.717  24.882  25.407  1.00  0.00     0.022 A 
BRANCH  86  89
ATOM     89  S   UNL A   1      41.724  22.529  26.393  1.00  0.00     0.127 S 
ATOM     90  O   UNL A   1      40.265  22.491  26.341  1.00  0.00    -0.237 OA
ATOM     91  O   UNL A   1      42.396  22.166  25.145  1.00  0.00    -0.237 OA
ATOM     92  O   UNL A   1      42.331  21.958  27.588  1.00  0.00    -0.744 OA
ENDBRANCH  86  89
ENDBRANCH  58  82
BRANCH  70  93
ATOM     93  C   UNL A   1      45.099  27.106  33.935  1.00  0.00     0.023 A 
ATOM     94  C   UNL A   1      46.321  27.806  33.937  1.00  0.00     0.012 A 
ATOM     95  C   UNL A   1      45.005  25.873  34.610  1.00  0.00     0.148 A 
ATOM     96  C   UNL A   1      47.437  27.278  34.586  1.00  0.00     0.002 A 
ATOM     97  C   UNL A   1      46.108  25.375  35.292  1.00  0.00     0.091 A 
ATOM     98  F   UNL A   1      43.836  25.215  34.581  1.00  0.00    -0.205 F 
ATOM     99  C   UNL A   1      47.328  26.072  35.273  1.00  0.00     0.022 A 
BRANCH  97 100
ATOM    100  S   UNL A   1      46.035  23.876  36.281  1.00  0.00     0.127 S 
ATOM    101  O   UNL A   1      45.147  24.281  37.370  1.00  0.00    -0.237 OA
ATOM    102  O   UNL A   1      45.455  22.913  35.345  1.00  0.00    -0.237 OA
ATOM    103  O   UNL A   1      47.408  23.586  36.671  1.00  0.00    -0.744 OA
ENDBRANCH  97 100
ENDBRANCH  70  93
ENDBRANCH  44  45
ENDBRANCH  37  39
ENDBRANCH  36  37
ENDBRANCH  35  36
ENDBRANCH  34  35
ENDBRANCH  33  34
ENDBRANCH   1  33
TORSDOF 24
ENDMDL
MODEL 2
REMARK VINA RESULT:     -11.3      0.659      7.129
REMARK SMILES CC(=O)NS(=O)(=O)c1cc(-c2ccn(C(F)F)c(=O)c2)ccc1C(=O)OCCOCCOCCOC(=O)c1ccc(-c2c3nc(c(-c4cccc(S(=O)(=O)[O-])c4F)c4ccc([nH]4)c(-c4cccc(S(=O)(=O)[O-])c4F)c4nc(c(-c5cccc(S(=O)(=O)[O-])c5F)c5ccc2[nH]5)C=C4)C=C3)cc1
REMARK SMILES IDX 31 1 30 2 29 3 28 4 27 5 26 6 24 7 25 8 23 9 8 10 9 11 10 12
REMARK SMILES IDX 22 13 21 14 5 15 6 16 7 17 4 18 1 19 2 20 3 21 11 23 12 24
REMARK SMILES IDX 20 25 13 26 18 27 14 28 19 29 15 30 16 31 17 32 32 33 33 34
REMARK SMILES IDX 34 35 35 36 36 37 37 38 38 39 39 40 100 41 40 42 99 43 41 44
REMARK SMILES IDX 42 45 43 46 93 47 44 48 98 49 92 50 94 51 45 52 97 53 91 54
REMARK SMILES IDX 90 55 46 57 78 58 58 59 77 60 59 61 62 62 76 63 95 64 60 65
REMARK SMILES IDX 61 66 75 68 96 69 63 70 47 71 48 72 56 73 49 74 51 75 57 76
REMARK SMILES IDX 50 77 52 78 53 79 54 80 55 81 79 82 80 83 88 84 81 85 83 86
REMARK SMILES IDX 89 87 82 88 84 89 85 90 86 91 87 92 64 93 65 94 73 95 66 96
REMARK SMILES IDX 68 97 74 98 67 99 69 100 70 101 71 102 72 103
REMARK H PARENT 4 22 94 56 62 67
REMARK Flexibility Score: inf
ROOT
ATOM      1  C   UNL A   1      30.657  30.439  24.643  1.00  0.00     0.188 C 
ENDROOT
BRANCH   1   2
ATOM      2  C   UNL A   1      31.095  29.188  23.855  1.00  0.00     0.188 C 
BRANCH   2   3
ATOM      3  O   UNL A   1      32.496  28.946  23.901  1.00  0.00    -0.376 OA
BRANCH   3   4
ATOM      4  C   UNL A   1      33.192  29.146  22.678  1.00  0.00     0.202 C 
BRANCH   4   5
ATOM      5  C   UNL A   1      33.786  27.847  22.142  1.00  0.00     0.261 C 
BRANCH   5   6
ATOM      6  O   UNL A   1      33.459  26.699  22.945  1.00  0.00    -0.460 OA
BRANCH   6   7
ATOM      7  C   UNL A   1      32.387  25.977  22.570  1.00  0.00     0.339 C 
ATOM      8  O   UNL A   1      31.459  26.355  21.880  1.00  0.00    -0.246 OA
BRANCH   7   9
ATOM      9  C   UNL A   1      32.516  24.593  23.075  1.00  0.00     0.080 A 
ATOM     10  C   UNL A   1      32.256  24.197  24.389  1.00  0.00     0.103 A 
ATOM     11  C   UNL A   1      32.359  22.837  24.747  1.00  0.00     0.032 A 
ATOM     12  C   UNL A   1      32.690  21.863  23.796  1.00  0.00    -0.017 A 
ATOM     13  C   UNL A   1      32.881  23.619  22.130  1.00  0.00     0.018 A 
ATOM     14  C   UNL A   1      32.969  22.268  22.488  1.00  0.00     0.010 A 
BRANCH  10  15
ATOM     15  S   UNL A   1      31.641  25.278  25.649  1.00  0.00     0.264 S 
ATOM     16  O   UNL A   1      31.597  24.517  26.877  1.00  0.00    -0.201 OA
ATOM     17  O   UNL A   1      30.445  25.904  25.128  1.00  0.00    -0.201 OA
BRANCH  15  18
ATOM     18  N   UNL A   1      32.745  26.481  25.865  1.00  0.00    -0.249 N 
ATOM     19  C   UNL A   1      31.548  27.889  27.552  1.00  0.00     0.115 C 
ATOM     20  C   UNL A   1      32.792  27.522  26.796  1.00  0.00     0.230 C 
ATOM     21  O   UNL A   1      33.822  28.177  26.880  1.00  0.00    -0.274 OA
ATOM     22  H   UNL A   1      33.498  26.464  25.231  1.00  0.00     0.183 HD
ENDBRANCH  15  18
ENDBRANCH  10  15
BRANCH  12  23
ATOM     23  C   UNL A   1      32.651  20.428  24.146  1.00  0.00    -0.011 A 
ATOM     24  C   UNL A   1      32.766  19.923  25.500  1.00  0.00     0.027 A 
ATOM     25  C   UNL A   1      32.555  19.548  23.133  1.00  0.00     0.080 A 
ATOM     26  C   UNL A   1      32.800  18.605  25.734  1.00  0.00     0.095 A 
ATOM     27  C   UNL A   1      32.569  18.079  23.378  1.00  0.00     0.255 A 
ATOM     28  N   UNL A   1      32.712  17.691  24.699  1.00  0.00    -0.258 N 
ATOM     29  O   UNL A   1      32.458  17.325  22.416  1.00  0.00    -0.269 OA
BRANCH  28  30
ATOM     30  C   UNL A   1      32.777  16.276  24.957  1.00  0.00     0.451 C 
ATOM     31  F   UNL A   1      33.960  15.757  24.543  1.00  0.00    -0.185 F 
ATOM     32  F   UNL A   1      32.649  16.015  26.280  1.00  0.00    -0.185 F 
ENDBRANCH  28  30
ENDBRANCH  12  23
ENDBRANCH   7   9
ENDBRANCH   6   7
ENDBRANCH   5   6
ENDBRANCH   4   5
ENDBRANCH   3   4
ENDBRANCH   2   3
ENDBRANCH   1   2
BRANCH   1  33
ATOM     33  O   UNL A   1      31.425  30.897  25.748  1.00  0.00    -0.376 OA
BRANCH  33  34
ATOM     34  C   UNL A   1      30.958  32.006  26.499  1.00  0.00     0.202 C 
BRANCH  34  35
ATOM     35  C   UNL A   1      31.986  33.080  26.863  1.00  0.00     0.261 C 
BRANCH  35  36
ATOM     36  O   UNL A   1      33.173  32.552  27.477  1.00  0.00    -0.460 OA
BRANCH  36  37
ATOM     37  C   UNL A   1      33.918  33.445  28.173  1.00  0.00     0.338 C 
ATOM     38  O   UNL A   1      33.580  34.554  28.552  1.00  0.00    -0.246 OA
BRANCH  37  39
ATOM     39  C   UNL A   1      35.178  32.804  28.604  1.00  0.00     0.060 A 
ATOM     40  C   UNL A   1      35.096  31.574  29.272  1.00  0.00     0.016 A 
ATOM     41  C   UNL A   1      36.416  33.408  28.384  1.00  0.00     0.016 A 
ATOM     42  C   UNL A   1      36.251  30.949  29.739  1.00  0.00     0.010 A 
ATOM     43  C   UNL A   1      37.571  32.796  28.880  1.00  0.00     0.010 A 
ATOM     44  C   UNL A   1      37.492  31.578  29.578  1.00  0.00    -0.014 A 
BRANCH  44  45
ATOM     45  C   UNL A   1      38.689  31.057  30.279  1.00  0.00     0.031 A 
ATOM     46  C   UNL A   1      39.487  29.968  29.620  1.00  0.00     0.074 A 
ATOM     47  C   UNL A   1      39.034  31.512  31.496  1.00  0.00     0.049 A 
ATOM     48  N   UNL A   1      40.507  29.296  30.083  1.00  0.00    -0.248 NA
ATOM     49  C   UNL A   1      39.082  29.590  28.256  1.00  0.00     0.031 C 
ATOM     50  C   UNL A   1      38.352  32.580  32.224  1.00  0.00     0.029 A 
ATOM     51  N   UNL A   1      40.029  31.103  32.348  1.00  0.00    -0.354 N 
ATOM     52  C   UNL A   1      40.851  28.398  29.080  1.00  0.00     0.074 A 
ATOM     53  C   UNL A   1      39.933  28.612  27.983  1.00  0.00     0.031 C 
ATOM     54  C   UNL A   1      38.924  32.714  33.434  1.00  0.00     0.029 A 
ATOM     55  C   UNL A   1      39.989  31.721  33.576  1.00  0.00     0.049 A 
ATOM     56  H   UNL A   1      40.707  30.431  32.103  1.00  0.00     0.167 HD
ATOM     57  C   UNL A   1      41.846  27.482  29.070  1.00  0.00     0.034 A 
ATOM     58  C   UNL A   1      40.706  31.485  34.693  1.00  0.00     0.034 A 
ATOM     59  C   UNL A   1      42.755  27.263  30.160  1.00  0.00     0.049 A 
ATOM     60  C   UNL A   1      41.758  30.406  34.681  1.00  0.00     0.074 A 
ATOM     61  C   UNL A   1      43.816  26.379  30.233  1.00  0.00     0.029 A 
ATOM     62  N   UNL A   1      42.697  27.920  31.378  1.00  0.00    -0.354 N 
ATOM     63  N   UNL A   1      42.150  29.643  33.689  1.00  0.00    -0.248 NA
ATOM     64  C   UNL A   1      42.481  30.166  35.940  1.00  0.00     0.031 C 
ATOM     65  C   UNL A   1      44.388  26.487  31.505  1.00  0.00     0.029 A 
ATOM     66  C   UNL A   1      43.693  27.452  32.217  1.00  0.00     0.049 A 
ATOM     67  H   UNL A   1      42.044  28.619  31.613  1.00  0.00     0.167 HD
ATOM     68  C   UNL A   1      43.183  28.858  34.193  1.00  0.00     0.074 A 
ATOM     69  C   UNL A   1      43.367  29.249  35.575  1.00  0.00     0.031 C 
ATOM     70  C   UNL A   1      43.902  27.890  33.574  1.00  0.00     0.034 A 
BRANCH  57  71
ATOM     71  C   UNL A   1      42.015  26.660  27.822  1.00  0.00     0.023 A 
ATOM     72  C   UNL A   1      42.592  27.251  26.680  1.00  0.00     0.012 A 
ATOM     73  C   UNL A   1      41.638  25.305  27.787  1.00  0.00     0.148 A 
ATOM     74  C   UNL A   1      42.767  26.510  25.512  1.00  0.00     0.002 A 
ATOM     75  C   UNL A   1      41.848  24.563  26.631  1.00  0.00     0.091 A 
ATOM     76  F   UNL A   1      41.061  24.772  28.875  1.00  0.00    -0.205 F 
ATOM     77  C   UNL A   1      42.405  25.166  25.489  1.00  0.00     0.022 A 
BRANCH  75  78
ATOM     78  S   UNL A   1      41.470  22.811  26.531  1.00  0.00     0.127 S 
ATOM     79  O   UNL A   1      40.008  22.828  26.474  1.00  0.00    -0.237 OA
ATOM     80  O   UNL A   1      42.123  22.423  25.280  1.00  0.00    -0.237 OA
ATOM     81  O   UNL A   1      42.046  22.211  27.725  1.00  0.00    -0.744 OA
ENDBRANCH  75  78
ENDBRANCH  57  71
BRANCH  58  82
ATOM     82  C   UNL A   1      40.467  32.297  35.919  1.00  0.00     0.023 A 
ATOM     83  C   UNL A   1      41.337  33.361  36.223  1.00  0.00     0.012 A 
ATOM     84  C   UNL A   1      39.383  32.031  36.778  1.00  0.00     0.148 A 
ATOM     85  C   UNL A   1      41.147  34.130  37.371  1.00  0.00     0.002 A 
ATOM     86  C   UNL A   1      39.169  32.833  37.893  1.00  0.00     0.091 A 
ATOM     87  F   UNL A   1      38.579  30.998  36.485  1.00  0.00    -0.205 F 
ATOM     88  C   UNL A   1      40.058  33.874  38.199  1.00  0.00     0.022 A 
BRANCH  86  89
ATOM     89  S   UNL A   1      37.726  32.650  38.946  1.00  0.00     0.127 S 
ATOM     90  O   UNL A   1      37.828  33.830  39.801  1.00  0.00    -0.237 OA
ATOM     91  O   UNL A   1      36.634  32.684  37.973  1.00  0.00    -0.237 OA
ATOM     92  O   UNL A   1      37.891  31.366  39.615  1.00  0.00    -0.744 OA
ENDBRANCH  86  89
ENDBRANCH  58  82
BRANCH  70  93
ATOM     93  C   UNL A   1      44.978  27.194  34.366  1.00  0.00     0.023 A 
ATOM     94  C   UNL A   1      46.284  27.720  34.378  1.00  0.00     0.012 A 
ATOM     95  C   UNL A   1      44.672  26.081  35.174  1.00  0.00     0.148 A 
ATOM     96  C   UNL A   1      47.274  27.138  35.168  1.00  0.00     0.002 A 
ATOM     97  C   UNL A   1      45.653  25.533  35.992  1.00  0.00     0.091 A 
ATOM     98  F   UNL A   1      43.426  25.585  35.134  1.00  0.00    -0.205 F 
ATOM     99  C   UNL A   1      46.957  26.055  35.983  1.00  0.00     0.022 A 
BRANCH  97 100
ATOM    100  S   UNL A   1      45.311  24.197  37.145  1.00  0.00     0.127 S 
ATOM    101  O   UNL A   1      44.273  24.788  37.987  1.00  0.00    -0.237 OA
ATOM    102  O   UNL A   1      44.846  23.132  36.257  1.00  0.00    -0.237 OA
ATOM    103  O   UNL A   1      46.573  23.915  37.816  1.00  0.00    -0.744 OA
ENDBRANCH  97 100
ENDBRANCH  70  93
ENDBRANCH  44  45
ENDBRANCH  37  39
ENDBRANCH  36  37
ENDBRANCH  35  36
ENDBRANCH  34  35
ENDBRANCH  33  34
ENDBRANCH   1  33
TORSDOF 24
ENDMDL
MODEL 3
REMARK VINA RESULT:     -10.8      1.498      2.064
REMARK SMILES CC(=O)NS(=O)(=O)c1cc(-c2ccn(C(F)F)c(=O)c2)ccc1C(=O)OCCOCCOCCOC(=O)c1ccc(-c2c3nc(c(-c4cccc(S(=O)(=O)[O-])c4F)c4ccc([nH]4)c(-c4cccc(S(=O)(=O)[O-])c4F)c4nc(c(-c5cccc(S(=O)(=O)[O-])c5F)c5ccc2[nH]5)C=C4)C=C3)cc1
REMARK SMILES IDX 31 1 30 2 29 3 28 4 27 5 26 6 24 7 25 8 23 9 8 10 9 11 10 12
REMARK SMILES IDX 22 13 21 14 5 15 6 16 7 17 4 18 1 19 2 20 3 21 11 23 12 24
REMARK SMILES IDX 20 25 13 26 18 27 14 28 19 29 15 30 16 31 17 32 32 33 33 34
REMARK SMILES IDX 34 35 35 36 36 37 37 38 38 39 39 40 100 41 40 42 99 43 41 44
REMARK SMILES IDX 42 45 43 46 93 47 44 48 98 49 92 50 94 51 45 52 97 53 91 54
REMARK SMILES IDX 90 55 46 57 78 58 58 59 77 60 59 61 62 62 76 63 95 64 60 65
REMARK SMILES IDX 61 66 75 68 96 69 63 70 47 71 48 72 56 73 49 74 51 75 57 76
REMARK SMILES IDX 50 77 52 78 53 79 54 80 55 81 79 82 80 83 88 84 81 85 83 86
REMARK SMILES IDX 89 87 82 88 84 89 85 90 86 91 87 92 64 93 65 94 73 95 66 96
REMARK SMILES IDX 68 97 74 98 67 99 69 100 70 101 71 102 72 103
REMARK H PARENT 4 22 94 56 62 67
REMARK Flexibility Score: inf
ROOT
ATOM      1  C   UNL A   1      31.485  29.710  24.946  1.00  0.00     0.188 C 
ENDROOT
BRANCH   1   2
ATOM      2  C   UNL A   1      32.737  29.038  25.546  1.00  0.00     0.188 C 
BRANCH   2   3
ATOM      3  O   UNL A   1      33.670  28.594  24.568  1.00  0.00    -0.376 OA
BRANCH   3   4
ATOM      4  C   UNL A   1      33.453  29.080  23.251  1.00  0.00     0.202 C 
BRANCH   4   5
ATOM      5  C   UNL A   1      33.351  27.946  22.235  1.00  0.00     0.261 C 
BRANCH   5   6
ATOM      6  O   UNL A   1      33.194  26.652  22.843  1.00  0.00    -0.460 OA
BRANCH   6   7
ATOM      7  C   UNL A   1      32.351  25.793  22.240  1.00  0.00     0.339 C 
ATOM      8  O   UNL A   1      31.614  26.032  21.302  1.00  0.00    -0.246 OA
BRANCH   7   9
ATOM      9  C   UNL A   1      32.484  24.453  22.851  1.00  0.00     0.080 A 
ATOM     10  C   UNL A   1      31.889  24.062  24.053  1.00  0.00     0.103 A 
ATOM     11  C   UNL A   1      32.039  22.738  24.514  1.00  0.00     0.032 A 
ATOM     12  C   UNL A   1      32.752  21.790  23.769  1.00  0.00    -0.017 A 
ATOM     13  C   UNL A   1      33.227  23.509  22.121  1.00  0.00     0.018 A 
ATOM     14  C   UNL A   1      33.362  22.193  22.577  1.00  0.00     0.010 A 
BRANCH  10  15
ATOM     15  S   UNL A   1      30.801  25.087  25.002  1.00  0.00     0.264 S 
ATOM     16  O   UNL A   1      29.895  25.722  24.070  1.00  0.00    -0.201 OA
ATOM     17  O   UNL A   1      31.626  25.884  25.883  1.00  0.00    -0.201 OA
BRANCH  15  18
ATOM     18  N   UNL A   1      29.895  24.106  25.965  1.00  0.00    -0.249 N 
ATOM     19  C   UNL A   1      31.675  23.180  27.460  1.00  0.00     0.115 C 
ATOM     20  C   UNL A   1      30.229  23.406  27.127  1.00  0.00     0.230 C 
ATOM     21  O   UNL A   1      29.324  22.898  27.777  1.00  0.00    -0.274 OA
ATOM     22  H   UNL A   1      28.961  23.995  25.673  1.00  0.00     0.183 HD
ENDBRANCH  15  18
ENDBRANCH  10  15
BRANCH  12  23
ATOM     23  C   UNL A   1      32.779  20.373  24.185  1.00  0.00    -0.011 A 
ATOM     24  C   UNL A   1      32.830  19.938  25.567  1.00  0.00     0.027 A 
ATOM     25  C   UNL A   1      32.808  19.444  23.213  1.00  0.00     0.080 A 
ATOM     26  C   UNL A   1      32.930  18.636  25.868  1.00  0.00     0.095 A 
ATOM     27  C   UNL A   1      32.895  17.992  23.530  1.00  0.00     0.255 A 
ATOM     28  N   UNL A   1      32.972  17.674  24.875  1.00  0.00    -0.258 N 
ATOM     29  O   UNL A   1      32.899  17.190  22.601  1.00  0.00    -0.269 OA
BRANCH  28  30
ATOM     30  C   UNL A   1      33.106  16.278  25.206  1.00  0.00     0.451 C 
ATOM     31  F   UNL A   1      31.950  15.609  24.976  1.00  0.00    -0.185 F 
ATOM     32  F   UNL A   1      34.079  15.693  24.466  1.00  0.00    -0.185 F 
ENDBRANCH  28  30
ENDBRANCH  12  23
ENDBRANCH   7   9
ENDBRANCH   6   7
ENDBRANCH   5   6
ENDBRANCH   4   5
ENDBRANCH   3   4
ENDBRANCH   2   3
ENDBRANCH   1   2
BRANCH   1  33
ATOM     33  O   UNL A   1      31.003  30.936  25.481  1.00  0.00    -0.376 OA
BRANCH  33  34
ATOM     34  C   UNL A   1      31.588  31.446  26.669  1.00  0.00     0.202 C 
BRANCH  34  35
ATOM     35  C   UNL A   1      31.660  32.969  26.809  1.00  0.00     0.261 C 
BRANCH  35  36
ATOM     36  O   UNL A   1      33.002  33.482  26.801  1.00  0.00    -0.460 OA
BRANCH  36  37
ATOM     37  C   UNL A   1      33.461  33.937  27.993  1.00  0.00     0.338 C 
ATOM     38  O   UNL A   1      32.931  34.755  28.726  1.00  0.00    -0.246 OA
BRANCH  37  39
ATOM     39  C   UNL A   1      34.635  33.138  28.405  1.00  0.00     0.060 A 
ATOM     40  C   UNL A   1      34.418  31.820  28.830  1.00  0.00     0.016 A 
ATOM     41  C   UNL A   1      35.921  33.679  28.403  1.00  0.00     0.016 A 
ATOM     42  C   UNL A   1      35.486  31.039  29.271  1.00  0.00     0.010 A 
ATOM     43  C   UNL A   1      36.986  32.906  28.875  1.00  0.00     0.010 A 
ATOM     44  C   UNL A   1      36.770  31.594  29.332  1.00  0.00    -0.014 A 
BRANCH  44  45
ATOM     45  C   UNL A   1      37.862  30.871  30.025  1.00  0.00     0.031 A 
ATOM     46  C   UNL A   1      38.196  31.261  31.437  1.00  0.00     0.074 A 
ATOM     47  C   UNL A   1      38.571  29.918  29.397  1.00  0.00     0.049 A 
ATOM     48  N   UNL A   1      39.166  30.840  32.204  1.00  0.00    -0.248 NA
ATOM     49  C   UNL A   1      37.315  32.258  32.069  1.00  0.00     0.031 C 
ATOM     50  C   UNL A   1      38.327  29.438  28.038  1.00  0.00     0.029 A 
ATOM     51  N   UNL A   1      39.669  29.207  29.815  1.00  0.00    -0.354 N 
ATOM     52  C   UNL A   1      39.030  31.535  33.398  1.00  0.00     0.074 A 
ATOM     53  C   UNL A   1      37.883  32.404  33.257  1.00  0.00     0.031 C 
ATOM     54  C   UNL A   1      39.275  28.540  27.718  1.00  0.00     0.029 A 
ATOM     55  C   UNL A   1      40.209  28.407  28.836  1.00  0.00     0.049 A 
ATOM     56  H   UNL A   1      40.033  29.265  30.728  1.00  0.00     0.167 HD
ATOM     57  C   UNL A   1      39.787  31.453  34.516  1.00  0.00     0.034 A 
ATOM     58  C   UNL A   1      41.345  27.680  28.834  1.00  0.00     0.034 A 
ATOM     59  C   UNL A   1      40.930  30.594  34.657  1.00  0.00     0.049 A 
ATOM     60  C   UNL A   1      42.214  27.665  30.066  1.00  0.00     0.074 A 
ATOM     61  C   UNL A   1      41.744  30.418  35.761  1.00  0.00     0.029 A 
ATOM     62  N   UNL A   1      41.435  29.784  33.653  1.00  0.00    -0.354 N 
ATOM     63  N   UNL A   1      42.011  28.237  31.228  1.00  0.00    -0.248 NA
ATOM     64  C   UNL A   1      43.461  26.888  29.991  1.00  0.00     0.031 C 
ATOM     65  C   UNL A   1      42.755  29.514  35.418  1.00  0.00     0.029 A 
ATOM     66  C   UNL A   1      42.560  29.116  34.105  1.00  0.00     0.049 A 
ATOM     67  H   UNL A   1      41.051  29.695  32.751  1.00  0.00     0.167 HD
ATOM     68  C   UNL A   1      43.086  27.865  32.031  1.00  0.00     0.074 A 
ATOM     69  C   UNL A   1      43.929  27.003  31.227  1.00  0.00     0.031 C 
ATOM     70  C   UNL A   1      43.358  28.217  33.311  1.00  0.00     0.034 A 
BRANCH  57  71
ATOM     71  C   UNL A   1      39.383  32.305  35.688  1.00  0.00     0.023 A 
ATOM     72  C   UNL A   1      38.520  31.769  36.665  1.00  0.00     0.012 A 
ATOM     73  C   UNL A   1      39.879  33.612  35.841  1.00  0.00     0.148 A 
ATOM     74  C   UNL A   1      38.136  32.534  37.765  1.00  0.00     0.002 A 
ATOM     75  C   UNL A   1      39.520  34.356  36.959  1.00  0.00     0.091 A 
ATOM     76  F   UNL A   1      40.674  34.113  34.883  1.00  0.00    -0.205 F 
ATOM     77  C   UNL A   1      38.642  33.822  37.917  1.00  0.00     0.022 A 
BRANCH  75  78
ATOM     78  S   UNL A   1      40.172  36.000  37.269  1.00  0.00     0.127 S 
ATOM     79  O   UNL A   1      39.724  36.724  36.080  1.00  0.00    -0.237 OA
ATOM     80  O   UNL A   1      39.486  36.377  38.506  1.00  0.00    -0.237 OA
ATOM     81  O   UNL A   1      41.612  35.838  37.402  1.00  0.00    -0.744 OA
ENDBRANCH  75  78
ENDBRANCH  57  71
BRANCH  58  82
ATOM     82  C   UNL A   1      41.724  26.891  27.629  1.00  0.00     0.023 A 
ATOM     83  C   UNL A   1      42.264  27.555  26.510  1.00  0.00     0.012 A 
ATOM     84  C   UNL A   1      41.564  25.492  27.585  1.00  0.00     0.148 A 
ATOM     85  C   UNL A   1      42.616  26.844  25.363  1.00  0.00     0.002 A 
ATOM     86  C   UNL A   1      41.964  24.784  26.458  1.00  0.00     0.091 A 
ATOM     87  F   UNL A   1      41.026  24.881  28.650  1.00  0.00    -0.205 F 
ATOM     88  C   UNL A   1      42.476  25.459  25.340  1.00  0.00     0.022 A 
BRANCH  86  89
ATOM     89  S   UNL A   1      41.932  22.989  26.388  1.00  0.00     0.127 S 
ATOM     90  O   UNL A   1      42.746  22.630  27.546  1.00  0.00    -0.237 OA
ATOM     91  O   UNL A   1      40.503  22.707  26.526  1.00  0.00    -0.237 OA
ATOM     92  O   UNL A   1      42.489  22.639  25.088  1.00  0.00    -0.744 OA
ENDBRANCH  86  89
ENDBRANCH  58  82
BRANCH  70  93
ATOM     93  C   UNL A   1      44.604  27.657  33.947  1.00  0.00     0.023 A 
ATOM     94  C   UNL A   1      45.805  28.391  33.892  1.00  0.00     0.012 A 
ATOM     95  C   UNL A   1      44.560  26.455  34.682  1.00  0.00     0.148 A 
ATOM     96  C   UNL A   1      46.948  27.928  34.543  1.00  0.00     0.002 A 
ATOM     97  C   UNL A   1      45.691  26.023  35.365  1.00  0.00     0.091 A 
ATOM     98  F   UNL A   1      43.411  25.763  34.708  1.00  0.00    -0.205 F 
ATOM     99  C   UNL A   1      46.888  26.754  35.289  1.00  0.00     0.022 A 
BRANCH  97 100
ATOM    100  S   UNL A   1      45.681  24.573  36.426  1.00  0.00     0.127 S 
ATOM    101  O   UNL A   1      47.100  24.426  36.744  1.00  0.00    -0.237 OA
ATOM    102  O   UNL A   1      44.846  25.010  37.545  1.00  0.00    -0.237 OA
ATOM    103  O   UNL A   1      45.106  23.498  35.629  1.00  0.00    -0.744 OA
ENDBRANCH  97 100
ENDBRANCH  70  93
ENDBRANCH  44  45
ENDBRANCH  37  39
ENDBRANCH  36  37
ENDBRANCH  35  36
ENDBRANCH  34  35
ENDBRANCH  33  34
ENDBRANCH   1  33
TORSDOF 24
ENDMDL
