MODEL 1
REMARK VINA RESULT:      -9.8      0.000      0.000
REMARK SMILES CC[N@@H+](C)CCn1c(SCC(=O)OCCOCCOCCOC(=O)c2ccc(-c3c4nc(c(-c5cccc(S(=O)(=O)[O-])c5F)c5ccc([nH]5)c(-c5cccc(S(=O)(=O)[O-])c5F)c5nc(c(-c6cccc(S(=O)(=O)[O-])c6F)c6ccc3[nH]6)C=C5)C=C4)cc2)nc2cnccc21
REMARK SMILES IDX 16 1 15 2 14 3 13 4 11 5 12 6 10 7 9 8 8 9 7 10 94 11 88 12
REMARK SMILES IDX 89 13 93 14 90 15 92 16 91 17 6 18 5 19 3 20 4 21 2 23 1 24
REMARK SMILES IDX 17 25 18 26 19 27 20 28 21 29 22 30 23 31 24 32 25 33 26 34
REMARK SMILES IDX 87 35 27 36 86 37 28 38 29 39 30 40 80 41 31 42 85 43 79 44
REMARK SMILES IDX 81 45 32 46 84 47 78 48 77 49 33 51 65 52 45 53 64 54 46 55
REMARK SMILES IDX 49 56 63 57 82 58 47 59 48 60 62 62 83 63 50 64 34 65 35 66
REMARK SMILES IDX 43 67 36 68 38 69 44 70 37 71 39 72 40 73 41 74 42 75 66 76
REMARK SMILES IDX 67 77 75 78 68 79 70 80 76 81 69 82 71 83 72 84 73 85 74 86
REMARK SMILES IDX 51 87 52 88 60 89 53 90 55 91 61 92 54 93 56 94 57 95 58 96
REMARK SMILES IDX 59 97
REMARK H PARENT 3 22 81 50 49 61
REMARK Flexibility Score: inf
ROOT
ATOM      1  O   UNL A   1      40.194  22.082  27.219  1.00  0.00    -0.376 OA
ENDROOT
BRANCH   1   2
ATOM      2  C   UNL A   1      39.695  21.371  26.092  1.00  0.00     0.202 C 
BRANCH   2   3
ATOM      3  C   UNL A   1      38.394  21.929  25.503  1.00  0.00     0.261 C 
BRANCH   3   4
ATOM      4  O   UNL A   1      37.587  20.889  24.885  1.00  0.00    -0.463 OA
BRANCH   4   5
ATOM      5  C   UNL A   1      36.276  21.188  24.682  1.00  0.00     0.316 C 
ATOM      6  O   UNL A   1      35.391  20.339  24.764  1.00  0.00    -0.251 OA
BRANCH   5   7
ATOM      7  C   UNL A   1      35.931  22.653  24.435  1.00  0.00     0.200 C 
BRANCH   7   8
ATOM      8  S   UNL A   1      34.285  23.045  23.831  1.00  0.00    -0.076 SA
BRANCH   8   9
ATOM      9  C   UNL A   1      33.259  23.715  25.090  1.00  0.00     0.169 A 
ATOM     10  N   UNL A   1      32.892  25.031  25.276  1.00  0.00    -0.313 N 
ATOM     11  C   UNL A   1      31.578  25.044  25.712  1.00  0.00     0.072 A 
ATOM     12  N   UNL A   1      32.400  22.931  25.719  1.00  0.00    -0.221 NA
ATOM     13  C   UNL A   1      31.348  23.735  26.102  1.00  0.00     0.108 A 
ATOM     14  C   UNL A   1      30.605  26.042  25.830  1.00  0.00     0.049 A 
ATOM     15  C   UNL A   1      30.130  23.435  26.724  1.00  0.00     0.141 A 
ATOM     16  C   UNL A   1      29.419  25.641  26.422  1.00  0.00     0.113 A 
ATOM     17  N   UNL A   1      29.171  24.393  26.877  1.00  0.00    -0.262 NA
BRANCH  10  18
ATOM     18  C   UNL A   1      33.613  26.242  25.027  1.00  0.00     0.186 C 
BRANCH  18  19
ATOM     19  C   UNL A   1      33.623  26.784  23.602  1.00  0.00     0.284 C 
BRANCH  19  20
ATOM     20  N   UNL A   1      32.598  27.460  22.822  1.00  0.00    -0.336 N 
ATOM     21  C   UNL A   1      32.331  28.780  23.419  1.00  0.00     0.332 C 
ATOM     22  H   UNL A   1      33.028  27.513  21.899  1.00  0.00     0.347 HD
BRANCH  20  23
ATOM     23  C   UNL A   1      31.377  26.777  22.450  1.00  0.00     0.258 C 
ATOM     24  C   UNL A   1      30.176  27.706  22.566  1.00  0.00     0.071 C 
ENDBRANCH  20  23
ENDBRANCH  19  20
ENDBRANCH  18  19
ENDBRANCH  10  18
ENDBRANCH   8   9
ENDBRANCH   7   8
ENDBRANCH   5   7
ENDBRANCH   4   5
ENDBRANCH   3   4
ENDBRANCH   2   3
ENDBRANCH   1   2
BRANCH   1  25
ATOM     25  C   UNL A   1      41.220  21.435  27.947  1.00  0.00     0.188 C 
BRANCH  25  26
ATOM     26  C   UNL A   1      41.418  19.932  27.741  1.00  0.00     0.188 C 
BRANCH  26  27
ATOM     27  O   UNL A   1      42.691  19.534  27.294  1.00  0.00    -0.376 OA
BRANCH  27  28
ATOM     28  C   UNL A   1      42.792  18.542  26.289  1.00  0.00     0.202 C 
BRANCH  28  29
ATOM     29  C   UNL A   1      44.154  18.124  25.713  1.00  0.00     0.261 C 
BRANCH  29  30
ATOM     30  O   UNL A   1      45.060  19.230  25.517  1.00  0.00    -0.460 OA
BRANCH  30  31
ATOM     31  C   UNL A   1      44.858  19.907  24.351  1.00  0.00     0.338 C 
ATOM     32  O   UNL A   1      44.427  19.399  23.322  1.00  0.00    -0.246 OA
BRANCH  31  33
ATOM     33  C   UNL A   1      44.880  21.387  24.573  1.00  0.00     0.060 A 
ATOM     34  C   UNL A   1      46.019  22.145  24.884  1.00  0.00     0.016 A 
ATOM     35  C   UNL A   1      43.637  21.998  24.674  1.00  0.00     0.016 A 
ATOM     36  C   UNL A   1      45.899  23.401  25.532  1.00  0.00     0.010 A 
ATOM     37  C   UNL A   1      43.529  23.249  25.283  1.00  0.00     0.010 A 
ATOM     38  C   UNL A   1      44.640  23.929  25.825  1.00  0.00    -0.014 A 
BRANCH  38  39
ATOM     39  C   UNL A   1      44.378  25.183  26.598  1.00  0.00     0.031 A 
ATOM     40  C   UNL A   1      45.351  26.265  26.300  1.00  0.00     0.074 A 
ATOM     41  C   UNL A   1      43.313  25.582  27.351  1.00  0.00     0.049 A 
ATOM     42  N   UNL A   1      46.550  26.320  26.777  1.00  0.00    -0.248 NA
ATOM     43  C   UNL A   1      45.065  27.289  25.282  1.00  0.00     0.031 C 
ATOM     44  C   UNL A   1      42.037  24.900  27.597  1.00  0.00     0.029 A 
ATOM     45  N   UNL A   1      43.097  26.805  27.956  1.00  0.00    -0.354 N 
ATOM     46  C   UNL A   1      47.012  27.558  26.377  1.00  0.00     0.074 A 
ATOM     47  C   UNL A   1      46.234  27.935  25.224  1.00  0.00     0.031 C 
ATOM     48  C   UNL A   1      41.125  25.778  28.097  1.00  0.00     0.029 A 
ATOM     49  C   UNL A   1      41.788  27.036  28.400  1.00  0.00     0.049 A 
ATOM     50  H   UNL A   1      43.815  27.470  28.070  1.00  0.00     0.167 HD
ATOM     51  C   UNL A   1      47.675  28.375  27.238  1.00  0.00     0.034 A 
ATOM     52  C   UNL A   1      41.326  28.147  29.040  1.00  0.00     0.034 A 
ATOM     53  C   UNL A   1      47.787  27.794  28.554  1.00  0.00     0.049 A 
ATOM     54  C   UNL A   1      42.479  28.602  29.851  1.00  0.00     0.074 A 
ATOM     55  C   UNL A   1      48.312  26.637  29.091  1.00  0.00     0.029 A 
ATOM     56  N   UNL A   1      46.881  28.282  29.465  1.00  0.00    -0.354 N 
ATOM     57  N   UNL A   1      42.959  27.910  30.847  1.00  0.00    -0.248 NA
ATOM     58  C   UNL A   1      43.246  29.786  29.484  1.00  0.00     0.031 C 
ATOM     59  C   UNL A   1      47.492  26.313  30.212  1.00  0.00     0.029 A 
ATOM     60  C   UNL A   1      46.518  27.300  30.351  1.00  0.00     0.049 A 
ATOM     61  H   UNL A   1      46.541  29.207  29.479  1.00  0.00     0.167 HD
ATOM     62  C   UNL A   1      44.291  28.259  30.861  1.00  0.00     0.074 A 
ATOM     63  C   UNL A   1      44.346  29.555  30.205  1.00  0.00     0.031 C 
ATOM     64  C   UNL A   1      45.241  27.299  31.040  1.00  0.00     0.034 A 
BRANCH  51  65
ATOM     65  C   UNL A   1      47.851  29.850  27.038  1.00  0.00     0.023 A 
ATOM     66  C   UNL A   1      49.152  30.366  27.158  1.00  0.00     0.012 A 
ATOM     67  C   UNL A   1      46.788  30.766  26.896  1.00  0.00     0.148 A 
ATOM     68  C   UNL A   1      49.393  31.740  27.084  1.00  0.00     0.002 A 
ATOM     69  C   UNL A   1      47.041  32.119  26.723  1.00  0.00     0.091 A 
ATOM     70  F   UNL A   1      45.526  30.342  27.049  1.00  0.00    -0.205 F 
ATOM     71  C   UNL A   1      48.343  32.615  26.831  1.00  0.00     0.022 A 
BRANCH  69  72
ATOM     72  S   UNL A   1      45.727  33.260  26.284  1.00  0.00     0.127 S 
ATOM     73  O   UNL A   1      46.466  34.299  25.574  1.00  0.00    -0.237 OA
ATOM     74  O   UNL A   1      44.865  32.425  25.448  1.00  0.00    -0.237 OA
ATOM     75  O   UNL A   1      45.129  33.642  27.558  1.00  0.00    -0.744 OA
ENDBRANCH  69  72
ENDBRANCH  51  65
BRANCH  52  76
ATOM     76  C   UNL A   1      40.022  28.844  29.260  1.00  0.00     0.023 A 
ATOM     77  C   UNL A   1      39.101  28.923  28.182  1.00  0.00     0.012 A 
ATOM     78  C   UNL A   1      39.525  29.098  30.553  1.00  0.00     0.148 A 
ATOM     79  C   UNL A   1      37.735  29.145  28.384  1.00  0.00     0.002 A 
ATOM     80  C   UNL A   1      38.155  29.331  30.751  1.00  0.00     0.091 A 
ATOM     81  F   UNL A   1      40.368  29.011  31.592  1.00  0.00    -0.205 F 
ATOM     82  C   UNL A   1      37.257  29.330  29.672  1.00  0.00     0.022 A 
BRANCH  80  83
ATOM     83  S   UNL A   1      37.445  29.590  32.385  1.00  0.00     0.127 S 
ATOM     84  O   UNL A   1      37.473  28.244  32.960  1.00  0.00    -0.237 OA
ATOM     85  O   UNL A   1      38.391  30.527  32.984  1.00  0.00    -0.237 OA
ATOM     86  O   UNL A   1      36.105  30.105  32.134  1.00  0.00    -0.744 OA
ENDBRANCH  80  83
ENDBRANCH  52  76
BRANCH  64  87
ATOM     87  C   UNL A   1      44.837  26.040  31.770  1.00  0.00     0.023 A 
ATOM     88  C   UNL A   1      44.569  24.825  31.107  1.00  0.00     0.012 A 
ATOM     89  C   UNL A   1      44.834  26.055  33.174  1.00  0.00     0.148 A 
ATOM     90  C   UNL A   1      44.295  23.655  31.822  1.00  0.00     0.002 A 
ATOM     91  C   UNL A   1      44.604  24.882  33.885  1.00  0.00     0.091 A 
ATOM     92  F   UNL A   1      45.082  27.219  33.792  1.00  0.00    -0.205 F 
ATOM     93  C   UNL A   1      44.327  23.681  33.212  1.00  0.00     0.022 A 
BRANCH  91  94
ATOM     94  S   UNL A   1      44.720  24.812  35.673  1.00  0.00     0.127 S 
ATOM     95  O   UNL A   1      43.357  25.142  36.083  1.00  0.00    -0.237 OA
ATOM     96  O   UNL A   1      45.107  23.420  35.900  1.00  0.00    -0.237 OA
ATOM     97  O   UNL A   1      45.734  25.789  36.054  1.00  0.00    -0.744 OA
ENDBRANCH  91  94
ENDBRANCH  64  87
ENDBRANCH  38  39
ENDBRANCH  31  33
ENDBRANCH  30  31
ENDBRANCH  29  30
ENDBRANCH  28  29
ENDBRANCH  27  28
ENDBRANCH  26  27
ENDBRANCH  25  26
ENDBRANCH   1  25
TORSDOF 26
ENDMDL
MODEL 2
REMARK VINA RESULT:      -9.6      1.568      2.532
REMARK SMILES CC[N@@H+](C)CCn1c(SCC(=O)OCCOCCOCCOC(=O)c2ccc(-c3c4nc(c(-c5cccc(S(=O)(=O)[O-])c5F)c5ccc([nH]5)c(-c5cccc(S(=O)(=O)[O-])c5F)c5nc(c(-c6cccc(S(=O)(=O)[O-])c6F)c6ccc3[nH]6)C=C5)C=C4)cc2)nc2cnccc21
REMARK SMILES IDX 16 1 15 2 14 3 13 4 11 5 12 6 10 7 9 8 8 9 7 10 94 11 88 12
REMARK SMILES IDX 89 13 93 14 90 15 92 16 91 17 6 18 5 19 3 20 4 21 2 23 1 24
REMARK SMILES IDX 17 25 18 26 19 27 20 28 21 29 22 30 23 31 24 32 25 33 26 34
REMARK SMILES IDX 87 35 27 36 86 37 28 38 29 39 30 40 80 41 31 42 85 43 79 44
REMARK SMILES IDX 81 45 32 46 84 47 78 48 77 49 33 51 65 52 45 53 64 54 46 55
REMARK SMILES IDX 49 56 63 57 82 58 47 59 48 60 62 62 83 63 50 64 34 65 35 66
REMARK SMILES IDX 43 67 36 68 38 69 44 70 37 71 39 72 40 73 41 74 42 75 66 76
REMARK SMILES IDX 67 77 75 78 68 79 70 80 76 81 69 82 71 83 72 84 73 85 74 86
REMARK SMILES IDX 51 87 52 88 60 89 53 90 55 91 61 92 54 93 56 94 57 95 58 96
REMARK SMILES IDX 59 97
REMARK H PARENT 3 22 81 50 49 61
REMARK Flexibility Score: inf
ROOT
ATOM      1  O   UNL A   1      39.704  22.278  27.028  1.00  0.00    -0.376 OA
ENDROOT
BRANCH   1   2
ATOM      2  C   UNL A   1      39.098  21.557  25.962  1.00  0.00     0.202 C 
BRANCH   2   3
ATOM      3  C   UNL A   1      37.754  22.119  25.484  1.00  0.00     0.261 C 
BRANCH   3   4
ATOM      4  O   UNL A   1      36.878  21.075  24.977  1.00  0.00    -0.463 OA
BRANCH   4   5
ATOM      5  C   UNL A   1      35.617  21.461  24.644  1.00  0.00     0.316 C 
ATOM      6  O   UNL A   1      34.660  20.691  24.700  1.00  0.00    -0.251 OA
BRANCH   5   7
ATOM      7  C   UNL A   1      35.416  22.929  24.279  1.00  0.00     0.200 C 
BRANCH   7   8
ATOM      8  S   UNL A   1      34.248  23.324  22.973  1.00  0.00    -0.076 SA
BRANCH   8   9
ATOM      9  C   UNL A   1      33.243  24.707  23.378  1.00  0.00     0.169 A 
ATOM     10  N   UNL A   1      32.076  24.724  24.112  1.00  0.00    -0.313 N 
ATOM     11  C   UNL A   1      32.077  25.879  24.878  1.00  0.00     0.072 A 
ATOM     12  N   UNL A   1      33.769  25.922  23.368  1.00  0.00    -0.221 NA
ATOM     13  C   UNL A   1      33.066  26.657  24.298  1.00  0.00     0.108 A 
ATOM     14  C   UNL A   1      31.318  26.321  25.966  1.00  0.00     0.049 A 
ATOM     15  C   UNL A   1      33.234  27.966  24.763  1.00  0.00     0.141 A 
ATOM     16  C   UNL A   1      31.583  27.616  26.380  1.00  0.00     0.113 A 
ATOM     17  N   UNL A   1      32.490  28.436  25.807  1.00  0.00    -0.262 NA
BRANCH  10  18
ATOM     18  C   UNL A   1      31.026  23.758  24.211  1.00  0.00     0.186 C 
BRANCH  18  19
ATOM     19  C   UNL A   1      31.241  22.565  25.134  1.00  0.00     0.284 C 
BRANCH  19  20
ATOM     20  N   UNL A   1      31.265  22.462  26.585  1.00  0.00    -0.336 N 
ATOM     21  C   UNL A   1      29.936  22.815  27.115  1.00  0.00     0.332 C 
ATOM     22  H   UNL A   1      31.510  21.483  26.729  1.00  0.00     0.347 HD
BRANCH  20  23
ATOM     23  C   UNL A   1      32.333  23.065  27.355  1.00  0.00     0.258 C 
ATOM     24  C   UNL A   1      33.389  22.031  27.722  1.00  0.00     0.071 C 
ENDBRANCH  20  23
ENDBRANCH  19  20
ENDBRANCH  18  19
ENDBRANCH  10  18
ENDBRANCH   8   9
ENDBRANCH   7   8
ENDBRANCH   5   7
ENDBRANCH   4   5
ENDBRANCH   3   4
ENDBRANCH   2   3
ENDBRANCH   1   2
BRANCH   1  25
ATOM     25  C   UNL A   1      40.869  21.696  27.579  1.00  0.00     0.188 C 
BRANCH  25  26
ATOM     26  C   UNL A   1      41.137  20.214  27.305  1.00  0.00     0.188 C 
BRANCH  26  27
ATOM     27  O   UNL A   1      42.434  19.895  26.864  1.00  0.00    -0.376 OA
BRANCH  27  28
ATOM     28  C   UNL A   1      42.593  19.065  25.728  1.00  0.00     0.202 C 
BRANCH  28  29
ATOM     29  C   UNL A   1      43.987  18.667  25.218  1.00  0.00     0.261 C 
BRANCH  29  30
ATOM     30  O   UNL A   1      44.955  19.735  25.295  1.00  0.00    -0.460 OA
BRANCH  30  31
ATOM     31  C   UNL A   1      44.919  20.588  24.231  1.00  0.00     0.338 C 
ATOM     32  O   UNL A   1      44.623  20.257  23.089  1.00  0.00    -0.246 OA
BRANCH  31  33
ATOM     33  C   UNL A   1      44.928  22.015  24.682  1.00  0.00     0.060 A 
ATOM     34  C   UNL A   1      45.987  22.650  25.351  1.00  0.00     0.016 A 
ATOM     35  C   UNL A   1      43.711  22.680  24.601  1.00  0.00     0.016 A 
ATOM     36  C   UNL A   1      45.755  23.802  26.144  1.00  0.00     0.010 A 
ATOM     37  C   UNL A   1      43.501  23.832  25.359  1.00  0.00     0.010 A 
ATOM     38  C   UNL A   1      44.477  24.356  26.232  1.00  0.00    -0.014 A 
BRANCH  38  39
ATOM     39  C   UNL A   1      44.079  25.498  27.115  1.00  0.00     0.031 A 
ATOM     40  C   UNL A   1      44.896  26.718  26.893  1.00  0.00     0.074 A 
ATOM     41  C   UNL A   1      42.994  25.691  27.918  1.00  0.00     0.049 A 
ATOM     42  N   UNL A   1      46.091  26.889  27.350  1.00  0.00    -0.248 NA
ATOM     43  C   UNL A   1      44.451  27.777  25.972  1.00  0.00     0.031 C 
ATOM     44  C   UNL A   1      41.824  24.830  28.129  1.00  0.00     0.029 A 
ATOM     45  N   UNL A   1      42.641  26.821  28.631  1.00  0.00    -0.354 N 
ATOM     46  C   UNL A   1      46.379  28.206  27.049  1.00  0.00     0.074 A 
ATOM     47  C   UNL A   1      45.525  28.572  25.947  1.00  0.00     0.031 C 
ATOM     48  C   UNL A   1      40.822  25.537  28.719  1.00  0.00     0.029 A 
ATOM     49  C   UNL A   1      41.327  26.841  29.117  1.00  0.00     0.049 A 
ATOM     50  H   UNL A   1      43.271  27.562  28.788  1.00  0.00     0.167 HD
ATOM     51  C   UNL A   1      46.957  29.028  27.965  1.00  0.00     0.034 A 
ATOM     52  C   UNL A   1      40.746  27.826  29.858  1.00  0.00     0.034 A 
ATOM     53  C   UNL A   1      47.182  28.360  29.224  1.00  0.00     0.049 A 
ATOM     54  C   UNL A   1      41.855  28.359  30.684  1.00  0.00     0.074 A 
ATOM     55  C   UNL A   1      47.866  27.240  29.649  1.00  0.00     0.029 A 
ATOM     56  N   UNL A   1      46.247  28.649  30.190  1.00  0.00    -0.354 N 
ATOM     57  N   UNL A   1      42.448  27.655  31.608  1.00  0.00    -0.248 NA
ATOM     58  C   UNL A   1      42.452  29.659  30.405  1.00  0.00     0.031 C 
ATOM     59  C   UNL A   1      47.128  26.721  30.753  1.00  0.00     0.029 A 
ATOM     60  C   UNL A   1      46.040  27.558  30.995  1.00  0.00     0.049 A 
ATOM     61  H   UNL A   1      45.792  29.516  30.290  1.00  0.00     0.167 HD
ATOM     62  C   UNL A   1      43.725  28.172  31.627  1.00  0.00     0.074 A 
ATOM     63  C   UNL A   1      43.593  29.514  31.084  1.00  0.00     0.031 C 
ATOM     64  C   UNL A   1      44.795  27.333  31.705  1.00  0.00     0.034 A 
BRANCH  51  65
ATOM     65  C   UNL A   1      46.936  30.524  27.889  1.00  0.00     0.023 A 
ATOM     66  C   UNL A   1      48.171  31.191  27.957  1.00  0.00     0.012 A 
ATOM     67  C   UNL A   1      45.762  31.306  27.913  1.00  0.00     0.148 A 
ATOM     68  C   UNL A   1      48.238  32.586  27.993  1.00  0.00     0.002 A 
ATOM     69  C   UNL A   1      45.835  32.690  27.846  1.00  0.00     0.091 A 
ATOM     70  F   UNL A   1      44.578  30.714  28.121  1.00  0.00    -0.205 F 
ATOM     71  C   UNL A   1      47.071  33.338  27.901  1.00  0.00     0.022 A 
BRANCH  69  72
ATOM     72  S   UNL A   1      44.360  33.686  27.615  1.00  0.00     0.127 S 
ATOM     73  O   UNL A   1      44.925  35.028  27.514  1.00  0.00    -0.237 OA
ATOM     74  O   UNL A   1      43.817  33.142  26.371  1.00  0.00    -0.237 OA
ATOM     75  O   UNL A   1      43.542  33.413  28.791  1.00  0.00    -0.744 OA
ENDBRANCH  69  72
ENDBRANCH  51  65
BRANCH  52  76
ATOM     76  C   UNL A   1      39.370  28.326  30.162  1.00  0.00     0.023 A 
ATOM     77  C   UNL A   1      39.068  28.722  31.492  1.00  0.00     0.012 A 
ATOM     78  C   UNL A   1      38.495  28.757  29.146  1.00  0.00     0.148 A 
ATOM     79  C   UNL A   1      38.008  29.584  31.790  1.00  0.00     0.002 A 
ATOM     80  C   UNL A   1      37.425  29.613  29.451  1.00  0.00     0.091 A 
ATOM     81  F   UNL A   1      38.767  28.414  27.879  1.00  0.00    -0.205 F 
ATOM     82  C   UNL A   1      37.195  30.046  30.766  1.00  0.00     0.022 A 
BRANCH  80  83
ATOM     83  S   UNL A   1      36.314  30.257  28.189  1.00  0.00     0.127 S 
ATOM     84  O   UNL A   1      37.170  30.294  27.001  1.00  0.00    -0.237 OA
ATOM     85  O   UNL A   1      35.269  29.238  28.153  1.00  0.00    -0.237 OA
ATOM     86  O   UNL A   1      35.913  31.570  28.677  1.00  0.00    -0.744 OA
ENDBRANCH  80  83
ENDBRANCH  52  76
BRANCH  64  87
ATOM     87  C   UNL A   1      44.577  25.975  32.332  1.00  0.00     0.023 A 
ATOM     88  C   UNL A   1      44.391  24.804  31.570  1.00  0.00     0.012 A 
ATOM     89  C   UNL A   1      44.673  25.863  33.728  1.00  0.00     0.148 A 
ATOM     90  C   UNL A   1      44.293  23.551  32.183  1.00  0.00     0.002 A 
ATOM     91  C   UNL A   1      44.617  24.612  34.333  1.00  0.00     0.091 A 
ATOM     92  F   UNL A   1      44.841  26.987  34.441  1.00  0.00    -0.205 F 
ATOM     93  C   UNL A   1      44.420  23.453  33.564  1.00  0.00     0.022 A 
BRANCH  91  94
ATOM     94  S   UNL A   1      44.868  24.394  36.095  1.00  0.00     0.127 S 
ATOM     95  O   UNL A   1      46.193  24.978  36.292  1.00  0.00    -0.237 OA
ATOM     96  O   UNL A   1      43.766  25.173  36.660  1.00  0.00    -0.237 OA
ATOM     97  O   UNL A   1      44.781  22.960  36.344  1.00  0.00    -0.744 OA
ENDBRANCH  91  94
ENDBRANCH  64  87
ENDBRANCH  38  39
ENDBRANCH  31  33
ENDBRANCH  30  31
ENDBRANCH  29  30
ENDBRANCH  28  29
ENDBRANCH  27  28
ENDBRANCH  26  27
ENDBRANCH  25  26
ENDBRANCH   1  25
TORSDOF 26
ENDMDL
MODEL 3
REMARK VINA RESULT:      -9.1      2.632      3.642
REMARK SMILES CC[N@@H+](C)CCn1c(SCC(=O)OCCOCCOCCOC(=O)c2ccc(-c3c4nc(c(-c5cccc(S(=O)(=O)[O-])c5F)c5ccc([nH]5)c(-c5cccc(S(=O)(=O)[O-])c5F)c5nc(c(-c6cccc(S(=O)(=O)[O-])c6F)c6ccc3[nH]6)C=C5)C=C4)cc2)nc2cnccc21
REMARK SMILES IDX 16 1 15 2 14 3 13 4 11 5 12 6 10 7 9 8 8 9 7 10 94 11 88 12
REMARK SMILES IDX 89 13 93 14 90 15 92 16 91 17 6 18 5 19 3 20 4 21 2 23 1 24
REMARK SMILES IDX 17 25 18 26 19 27 20 28 21 29 22 30 23 31 24 32 25 33 26 34
REMARK SMILES IDX 87 35 27 36 86 37 28 38 29 39 30 40 80 41 31 42 85 43 79 44
REMARK SMILES IDX 81 45 32 46 84 47 78 48 77 49 33 51 65 52 45 53 64 54 46 55
REMARK SMILES IDX 49 56 63 57 82 58 47 59 48 60 62 62 83 63 50 64 34 65 35 66
REMARK SMILES IDX 43 67 36 68 38 69 44 70 37 71 39 72 40 73 41 74 42 75 66 76
REMARK SMILES IDX 67 77 75 78 68 79 70 80 76 81 69 82 71 83 72 84 73 85 74 86
REMARK SMILES IDX 51 87 52 88 60 89 53 90 55 91 61 92 54 93 56 94 57 95 58 96
REMARK SMILES IDX 59 97
REMARK H PARENT 3 22 81 50 49 61
REMARK Flexibility Score: inf
ROOT
ATOM      1  O   UNL A   1      37.612  21.900  25.023  1.00  0.00    -0.376 OA
ENDROOT
BRANCH   1   2
ATOM      2  C   UNL A   1      36.357  21.792  25.684  1.00  0.00     0.202 C 
BRANCH   2   3
ATOM      3  C   UNL A   1      35.338  22.875  25.313  1.00  0.00     0.261 C 
BRANCH   3   4
ATOM      4  O   UNL A   1      34.188  22.323  24.615  1.00  0.00    -0.463 OA
BRANCH   4   5
ATOM      5  C   UNL A   1      33.195  21.822  25.397  1.00  0.00     0.316 C 
ATOM      6  O   UNL A   1      32.751  20.686  25.245  1.00  0.00    -0.251 OA
BRANCH   5   7
ATOM      7  C   UNL A   1      32.709  22.701  26.546  1.00  0.00     0.200 C 
BRANCH   7   8
ATOM      8  S   UNL A   1      31.548  24.020  26.170  1.00  0.00    -0.076 SA
BRANCH   8   9
ATOM      9  C   UNL A   1      32.254  25.611  26.409  1.00  0.00     0.169 A 
ATOM     10  N   UNL A   1      32.953  26.375  25.499  1.00  0.00    -0.313 N 
ATOM     11  C   UNL A   1      32.600  27.699  25.702  1.00  0.00     0.072 A 
ATOM     12  N   UNL A   1      31.791  26.393  27.370  1.00  0.00    -0.221 NA
ATOM     13  C   UNL A   1      31.987  27.689  26.945  1.00  0.00     0.108 A 
ATOM     14  C   UNL A   1      32.774  28.874  24.963  1.00  0.00     0.049 A 
ATOM     15  C   UNL A   1      31.623  28.916  27.512  1.00  0.00     0.141 A 
ATOM     16  C   UNL A   1      32.348  30.032  25.590  1.00  0.00     0.113 A 
ATOM     17  N   UNL A   1      31.804  30.082  26.826  1.00  0.00    -0.262 NA
BRANCH  10  18
ATOM     18  C   UNL A   1      33.842  25.988  24.447  1.00  0.00     0.186 C 
BRANCH  18  19
ATOM     19  C   UNL A   1      33.229  25.437  23.164  1.00  0.00     0.284 C 
BRANCH  19  20
ATOM     20  N   UNL A   1      33.242  25.938  21.799  1.00  0.00    -0.336 N 
ATOM     21  C   UNL A   1      33.613  27.364  21.813  1.00  0.00     0.332 C 
ATOM     22  H   UNL A   1      33.942  25.343  21.356  1.00  0.00     0.347 HD
BRANCH  20  23
ATOM     23  C   UNL A   1      32.138  25.674  20.900  1.00  0.00     0.258 C 
ATOM     24  C   UNL A   1      32.634  25.474  19.474  1.00  0.00     0.071 C 
ENDBRANCH  20  23
ENDBRANCH  19  20
ENDBRANCH  18  19
ENDBRANCH  10  18
ENDBRANCH   8   9
ENDBRANCH   7   8
ENDBRANCH   5   7
ENDBRANCH   4   5
ENDBRANCH   3   4
ENDBRANCH   2   3
ENDBRANCH   1   2
BRANCH   1  25
ATOM     25  C   UNL A   1      38.714  21.327  25.701  1.00  0.00     0.188 C 
BRANCH  25  26
ATOM     26  C   UNL A   1      39.615  22.248  26.526  1.00  0.00     0.188 C 
BRANCH  26  27
ATOM     27  O   UNL A   1      40.575  21.609  27.333  1.00  0.00    -0.376 OA
BRANCH  27  28
ATOM     28  C   UNL A   1      41.934  21.987  27.219  1.00  0.00     0.202 C 
BRANCH  28  29
ATOM     29  C   UNL A   1      42.786  21.553  26.016  1.00  0.00     0.261 C 
BRANCH  29  30
ATOM     30  O   UNL A   1      42.727  22.474  24.906  1.00  0.00    -0.460 OA
BRANCH  30  31
ATOM     31  C   UNL A   1      43.918  23.074  24.624  1.00  0.00     0.338 C 
ATOM     32  O   UNL A   1      44.695  22.696  23.755  1.00  0.00    -0.246 OA
BRANCH  31  33
ATOM     33  C   UNL A   1      43.998  24.436  25.241  1.00  0.00     0.060 A 
ATOM     34  C   UNL A   1      44.933  24.836  26.209  1.00  0.00     0.016 A 
ATOM     35  C   UNL A   1      42.933  25.284  24.967  1.00  0.00     0.016 A 
ATOM     36  C   UNL A   1      44.662  25.933  27.067  1.00  0.00     0.010 A 
ATOM     37  C   UNL A   1      42.691  26.380  25.795  1.00  0.00     0.010 A 
ATOM     38  C   UNL A   1      43.483  26.666  26.928  1.00  0.00    -0.014 A 
BRANCH  38  39
ATOM     39  C   UNL A   1      43.029  27.769  27.832  1.00  0.00     0.031 A 
ATOM     40  C   UNL A   1      43.714  29.058  27.567  1.00  0.00     0.074 A 
ATOM     41  C   UNL A   1      41.976  27.863  28.695  1.00  0.00     0.049 A 
ATOM     42  N   UNL A   1      44.912  29.343  27.958  1.00  0.00    -0.248 NA
ATOM     43  C   UNL A   1      43.123  30.068  26.673  1.00  0.00     0.031 C 
ATOM     44  C   UNL A   1      40.905  26.897  28.968  1.00  0.00     0.029 A 
ATOM     45  N   UNL A   1      41.559  28.958  29.426  1.00  0.00    -0.354 N 
ATOM     46  C   UNL A   1      45.059  30.679  27.643  1.00  0.00     0.074 A 
ATOM     47  C   UNL A   1      44.115  30.959  26.590  1.00  0.00     0.031 C 
ATOM     48  C   UNL A   1      39.875  27.511  29.613  1.00  0.00     0.029 A 
ATOM     49  C   UNL A   1      40.277  28.858  29.983  1.00  0.00     0.049 A 
ATOM     50  H   UNL A   1      42.124  29.755  29.549  1.00  0.00     0.167 HD
ATOM     51  C   UNL A   1      45.606  31.556  28.527  1.00  0.00     0.034 A 
ATOM     52  C   UNL A   1      39.648  29.787  30.757  1.00  0.00     0.034 A 
ATOM     53  C   UNL A   1      45.961  30.916  29.771  1.00  0.00     0.049 A 
ATOM     54  C   UNL A   1      40.746  30.425  31.521  1.00  0.00     0.074 A 
ATOM     55  C   UNL A   1      46.769  29.868  30.157  1.00  0.00     0.029 A 
ATOM     56  N   UNL A   1      45.058  31.121  30.787  1.00  0.00    -0.354 N 
ATOM     57  N   UNL A   1      41.452  29.783  32.411  1.00  0.00    -0.248 NA
ATOM     58  C   UNL A   1      41.203  31.773  31.211  1.00  0.00     0.031 C 
ATOM     59  C   UNL A   1      46.145  29.286  31.299  1.00  0.00     0.029 A 
ATOM     60  C   UNL A   1      44.998  30.019  31.601  1.00  0.00     0.049 A 
ATOM     61  H   UNL A   1      44.531  31.943  30.913  1.00  0.00     0.167 HD
ATOM     62  C   UNL A   1      42.674  30.417  32.360  1.00  0.00     0.074 A 
ATOM     63  C   UNL A   1      42.388  31.739  31.826  1.00  0.00     0.031 C 
ATOM     64  C   UNL A   1      43.821  29.682  32.378  1.00  0.00     0.034 A 
BRANCH  51  65
ATOM     65  C   UNL A   1      45.441  33.043  28.453  1.00  0.00     0.023 A 
ATOM     66  C   UNL A   1      46.612  33.822  28.440  1.00  0.00     0.012 A 
ATOM     67  C   UNL A   1      44.205  33.713  28.555  1.00  0.00     0.148 A 
ATOM     68  C   UNL A   1      46.551  35.217  28.472  1.00  0.00     0.002 A 
ATOM     69  C   UNL A   1      44.144  35.097  28.485  1.00  0.00     0.091 A 
ATOM     70  F   UNL A   1      43.097  33.015  28.841  1.00  0.00    -0.205 F 
ATOM     71  C   UNL A   1      45.316  35.857  28.459  1.00  0.00     0.022 A 
BRANCH  69  72
ATOM     72  S   UNL A   1      42.571  35.951  28.353  1.00  0.00     0.127 S 
ATOM     73  O   UNL A   1      42.138  35.563  27.015  1.00  0.00    -0.237 OA
ATOM     74  O   UNL A   1      41.810  35.359  29.453  1.00  0.00    -0.237 OA
ATOM     75  O   UNL A   1      42.898  37.359  28.547  1.00  0.00    -0.744 OA
ENDBRANCH  69  72
ENDBRANCH  51  65
BRANCH  52  76
ATOM     76  C   UNL A   1      38.250  30.158  31.136  1.00  0.00     0.023 A 
ATOM     77  C   UNL A   1      37.899  30.172  32.512  1.00  0.00     0.012 A 
ATOM     78  C   UNL A   1      37.392  30.831  30.245  1.00  0.00     0.148 A 
ATOM     79  C   UNL A   1      36.806  30.899  32.995  1.00  0.00     0.002 A 
ATOM     80  C   UNL A   1      36.290  31.550  30.732  1.00  0.00     0.091 A 
ATOM     81  F   UNL A   1      37.709  30.851  28.942  1.00  0.00    -0.205 F 
ATOM     82  C   UNL A   1      36.010  31.606  32.107  1.00  0.00     0.022 A 
BRANCH  80  83
ATOM     83  S   UNL A   1      35.197  32.490  29.653  1.00  0.00     0.127 S 
ATOM     84  O   UNL A   1      34.667  31.457  28.760  1.00  0.00    -0.237 OA
ATOM     85  O   UNL A   1      34.226  33.033  30.599  1.00  0.00    -0.237 OA
ATOM     86  O   UNL A   1      36.063  33.461  28.996  1.00  0.00    -0.744 OA
ENDBRANCH  80  83
ENDBRANCH  52  76
BRANCH  64  87
ATOM     87  C   UNL A   1      43.765  28.313  33.014  1.00  0.00     0.023 A 
ATOM     88  C   UNL A   1      43.663  27.124  32.262  1.00  0.00     0.012 A 
ATOM     89  C   UNL A   1      43.932  28.217  34.405  1.00  0.00     0.148 A 
ATOM     90  C   UNL A   1      43.715  25.871  32.879  1.00  0.00     0.002 A 
ATOM     91  C   UNL A   1      44.027  26.970  35.013  1.00  0.00     0.091 A 
ATOM     92  F   UNL A   1      44.020  29.355  35.109  1.00  0.00    -0.205 F 
ATOM     93  C   UNL A   1      43.911  25.793  34.254  1.00  0.00     0.022 A 
BRANCH  91  94
ATOM     94  S   UNL A   1      44.374  26.785  36.763  1.00  0.00     0.127 S 
ATOM     95  O   UNL A   1      44.467  25.334  36.906  1.00  0.00    -0.237 OA
ATOM     96  O   UNL A   1      45.645  27.496  36.899  1.00  0.00    -0.237 OA
ATOM     97  O   UNL A   1      43.258  27.405  37.467  1.00  0.00    -0.744 OA
ENDBRANCH  91  94
ENDBRANCH  64  87
ENDBRANCH  38  39
ENDBRANCH  31  33
ENDBRANCH  30  31
ENDBRANCH  29  30
ENDBRANCH  28  29
ENDBRANCH  27  28
ENDBRANCH  26  27
ENDBRANCH  25  26
ENDBRANCH   1  25
TORSDOF 26
ENDMDL
