MODEL 1
REMARK VINA RESULT:      -9.7      0.000      0.000
REMARK SMILES O=C(Cn1cnc2c(S)ncnc21)OCCOCCOCCOC(=O)c1ccc(-c2c3nc(c(-c4cccc(S(=O)(=O)[O-])c4F)c4ccc([nH]4)c(-c4cccc(S(=O)(=O)[O-])c4F)c4nc(c(-c5cccc(S(=O)(=O)[O-])c5F)c5ccc2[nH]5)C=C4)C=C3)cc1
REMARK SMILES IDX 19 1 18 2 17 3 16 4 15 5 14 6 2 7 1 8 3 9 4 10 5 11 13 12
REMARK SMILES IDX 6 13 7 14 12 15 8 16 11 17 10 18 9 19 20 21 21 22 22 23
REMARK SMILES IDX 23 24 24 25 25 26 26 27 27 28 88 29 28 30 87 31 29 32 30 33
REMARK SMILES IDX 31 34 81 35 32 36 86 37 80 38 82 39 33 40 85 41 79 42 78 43
REMARK SMILES IDX 34 45 66 46 46 47 65 48 47 49 50 50 64 51 83 52 48 53 49 54
REMARK SMILES IDX 63 56 84 57 51 58 35 59 36 60 44 61 37 62 39 63 45 64 38 65
REMARK SMILES IDX 40 66 41 67 42 68 43 69 67 70 68 71 76 72 69 73 71 74 77 75
REMARK SMILES IDX 70 76 72 77 73 78 74 79 75 80 52 81 53 82 61 83 54 84 56 85
REMARK SMILES IDX 62 86 55 87 57 88 58 89 59 90 60 91
REMARK H PARENT 9 20 82 44 50 55
REMARK Flexibility Score: inf
ROOT
ATOM      1  C   UNL A   1      35.216  20.681  24.989  1.00  0.00     0.188 C 
ENDROOT
BRANCH   1   2
ATOM      2  C   UNL A   1      33.769  21.155  24.750  1.00  0.00     0.188 C 
BRANCH   2   3
ATOM      3  O   UNL A   1      33.020  20.385  23.831  1.00  0.00    -0.376 OA
BRANCH   3   4
ATOM      4  C   UNL A   1      32.119  21.050  22.962  1.00  0.00     0.202 C 
BRANCH   4   5
ATOM      5  C   UNL A   1      32.241  22.568  22.821  1.00  0.00     0.261 C 
BRANCH   5   6
ATOM      6  O   UNL A   1      31.194  23.380  23.408  1.00  0.00    -0.462 OA
BRANCH   6   7
ATOM      7  C   UNL A   1      31.016  23.796  24.678  1.00  0.00     0.326 C 
ATOM      8  O   UNL A   1      30.596  22.999  25.519  1.00  0.00    -0.250 OA
BRANCH   7   9
ATOM      9  C   UNL A   1      31.176  25.247  25.036  1.00  0.00     0.247 C 
BRANCH   9  10
ATOM     10  N   UNL A   1      30.292  26.170  24.366  1.00  0.00    -0.304 N 
ATOM     11  C   UNL A   1      28.927  26.069  24.330  1.00  0.00     0.202 A 
ATOM     12  C   UNL A   1      30.641  27.303  23.696  1.00  0.00     0.164 A 
ATOM     13  N   UNL A   1      28.386  27.068  23.665  1.00  0.00    -0.232 NA
ATOM     14  C   UNL A   1      29.448  27.850  23.258  1.00  0.00     0.140 A 
ATOM     15  N   UNL A   1      31.880  27.765  23.477  1.00  0.00    -0.217 NA
ATOM     16  C   UNL A   1      29.570  29.030  22.523  1.00  0.00     0.124 A 
ATOM     17  C   UNL A   1      31.870  28.884  22.736  1.00  0.00     0.225 A 
ATOM     18  N   UNL A   1      30.797  29.543  22.256  1.00  0.00    -0.228 NA
BRANCH  16  19
ATOM     19  S   UNL A   1      28.151  29.881  21.934  1.00  0.00    -0.121 SA
ATOM     20  H   UNL A   1      27.620  29.203  20.881  1.00  0.00     0.110 HD
ENDBRANCH  16  19
ENDBRANCH   9  10
ENDBRANCH   7   9
ENDBRANCH   6   7
ENDBRANCH   5   6
ENDBRANCH   4   5
ENDBRANCH   3   4
ENDBRANCH   2   3
ENDBRANCH   1   2
BRANCH   1  21
ATOM     21  O   UNL A   1      36.046  21.330  25.945  1.00  0.00    -0.376 OA
BRANCH  21  22
ATOM     22  C   UNL A   1      37.041  22.272  25.557  1.00  0.00     0.202 C 
BRANCH  22  23
ATOM     23  C   UNL A   1      38.496  22.052  25.949  1.00  0.00     0.261 C 
BRANCH  23  24
ATOM     24  O   UNL A   1      39.026  23.156  26.667  1.00  0.00    -0.460 OA
BRANCH  24  25
ATOM     25  C   UNL A   1      40.261  22.967  27.172  1.00  0.00     0.338 C 
ATOM     26  O   UNL A   1      40.733  21.935  27.610  1.00  0.00    -0.246 OA
BRANCH  25  27
ATOM     27  C   UNL A   1      40.976  24.248  27.182  1.00  0.00     0.060 A 
ATOM     28  C   UNL A   1      41.913  24.423  28.203  1.00  0.00     0.016 A 
ATOM     29  C   UNL A   1      40.498  25.313  26.408  1.00  0.00     0.016 A 
ATOM     30  C   UNL A   1      42.159  25.702  28.639  1.00  0.00     0.010 A 
ATOM     31  C   UNL A   1      40.730  26.589  26.854  1.00  0.00     0.010 A 
ATOM     32  C   UNL A   1      41.462  26.747  28.028  1.00  0.00    -0.014 A 
BRANCH  32  33
ATOM     33  C   UNL A   1      41.422  28.010  28.725  1.00  0.00     0.031 A 
ATOM     34  C   UNL A   1      42.432  28.985  28.292  1.00  0.00     0.074 A 
ATOM     35  C   UNL A   1      40.461  28.266  29.633  1.00  0.00     0.049 A 
ATOM     36  N   UNL A   1      43.437  29.431  28.968  1.00  0.00    -0.248 NA
ATOM     37  C   UNL A   1      42.402  29.406  26.885  1.00  0.00     0.031 C 
ATOM     38  C   UNL A   1      39.245  27.486  29.894  1.00  0.00     0.029 A 
ATOM     39  N   UNL A   1      40.297  29.370  30.408  1.00  0.00    -0.354 N 
ATOM     40  C   UNL A   1      44.037  30.369  28.138  1.00  0.00     0.074 A 
ATOM     41  C   UNL A   1      43.496  30.163  26.820  1.00  0.00     0.031 C 
ATOM     42  C   UNL A   1      38.362  28.266  30.556  1.00  0.00     0.029 A 
ATOM     43  C   UNL A   1      38.999  29.532  30.873  1.00  0.00     0.049 A 
ATOM     44  H   UNL A   1      41.028  29.995  30.618  1.00  0.00     0.167 HD
ATOM     45  C   UNL A   1      44.734  31.421  28.640  1.00  0.00     0.034 A 
ATOM     46  C   UNL A   1      38.474  30.673  31.376  1.00  0.00     0.034 A 
ATOM     47  C   UNL A   1      45.064  31.242  30.027  1.00  0.00     0.049 A 
ATOM     48  C   UNL A   1      39.606  31.538  31.785  1.00  0.00     0.074 A 
ATOM     49  C   UNL A   1      45.795  30.322  30.750  1.00  0.00     0.029 A 
ATOM     50  N   UNL A   1      44.300  31.930  30.936  1.00  0.00    -0.354 N 
ATOM     51  N   UNL A   1      40.411  31.270  32.775  1.00  0.00    -0.248 NA
ATOM     52  C   UNL A   1      40.087  32.539  30.845  1.00  0.00     0.031 C 
ATOM     53  C   UNL A   1      45.125  30.216  32.003  1.00  0.00     0.029 A 
ATOM     54  C   UNL A   1      44.037  31.092  31.987  1.00  0.00     0.049 A 
ATOM     55  H   UNL A   1      43.995  32.862  30.849  1.00  0.00     0.167 HD
ATOM     56  C   UNL A   1      41.653  31.723  32.348  1.00  0.00     0.074 A 
ATOM     57  C   UNL A   1      41.364  32.613  31.228  1.00  0.00     0.031 C 
ATOM     58  C   UNL A   1      42.804  31.106  32.750  1.00  0.00     0.034 A 
BRANCH  45  59
ATOM     59  C   UNL A   1      44.824  32.763  27.968  1.00  0.00     0.023 A 
ATOM     60  C   UNL A   1      46.057  33.122  27.387  1.00  0.00     0.012 A 
ATOM     61  C   UNL A   1      43.847  33.777  28.085  1.00  0.00     0.148 A 
ATOM     62  C   UNL A   1      46.308  34.429  26.955  1.00  0.00     0.002 A 
ATOM     63  C   UNL A   1      44.062  35.045  27.562  1.00  0.00     0.091 A 
ATOM     64  F   UNL A   1      42.754  33.574  28.829  1.00  0.00    -0.205 F 
ATOM     65  C   UNL A   1      45.302  35.386  27.022  1.00  0.00     0.022 A 
BRANCH  63  66
ATOM     66  S   UNL A   1      42.752  36.273  27.545  1.00  0.00     0.127 S 
ATOM     67  O   UNL A   1      43.383  37.369  26.819  1.00  0.00    -0.237 OA
ATOM     68  O   UNL A   1      41.691  35.575  26.817  1.00  0.00    -0.237 OA
ATOM     69  O   UNL A   1      42.443  36.517  28.949  1.00  0.00    -0.744 OA
ENDBRANCH  63  66
ENDBRANCH  45  59
BRANCH  46  70
ATOM     70  C   UNL A   1      37.094  31.197  31.266  1.00  0.00     0.023 A 
ATOM     71  C   UNL A   1      36.444  31.665  32.425  1.00  0.00     0.012 A 
ATOM     72  C   UNL A   1      36.521  31.505  30.010  1.00  0.00     0.148 A 
ATOM     73  C   UNL A   1      35.289  32.451  32.336  1.00  0.00     0.002 A 
ATOM     74  C   UNL A   1      35.368  32.279  29.928  1.00  0.00     0.091 A 
ATOM     75  F   UNL A   1      37.160  31.126  28.895  1.00  0.00    -0.205 F 
ATOM     76  C   UNL A   1      34.757  32.766  31.089  1.00  0.00     0.022 A 
BRANCH  74  77
ATOM     77  S   UNL A   1      34.641  32.746  28.350  1.00  0.00     0.127 S 
ATOM     78  O   UNL A   1      34.138  31.464  27.856  1.00  0.00    -0.237 OA
ATOM     79  O   UNL A   1      33.607  33.691  28.765  1.00  0.00    -0.237 OA
ATOM     80  O   UNL A   1      35.731  33.304  27.560  1.00  0.00    -0.744 OA
ENDBRANCH  74  77
ENDBRANCH  46  70
BRANCH  58  81
ATOM     81  C   UNL A   1      42.725  30.121  33.893  1.00  0.00     0.023 A 
ATOM     82  C   UNL A   1      42.239  28.809  33.714  1.00  0.00     0.012 A 
ATOM     83  C   UNL A   1      43.335  30.457  35.115  1.00  0.00     0.148 A 
ATOM     84  C   UNL A   1      42.340  27.860  34.735  1.00  0.00     0.002 A 
ATOM     85  C   UNL A   1      43.483  29.495  36.108  1.00  0.00     0.091 A 
ATOM     86  F   UNL A   1      43.797  31.707  35.271  1.00  0.00    -0.205 F 
ATOM     87  C   UNL A   1      42.977  28.199  35.926  1.00  0.00     0.022 A 
BRANCH  85  88
ATOM     88  S   UNL A   1      44.425  29.821  37.601  1.00  0.00     0.127 S 
ATOM     89  O   UNL A   1      45.686  30.329  37.063  1.00  0.00    -0.237 OA
ATOM     90  O   UNL A   1      43.603  30.823  38.281  1.00  0.00    -0.237 OA
ATOM     91  O   UNL A   1      44.510  28.547  38.306  1.00  0.00    -0.744 OA
ENDBRANCH  85  88
ENDBRANCH  58  81
ENDBRANCH  32  33
ENDBRANCH  25  27
ENDBRANCH  24  25
ENDBRANCH  23  24
ENDBRANCH  22  23
ENDBRANCH  21  22
ENDBRANCH   1  21
TORSDOF 22
ENDMDL
MODEL 2
REMARK VINA RESULT:      -9.7      2.048      2.642
REMARK SMILES O=C(Cn1cnc2c(S)ncnc21)OCCOCCOCCOC(=O)c1ccc(-c2c3nc(c(-c4cccc(S(=O)(=O)[O-])c4F)c4ccc([nH]4)c(-c4cccc(S(=O)(=O)[O-])c4F)c4nc(c(-c5cccc(S(=O)(=O)[O-])c5F)c5ccc2[nH]5)C=C4)C=C3)cc1
REMARK SMILES IDX 19 1 18 2 17 3 16 4 15 5 14 6 2 7 1 8 3 9 4 10 5 11 13 12
REMARK SMILES IDX 6 13 7 14 12 15 8 16 11 17 10 18 9 19 20 21 21 22 22 23
REMARK SMILES IDX 23 24 24 25 25 26 26 27 27 28 88 29 28 30 87 31 29 32 30 33
REMARK SMILES IDX 31 34 81 35 32 36 86 37 80 38 82 39 33 40 85 41 79 42 78 43
REMARK SMILES IDX 34 45 66 46 46 47 65 48 47 49 50 50 64 51 83 52 48 53 49 54
REMARK SMILES IDX 63 56 84 57 51 58 35 59 36 60 44 61 37 62 39 63 45 64 38 65
REMARK SMILES IDX 40 66 41 67 42 68 43 69 67 70 68 71 76 72 69 73 71 74 77 75
REMARK SMILES IDX 70 76 72 77 73 78 74 79 75 80 52 81 53 82 61 83 54 84 56 85
REMARK SMILES IDX 62 86 55 87 57 88 58 89 59 90 60 91
REMARK H PARENT 9 20 82 44 50 55
REMARK Flexibility Score: inf
ROOT
ATOM      1  C   UNL A   1      36.769  22.765  24.968  1.00  0.00     0.188 C 
ENDROOT
BRANCH   1   2
ATOM      2  C   UNL A   1      35.740  21.617  24.985  1.00  0.00     0.188 C 
BRANCH   2   3
ATOM      3  O   UNL A   1      35.300  21.212  26.266  1.00  0.00    -0.376 OA
BRANCH   3   4
ATOM      4  C   UNL A   1      33.930  21.368  26.595  1.00  0.00     0.202 C 
BRANCH   4   5
ATOM      5  C   UNL A   1      33.453  22.745  27.062  1.00  0.00     0.261 C 
BRANCH   5   6
ATOM      6  O   UNL A   1      32.070  23.093  26.808  1.00  0.00    -0.462 OA
BRANCH   6   7
ATOM      7  C   UNL A   1      31.230  22.694  25.831  1.00  0.00     0.326 C 
ATOM      8  O   UNL A   1      30.239  22.023  26.126  1.00  0.00    -0.250 OA
BRANCH   7   9
ATOM      9  C   UNL A   1      31.573  22.927  24.387  1.00  0.00     0.247 C 
BRANCH   9  10
ATOM     10  N   UNL A   1      32.186  24.195  24.074  1.00  0.00    -0.304 N 
ATOM     11  C   UNL A   1      33.508  24.380  23.772  1.00  0.00     0.202 A 
ATOM     12  C   UNL A   1      31.568  25.407  23.986  1.00  0.00     0.164 A 
ATOM     13  N   UNL A   1      33.772  25.642  23.508  1.00  0.00    -0.232 NA
ATOM     14  C   UNL A   1      32.566  26.301  23.640  1.00  0.00     0.140 A 
ATOM     15  N   UNL A   1      30.277  25.676  24.223  1.00  0.00    -0.217 NA
ATOM     16  C   UNL A   1      32.155  27.627  23.507  1.00  0.00     0.124 A 
ATOM     17  C   UNL A   1      30.010  26.986  24.093  1.00  0.00     0.225 A 
ATOM     18  N   UNL A   1      30.864  27.968  23.745  1.00  0.00    -0.228 NA
BRANCH  16  19
ATOM     19  S   UNL A   1      33.286  28.882  23.025  1.00  0.00    -0.121 SA
ATOM     20  H   UNL A   1      32.913  29.390  21.819  1.00  0.00     0.110 HD
ENDBRANCH  16  19
ENDBRANCH   9  10
ENDBRANCH   7   9
ENDBRANCH   6   7
ENDBRANCH   5   6
ENDBRANCH   4   5
ENDBRANCH   3   4
ENDBRANCH   2   3
ENDBRANCH   1   2
BRANCH   1  21
ATOM     21  O   UNL A   1      37.874  22.766  25.863  1.00  0.00    -0.376 OA
BRANCH  21  22
ATOM     22  C   UNL A   1      38.936  21.826  25.743  1.00  0.00     0.202 C 
BRANCH  22  23
ATOM     23  C   UNL A   1      39.947  21.666  26.871  1.00  0.00     0.261 C 
BRANCH  23  24
ATOM     24  O   UNL A   1      40.145  22.877  27.584  1.00  0.00    -0.460 OA
BRANCH  24  25
ATOM     25  C   UNL A   1      41.387  23.053  28.076  1.00  0.00     0.338 C 
ATOM     26  O   UNL A   1      42.075  22.236  28.660  1.00  0.00    -0.246 OA
BRANCH  25  27
ATOM     27  C   UNL A   1      41.797  24.444  27.858  1.00  0.00     0.060 A 
ATOM     28  C   UNL A   1      42.871  24.898  28.628  1.00  0.00     0.016 A 
ATOM     29  C   UNL A   1      40.948  25.314  27.162  1.00  0.00     0.016 A 
ATOM     30  C   UNL A   1      42.925  26.237  28.931  1.00  0.00     0.010 A 
ATOM     31  C   UNL A   1      40.992  26.648  27.479  1.00  0.00     0.010 A 
ATOM     32  C   UNL A   1      41.906  27.060  28.445  1.00  0.00    -0.014 A 
BRANCH  32  33
ATOM     33  C   UNL A   1      41.748  28.351  29.069  1.00  0.00     0.031 A 
ATOM     34  C   UNL A   1      42.709  29.371  28.627  1.00  0.00     0.074 A 
ATOM     35  C   UNL A   1      40.729  28.586  29.919  1.00  0.00     0.049 A 
ATOM     36  N   UNL A   1      43.647  29.922  29.321  1.00  0.00    -0.248 NA
ATOM     37  C   UNL A   1      42.717  29.715  27.199  1.00  0.00     0.031 C 
ATOM     38  C   UNL A   1      39.558  27.736  30.168  1.00  0.00     0.029 A 
ATOM     39  N   UNL A   1      40.453  29.714  30.623  1.00  0.00    -0.354 N 
ATOM     40  C   UNL A   1      44.220  30.855  28.468  1.00  0.00     0.074 A 
ATOM     41  C   UNL A   1      43.758  30.543  27.141  1.00  0.00     0.031 C 
ATOM     42  C   UNL A   1      38.593  28.485  30.747  1.00  0.00     0.029 A 
ATOM     43  C   UNL A   1      39.126  29.807  31.021  1.00  0.00     0.049 A 
ATOM     44  H   UNL A   1      41.129  30.399  30.830  1.00  0.00     0.167 HD
ATOM     45  C   UNL A   1      44.820  31.978  28.941  1.00  0.00     0.034 A 
ATOM     46  C   UNL A   1      38.502  30.934  31.437  1.00  0.00     0.034 A 
ATOM     47  C   UNL A   1      45.094  31.896  30.349  1.00  0.00     0.049 A 
ATOM     48  C   UNL A   1      39.552  31.897  31.847  1.00  0.00     0.074 A 
ATOM     49  C   UNL A   1      45.851  31.068  31.153  1.00  0.00     0.029 A 
ATOM     50  N   UNL A   1      44.243  32.574  31.184  1.00  0.00    -0.354 N 
ATOM     51  N   UNL A   1      40.325  31.737  32.884  1.00  0.00    -0.248 NA
ATOM     52  C   UNL A   1      40.008  32.878  30.875  1.00  0.00     0.031 C 
ATOM     53  C   UNL A   1      45.131  30.981  32.380  1.00  0.00     0.029 A 
ATOM     54  C   UNL A   1      43.988  31.776  32.268  1.00  0.00     0.049 A 
ATOM     55  H   UNL A   1      43.879  33.476  31.033  1.00  0.00     0.167 HD
ATOM     56  C   UNL A   1      41.552  32.254  32.488  1.00  0.00     0.074 A 
ATOM     57  C   UNL A   1      41.257  33.062  31.309  1.00  0.00     0.031 C 
ATOM     58  C   UNL A   1      42.722  31.742  32.974  1.00  0.00     0.034 A 
BRANCH  45  59
ATOM     59  C   UNL A   1      44.849  33.287  28.201  1.00  0.00     0.023 A 
ATOM     60  C   UNL A   1      43.616  33.919  27.942  1.00  0.00     0.012 A 
ATOM     61  C   UNL A   1      45.989  33.803  27.544  1.00  0.00     0.148 A 
ATOM     62  C   UNL A   1      43.522  35.003  27.063  1.00  0.00     0.002 A 
ATOM     63  C   UNL A   1      45.908  34.942  26.754  1.00  0.00     0.091 A 
ATOM     64  F   UNL A   1      47.139  33.119  27.557  1.00  0.00    -0.205 F 
ATOM     65  C   UNL A   1      44.672  35.529  26.485  1.00  0.00     0.022 A 
BRANCH  63  66
ATOM     66  S   UNL A   1      47.386  35.703  26.074  1.00  0.00     0.127 S 
ATOM     67  O   UNL A   1      48.273  35.712  27.231  1.00  0.00    -0.237 OA
ATOM     68  O   UNL A   1      47.753  34.759  25.017  1.00  0.00    -0.237 OA
ATOM     69  O   UNL A   1      46.948  37.003  25.579  1.00  0.00    -0.744 OA
ENDBRANCH  63  66
ENDBRANCH  45  59
BRANCH  46  70
ATOM     70  C   UNL A   1      37.096  31.352  31.237  1.00  0.00     0.023 A 
ATOM     71  C   UNL A   1      36.343  31.778  32.350  1.00  0.00     0.012 A 
ATOM     72  C   UNL A   1      36.580  31.609  29.946  1.00  0.00     0.148 A 
ATOM     73  C   UNL A   1      35.141  32.474  32.183  1.00  0.00     0.002 A 
ATOM     74  C   UNL A   1      35.381  32.294  29.786  1.00  0.00     0.091 A 
ATOM     75  F   UNL A   1      37.313  31.271  28.876  1.00  0.00    -0.205 F 
ATOM     76  C   UNL A   1      34.664  32.741  30.903  1.00  0.00     0.022 A 
BRANCH  74  77
ATOM     77  S   UNL A   1      34.719  32.696  28.162  1.00  0.00     0.127 S 
ATOM     78  O   UNL A   1      33.538  33.490  28.503  1.00  0.00    -0.237 OA
ATOM     79  O   UNL A   1      35.817  33.456  27.570  1.00  0.00    -0.237 OA
ATOM     80  O   UNL A   1      34.417  31.419  27.528  1.00  0.00    -0.744 OA
ENDBRANCH  74  77
ENDBRANCH  46  70
BRANCH  58  81
ATOM     81  C   UNL A   1      42.656  30.814  34.164  1.00  0.00     0.023 A 
ATOM     82  C   UNL A   1      42.669  31.299  35.489  1.00  0.00     0.012 A 
ATOM     83  C   UNL A   1      42.376  29.454  33.944  1.00  0.00     0.148 A 
ATOM     84  C   UNL A   1      42.428  30.446  36.568  1.00  0.00     0.002 A 
ATOM     85  C   UNL A   1      42.083  28.619  35.017  1.00  0.00     0.091 A 
ATOM     86  F   UNL A   1      42.363  29.005  32.679  1.00  0.00    -0.205 F 
ATOM     87  C   UNL A   1      42.119  29.109  36.331  1.00  0.00     0.022 A 
BRANCH  85  88
ATOM     88  S   UNL A   1      41.530  26.929  34.770  1.00  0.00     0.127 S 
ATOM     89  O   UNL A   1      41.155  26.528  36.124  1.00  0.00    -0.237 OA
ATOM     90  O   UNL A   1      40.405  27.096  33.849  1.00  0.00    -0.237 OA
ATOM     91  O   UNL A   1      42.665  26.217  34.195  1.00  0.00    -0.744 OA
ENDBRANCH  85  88
ENDBRANCH  58  81
ENDBRANCH  32  33
ENDBRANCH  25  27
ENDBRANCH  24  25
ENDBRANCH  23  24
ENDBRANCH  22  23
ENDBRANCH  21  22
ENDBRANCH   1  21
TORSDOF 22
ENDMDL
MODEL 3
REMARK VINA RESULT:      -9.6      2.025      2.830
REMARK SMILES O=C(Cn1cnc2c(S)ncnc21)OCCOCCOCCOC(=O)c1ccc(-c2c3nc(c(-c4cccc(S(=O)(=O)[O-])c4F)c4ccc([nH]4)c(-c4cccc(S(=O)(=O)[O-])c4F)c4nc(c(-c5cccc(S(=O)(=O)[O-])c5F)c5ccc2[nH]5)C=C4)C=C3)cc1
REMARK SMILES IDX 19 1 18 2 17 3 16 4 15 5 14 6 2 7 1 8 3 9 4 10 5 11 13 12
REMARK SMILES IDX 6 13 7 14 12 15 8 16 11 17 10 18 9 19 20 21 21 22 22 23
REMARK SMILES IDX 23 24 24 25 25 26 26 27 27 28 88 29 28 30 87 31 29 32 30 33
REMARK SMILES IDX 31 34 81 35 32 36 86 37 80 38 82 39 33 40 85 41 79 42 78 43
REMARK SMILES IDX 34 45 66 46 46 47 65 48 47 49 50 50 64 51 83 52 48 53 49 54
REMARK SMILES IDX 63 56 84 57 51 58 35 59 36 60 44 61 37 62 39 63 45 64 38 65
REMARK SMILES IDX 40 66 41 67 42 68 43 69 67 70 68 71 76 72 69 73 71 74 77 75
REMARK SMILES IDX 70 76 72 77 73 78 74 79 75 80 52 81 53 82 61 83 54 84 56 85
REMARK SMILES IDX 62 86 55 87 57 88 58 89 59 90 60 91
REMARK H PARENT 9 20 82 44 50 55
REMARK Flexibility Score: inf
ROOT
ATOM      1  C   UNL A   1      38.522  21.885  25.367  1.00  0.00     0.188 C 
ENDROOT
BRANCH   1   2
ATOM      2  C   UNL A   1      37.649  22.959  26.046  1.00  0.00     0.188 C 
BRANCH   2   3
ATOM      3  O   UNL A   1      36.268  22.899  25.751  1.00  0.00    -0.376 OA
BRANCH   3   4
ATOM      4  C   UNL A   1      35.506  21.827  26.280  1.00  0.00     0.202 C 
BRANCH   4   5
ATOM      5  C   UNL A   1      34.047  21.694  25.838  1.00  0.00     0.261 C 
BRANCH   5   6
ATOM      6  O   UNL A   1      33.799  21.245  24.483  1.00  0.00    -0.462 OA
BRANCH   6   7
ATOM      7  C   UNL A   1      32.836  21.595  23.606  1.00  0.00     0.326 C 
ATOM      8  O   UNL A   1      31.974  20.770  23.298  1.00  0.00    -0.250 OA
BRANCH   7   9
ATOM      9  C   UNL A   1      32.897  22.915  22.892  1.00  0.00     0.247 C 
BRANCH   9  10
ATOM     10  N   UNL A   1      33.081  24.081  23.723  1.00  0.00    -0.304 N 
ATOM     11  C   UNL A   1      34.189  24.884  23.720  1.00  0.00     0.202 A 
ATOM     12  C   UNL A   1      32.192  24.605  24.612  1.00  0.00     0.164 A 
ATOM     13  N   UNL A   1      34.063  25.885  24.566  1.00  0.00    -0.232 NA
ATOM     14  C   UNL A   1      32.816  25.723  25.136  1.00  0.00     0.140 A 
ATOM     15  N   UNL A   1      30.986  24.116  24.936  1.00  0.00    -0.217 NA
ATOM     16  C   UNL A   1      32.080  26.420  26.095  1.00  0.00     0.124 A 
ATOM     17  C   UNL A   1      30.390  24.852  25.887  1.00  0.00     0.225 A 
ATOM     18  N   UNL A   1      30.858  25.970  26.475  1.00  0.00    -0.228 NA
BRANCH  16  19
ATOM     19  S   UNL A   1      32.706  27.890  26.825  1.00  0.00    -0.121 SA
ATOM     20  H   UNL A   1      33.937  28.161  26.316  1.00  0.00     0.110 HD
ENDBRANCH  16  19
ENDBRANCH   9  10
ENDBRANCH   7   9
ENDBRANCH   6   7
ENDBRANCH   5   6
ENDBRANCH   4   5
ENDBRANCH   3   4
ENDBRANCH   2   3
ENDBRANCH   1   2
BRANCH   1  21
ATOM     21  O   UNL A   1      39.405  21.074  26.133  1.00  0.00    -0.376 OA
BRANCH  21  22
ATOM     22  C   UNL A   1      40.571  21.611  26.748  1.00  0.00     0.202 C 
BRANCH  22  23
ATOM     23  C   UNL A   1      41.896  21.621  25.999  1.00  0.00     0.261 C 
BRANCH  23  24
ATOM     24  O   UNL A   1      42.796  22.587  26.521  1.00  0.00    -0.460 OA
BRANCH  24  25
ATOM     25  C   UNL A   1      42.557  23.856  26.135  1.00  0.00     0.338 C 
ATOM     26  O   UNL A   1      42.847  24.374  25.073  1.00  0.00    -0.246 OA
BRANCH  25  27
ATOM     27  C   UNL A   1      41.925  24.582  27.241  1.00  0.00     0.060 A 
ATOM     28  C   UNL A   1      40.776  25.312  26.924  1.00  0.00     0.016 A 
ATOM     29  C   UNL A   1      42.629  24.769  28.438  1.00  0.00     0.016 A 
ATOM     30  C   UNL A   1      40.494  26.427  27.674  1.00  0.00     0.010 A 
ATOM     31  C   UNL A   1      42.358  25.893  29.176  1.00  0.00     0.010 A 
ATOM     32  C   UNL A   1      41.370  26.758  28.710  1.00  0.00    -0.014 A 
BRANCH  32  33
ATOM     33  C   UNL A   1      41.300  28.102  29.230  1.00  0.00     0.031 A 
ATOM     34  C   UNL A   1      42.270  29.039  28.647  1.00  0.00     0.074 A 
ATOM     35  C   UNL A   1      40.345  28.451  30.114  1.00  0.00     0.049 A 
ATOM     36  N   UNL A   1      43.270  29.604  29.236  1.00  0.00    -0.248 NA
ATOM     37  C   UNL A   1      42.204  29.263  27.197  1.00  0.00     0.031 C 
ATOM     38  C   UNL A   1      39.160  27.676  30.503  1.00  0.00     0.029 A 
ATOM     39  N   UNL A   1      40.156  29.644  30.734  1.00  0.00    -0.354 N 
ATOM     40  C   UNL A   1      43.825  30.438  28.274  1.00  0.00     0.074 A 
ATOM     41  C   UNL A   1      43.270  30.037  27.007  1.00  0.00     0.031 C 
ATOM     42  C   UNL A   1      38.262  28.512  31.070  1.00  0.00     0.029 A 
ATOM     43  C   UNL A   1      38.861  29.828  31.199  1.00  0.00     0.049 A 
ATOM     44  H   UNL A   1      40.870  30.315  30.842  1.00  0.00     0.167 HD
ATOM     45  C   UNL A   1      44.495  31.569  28.614  1.00  0.00     0.034 A 
ATOM     46  C   UNL A   1      38.307  31.011  31.552  1.00  0.00     0.034 A 
ATOM     47  C   UNL A   1      44.852  31.592  30.006  1.00  0.00     0.049 A 
ATOM     48  C   UNL A   1      39.417  31.958  31.817  1.00  0.00     0.074 A 
ATOM     49  C   UNL A   1      45.625  30.802  30.832  1.00  0.00     0.029 A 
ATOM     50  N   UNL A   1      44.081  32.374  30.828  1.00  0.00    -0.354 N 
ATOM     51  N   UNL A   1      40.245  31.852  32.817  1.00  0.00    -0.248 NA
ATOM     52  C   UNL A   1      39.849  32.835  30.739  1.00  0.00     0.031 C 
ATOM     53  C   UNL A   1      44.979  30.848  32.101  1.00  0.00     0.029 A 
ATOM     54  C   UNL A   1      43.862  31.680  31.988  1.00  0.00     0.049 A 
ATOM     55  H   UNL A   1      43.743  33.275  30.621  1.00  0.00     0.167 HD
ATOM     56  C   UNL A   1      41.465  32.280  32.308  1.00  0.00     0.074 A 
ATOM     57  C   UNL A   1      41.129  33.000  31.083  1.00  0.00     0.031 C 
ATOM     58  C   UNL A   1      42.642  31.760  32.767  1.00  0.00     0.034 A 
BRANCH  45  59
ATOM     59  C   UNL A   1      44.529  32.809  27.764  1.00  0.00     0.023 A 
ATOM     60  C   UNL A   1      45.585  32.937  26.838  1.00  0.00     0.012 A 
ATOM     61  C   UNL A   1      43.728  33.951  27.991  1.00  0.00     0.148 A 
ATOM     62  C   UNL A   1      45.836  34.146  26.180  1.00  0.00     0.002 A 
ATOM     63  C   UNL A   1      43.916  35.116  27.261  1.00  0.00     0.091 A 
ATOM     64  F   UNL A   1      42.867  33.974  29.014  1.00  0.00    -0.205 F 
ATOM     65  C   UNL A   1      44.988  35.230  26.375  1.00  0.00     0.022 A 
BRANCH  63  66
ATOM     66  S   UNL A   1      42.781  36.499  27.417  1.00  0.00     0.127 S 
ATOM     67  O   UNL A   1      42.912  36.831  28.831  1.00  0.00    -0.237 OA
ATOM     68  O   UNL A   1      43.363  37.474  26.493  1.00  0.00    -0.237 OA
ATOM     69  O   UNL A   1      41.488  35.978  26.988  1.00  0.00    -0.744 OA
ENDBRANCH  63  66
ENDBRANCH  45  59
BRANCH  46  70
ATOM     70  C   UNL A   1      36.908  31.472  31.400  1.00  0.00     0.023 A 
ATOM     71  C   UNL A   1      36.244  32.024  32.513  1.00  0.00     0.012 A 
ATOM     72  C   UNL A   1      36.324  31.640  30.123  1.00  0.00     0.148 A 
ATOM     73  C   UNL A   1      35.061  32.756  32.356  1.00  0.00     0.002 A 
ATOM     74  C   UNL A   1      35.144  32.360  29.974  1.00  0.00     0.091 A 
ATOM     75  F   UNL A   1      36.974  31.180  29.046  1.00  0.00    -0.205 F 
ATOM     76  C   UNL A   1      34.516  32.933  31.087  1.00  0.00     0.022 A 
BRANCH  74  77
ATOM     77  S   UNL A   1      34.398  32.650  28.363  1.00  0.00     0.127 S 
ATOM     78  O   UNL A   1      33.387  33.662  28.673  1.00  0.00    -0.237 OA
ATOM     79  O   UNL A   1      35.536  33.140  27.589  1.00  0.00    -0.237 OA
ATOM     80  O   UNL A   1      33.850  31.367  27.942  1.00  0.00    -0.744 OA
ENDBRANCH  74  77
ENDBRANCH  46  70
BRANCH  58  81
ATOM     81  C   UNL A   1      42.614  30.938  34.034  1.00  0.00     0.023 A 
ATOM     82  C   UNL A   1      42.624  31.537  35.312  1.00  0.00     0.012 A 
ATOM     83  C   UNL A   1      42.372  29.556  33.936  1.00  0.00     0.148 A 
ATOM     84  C   UNL A   1      42.418  30.774  36.464  1.00  0.00     0.002 A 
ATOM     85  C   UNL A   1      42.113  28.810  35.080  1.00  0.00     0.091 A 
ATOM     86  F   UNL A   1      42.361  28.999  32.716  1.00  0.00    -0.205 F 
ATOM     87  C   UNL A   1      42.146  29.413  36.347  1.00  0.00     0.022 A 
BRANCH  85  88
ATOM     88  S   UNL A   1      41.607  27.090  34.988  1.00  0.00     0.127 S 
ATOM     89  O   UNL A   1      41.251  26.800  36.375  1.00  0.00    -0.237 OA
ATOM     90  O   UNL A   1      40.474  27.144  34.064  1.00  0.00    -0.237 OA
ATOM     91  O   UNL A   1      42.760  26.363  34.469  1.00  0.00    -0.744 OA
ENDBRANCH  85  88
ENDBRANCH  58  81
ENDBRANCH  32  33
ENDBRANCH  25  27
ENDBRANCH  24  25
ENDBRANCH  23  24
ENDBRANCH  22  23
ENDBRANCH  21  22
ENDBRANCH   1  21
TORSDOF 22
ENDMDL
