MODEL 1
REMARK VINA RESULT:      -9.7      0.000      0.000
REMARK SMILES Cc1cc(C)n(C)c(=O)c1C(=O)[NH+]1CCC2(CC1)C[NH2+][C@@H](C(=O)OCCOCCOCCOC(=O)c1ccc(-c3c4nc(c(-c5cccc(S(=O)(=O)[O-])c5F)c5ccc([nH]5)c(-c5cccc(S(=O)(=O)[O-])c5F)c5nc(c(-c6cccc(S(=O)(=O)[O-])c6F)c6ccc3[nH]6)C=C5)C=C4)cc1)C2
REMARK SMILES IDX 29 1 28 2 27 3 26 4 25 5 24 6 22 7 23 8 21 9 13 10 14 11
REMARK SMILES IDX 18 12 15 14 17 15 16 16 19 17 99 18 20 19 11 22 12 23 10 24
REMARK SMILES IDX 1 25 2 26 3 27 4 28 8 29 5 30 6 31 9 32 7 33 30 34 31 35
REMARK SMILES IDX 32 36 33 37 34 38 35 39 36 40 37 41 98 42 38 43 97 44 39 45
REMARK SMILES IDX 40 46 41 47 91 48 42 49 96 50 90 51 92 52 43 53 95 54 89 55
REMARK SMILES IDX 88 56 44 58 76 59 56 60 75 61 57 62 60 63 74 64 93 65 58 66
REMARK SMILES IDX 59 67 73 69 94 70 61 71 45 72 46 73 54 74 47 75 49 76 55 77
REMARK SMILES IDX 48 78 50 79 51 80 52 81 53 82 77 83 78 84 86 85 79 86 81 87
REMARK SMILES IDX 87 88 80 89 82 90 83 91 84 92 85 93 62 94 63 95 71 96 64 97
REMARK SMILES IDX 66 98 72 99 65 100 67 101 68 102 69 103 70 104
REMARK H PARENT 13 13 20 20 20 21 92 57 60 68
REMARK Flexibility Score: inf
ROOT
ATOM      1  C   UNL A   1      38.396  30.034  29.007  1.00  0.00     0.188 C 
ENDROOT
BRANCH   1   2
ATOM      2  C   UNL A   1      38.640  28.628  28.439  1.00  0.00     0.188 C 
BRANCH   2   3
ATOM      3  O   UNL A   1      39.175  27.630  29.299  1.00  0.00    -0.376 OA
BRANCH   3   4
ATOM      4  C   UNL A   1      39.655  26.418  28.727  1.00  0.00     0.202 C 
BRANCH   4   5
ATOM      5  C   UNL A   1      40.612  26.514  27.530  1.00  0.00     0.261 C 
BRANCH   5   6
ATOM      6  O   UNL A   1      40.347  25.567  26.479  1.00  0.00    -0.459 OA
BRANCH   6   7
ATOM      7  C   UNL A   1      40.552  24.259  26.793  1.00  0.00     0.364 C 
ATOM      8  O   UNL A   1      41.643  23.780  27.091  1.00  0.00    -0.245 OA
BRANCH   7   9
ATOM      9  C   UNL A   1      39.284  23.392  26.737  1.00  0.00     0.294 C 
ATOM     10  N   UNL A   1      34.594  22.720  24.355  1.00  0.00    -0.267 N 
ATOM     11  C   UNL A   1      34.690  23.063  25.762  1.00  0.00     0.271 C 
ATOM     12  C   UNL A   1      35.599  23.391  23.550  1.00  0.00     0.271 C 
ATOM     13  H   UNL A   1      35.008  22.615  23.467  1.00  0.00     0.357 HD
ATOM     14  C   UNL A   1      35.945  22.411  26.309  1.00  0.00     0.075 C 
ATOM     15  C   UNL A   1      37.024  23.014  23.987  1.00  0.00     0.075 C 
ATOM     16  C   UNL A   1      37.241  22.743  25.517  1.00  0.00     0.036 C 
ATOM     17  C   UNL A   1      38.238  21.578  25.750  1.00  0.00     0.268 C 
ATOM     18  C   UNL A   1      38.000  23.944  26.128  1.00  0.00     0.090 C 
ATOM     19  N   UNL A   1      39.541  22.210  25.889  1.00  0.00    -0.334 N 
ATOM     20  H   UNL A   1      39.905  22.490  24.979  1.00  0.00     0.347 HD
ATOM     21  H   UNL A   1      40.236  21.583  26.294  1.00  0.00     0.347 HD
BRANCH  10  22
ATOM     22  C   UNL A   1      33.342  22.385  23.858  1.00  0.00     0.350 C 
ATOM     23  O   UNL A   1      33.206  21.302  23.288  1.00  0.00    -0.225 OA
BRANCH  22  24
ATOM     24  C   UNL A   1      32.231  23.437  23.861  1.00  0.00     0.147 A 
ATOM     25  C   UNL A   1      30.981  22.735  25.992  1.00  0.00     0.045 C 
ATOM     26  C   UNL A   1      31.242  23.570  24.782  1.00  0.00    -0.027 A 
ATOM     27  C   UNL A   1      30.275  24.645  24.706  1.00  0.00     0.026 A 
ATOM     28  C   UNL A   1      30.365  25.632  23.812  1.00  0.00     0.018 A 
ATOM     29  C   UNL A   1      32.280  24.512  22.772  1.00  0.00     0.267 A 
ATOM     30  C   UNL A   1      29.353  26.742  23.874  1.00  0.00     0.064 C 
ATOM     31  N   UNL A   1      31.374  25.589  22.864  1.00  0.00    -0.315 N 
ATOM     32  O   UNL A   1      33.082  24.448  21.842  1.00  0.00    -0.268 OA
ATOM     33  C   UNL A   1      31.505  26.667  21.890  1.00  0.00     0.153 C 
ENDBRANCH  22  24
ENDBRANCH  10  22
ENDBRANCH   7   9
ENDBRANCH   6   7
ENDBRANCH   5   6
ENDBRANCH   4   5
ENDBRANCH   3   4
ENDBRANCH   2   3
ENDBRANCH   1   2
BRANCH   1  34
ATOM     34  O   UNL A   1      37.490  30.082  30.084  1.00  0.00    -0.376 OA
BRANCH  34  35
ATOM     35  C   UNL A   1      37.658  31.131  31.015  1.00  0.00     0.202 C 
BRANCH  35  36
ATOM     36  C   UNL A   1      36.571  32.222  31.016  1.00  0.00     0.261 C 
BRANCH  36  37
ATOM     37  O   UNL A   1      36.958  33.528  30.549  1.00  0.00    -0.460 OA
BRANCH  37  38
ATOM     38  C   UNL A   1      37.754  34.274  31.354  1.00  0.00     0.338 C 
ATOM     39  O   UNL A   1      37.510  34.605  32.505  1.00  0.00    -0.246 OA
BRANCH  38  40
ATOM     40  C   UNL A   1      39.085  34.388  30.703  1.00  0.00     0.060 A 
ATOM     41  C   UNL A   1      40.244  34.203  31.475  1.00  0.00     0.016 A 
ATOM     42  C   UNL A   1      39.192  34.635  29.334  1.00  0.00     0.016 A 
ATOM     43  C   UNL A   1      41.508  34.276  30.880  1.00  0.00     0.010 A 
ATOM     44  C   UNL A   1      40.460  34.735  28.746  1.00  0.00     0.010 A 
ATOM     45  C   UNL A   1      41.626  34.579  29.517  1.00  0.00    -0.014 A 
BRANCH  45  46
ATOM     46  C   UNL A   1      42.950  34.915  28.929  1.00  0.00     0.031 A 
ATOM     47  C   UNL A   1      43.904  33.791  28.627  1.00  0.00     0.074 A 
ATOM     48  C   UNL A   1      43.313  36.186  28.675  1.00  0.00     0.049 A 
ATOM     49  N   UNL A   1      45.124  33.840  28.157  1.00  0.00    -0.248 NA
ATOM     50  C   UNL A   1      43.415  32.428  28.894  1.00  0.00     0.031 C 
ATOM     51  C   UNL A   1      42.480  37.365  28.896  1.00  0.00     0.029 A 
ATOM     52  N   UNL A   1      44.494  36.695  28.185  1.00  0.00    -0.354 N 
ATOM     53  C   UNL A   1      45.551  32.520  28.080  1.00  0.00     0.074 A 
ATOM     54  C   UNL A   1      44.474  31.696  28.584  1.00  0.00     0.031 C 
ATOM     55  C   UNL A   1      43.178  38.462  28.553  1.00  0.00     0.029 A 
ATOM     56  C   UNL A   1      44.518  38.068  28.114  1.00  0.00     0.049 A 
ATOM     57  H   UNL A   1      45.251  36.128  27.912  1.00  0.00     0.167 HD
ATOM     58  C   UNL A   1      46.723  32.030  27.609  1.00  0.00     0.034 A 
ATOM     59  C   UNL A   1      45.507  38.909  27.745  1.00  0.00     0.034 A 
ATOM     60  C   UNL A   1      47.796  32.845  27.110  1.00  0.00     0.049 A 
ATOM     61  C   UNL A   1      46.836  38.348  27.299  1.00  0.00     0.074 A 
ATOM     62  C   UNL A   1      49.019  32.439  26.607  1.00  0.00     0.029 A 
ATOM     63  N   UNL A   1      47.782  34.230  27.057  1.00  0.00    -0.354 N 
ATOM     64  N   UNL A   1      47.196  37.095  27.153  1.00  0.00    -0.248 NA
ATOM     65  C   UNL A   1      47.886  39.315  26.942  1.00  0.00     0.031 C 
ATOM     66  C   UNL A   1      49.756  33.580  26.277  1.00  0.00     0.029 A 
ATOM     67  C   UNL A   1      48.979  34.696  26.540  1.00  0.00     0.049 A 
ATOM     68  H   UNL A   1      47.033  34.799  27.346  1.00  0.00     0.167 HD
ATOM     69  C   UNL A   1      48.495  37.123  26.650  1.00  0.00     0.074 A 
ATOM     70  C   UNL A   1      48.855  38.518  26.507  1.00  0.00     0.031 C 
ATOM     71  C   UNL A   1      49.314  36.085  26.346  1.00  0.00     0.034 A 
BRANCH  58  72
ATOM     72  C   UNL A   1      46.886  30.532  27.573  1.00  0.00     0.023 A 
ATOM     73  C   UNL A   1      47.395  29.865  28.706  1.00  0.00     0.012 A 
ATOM     74  C   UNL A   1      46.490  29.778  26.450  1.00  0.00     0.148 A 
ATOM     75  C   UNL A   1      47.542  28.479  28.711  1.00  0.00     0.002 A 
ATOM     76  C   UNL A   1      46.591  28.392  26.481  1.00  0.00     0.091 A 
ATOM     77  F   UNL A   1      46.027  30.429  25.373  1.00  0.00    -0.205 F 
ATOM     78  C   UNL A   1      47.130  27.742  27.605  1.00  0.00     0.022 A 
BRANCH  76  79
ATOM     79  S   UNL A   1      46.010  27.345  25.142  1.00  0.00     0.127 S 
ATOM     80  O   UNL A   1      44.622  27.785  25.005  1.00  0.00    -0.237 OA
ATOM     81  O   UNL A   1      46.885  27.742  24.039  1.00  0.00    -0.237 OA
ATOM     82  O   UNL A   1      46.188  25.974  25.597  1.00  0.00    -0.744 OA
ENDBRANCH  76  79
ENDBRANCH  58  72
BRANCH  59  83
ATOM     83  C   UNL A   1      45.254  40.381  27.710  1.00  0.00     0.023 A 
ATOM     84  C   UNL A   1      45.327  41.116  28.910  1.00  0.00     0.012 A 
ATOM     85  C   UNL A   1      44.989  41.061  26.505  1.00  0.00     0.148 A 
ATOM     86  C   UNL A   1      45.132  42.497  28.913  1.00  0.00     0.002 A 
ATOM     87  C   UNL A   1      44.848  42.445  26.507  1.00  0.00     0.091 A 
ATOM     88  F   UNL A   1      44.906  40.342  25.377  1.00  0.00    -0.205 F 
ATOM     89  C   UNL A   1      44.906  43.163  27.712  1.00  0.00     0.022 A 
BRANCH  87  90
ATOM     90  S   UNL A   1      44.678  43.409  25.000  1.00  0.00     0.127 S 
ATOM     91  O   UNL A   1      44.903  44.767  25.486  1.00  0.00    -0.237 OA
ATOM     92  O   UNL A   1      45.756  42.862  24.177  1.00  0.00    -0.237 OA
ATOM     93  O   UNL A   1      43.336  43.137  24.506  1.00  0.00    -0.744 OA
ENDBRANCH  87  90
ENDBRANCH  59  83
BRANCH  71  94
ATOM     94  C   UNL A   1      50.687  36.387  25.795  1.00  0.00     0.023 A 
ATOM     95  C   UNL A   1      50.889  36.425  24.402  1.00  0.00     0.012 A 
ATOM     96  C   UNL A   1      51.737  36.772  26.655  1.00  0.00     0.148 A 
ATOM     97  C   UNL A   1      52.117  36.825  23.873  1.00  0.00     0.002 A 
ATOM     98  C   UNL A   1      52.940  37.220  26.121  1.00  0.00     0.091 A 
ATOM     99  F   UNL A   1      51.529  36.719  27.979  1.00  0.00    -0.205 F 
ATOM    100  C   UNL A   1      53.135  37.238  24.731  1.00  0.00     0.022 A 
BRANCH  98 101
ATOM    101  S   UNL A   1      54.271  37.874  27.137  1.00  0.00     0.127 S 
ATOM    102  O   UNL A   1      54.644  36.703  27.929  1.00  0.00    -0.237 OA
ATOM    103  O   UNL A   1      55.259  38.269  26.132  1.00  0.00    -0.237 OA
ATOM    104  O   UNL A   1      53.698  38.977  27.895  1.00  0.00    -0.744 OA
ENDBRANCH  98 101
ENDBRANCH  71  94
ENDBRANCH  45  46
ENDBRANCH  38  40
ENDBRANCH  37  38
ENDBRANCH  36  37
ENDBRANCH  35  36
ENDBRANCH  34  35
ENDBRANCH   1  34
TORSDOF 22
ENDMDL
MODEL 2
REMARK VINA RESULT:      -9.2      7.707     10.671
REMARK SMILES Cc1cc(C)n(C)c(=O)c1C(=O)[NH+]1CCC2(CC1)C[NH2+][C@@H](C(=O)OCCOCCOCCOC(=O)c1ccc(-c3c4nc(c(-c5cccc(S(=O)(=O)[O-])c5F)c5ccc([nH]5)c(-c5cccc(S(=O)(=O)[O-])c5F)c5nc(c(-c6cccc(S(=O)(=O)[O-])c6F)c6ccc3[nH]6)C=C5)C=C4)cc1)C2
REMARK SMILES IDX 29 1 28 2 27 3 26 4 25 5 24 6 22 7 23 8 21 9 13 10 14 11
REMARK SMILES IDX 18 12 15 14 17 15 16 16 19 17 99 18 20 19 11 22 12 23 10 24
REMARK SMILES IDX 1 25 2 26 3 27 4 28 8 29 5 30 6 31 9 32 7 33 30 34 31 35
REMARK SMILES IDX 32 36 33 37 34 38 35 39 36 40 37 41 98 42 38 43 97 44 39 45
REMARK SMILES IDX 40 46 41 47 91 48 42 49 96 50 90 51 92 52 43 53 95 54 89 55
REMARK SMILES IDX 88 56 44 58 76 59 56 60 75 61 57 62 60 63 74 64 93 65 58 66
REMARK SMILES IDX 59 67 73 69 94 70 61 71 45 72 46 73 54 74 47 75 49 76 55 77
REMARK SMILES IDX 48 78 50 79 51 80 52 81 53 82 77 83 78 84 86 85 79 86 81 87
REMARK SMILES IDX 87 88 80 89 82 90 83 91 84 92 85 93 62 94 63 95 71 96 64 97
REMARK SMILES IDX 66 98 72 99 65 100 67 101 68 102 69 103 70 104
REMARK H PARENT 13 13 20 20 20 21 92 57 60 68
REMARK Flexibility Score: inf
ROOT
ATOM      1  C   UNL A   1      46.470  24.712  25.095  1.00  0.00     0.188 C 
ENDROOT
BRANCH   1   2
ATOM      2  C   UNL A   1      46.152  23.244  25.414  1.00  0.00     0.188 C 
BRANCH   2   3
ATOM      3  O   UNL A   1      45.147  22.961  26.379  1.00  0.00    -0.376 OA
BRANCH   3   4
ATOM      4  C   UNL A   1      44.097  22.065  26.032  1.00  0.00     0.202 C 
BRANCH   4   5
ATOM      5  C   UNL A   1      42.741  22.662  25.629  1.00  0.00     0.261 C 
BRANCH   5   6
ATOM      6  O   UNL A   1      41.676  22.405  26.565  1.00  0.00    -0.459 OA
BRANCH   6   7
ATOM      7  C   UNL A   1      40.626  23.269  26.520  1.00  0.00     0.364 C 
ATOM      8  O   UNL A   1      40.734  24.492  26.507  1.00  0.00    -0.245 OA
BRANCH   7   9
ATOM      9  C   UNL A   1      39.249  22.584  26.498  1.00  0.00     0.294 C 
ATOM     10  N   UNL A   1      34.477  22.526  24.188  1.00  0.00    -0.267 N 
ATOM     11  C   UNL A   1      34.640  22.877  25.586  1.00  0.00     0.271 C 
ATOM     12  C   UNL A   1      35.552  23.038  23.357  1.00  0.00     0.271 C 
ATOM     13  H   UNL A   1      34.858  22.350  23.297  1.00  0.00     0.357 HD
ATOM     14  C   UNL A   1      35.802  22.068  26.131  1.00  0.00     0.075 C 
ATOM     15  C   UNL A   1      36.918  22.476  23.784  1.00  0.00     0.075 C 
ATOM     16  C   UNL A   1      37.119  22.203  25.316  1.00  0.00     0.036 C 
ATOM     17  C   UNL A   1      37.948  20.916  25.559  1.00  0.00     0.268 C 
ATOM     18  C   UNL A   1      38.045  23.298  25.894  1.00  0.00     0.090 C 
ATOM     19  N   UNL A   1      39.328  21.364  25.670  1.00  0.00    -0.334 N 
ATOM     20  H   UNL A   1      39.714  21.575  24.749  1.00  0.00     0.347 HD
ATOM     21  H   UNL A   1      39.936  20.654  26.078  1.00  0.00     0.347 HD
BRANCH  10  22
ATOM     22  C   UNL A   1      33.183  22.359  23.713  1.00  0.00     0.350 C 
ATOM     23  O   UNL A   1      32.898  21.308  23.140  1.00  0.00    -0.225 OA
BRANCH  22  24
ATOM     24  C   UNL A   1      32.217  23.546  23.744  1.00  0.00     0.147 A 
ATOM     25  C   UNL A   1      30.799  22.892  25.783  1.00  0.00     0.045 C 
ATOM     26  C   UNL A   1      31.216  23.753  24.637  1.00  0.00    -0.027 A 
ATOM     27  C   UNL A   1      30.398  24.948  24.595  1.00  0.00     0.026 A 
ATOM     28  C   UNL A   1      30.652  25.964  23.768  1.00  0.00     0.018 A 
ATOM     29  C   UNL A   1      32.449  24.665  22.726  1.00  0.00     0.267 A 
ATOM     30  C   UNL A   1      29.788  27.192  23.864  1.00  0.00     0.064 C 
ATOM     31  N   UNL A   1      31.685  25.844  22.854  1.00  0.00    -0.315 N 
ATOM     32  O   UNL A   1      33.274  24.550  21.822  1.00  0.00    -0.268 OA
ATOM     33  C   UNL A   1      31.994  26.950  21.954  1.00  0.00     0.153 C 
ENDBRANCH  22  24
ENDBRANCH  10  22
ENDBRANCH   7   9
ENDBRANCH   6   7
ENDBRANCH   5   6
ENDBRANCH   4   5
ENDBRANCH   3   4
ENDBRANCH   2   3
ENDBRANCH   1   2
BRANCH   1  34
ATOM     34  O   UNL A   1      45.378  25.458  24.611  1.00  0.00    -0.376 OA
BRANCH  34  35
ATOM     35  C   UNL A   1      44.926  26.527  25.416  1.00  0.00     0.202 C 
BRANCH  35  36
ATOM     36  C   UNL A   1      43.414  26.816  25.378  1.00  0.00     0.261 C 
BRANCH  36  37
ATOM     37  O   UNL A   1      42.998  28.158  25.695  1.00  0.00    -0.460 OA
BRANCH  37  38
ATOM     38  C   UNL A   1      41.929  28.308  26.516  1.00  0.00     0.338 C 
ATOM     39  O   UNL A   1      40.753  28.282  26.182  1.00  0.00    -0.246 OA
BRANCH  38  40
ATOM     40  C   UNL A   1      42.414  28.231  27.919  1.00  0.00     0.060 A 
ATOM     41  C   UNL A   1      41.563  27.719  28.912  1.00  0.00     0.016 A 
ATOM     42  C   UNL A   1      43.712  28.623  28.248  1.00  0.00     0.016 A 
ATOM     43  C   UNL A   1      42.006  27.610  30.234  1.00  0.00     0.010 A 
ATOM     44  C   UNL A   1      44.145  28.539  29.577  1.00  0.00     0.010 A 
ATOM     45  C   UNL A   1      43.289  28.053  30.583  1.00  0.00    -0.014 A 
BRANCH  45  46
ATOM     46  C   UNL A   1      43.680  28.186  32.012  1.00  0.00     0.031 A 
ATOM     47  C   UNL A   1      44.247  26.982  32.714  1.00  0.00     0.074 A 
ATOM     48  C   UNL A   1      43.530  29.342  32.685  1.00  0.00     0.049 A 
ATOM     49  N   UNL A   1      44.615  26.843  33.961  1.00  0.00    -0.248 NA
ATOM     50  C   UNL A   1      44.418  25.770  31.896  1.00  0.00     0.031 C 
ATOM     51  C   UNL A   1      43.018  30.589  32.123  1.00  0.00     0.029 A 
ATOM     52  N   UNL A   1      43.784  29.646  34.003  1.00  0.00    -0.354 N 
ATOM     53  C   UNL A   1      45.053  25.530  34.081  1.00  0.00     0.074 A 
ATOM     54  C   UNL A   1      44.872  24.903  32.789  1.00  0.00     0.031 C 
ATOM     55  C   UNL A   1      42.985  31.522  33.091  1.00  0.00     0.029 A 
ATOM     56  C   UNL A   1      43.448  30.934  34.349  1.00  0.00     0.049 A 
ATOM     57  H   UNL A   1      44.170  29.001  34.638  1.00  0.00     0.167 HD
ATOM     58  C   UNL A   1      45.582  24.903  35.158  1.00  0.00     0.034 A 
ATOM     59  C   UNL A   1      43.499  31.562  35.543  1.00  0.00     0.034 A 
ATOM     60  C   UNL A   1      45.762  25.521  36.443  1.00  0.00     0.049 A 
ATOM     61  C   UNL A   1      44.018  30.823  36.753  1.00  0.00     0.074 A 
ATOM     62  C   UNL A   1      46.295  24.969  37.594  1.00  0.00     0.029 A 
ATOM     63  N   UNL A   1      45.406  26.825  36.754  1.00  0.00    -0.354 N 
ATOM     64  N   UNL A   1      44.506  29.607  36.832  1.00  0.00    -0.248 NA
ATOM     65  C   UNL A   1      44.018  31.549  38.033  1.00  0.00     0.031 C 
ATOM     66  C   UNL A   1      46.235  25.928  38.609  1.00  0.00     0.029 A 
ATOM     67  C   UNL A   1      45.699  27.092  38.081  1.00  0.00     0.049 A 
ATOM     68  H   UNL A   1      45.004  27.466  36.125  1.00  0.00     0.167 HD
ATOM     69  C   UNL A   1      44.907  29.438  38.155  1.00  0.00     0.074 A 
ATOM     70  C   UNL A   1      44.614  30.680  38.841  1.00  0.00     0.031 C 
ATOM     71  C   UNL A   1      45.457  28.348  38.747  1.00  0.00     0.034 A 
BRANCH  58  72
ATOM     72  C   UNL A   1      46.048  23.481  34.977  1.00  0.00     0.023 A 
ATOM     73  C   UNL A   1      45.092  22.452  34.859  1.00  0.00     0.012 A 
ATOM     74  C   UNL A   1      47.417  23.166  34.871  1.00  0.00     0.148 A 
ATOM     75  C   UNL A   1      45.489  21.128  34.673  1.00  0.00     0.002 A 
ATOM     76  C   UNL A   1      47.804  21.852  34.635  1.00  0.00     0.091 A 
ATOM     77  F   UNL A   1      48.313  24.154  35.006  1.00  0.00    -0.205 F 
ATOM     78  C   UNL A   1      46.842  20.830  34.550  1.00  0.00     0.022 A 
BRANCH  76  79
ATOM     79  S   UNL A   1      49.516  21.375  34.375  1.00  0.00     0.127 S 
ATOM     80  O   UNL A   1      49.914  22.277  33.295  1.00  0.00    -0.237 OA
ATOM     81  O   UNL A   1      50.120  21.678  35.673  1.00  0.00    -0.237 OA
ATOM     82  O   UNL A   1      49.493  19.961  34.030  1.00  0.00    -0.744 OA
ENDBRANCH  76  79
ENDBRANCH  58  72
BRANCH  59  83
ATOM     83  C   UNL A   1      43.114  33.002  35.640  1.00  0.00     0.023 A 
ATOM     84  C   UNL A   1      44.109  33.987  35.484  1.00  0.00     0.012 A 
ATOM     85  C   UNL A   1      41.778  33.403  35.836  1.00  0.00     0.148 A 
ATOM     86  C   UNL A   1      43.785  35.342  35.531  1.00  0.00     0.002 A 
ATOM     87  C   UNL A   1      41.453  34.756  35.829  1.00  0.00     0.091 A 
ATOM     88  F   UNL A   1      40.849  32.451  36.000  1.00  0.00    -0.205 F 
ATOM     89  C   UNL A   1      42.456  35.727  35.691  1.00  0.00     0.022 A 
BRANCH  87  90
ATOM     90  S   UNL A   1      39.758  35.350  35.903  1.00  0.00     0.127 S 
ATOM     91  O   UNL A   1      39.292  34.767  37.159  1.00  0.00    -0.237 OA
ATOM     92  O   UNL A   1      39.954  36.799  35.931  1.00  0.00    -0.237 OA
ATOM     93  O   UNL A   1      39.108  34.846  34.702  1.00  0.00    -0.744 OA
ENDBRANCH  87  90
ENDBRANCH  59  83
BRANCH  71  94
ATOM     94  C   UNL A   1      45.820  28.427  40.210  1.00  0.00     0.023 A 
ATOM     95  C   UNL A   1      44.911  27.966  41.182  1.00  0.00     0.012 A 
ATOM     96  C   UNL A   1      47.114  28.823  40.609  1.00  0.00     0.148 A 
ATOM     97  C   UNL A   1      45.277  27.913  42.528  1.00  0.00     0.002 A 
ATOM     98  C   UNL A   1      47.489  28.718  41.943  1.00  0.00     0.091 A 
ATOM     99  F   UNL A   1      47.962  29.270  39.670  1.00  0.00    -0.205 F 
ATOM    100  C   UNL A   1      46.569  28.273  42.906  1.00  0.00     0.022 A 
BRANCH  98 101
ATOM    101  S   UNL A   1      49.161  29.054  42.513  1.00  0.00     0.127 S 
ATOM    102  O   UNL A   1      49.089  28.636  43.912  1.00  0.00    -0.237 OA
ATOM    103  O   UNL A   1      49.960  28.176  41.656  1.00  0.00    -0.237 OA
ATOM    104  O   UNL A   1      49.383  30.477  42.302  1.00  0.00    -0.744 OA
ENDBRANCH  98 101
ENDBRANCH  71  94
ENDBRANCH  45  46
ENDBRANCH  38  40
ENDBRANCH  37  38
ENDBRANCH  36  37
ENDBRANCH  35  36
ENDBRANCH  34  35
ENDBRANCH   1  34
TORSDOF 22
ENDMDL
MODEL 3
REMARK VINA RESULT:      -9.1      3.855      5.293
REMARK SMILES Cc1cc(C)n(C)c(=O)c1C(=O)[NH+]1CCC2(CC1)C[NH2+][C@@H](C(=O)OCCOCCOCCOC(=O)c1ccc(-c3c4nc(c(-c5cccc(S(=O)(=O)[O-])c5F)c5ccc([nH]5)c(-c5cccc(S(=O)(=O)[O-])c5F)c5nc(c(-c6cccc(S(=O)(=O)[O-])c6F)c6ccc3[nH]6)C=C5)C=C4)cc1)C2
REMARK SMILES IDX 29 1 28 2 27 3 26 4 25 5 24 6 22 7 23 8 21 9 13 10 14 11
REMARK SMILES IDX 18 12 15 14 17 15 16 16 19 17 99 18 20 19 11 22 12 23 10 24
REMARK SMILES IDX 1 25 2 26 3 27 4 28 8 29 5 30 6 31 9 32 7 33 30 34 31 35
REMARK SMILES IDX 32 36 33 37 34 38 35 39 36 40 37 41 98 42 38 43 97 44 39 45
REMARK SMILES IDX 40 46 41 47 91 48 42 49 96 50 90 51 92 52 43 53 95 54 89 55
REMARK SMILES IDX 88 56 44 58 76 59 56 60 75 61 57 62 60 63 74 64 93 65 58 66
REMARK SMILES IDX 59 67 73 69 94 70 61 71 45 72 46 73 54 74 47 75 49 76 55 77
REMARK SMILES IDX 48 78 50 79 51 80 52 81 53 82 77 83 78 84 86 85 79 86 81 87
REMARK SMILES IDX 87 88 80 89 82 90 83 91 84 92 85 93 62 94 63 95 71 96 64 97
REMARK SMILES IDX 66 98 72 99 65 100 67 101 68 102 69 103 70 104
REMARK H PARENT 13 13 20 20 20 21 92 57 60 68
REMARK Flexibility Score: inf
ROOT
ATOM      1  C   UNL A   1      40.789  30.814  34.681  1.00  0.00     0.188 C 
ENDROOT
BRANCH   1   2
ATOM      2  C   UNL A   1      41.160  29.429  34.131  1.00  0.00     0.188 C 
BRANCH   2   3
ATOM      3  O   UNL A   1      40.112  28.544  33.755  1.00  0.00    -0.376 OA
BRANCH   3   4
ATOM      4  C   UNL A   1      39.940  28.234  32.376  1.00  0.00     0.202 C 
BRANCH   4   5
ATOM      5  C   UNL A   1      41.080  28.585  31.409  1.00  0.00     0.261 C 
BRANCH   5   6
ATOM      6  O   UNL A   1      40.683  29.405  30.294  1.00  0.00    -0.459 OA
BRANCH   6   7
ATOM      7  C   UNL A   1      39.484  29.100  29.731  1.00  0.00     0.364 C 
ATOM      8  O   UNL A   1      38.420  29.639  30.025  1.00  0.00    -0.245 OA
BRANCH   7   9
ATOM      9  C   UNL A   1      39.552  27.988  28.670  1.00  0.00     0.294 C 
ATOM     10  N   UNL A   1      42.756  24.609  26.134  1.00  0.00    -0.267 N 
ATOM     11  C   UNL A   1      42.076  25.682  25.433  1.00  0.00     0.271 C 
ATOM     12  C   UNL A   1      43.209  25.007  27.455  1.00  0.00     0.271 C 
ATOM     13  H   UNL A   1      43.037  24.173  26.972  1.00  0.00     0.357 HD
ATOM     14  C   UNL A   1      40.739  25.902  26.116  1.00  0.00     0.075 C 
ATOM     15  C   UNL A   1      42.036  25.431  28.355  1.00  0.00     0.075 C 
ATOM     16  C   UNL A   1      40.830  26.143  27.648  1.00  0.00     0.036 C 
ATOM     17  C   UNL A   1      39.476  25.710  28.267  1.00  0.00     0.268 C 
ATOM     18  C   UNL A   1      40.875  27.649  27.994  1.00  0.00     0.090 C 
ATOM     19  N   UNL A   1      39.189  26.699  29.294  1.00  0.00    -0.334 N 
ATOM     20  H   UNL A   1      39.753  26.529  30.127  1.00  0.00     0.347 HD
ATOM     21  H   UNL A   1      38.216  26.674  29.599  1.00  0.00     0.347 HD
BRANCH  10  22
ATOM     22  C   UNL A   1      43.427  23.665  25.369  1.00  0.00     0.350 C 
ATOM     23  O   UNL A   1      44.039  24.042  24.371  1.00  0.00    -0.225 OA
BRANCH  22  24
ATOM     24  C   UNL A   1      43.228  22.178  25.675  1.00  0.00     0.147 A 
ATOM     25  C   UNL A   1      40.767  22.216  26.408  1.00  0.00     0.045 C 
ATOM     26  C   UNL A   1      42.087  21.585  26.110  1.00  0.00    -0.027 A 
ATOM     27  C   UNL A   1      42.007  20.154  26.314  1.00  0.00     0.026 A 
ATOM     28  C   UNL A   1      42.994  19.322  25.975  1.00  0.00     0.018 A 
ATOM     29  C   UNL A   1      44.400  21.238  25.379  1.00  0.00     0.267 A 
ATOM     30  C   UNL A   1      42.774  17.846  26.155  1.00  0.00     0.064 C 
ATOM     31  N   UNL A   1      44.177  19.849  25.485  1.00  0.00    -0.315 N 
ATOM     32  O   UNL A   1      45.505  21.671  25.058  1.00  0.00    -0.268 OA
ATOM     33  C   UNL A   1      45.263  18.959  25.089  1.00  0.00     0.153 C 
ENDBRANCH  22  24
ENDBRANCH  10  22
ENDBRANCH   7   9
ENDBRANCH   6   7
ENDBRANCH   5   6
ENDBRANCH   4   5
ENDBRANCH   3   4
ENDBRANCH   2   3
ENDBRANCH   1   2
BRANCH   1  34
ATOM     34  O   UNL A   1      40.002  31.598  33.815  1.00  0.00    -0.376 OA
BRANCH  34  35
ATOM     35  C   UNL A   1      38.609  31.606  34.048  1.00  0.00     0.202 C 
BRANCH  35  36
ATOM     36  C   UNL A   1      37.726  32.081  32.880  1.00  0.00     0.261 C 
BRANCH  36  37
ATOM     37  O   UNL A   1      37.929  33.429  32.414  1.00  0.00    -0.460 OA
BRANCH  37  38
ATOM     38  C   UNL A   1      37.789  33.664  31.086  1.00  0.00     0.338 C 
ATOM     39  O   UNL A   1      36.735  33.714  30.469  1.00  0.00    -0.246 OA
BRANCH  38  40
ATOM     40  C   UNL A   1      39.101  34.125  30.562  1.00  0.00     0.060 A 
ATOM     41  C   UNL A   1      39.194  34.552  29.227  1.00  0.00     0.016 A 
ATOM     42  C   UNL A   1      40.224  34.174  31.388  1.00  0.00     0.016 A 
ATOM     43  C   UNL A   1      40.411  35.018  28.717  1.00  0.00     0.010 A 
ATOM     44  C   UNL A   1      41.448  34.613  30.869  1.00  0.00     0.010 A 
ATOM     45  C   UNL A   1      41.556  35.017  29.525  1.00  0.00    -0.014 A 
BRANCH  45  46
ATOM     46  C   UNL A   1      42.898  35.259  28.932  1.00  0.00     0.031 A 
ATOM     47  C   UNL A   1      43.803  34.077  28.705  1.00  0.00     0.074 A 
ATOM     48  C   UNL A   1      43.320  36.495  28.608  1.00  0.00     0.049 A 
ATOM     49  N   UNL A   1      45.027  34.044  28.245  1.00  0.00    -0.248 NA
ATOM     50  C   UNL A   1      43.251  32.756  29.045  1.00  0.00     0.031 C 
ATOM     51  C   UNL A   1      42.540  37.721  28.752  1.00  0.00     0.029 A 
ATOM     52  N   UNL A   1      44.526  36.921  28.102  1.00  0.00    -0.354 N 
ATOM     53  C   UNL A   1      45.394  32.704  28.249  1.00  0.00     0.074 A 
ATOM     54  C   UNL A   1      44.277  31.960  28.789  1.00  0.00     0.031 C 
ATOM     55  C   UNL A   1      43.290  38.764  28.353  1.00  0.00     0.029 A 
ATOM     56  C   UNL A   1      44.613  38.286  27.951  1.00  0.00     0.049 A 
ATOM     57  H   UNL A   1      45.259  36.306  27.870  1.00  0.00     0.167 HD
ATOM     58  C   UNL A   1      46.546  32.135  27.820  1.00  0.00     0.034 A 
ATOM     59  C   UNL A   1      45.643  39.059  27.545  1.00  0.00     0.034 A 
ATOM     60  C   UNL A   1      47.658  32.871  27.285  1.00  0.00     0.049 A 
ATOM     61  C   UNL A   1      46.947  38.413  27.145  1.00  0.00     0.074 A 
ATOM     62  C   UNL A   1      48.866  32.382  26.818  1.00  0.00     0.029 A 
ATOM     63  N   UNL A   1      47.708  34.250  27.152  1.00  0.00    -0.354 N 
ATOM     64  N   UNL A   1      47.252  37.139  27.075  1.00  0.00    -0.248 NA
ATOM     65  C   UNL A   1      48.043  39.309  26.743  1.00  0.00     0.031 C 
ATOM     66  C   UNL A   1      49.657  33.467  26.430  1.00  0.00     0.029 A 
ATOM     67  C   UNL A   1      48.928  34.631  26.620  1.00  0.00     0.049 A 
ATOM     68  H   UNL A   1      46.983  34.868  27.399  1.00  0.00     0.167 HD
ATOM     69  C   UNL A   1      48.554  37.079  26.585  1.00  0.00     0.074 A 
ATOM     70  C   UNL A   1      48.979  38.446  26.365  1.00  0.00     0.031 C 
ATOM     71  C   UNL A   1      49.328  35.990  26.350  1.00  0.00     0.034 A 
BRANCH  58  72
ATOM     72  C   UNL A   1      46.641  30.632  27.872  1.00  0.00     0.023 A 
ATOM     73  C   UNL A   1      46.914  30.000  29.102  1.00  0.00     0.012 A 
ATOM     74  C   UNL A   1      46.410  29.843  26.728  1.00  0.00     0.148 A 
ATOM     75  C   UNL A   1      46.992  28.610  29.188  1.00  0.00     0.002 A 
ATOM     76  C   UNL A   1      46.439  28.457  26.831  1.00  0.00     0.091 A 
ATOM     77  F   UNL A   1      46.172  30.460  25.562  1.00  0.00    -0.205 F 
ATOM     78  C   UNL A   1      46.743  27.840  28.056  1.00  0.00     0.022 A 
BRANCH  76  79
ATOM     79  S   UNL A   1      46.048  27.372  25.454  1.00  0.00     0.127 S 
ATOM     80  O   UNL A   1      44.677  27.772  25.142  1.00  0.00    -0.237 OA
ATOM     81  O   UNL A   1      47.041  27.772  24.456  1.00  0.00    -0.237 OA
ATOM     82  O   UNL A   1      46.204  26.013  25.954  1.00  0.00    -0.744 OA
ENDBRANCH  76  79
ENDBRANCH  58  72
BRANCH  59  83
ATOM     83  C   UNL A   1      45.456  40.535  27.422  1.00  0.00     0.023 A 
ATOM     84  C   UNL A   1      45.559  41.336  28.576  1.00  0.00     0.012 A 
ATOM     85  C   UNL A   1      45.227  41.154  26.177  1.00  0.00     0.148 A 
ATOM     86  C   UNL A   1      45.427  42.722  28.498  1.00  0.00     0.002 A 
ATOM     87  C   UNL A   1      45.149  42.541  26.097  1.00  0.00     0.091 A 
ATOM     88  F   UNL A   1      45.116  40.375  25.093  1.00  0.00    -0.205 F 
ATOM     89  C   UNL A   1      45.235  43.325  27.258  1.00  0.00     0.022 A 
BRANCH  87  90
ATOM     90  S   UNL A   1      45.028  43.421  24.535  1.00  0.00     0.127 S 
ATOM     91  O   UNL A   1      46.157  44.343  24.623  1.00  0.00    -0.237 OA
ATOM     92  O   UNL A   1      45.193  42.334  23.570  1.00  0.00    -0.237 OA
ATOM     93  O   UNL A   1      43.712  44.044  24.532  1.00  0.00    -0.744 OA
ENDBRANCH  87  90
ENDBRANCH  59  83
BRANCH  71  94
ATOM     94  C   UNL A   1      50.717  36.197  25.796  1.00  0.00     0.023 A 
ATOM     95  C   UNL A   1      50.912  36.264  24.403  1.00  0.00     0.012 A 
ATOM     96  C   UNL A   1      51.801  36.468  26.658  1.00  0.00     0.148 A 
ATOM     97  C   UNL A   1      52.166  36.581  23.876  1.00  0.00     0.002 A 
ATOM     98  C   UNL A   1      53.032  36.833  26.128  1.00  0.00     0.091 A 
ATOM     99  F   UNL A   1      51.598  36.388  27.982  1.00  0.00    -0.205 F 
ATOM    100  C   UNL A   1      53.219  36.881  24.737  1.00  0.00     0.022 A 
BRANCH  98 101
ATOM    101  S   UNL A   1      54.419  37.344  27.152  1.00  0.00     0.127 S 
ATOM    102  O   UNL A   1      54.623  36.162  27.988  1.00  0.00    -0.237 OA
ATOM    103  O   UNL A   1      55.467  37.574  26.157  1.00  0.00    -0.237 OA
ATOM    104  O   UNL A   1      53.981  38.536  27.862  1.00  0.00    -0.744 OA
ENDBRANCH  98 101
ENDBRANCH  71  94
ENDBRANCH  45  46
ENDBRANCH  38  40
ENDBRANCH  37  38
ENDBRANCH  36  37
ENDBRANCH  35  36
ENDBRANCH  34  35
ENDBRANCH   1  34
TORSDOF 22
ENDMDL
