MODEL 1
REMARK VINA RESULT:     -12.3      0.000      0.000
REMARK SMILES O=C(OCCOCCOCCOC(=O)[C@@H]1[C@@H](C(=O)Nc2nc(-c3ccc(F)cc3)cs2)[C@H]2C=C[C@@H]1O2)c1ccc(-c2c3nc(c(-c4cccc(S(=O)(=O)[O-])c4F)c4ccc([nH]4)c(-c4cccc(S(=O)(=O)[O-])c4F)c4nc(c(-c5cccc(S(=O)(=O)[O-])c5F)c5ccc2[nH]5)C=C4)C=C3)cc1
REMARK SMILES IDX 7 1 6 2 5 3 4 4 3 5 2 6 1 7 37 8 38 9 99 10 39 11 98 12
REMARK SMILES IDX 40 13 41 14 42 15 92 16 43 17 97 18 91 19 93 20 44 21 96 22
REMARK SMILES IDX 90 23 89 24 45 26 77 27 57 28 76 29 58 30 61 31 75 32 94 33
REMARK SMILES IDX 59 34 60 35 74 37 95 38 62 39 46 40 47 41 55 42 48 43 50 44
REMARK SMILES IDX 56 45 49 46 51 47 52 48 53 49 54 50 78 51 79 52 87 53 80 54
REMARK SMILES IDX 82 55 88 56 81 57 83 58 84 59 85 60 86 61 63 62 64 63 72 64
REMARK SMILES IDX 65 65 67 66 73 67 66 68 68 69 69 70 70 71 71 72 8 73 9 74
REMARK SMILES IDX 10 75 11 76 12 77 13 78 14 79 15 80 16 81 35 82 32 83 34 84
REMARK SMILES IDX 36 85 33 86 17 87 18 88 19 89 20 91 21 92 31 93 22 94 30 95
REMARK SMILES IDX 23 96 24 97 29 98 25 99 28 100 26 101 27 102
REMARK H PARENT 93 25 61 36 19 90
REMARK Flexibility Score: inf
ROOT
ATOM      1  C   UNL A   1      41.194  20.062  27.525  1.00  0.00     0.188 C 
ENDROOT
BRANCH   1   2
ATOM      2  O   UNL A   1      42.111  18.926  27.519  1.00  0.00    -0.376 OA
BRANCH   2   3
ATOM      3  C   UNL A   1      43.091  18.685  26.437  1.00  0.00     0.202 C 
BRANCH   3   4
ATOM      4  C   UNL A   1      43.740  19.846  25.383  1.00  0.00     0.261 C 
BRANCH   4   5
ATOM      5  O   UNL A   1      42.984  21.287  24.961  1.00  0.00    -0.460 OA
BRANCH   5   6
ATOM      6  C   UNL A   1      43.386  22.920  24.688  1.00  0.00     0.338 C 
ATOM      7  O   UNL A   1      43.842  22.789  23.526  1.00  0.00    -0.246 OA
BRANCH   6   8
ATOM      8  C   UNL A   1      43.110  24.526  26.122  1.00  0.00     0.060 A 
ATOM      9  C   UNL A   1      42.329  24.395  27.535  1.00  0.00     0.016 A 
ATOM     10  C   UNL A   1      43.370  25.979  26.201  1.00  0.00     0.016 A 
ATOM     11  C   UNL A   1      41.980  25.243  28.579  1.00  0.00     0.010 A 
ATOM     12  C   UNL A   1      42.934  26.924  27.266  1.00  0.00     0.010 A 
ATOM     13  C   UNL A   1      42.249  26.560  28.441  1.00  0.00    -0.014 A 
BRANCH  13  14
ATOM     14  C   UNL A   1      41.796  27.404  29.578  1.00  0.00     0.031 A 
ATOM     15  C   UNL A   1      42.577  27.482  30.854  1.00  0.00     0.074 A 
ATOM     16  C   UNL A   1      40.911  28.402  29.378  1.00  0.00     0.049 A 
ATOM     17  N   UNL A   1      42.343  28.235  31.896  1.00  0.00    -0.248 NA
ATOM     18  C   UNL A   1      43.822  26.705  30.936  1.00  0.00     0.031 C 
ATOM     19  C   UNL A   1      40.440  28.811  28.072  1.00  0.00     0.029 A 
ATOM     20  N   UNL A   1      40.258  29.257  30.227  1.00  0.00    -0.354 N 
ATOM     21  C   UNL A   1      43.396  28.020  32.767  1.00  0.00     0.074 A 
ATOM     22  C   UNL A   1      44.283  27.071  32.126  1.00  0.00     0.031 C 
ATOM     23  C   UNL A   1      39.421  29.669  28.196  1.00  0.00     0.029 A 
ATOM     24  C   UNL A   1      39.218  29.919  29.609  1.00  0.00     0.049 A 
ATOM     25  H   UNL A   1      40.504  29.386  31.172  1.00  0.00     0.167 HD
ATOM     26  C   UNL A   1      43.588  28.574  33.987  1.00  0.00     0.034 A 
ATOM     27  C   UNL A   1      38.198  30.639  30.107  1.00  0.00     0.034 A 
ATOM     28  C   UNL A   1      42.694  29.524  34.602  1.00  0.00     0.049 A 
ATOM     29  C   UNL A   1      38.276  31.036  31.543  1.00  0.00     0.074 A 
ATOM     30  C   UNL A   1      42.786  30.084  35.865  1.00  0.00     0.029 A 
ATOM     31  N   UNL A   1      41.542  30.042  34.025  1.00  0.00    -0.354 N 
ATOM     32  N   UNL A   1      39.237  30.776  32.393  1.00  0.00    -0.248 NA
ATOM     33  C   UNL A   1      37.210  31.893  32.071  1.00  0.00     0.031 C 
ATOM     34  C   UNL A   1      41.656  30.877  36.080  1.00  0.00     0.029 A 
ATOM     35  C   UNL A   1      40.890  30.873  34.926  1.00  0.00     0.049 A 
ATOM     36  H   UNL A   1      41.234  29.850  33.111  1.00  0.00     0.167 HD
ATOM     37  C   UNL A   1      38.935  31.493  33.536  1.00  0.00     0.074 A 
ATOM     38  C   UNL A   1      37.687  32.185  33.277  1.00  0.00     0.031 C 
ATOM     39  C   UNL A   1      39.654  31.577  34.679  1.00  0.00     0.034 A 
BRANCH  26  40
ATOM     40  C   UNL A   1      44.774  28.105  34.781  1.00  0.00     0.023 A 
ATOM     41  C   UNL A   1      45.991  28.811  34.749  1.00  0.00     0.012 A 
ATOM     42  C   UNL A   1      44.643  26.982  35.622  1.00  0.00     0.148 A 
ATOM     43  C   UNL A   1      47.070  28.390  35.527  1.00  0.00     0.002 A 
ATOM     44  C   UNL A   1      45.704  26.597  36.429  1.00  0.00     0.091 A 
ATOM     45  F   UNL A   1      43.480  26.315  35.617  1.00  0.00    -0.205 F 
ATOM     46  C   UNL A   1      46.922  27.291  36.374  1.00  0.00     0.022 A 
BRANCH  44  47
ATOM     47  S   UNL A   1      45.579  25.250  37.607  1.00  0.00     0.127 S 
ATOM     48  O   UNL A   1      45.133  24.151  36.751  1.00  0.00    -0.237 OA
ATOM     49  O   UNL A   1      46.956  25.133  38.084  1.00  0.00    -0.237 OA
ATOM     50  O   UNL A   1      44.619  25.679  38.614  1.00  0.00    -0.744 OA
ENDBRANCH  44  47
ENDBRANCH  26  40
BRANCH  27  51
ATOM     51  C   UNL A   1      37.077  31.051  29.218  1.00  0.00     0.023 A 
ATOM     52  C   UNL A   1      36.921  32.399  28.853  1.00  0.00     0.012 A 
ATOM     53  C   UNL A   1      36.192  30.085  28.692  1.00  0.00     0.148 A 
ATOM     54  C   UNL A   1      35.886  32.784  27.998  1.00  0.00     0.002 A 
ATOM     55  C   UNL A   1      35.184  30.471  27.816  1.00  0.00     0.091 A 
ATOM     56  F   UNL A   1      36.359  28.805  29.057  1.00  0.00    -0.205 F 
ATOM     57  C   UNL A   1      35.023  31.823  27.475  1.00  0.00     0.022 A 
BRANCH  55  58
ATOM     58  S   UNL A   1      34.061  29.301  27.040  1.00  0.00     0.127 S 
ATOM     59  O   UNL A   1      32.959  29.265  28.000  1.00  0.00    -0.237 OA
ATOM     60  O   UNL A   1      33.752  29.975  25.778  1.00  0.00    -0.237 OA
ATOM     61  O   UNL A   1      34.811  28.061  26.901  1.00  0.00    -0.744 OA
ENDBRANCH  55  58
ENDBRANCH  27  51
BRANCH  39  62
ATOM     62  C   UNL A   1      39.128  32.466  35.772  1.00  0.00     0.023 A 
ATOM     63  C   UNL A   1      38.226  31.951  36.724  1.00  0.00     0.012 A 
ATOM     64  C   UNL A   1      39.620  33.779  35.918  1.00  0.00     0.148 A 
ATOM     65  C   UNL A   1      37.812  32.735  37.799  1.00  0.00     0.002 A 
ATOM     66  C   UNL A   1      39.249  34.531  37.023  1.00  0.00     0.091 A 
ATOM     67  F   UNL A   1      40.456  34.256  34.985  1.00  0.00    -0.205 F 
ATOM     68  C   UNL A   1      38.336  34.016  37.958  1.00  0.00     0.022 A 
BRANCH  66  69
ATOM     69  S   UNL A   1      39.955  36.145  37.375  1.00  0.00     0.127 S 
ATOM     70  O   UNL A   1      39.836  36.811  36.079  1.00  0.00    -0.237 OA
ATOM     71  O   UNL A   1      39.054  36.654  38.408  1.00  0.00    -0.237 OA
ATOM     72  O   UNL A   1      41.321  35.902  37.821  1.00  0.00    -0.744 OA
ENDBRANCH  66  69
ENDBRANCH  39  62
ENDBRANCH  13  14
ENDBRANCH   6   8
ENDBRANCH   5   6
ENDBRANCH   4   5
ENDBRANCH   3   4
ENDBRANCH   2   3
ENDBRANCH   1   2
BRANCH   1  73
ATOM     73  C   UNL A   1      40.160  20.132  26.392  1.00  0.00     0.188 C 
BRANCH  73  74
ATOM     74  O   UNL A   1      39.641  21.427  26.140  1.00  0.00    -0.376 OA
BRANCH  74  75
ATOM     75  C   UNL A   1      38.446  21.429  25.362  1.00  0.00     0.202 C 
BRANCH  75  76
ATOM     76  C   UNL A   1      37.431  22.553  25.662  1.00  0.00     0.261 C 
BRANCH  76  77
ATOM     77  O   UNL A   1      36.105  22.345  25.107  1.00  0.00    -0.463 OA
BRANCH  77  78
ATOM     78  C   UNL A   1      35.063  22.923  25.786  1.00  0.00     0.312 C 
ATOM     79  O   UNL A   1      35.056  23.082  27.003  1.00  0.00    -0.252 OA
BRANCH  78  80
ATOM     80  C   UNL A   1      33.993  23.531  24.881  1.00  0.00     0.147 C 
ATOM     81  C   UNL A   1      33.710  22.595  23.676  1.00  0.00     0.129 C 
ATOM     82  C   UNL A   1      34.459  24.768  24.153  1.00  0.00     0.157 C 
ATOM     83  C   UNL A   1      34.376  23.363  22.500  1.00  0.00     0.155 C 
ATOM     84  C   UNL A   1      33.440  25.293  23.165  1.00  0.00     0.004 C 
ATOM     85  O   UNL A   1      35.381  24.135  23.233  1.00  0.00    -0.365 OA
ATOM     86  C   UNL A   1      33.490  24.490  22.096  1.00  0.00     0.004 C 
BRANCH  81  87
ATOM     87  C   UNL A   1      32.242  22.237  23.406  1.00  0.00     0.233 C 
ATOM     88  O   UNL A   1      31.954  21.354  22.592  1.00  0.00    -0.274 OA
ATOM     89  N   UNL A   1      31.294  22.557  24.337  1.00  0.00    -0.302 N 
ATOM     90  H   UNL A   1      30.994  21.824  24.923  1.00  0.00     0.172 HD
BRANCH  89  91
ATOM     91  C   UNL A   1      30.709  23.785  24.550  1.00  0.00     0.189 A 
ATOM     92  N   UNL A   1      30.139  24.647  23.738  1.00  0.00    -0.220 NA
ATOM     93  S   UNL A   1      30.842  24.288  26.183  1.00  0.00    -0.105 S 
ATOM     94  C   UNL A   1      29.768  25.820  24.436  1.00  0.00     0.084 A 
ATOM     95  C   UNL A   1      30.195  25.824  25.755  1.00  0.00     0.097 A 
BRANCH  94  96
ATOM     96  C   UNL A   1      29.642  27.082  23.696  1.00  0.00     0.001 A 
ATOM     97  C   UNL A   1      30.870  28.096  22.861  1.00  0.00     0.013 A 
ATOM     98  C   UNL A   1      27.957  27.522  23.656  1.00  0.00     0.013 A 
ATOM     99  C   UNL A   1      30.407  29.614  21.990  1.00  0.00     0.040 A 
ATOM    100  C   UNL A   1      27.451  29.023  22.820  1.00  0.00     0.040 A 
ATOM    101  C   UNL A   1      28.689  30.119  21.934  1.00  0.00     0.123 A 
ATOM    102  F   UNL A   1      28.314  31.267  21.363  1.00  0.00    -0.207 F 
ENDBRANCH  94  96
ENDBRANCH  89  91
ENDBRANCH  81  87
ENDBRANCH  78  80
ENDBRANCH  77  78
ENDBRANCH  76  77
ENDBRANCH  75  76
ENDBRANCH  74  75
ENDBRANCH  73  74
ENDBRANCH   1  73
TORSDOF 23
ENDMDL
MODEL 2
REMARK VINA RESULT:     -12.1      2.342      8.194
REMARK SMILES O=C(OCCOCCOCCOC(=O)[C@@H]1[C@@H](C(=O)Nc2nc(-c3ccc(F)cc3)cs2)[C@H]2C=C[C@@H]1O2)c1ccc(-c2c3nc(c(-c4cccc(S(=O)(=O)[O-])c4F)c4ccc([nH]4)c(-c4cccc(S(=O)(=O)[O-])c4F)c4nc(c(-c5cccc(S(=O)(=O)[O-])c5F)c5ccc2[nH]5)C=C4)C=C3)cc1
REMARK SMILES IDX 7 1 6 2 5 3 4 4 3 5 2 6 1 7 37 8 38 9 99 10 39 11 98 12
REMARK SMILES IDX 40 13 41 14 42 15 92 16 43 17 97 18 91 19 93 20 44 21 96 22
REMARK SMILES IDX 90 23 89 24 45 26 77 27 57 28 76 29 58 30 61 31 75 32 94 33
REMARK SMILES IDX 59 34 60 35 74 37 95 38 62 39 46 40 47 41 55 42 48 43 50 44
REMARK SMILES IDX 56 45 49 46 51 47 52 48 53 49 54 50 78 51 79 52 87 53 80 54
REMARK SMILES IDX 82 55 88 56 81 57 83 58 84 59 85 60 86 61 63 62 64 63 72 64
REMARK SMILES IDX 65 65 67 66 73 67 66 68 68 69 69 70 70 71 71 72 8 73 9 74
REMARK SMILES IDX 10 75 11 76 12 77 13 78 14 79 15 80 16 81 35 82 32 83 34 84
REMARK SMILES IDX 36 85 33 86 17 87 18 88 19 89 20 91 21 92 31 93 22 94 30 95
REMARK SMILES IDX 23 96 24 97 29 98 25 99 28 100 26 101 27 102
REMARK H PARENT 93 25 61 36 19 90
REMARK Flexibility Score: inf
ROOT
ATOM      1  C   UNL A   1      38.051  21.525  25.631  1.00  0.00     0.188 C 
ENDROOT
BRANCH   1   2
ATOM      2  O   UNL A   1      39.344  22.080  26.017  1.00  0.00    -0.376 OA
BRANCH   2   3
ATOM      3  C   UNL A   1      40.381  21.295  26.724  1.00  0.00     0.202 C 
BRANCH   3   4
ATOM      4  C   UNL A   1      41.739  20.553  26.027  1.00  0.00     0.261 C 
BRANCH   4   5
ATOM      5  O   UNL A   1      42.894  21.348  25.097  1.00  0.00    -0.460 OA
BRANCH   5   6
ATOM      6  C   UNL A   1      43.446  22.933  24.810  1.00  0.00     0.338 C 
ATOM      7  O   UNL A   1      44.018  22.717  23.714  1.00  0.00    -0.246 OA
BRANCH   6   8
ATOM      8  C   UNL A   1      43.136  24.620  26.143  1.00  0.00     0.060 A 
ATOM      9  C   UNL A   1      42.249  24.590  27.497  1.00  0.00     0.016 A 
ATOM     10  C   UNL A   1      43.451  26.064  26.172  1.00  0.00     0.016 A 
ATOM     11  C   UNL A   1      41.860  25.503  28.471  1.00  0.00     0.010 A 
ATOM     12  C   UNL A   1      42.979  27.077  27.155  1.00  0.00     0.010 A 
ATOM     13  C   UNL A   1      42.195  26.800  28.291  1.00  0.00    -0.014 A 
BRANCH  13  14
ATOM     14  C   UNL A   1      41.696  27.717  29.349  1.00  0.00     0.031 A 
ATOM     15  C   UNL A   1      40.374  28.411  29.225  1.00  0.00     0.074 A 
ATOM     16  C   UNL A   1      42.207  27.663  30.596  1.00  0.00     0.049 A 
ATOM     17  N   UNL A   1      39.780  29.174  30.103  1.00  0.00    -0.248 NA
ATOM     18  C   UNL A   1      39.575  28.136  28.022  1.00  0.00     0.031 C 
ATOM     19  C   UNL A   1      43.155  26.661  31.035  1.00  0.00     0.029 A 
ATOM     20  N   UNL A   1      42.017  28.426  31.719  1.00  0.00    -0.354 N 
ATOM     21  C   UNL A   1      38.545  29.488  29.564  1.00  0.00     0.074 A 
ATOM     22  C   UNL A   1      38.466  28.820  28.281  1.00  0.00     0.031 C 
ATOM     23  C   UNL A   1      43.641  26.981  32.240  1.00  0.00     0.029 A 
ATOM     24  C   UNL A   1      42.974  28.188  32.684  1.00  0.00     0.049 A 
ATOM     25  H   UNL A   1      41.280  29.070  31.825  1.00  0.00     0.167 HD
ATOM     26  C   UNL A   1      37.578  30.264  30.106  1.00  0.00     0.034 A 
ATOM     27  C   UNL A   1      43.302  28.864  33.798  1.00  0.00     0.034 A 
ATOM     28  C   UNL A   1      37.675  30.914  31.389  1.00  0.00     0.049 A 
ATOM     29  C   UNL A   1      42.357  29.920  34.263  1.00  0.00     0.074 A 
ATOM     30  C   UNL A   1      36.763  31.770  31.981  1.00  0.00     0.029 A 
ATOM     31  N   UNL A   1      38.742  30.804  32.273  1.00  0.00    -0.354 N 
ATOM     32  N   UNL A   1      41.220  30.271  33.719  1.00  0.00    -0.248 NA
ATOM     33  C   UNL A   1      42.665  30.601  35.525  1.00  0.00     0.031 C 
ATOM     34  C   UNL A   1      37.308  32.236  33.181  1.00  0.00     0.029 A 
ATOM     35  C   UNL A   1      38.531  31.617  33.377  1.00  0.00     0.049 A 
ATOM     36  H   UNL A   1      39.531  30.232  32.136  1.00  0.00     0.167 HD
ATOM     37  C   UNL A   1      40.637  31.161  34.602  1.00  0.00     0.074 A 
ATOM     38  C   UNL A   1      41.557  31.312  35.712  1.00  0.00     0.031 C 
ATOM     39  C   UNL A   1      39.432  31.769  34.495  1.00  0.00     0.034 A 
BRANCH  26  40
ATOM     40  C   UNL A   1      36.354  30.526  29.274  1.00  0.00     0.023 A 
ATOM     41  C   UNL A   1      35.630  29.466  28.698  1.00  0.00     0.012 A 
ATOM     42  C   UNL A   1      35.888  31.849  29.127  1.00  0.00     0.148 A 
ATOM     43  C   UNL A   1      34.470  29.722  27.966  1.00  0.00     0.002 A 
ATOM     44  C   UNL A   1      34.708  32.091  28.440  1.00  0.00     0.091 A 
ATOM     45  F   UNL A   1      36.609  32.842  29.668  1.00  0.00    -0.205 F 
ATOM     46  C   UNL A   1      34.003  31.031  27.848  1.00  0.00     0.022 A 
BRANCH  44  47
ATOM     47  S   UNL A   1      33.990  33.730  28.306  1.00  0.00     0.127 S 
ATOM     48  O   UNL A   1      35.043  34.455  27.594  1.00  0.00    -0.237 OA
ATOM     49  O   UNL A   1      32.786  33.472  27.518  1.00  0.00    -0.237 OA
ATOM     50  O   UNL A   1      33.744  34.178  29.669  1.00  0.00    -0.744 OA
ENDBRANCH  44  47
ENDBRANCH  26  40
BRANCH  27  51
ATOM     51  C   UNL A   1      44.542  28.509  34.543  1.00  0.00     0.023 A 
ATOM     52  C   UNL A   1      45.783  29.032  34.144  1.00  0.00     0.012 A 
ATOM     53  C   UNL A   1      44.474  27.684  35.687  1.00  0.00     0.148 A 
ATOM     54  C   UNL A   1      46.943  28.722  34.857  1.00  0.00     0.002 A 
ATOM     55  C   UNL A   1      45.628  27.405  36.411  1.00  0.00     0.091 A 
ATOM     56  F   UNL A   1      43.279  27.194  36.047  1.00  0.00    -0.205 F 
ATOM     57  C   UNL A   1      46.866  27.915  35.991  1.00  0.00     0.022 A 
BRANCH  55  58
ATOM     58  S   UNL A   1      45.624  26.430  37.920  1.00  0.00     0.127 S 
ATOM     59  O   UNL A   1      46.997  26.604  38.392  1.00  0.00    -0.237 OA
ATOM     60  O   UNL A   1      44.609  27.119  38.720  1.00  0.00    -0.237 OA
ATOM     61  O   UNL A   1      45.268  25.076  37.520  1.00  0.00    -0.744 OA
ENDBRANCH  55  58
ENDBRANCH  27  51
BRANCH  39  62
ATOM     62  C   UNL A   1      39.002  32.670  35.620  1.00  0.00     0.023 A 
ATOM     63  C   UNL A   1      38.140  32.182  36.621  1.00  0.00     0.012 A 
ATOM     64  C   UNL A   1      39.546  33.964  35.740  1.00  0.00     0.148 A 
ATOM     65  C   UNL A   1      37.816  32.974  37.721  1.00  0.00     0.002 A 
ATOM     66  C   UNL A   1      39.266  34.724  36.868  1.00  0.00     0.091 A 
ATOM     67  F   UNL A   1      40.341  34.417  34.761  1.00  0.00    -0.205 F 
ATOM     68  C   UNL A   1      38.392  34.235  37.853  1.00  0.00     0.022 A 
BRANCH  66  69
ATOM     69  S   UNL A   1      40.047  36.310  37.182  1.00  0.00     0.127 S 
ATOM     70  O   UNL A   1      41.389  35.904  37.598  1.00  0.00    -0.237 OA
ATOM     71  O   UNL A   1      39.983  36.948  35.867  1.00  0.00    -0.237 OA
ATOM     72  O   UNL A   1      39.250  36.959  38.214  1.00  0.00    -0.744 OA
ENDBRANCH  66  69
ENDBRANCH  39  62
ENDBRANCH  13  14
ENDBRANCH   6   8
ENDBRANCH   5   6
ENDBRANCH   4   5
ENDBRANCH   3   4
ENDBRANCH   2   3
ENDBRANCH   1   2
BRANCH   1  73
ATOM     73  C   UNL A   1      37.058  22.475  24.945  1.00  0.00     0.188 C 
BRANCH  73  74
ATOM     74  O   UNL A   1      36.883  23.723  25.595  1.00  0.00    -0.376 OA
BRANCH  74  75
ATOM     75  C   UNL A   1      35.526  24.019  25.919  1.00  0.00     0.202 C 
BRANCH  75  76
ATOM     76  C   UNL A   1      34.849  25.134  25.093  1.00  0.00     0.261 C 
BRANCH  76  77
ATOM     77  O   UNL A   1      33.915  25.963  25.834  1.00  0.00    -0.463 OA
BRANCH  77  78
ATOM     78  C   UNL A   1      33.657  27.205  25.313  1.00  0.00     0.312 C 
ATOM     79  O   UNL A   1      34.472  28.124  25.323  1.00  0.00    -0.252 OA
BRANCH  78  80
ATOM     80  C   UNL A   1      32.342  27.294  24.542  1.00  0.00     0.147 C 
ATOM     81  C   UNL A   1      32.612  27.327  23.014  1.00  0.00     0.129 C 
ATOM     82  C   UNL A   1      31.636  28.617  24.715  1.00  0.00     0.157 C 
ATOM     83  C   UNL A   1      32.299  28.807  22.657  1.00  0.00     0.155 C 
ATOM     84  C   UNL A   1      30.399  28.747  23.853  1.00  0.00     0.004 C 
ATOM     85  O   UNL A   1      32.549  29.442  23.951  1.00  0.00    -0.365 OA
ATOM     86  C   UNL A   1      30.823  28.990  22.606  1.00  0.00     0.004 C 
BRANCH  81  87
ATOM     87  C   UNL A   1      31.835  26.322  22.152  1.00  0.00     0.233 C 
ATOM     88  O   UNL A   1      30.973  26.715  21.359  1.00  0.00    -0.274 OA
ATOM     89  N   UNL A   1      32.366  25.082  21.928  1.00  0.00    -0.302 N 
ATOM     90  H   UNL A   1      32.806  24.947  21.058  1.00  0.00     0.172 HD
BRANCH  89  91
ATOM     91  C   UNL A   1      32.354  24.000  22.779  1.00  0.00     0.189 A 
ATOM     92  N   UNL A   1      33.192  23.003  22.956  1.00  0.00    -0.220 NA
ATOM     93  S   UNL A   1      30.917  23.929  23.711  1.00  0.00    -0.105 S 
ATOM     94  C   UNL A   1      32.681  22.084  23.900  1.00  0.00     0.084 A 
ATOM     95  C   UNL A   1      31.393  22.389  24.314  1.00  0.00     0.097 A 
BRANCH  94  96
ATOM     96  C   UNL A   1      33.129  20.686  23.853  1.00  0.00     0.001 A 
ATOM     97  C   UNL A   1      34.363  19.802  24.817  1.00  0.00     0.013 A 
ATOM     98  C   UNL A   1      32.180  19.851  22.654  1.00  0.00     0.013 A 
ATOM     99  C   UNL A   1      34.685  18.040  24.552  1.00  0.00     0.040 A 
ATOM    100  C   UNL A   1      32.471  18.112  22.344  1.00  0.00     0.040 A 
ATOM    101  C   UNL A   1      33.747  17.141  23.319  1.00  0.00     0.123 A 
ATOM    102  F   UNL A   1      34.001  15.859  23.043  1.00  0.00    -0.207 F 
ENDBRANCH  94  96
ENDBRANCH  89  91
ENDBRANCH  81  87
ENDBRANCH  78  80
ENDBRANCH  77  78
ENDBRANCH  76  77
ENDBRANCH  75  76
ENDBRANCH  74  75
ENDBRANCH  73  74
ENDBRANCH   1  73
TORSDOF 23
ENDMDL
MODEL 3
REMARK VINA RESULT:     -11.5      6.029      9.341
REMARK SMILES O=C(OCCOCCOCCOC(=O)[C@@H]1[C@@H](C(=O)Nc2nc(-c3ccc(F)cc3)cs2)[C@H]2C=C[C@@H]1O2)c1ccc(-c2c3nc(c(-c4cccc(S(=O)(=O)[O-])c4F)c4ccc([nH]4)c(-c4cccc(S(=O)(=O)[O-])c4F)c4nc(c(-c5cccc(S(=O)(=O)[O-])c5F)c5ccc2[nH]5)C=C4)C=C3)cc1
REMARK SMILES IDX 7 1 6 2 5 3 4 4 3 5 2 6 1 7 37 8 38 9 99 10 39 11 98 12
REMARK SMILES IDX 40 13 41 14 42 15 92 16 43 17 97 18 91 19 93 20 44 21 96 22
REMARK SMILES IDX 90 23 89 24 45 26 77 27 57 28 76 29 58 30 61 31 75 32 94 33
REMARK SMILES IDX 59 34 60 35 74 37 95 38 62 39 46 40 47 41 55 42 48 43 50 44
REMARK SMILES IDX 56 45 49 46 51 47 52 48 53 49 54 50 78 51 79 52 87 53 80 54
REMARK SMILES IDX 82 55 88 56 81 57 83 58 84 59 85 60 86 61 63 62 64 63 72 64
REMARK SMILES IDX 65 65 67 66 73 67 66 68 68 69 69 70 70 71 71 72 8 73 9 74
REMARK SMILES IDX 10 75 11 76 12 77 13 78 14 79 15 80 16 81 35 82 32 83 34 84
REMARK SMILES IDX 36 85 33 86 17 87 18 88 19 89 20 91 21 92 31 93 22 94 30 95
REMARK SMILES IDX 23 96 24 97 29 98 25 99 28 100 26 101 27 102
REMARK H PARENT 93 25 61 36 19 90
REMARK Flexibility Score: inf
ROOT
ATOM      1  C   UNL A   1      39.570  21.561  26.500  1.00  0.00     0.188 C 
ENDROOT
BRANCH   1   2
ATOM      2  O   UNL A   1      40.503  20.722  25.755  1.00  0.00    -0.376 OA
BRANCH   2   3
ATOM      3  C   UNL A   1      40.784  19.314  26.112  1.00  0.00     0.202 C 
BRANCH   3   4
ATOM      4  C   UNL A   1      42.309  18.633  26.414  1.00  0.00     0.261 C 
BRANCH   4   5
ATOM      5  O   UNL A   1      43.562  18.551  25.294  1.00  0.00    -0.460 OA
BRANCH   5   6
ATOM      6  C   UNL A   1      45.113  19.210  25.047  1.00  0.00     0.338 C 
ATOM      7  O   UNL A   1      45.720  18.134  24.823  1.00  0.00    -0.246 OA
BRANCH   6   8
ATOM      8  C   UNL A   1      45.603  21.321  25.181  1.00  0.00     0.060 A 
ATOM      9  C   UNL A   1      45.283  22.277  26.449  1.00  0.00     0.016 A 
ATOM     10  C   UNL A   1      46.147  22.376  24.300  1.00  0.00     0.016 A 
ATOM     11  C   UNL A   1      45.440  23.621  26.766  1.00  0.00     0.010 A 
ATOM     12  C   UNL A   1      46.248  23.834  24.584  1.00  0.00     0.010 A 
ATOM     13  C   UNL A   1      45.900  24.449  25.801  1.00  0.00    -0.014 A 
BRANCH  13  14
ATOM     14  C   UNL A   1      45.987  25.877  26.205  1.00  0.00     0.031 A 
ATOM     15  C   UNL A   1      44.780  26.636  26.664  1.00  0.00     0.074 A 
ATOM     16  C   UNL A   1      47.175  26.419  26.541  1.00  0.00     0.049 A 
ATOM     17  N   UNL A   1      44.723  27.859  27.119  1.00  0.00    -0.248 NA
ATOM     18  C   UNL A   1      43.502  25.910  26.716  1.00  0.00     0.031 C 
ATOM     19  C   UNL A   1      48.402  25.662  26.661  1.00  0.00     0.029 A 
ATOM     20  N   UNL A   1      47.565  27.696  26.853  1.00  0.00    -0.354 N 
ATOM     21  C   UNL A   1      43.410  28.065  27.501  1.00  0.00     0.074 A 
ATOM     22  C   UNL A   1      42.698  26.831  27.237  1.00  0.00     0.031 C 
ATOM     23  C   UNL A   1      49.445  26.489  26.795  1.00  0.00     0.029 A 
ATOM     24  C   UNL A   1      48.937  27.845  26.839  1.00  0.00     0.049 A 
ATOM     25  H   UNL A   1      46.938  28.425  27.064  1.00  0.00     0.167 HD
ATOM     26  C   UNL A   1      42.865  29.188  28.024  1.00  0.00     0.034 A 
ATOM     27  C   UNL A   1      49.714  28.941  26.844  1.00  0.00     0.034 A 
ATOM     28  C   UNL A   1      43.595  30.403  28.287  1.00  0.00     0.049 A 
ATOM     29  C   UNL A   1      49.061  30.243  27.166  1.00  0.00     0.074 A 
ATOM     30  C   UNL A   1      43.100  31.607  28.758  1.00  0.00     0.029 A 
ATOM     31  N   UNL A   1      44.958  30.587  28.090  1.00  0.00    -0.354 N 
ATOM     32  N   UNL A   1      47.804  30.456  27.461  1.00  0.00    -0.248 NA
ATOM     33  C   UNL A   1      49.918  31.430  27.259  1.00  0.00     0.031 C 
ATOM     34  C   UNL A   1      44.143  32.538  28.772  1.00  0.00     0.029 A 
ATOM     35  C   UNL A   1      45.308  31.899  28.379  1.00  0.00     0.049 A 
ATOM     36  H   UNL A   1      45.583  29.890  27.790  1.00  0.00     0.167 HD
ATOM     37  C   UNL A   1      47.725  31.782  27.844  1.00  0.00     0.074 A 
ATOM     38  C   UNL A   1      49.061  32.331  27.726  1.00  0.00     0.031 C 
ATOM     39  C   UNL A   1      46.635  32.458  28.278  1.00  0.00     0.034 A 
BRANCH  26  40
ATOM     40  C   UNL A   1      41.384  29.187  28.275  1.00  0.00     0.023 A 
ATOM     41  C   UNL A   1      40.469  29.261  27.208  1.00  0.00     0.012 A 
ATOM     42  C   UNL A   1      40.905  29.042  29.593  1.00  0.00     0.148 A 
ATOM     43  C   UNL A   1      39.096  29.214  27.452  1.00  0.00     0.002 A 
ATOM     44  C   UNL A   1      39.541  28.946  29.824  1.00  0.00     0.091 A 
ATOM     45  F   UNL A   1      41.797  28.995  30.592  1.00  0.00    -0.205 F 
ATOM     46  C   UNL A   1      38.634  29.045  28.758  1.00  0.00     0.022 A 
BRANCH  44  47
ATOM     47  S   UNL A   1      38.859  28.647  31.457  1.00  0.00     0.127 S 
ATOM     48  O   UNL A   1      39.857  29.288  32.314  1.00  0.00    -0.237 OA
ATOM     49  O   UNL A   1      37.577  29.347  31.384  1.00  0.00    -0.237 OA
ATOM     50  O   UNL A   1      38.759  27.202  31.596  1.00  0.00    -0.744 OA
ENDBRANCH  44  47
ENDBRANCH  26  40
BRANCH  27  51
ATOM     51  C   UNL A   1      51.175  28.815  26.587  1.00  0.00     0.023 A 
ATOM     52  C   UNL A   1      51.679  28.934  25.281  1.00  0.00     0.012 A 
ATOM     53  C   UNL A   1      52.074  28.626  27.660  1.00  0.00     0.148 A 
ATOM     54  C   UNL A   1      53.051  28.844  25.042  1.00  0.00     0.002 A 
ATOM     55  C   UNL A   1      53.442  28.568  27.418  1.00  0.00     0.091 A 
ATOM     56  F   UNL A   1      51.571  28.512  28.898  1.00  0.00    -0.205 F 
ATOM     57  C   UNL A   1      53.932  28.667  26.107  1.00  0.00     0.022 A 
BRANCH  55  58
ATOM     58  S   UNL A   1      54.661  28.407  28.728  1.00  0.00     0.127 S 
ATOM     59  O   UNL A   1      55.659  29.399  28.330  1.00  0.00    -0.237 OA
ATOM     60  O   UNL A   1      53.878  28.767  29.912  1.00  0.00    -0.237 OA
ATOM     61  O   UNL A   1      55.107  27.022  28.691  1.00  0.00    -0.744 OA
ENDBRANCH  55  58
ENDBRANCH  27  51
BRANCH  39  62
ATOM     62  C   UNL A   1      46.819  33.895  28.679  1.00  0.00     0.023 A 
ATOM     63  C   UNL A   1      47.178  34.215  30.003  1.00  0.00     0.012 A 
ATOM     64  C   UNL A   1      46.745  34.917  27.712  1.00  0.00     0.148 A 
ATOM     65  C   UNL A   1      47.450  35.534  30.361  1.00  0.00     0.002 A 
ATOM     66  C   UNL A   1      47.075  36.219  28.062  1.00  0.00     0.091 A 
ATOM     67  F   UNL A   1      46.374  34.592  26.465  1.00  0.00    -0.205 F 
ATOM     68  C   UNL A   1      47.416  36.531  29.388  1.00  0.00     0.022 A 
BRANCH  66  69
ATOM     69  S   UNL A   1      47.170  37.549  26.859  1.00  0.00     0.127 S 
ATOM     70  O   UNL A   1      47.981  38.536  27.570  1.00  0.00    -0.237 OA
ATOM     71  O   UNL A   1      47.846  36.898  25.737  1.00  0.00    -0.237 OA
ATOM     72  O   UNL A   1      45.797  37.955  26.591  1.00  0.00    -0.744 OA
ENDBRANCH  66  69
ENDBRANCH  39  62
ENDBRANCH  13  14
ENDBRANCH   6   8
ENDBRANCH   5   6
ENDBRANCH   4   5
ENDBRANCH   3   4
ENDBRANCH   2   3
ENDBRANCH   1   2
BRANCH   1  73
ATOM     73  C   UNL A   1      38.479  22.281  25.695  1.00  0.00     0.188 C 
BRANCH  73  74
ATOM     74  O   UNL A   1      37.751  21.452  24.804  1.00  0.00    -0.376 OA
BRANCH  74  75
ATOM     75  C   UNL A   1      36.565  20.897  25.369  1.00  0.00     0.202 C 
BRANCH  75  76
ATOM     76  C   UNL A   1      35.226  21.478  24.867  1.00  0.00     0.261 C 
BRANCH  76  77
ATOM     77  O   UNL A   1      34.990  22.867  25.221  1.00  0.00    -0.463 OA
BRANCH  77  78
ATOM     78  C   UNL A   1      34.828  23.742  24.177  1.00  0.00     0.312 C 
ATOM     79  O   UNL A   1      35.545  23.744  23.180  1.00  0.00    -0.252 OA
BRANCH  78  80
ATOM     80  C   UNL A   1      33.560  24.588  24.268  1.00  0.00     0.147 C 
ATOM     81  C   UNL A   1      32.480  23.853  25.106  1.00  0.00     0.129 C 
ATOM     82  C   UNL A   1      32.831  24.716  22.952  1.00  0.00     0.157 C 
ATOM     83  C   UNL A   1      31.462  23.412  24.017  1.00  0.00     0.155 C 
ATOM     84  C   UNL A   1      31.513  25.449  23.072  1.00  0.00     0.004 C 
ATOM     85  O   UNL A   1      32.343  23.357  22.850  1.00  0.00    -0.365 OA
ATOM     86  C   UNL A   1      30.643  24.589  23.616  1.00  0.00     0.004 C 
BRANCH  81  87
ATOM     87  C   UNL A   1      31.831  24.647  26.249  1.00  0.00     0.233 C 
ATOM     88  O   UNL A   1      31.090  24.082  27.060  1.00  0.00    -0.274 OA
ATOM     89  N   UNL A   1      32.386  25.835  26.636  1.00  0.00    -0.302 N 
ATOM     90  H   UNL A   1      32.945  25.811  27.447  1.00  0.00     0.172 HD
BRANCH  89  91
ATOM     91  C   UNL A   1      32.252  27.062  26.025  1.00  0.00     0.189 A 
ATOM     92  N   UNL A   1      31.200  27.751  25.644  1.00  0.00    -0.220 NA
ATOM     93  S   UNL A   1      33.769  27.752  25.627  1.00  0.00    -0.105 S 
ATOM     94  C   UNL A   1      31.593  28.931  24.972  1.00  0.00     0.084 A 
ATOM     95  C   UNL A   1      32.964  29.013  24.777  1.00  0.00     0.097 A 
BRANCH  94  96
ATOM     96  C   UNL A   1      30.672  29.546  24.008  1.00  0.00     0.001 A 
ATOM     97  C   UNL A   1      30.046  28.963  22.426  1.00  0.00     0.013 A 
ATOM     98  C   UNL A   1      30.134  31.067  24.665  1.00  0.00     0.013 A 
ATOM     99  C   UNL A   1      28.875  29.943  21.454  1.00  0.00     0.040 A 
ATOM    100  C   UNL A   1      28.988  32.080  23.734  1.00  0.00     0.040 A 
ATOM    101  C   UNL A   1      28.304  31.522  22.079  1.00  0.00     0.123 A 
ATOM    102  F   UNL A   1      27.496  32.308  21.362  1.00  0.00    -0.207 F 
ENDBRANCH  94  96
ENDBRANCH  89  91
ENDBRANCH  81  87
ENDBRANCH  78  80
ENDBRANCH  77  78
ENDBRANCH  76  77
ENDBRANCH  75  76
ENDBRANCH  74  75
ENDBRANCH  73  74
ENDBRANCH   1  73
TORSDOF 23
ENDMDL
