MODEL 1
REMARK VINA RESULT:     -11.2      0.000      0.000
REMARK SMILES CC[C@H](C)[C@H](NC(=O)[C@H](C)Oc1ccc2c(C)c(C)c(=O)oc2c1C)C(=O)OCCOCCOCCOC(=O)c1ccc(-c2c3nc(c(-c4cccc(S(=O)(=O)[O-])c4F)c4ccc([nH]4)c(-c4cccc(S(=O)(=O)[O-])c4F)c4nc(c(-c5cccc(S(=O)(=O)[O-])c5F)c5ccc2[nH]5)C=C4)C=C3)cc1
REMARK SMILES IDX 32 1 31 2 30 3 29 4 28 5 26 6 27 7 5 8 3 9 4 10 2 11 1 12
REMARK SMILES IDX 6 13 7 14 8 16 9 17 10 18 11 19 12 20 13 21 24 22 14 23
REMARK SMILES IDX 23 24 25 25 15 26 22 27 16 28 20 29 17 30 18 31 21 32 19 33
REMARK SMILES IDX 33 34 34 35 35 36 36 37 37 38 38 39 39 40 40 41 41 42 102 43
REMARK SMILES IDX 42 44 101 45 43 46 44 47 45 48 95 49 46 50 100 51 94 52
REMARK SMILES IDX 96 53 47 54 99 55 93 56 92 57 48 59 80 60 60 61 79 62 61 63
REMARK SMILES IDX 64 64 78 65 97 66 62 67 63 68 77 70 98 71 65 72 49 73 50 74
REMARK SMILES IDX 58 75 51 76 53 77 59 78 52 79 54 80 55 81 56 82 57 83 81 84
REMARK SMILES IDX 82 85 90 86 83 87 85 88 91 89 84 90 86 91 87 92 88 93 89 94
REMARK SMILES IDX 66 95 67 96 75 97 68 98 70 99 76 100 69 101 71 102 72 103
REMARK SMILES IDX 73 104 74 105
REMARK H PARENT 6 15 96 58 64 69
REMARK Flexibility Score: inf
ROOT
ATOM      1  C   UNL A   1      34.632  21.745  24.500  1.00  0.00     0.188 C 
ENDROOT
BRANCH   1   2
ATOM      2  O   UNL A   1      33.233  21.401  24.342  1.00  0.00    -0.376 OA
BRANCH   2   3
ATOM      3  C   UNL A   1      32.306  22.122  23.479  1.00  0.00     0.202 C 
BRANCH   3   4
ATOM      4  C   UNL A   1      32.381  23.633  23.192  1.00  0.00     0.261 C 
BRANCH   4   5
ATOM      5  O   UNL A   1      31.100  24.171  22.896  1.00  0.00    -0.462 OA
BRANCH   5   6
ATOM      6  C   UNL A   1      31.113  25.507  22.692  1.00  0.00     0.328 C 
ATOM      7  O   UNL A   1      31.688  26.065  21.769  1.00  0.00    -0.250 OA
BRANCH   6   8
ATOM      8  C   UNL A   1      30.150  26.200  23.666  1.00  0.00     0.195 C 
BRANCH   8   9
ATOM      9  C   UNL A   1      29.790  27.622  23.134  1.00  0.00     0.019 C 
ATOM     10  C   UNL A   1      28.293  27.916  23.270  1.00  0.00     0.010 C 
BRANCH   9  11
ATOM     11  C   UNL A   1      30.586  28.798  23.776  1.00  0.00     0.002 C 
ATOM     12  C   UNL A   1      29.895  30.156  23.766  1.00  0.00     0.004 C 
ENDBRANCH   9  11
ENDBRANCH   8   9
BRANCH   8  13
ATOM     13  N   UNL A   1      30.528  26.207  25.143  1.00  0.00    -0.339 N 
ATOM     14  C   UNL A   1      31.670  26.245  25.918  1.00  0.00     0.261 C 
ATOM     15  H   UNL A   1      29.724  26.173  25.709  1.00  0.00     0.164 HD
ATOM     16  O   UNL A   1      31.546  25.510  26.919  1.00  0.00    -0.271 OA
BRANCH  14  17
ATOM     17  C   UNL A   1      33.084  27.247  25.846  1.00  0.00     0.258 C 
ATOM     18  C   UNL A   1      33.688  26.962  24.448  1.00  0.00     0.064 C 
BRANCH  17  19
ATOM     19  O   UNL A   1      34.184  27.834  26.772  1.00  0.00    -0.480 OA
BRANCH  19  20
ATOM     20  C   UNL A   1      35.006  29.094  27.146  1.00  0.00     0.127 A 
ATOM     21  C   UNL A   1      33.700  30.363  27.348  1.00  0.00     0.047 A 
ATOM     22  C   UNL A   1      36.666  29.379  28.015  1.00  0.00     0.035 A 
ATOM     23  C   UNL A   1      34.019  31.833  28.344  1.00  0.00     0.016 A 
ATOM     24  C   UNL A   1      36.845  30.852  29.109  1.00  0.00     0.145 A 
ATOM     25  C   UNL A   1      38.011  28.650  28.241  1.00  0.00     0.052 C 
ATOM     26  C   UNL A   1      35.594  32.099  29.176  1.00  0.00     0.021 A 
ATOM     27  O   UNL A   1      38.042  31.074  29.790  1.00  0.00    -0.422 OA
ATOM     28  C   UNL A   1      36.233  33.433  29.293  1.00  0.00    -0.030 A 
ATOM     29  C   UNL A   1      38.235  32.331  30.336  1.00  0.00     0.339 A 
ATOM     30  C   UNL A   1      35.592  34.608  28.595  1.00  0.00     0.045 C 
ATOM     31  C   UNL A   1      37.513  33.488  29.731  1.00  0.00     0.038 A 
ATOM     32  O   UNL A   1      39.063  32.495  31.229  1.00  0.00    -0.246 OA
ATOM     33  C   UNL A   1      38.395  34.708  29.560  1.00  0.00     0.052 C 
ENDBRANCH  19  20
ENDBRANCH  17  19
ENDBRANCH  14  17
ENDBRANCH   8  13
ENDBRANCH   6   8
ENDBRANCH   5   6
ENDBRANCH   4   5
ENDBRANCH   3   4
ENDBRANCH   2   3
ENDBRANCH   1   2
BRANCH   1  34
ATOM     34  C   UNL A   1      36.000  20.840  24.997  1.00  0.00     0.188 C 
BRANCH  34  35
ATOM     35  O   UNL A   1      37.537  21.248  25.038  1.00  0.00    -0.376 OA
BRANCH  35  36
ATOM     36  C   UNL A   1      38.483  22.193  25.933  1.00  0.00     0.202 C 
BRANCH  36  37
ATOM     37  C   UNL A   1      40.027  21.942  26.704  1.00  0.00     0.261 C 
BRANCH  37  38
ATOM     38  O   UNL A   1      41.452  22.874  26.205  1.00  0.00    -0.460 OA
BRANCH  38  39
ATOM     39  C   UNL A   1      43.019  22.757  25.189  1.00  0.00     0.338 C 
ATOM     40  O   UNL A   1      43.487  21.662  24.756  1.00  0.00    -0.246 OA
BRANCH  39  41
ATOM     41  C   UNL A   1      44.117  23.731  24.682  1.00  0.00     0.060 A 
ATOM     42  C   UNL A   1      45.326  23.059  24.333  1.00  0.00     0.016 A 
ATOM     43  C   UNL A   1      44.235  25.063  25.093  1.00  0.00     0.016 A 
ATOM     44  C   UNL A   1      46.581  23.641  24.467  1.00  0.00     0.010 A 
ATOM     45  C   UNL A   1      45.494  25.647  25.242  1.00  0.00     0.010 A 
ATOM     46  C   UNL A   1      46.664  24.917  24.996  1.00  0.00    -0.014 A 
BRANCH  46  47
ATOM     47  C   UNL A   1      47.955  25.478  25.432  1.00  0.00     0.031 A 
ATOM     48  C   UNL A   1      48.262  25.584  26.899  1.00  0.00     0.074 A 
ATOM     49  C   UNL A   1      48.750  26.017  24.494  1.00  0.00     0.049 A 
ATOM     50  N   UNL A   1      49.267  26.176  27.485  1.00  0.00    -0.248 NA
ATOM     51  C   UNL A   1      47.312  24.952  27.834  1.00  0.00     0.031 C 
ATOM     52  C   UNL A   1      48.489  25.968  23.054  1.00  0.00     0.029 A 
ATOM     53  N   UNL A   1      49.885  26.768  24.613  1.00  0.00    -0.354 N 
ATOM     54  C   UNL A   1      49.069  26.003  28.850  1.00  0.00     0.074 A 
ATOM     55  C   UNL A   1      47.848  25.247  29.012  1.00  0.00     0.031 C 
ATOM     56  C   UNL A   1      49.392  26.737  22.427  1.00  0.00     0.029 A 
ATOM     57  C   UNL A   1      50.290  27.316  23.421  1.00  0.00     0.049 A 
ATOM     58  H   UNL A   1      50.362  26.902  25.464  1.00  0.00     0.167 HD
ATOM     59  C   UNL A   1      49.849  26.435  29.869  1.00  0.00     0.034 A 
ATOM     60  C   UNL A   1      51.268  28.203  23.169  1.00  0.00     0.034 A 
ATOM     61  C   UNL A   1      51.054  27.195  29.671  1.00  0.00     0.049 A 
ATOM     62  C   UNL A   1      52.125  28.662  24.311  1.00  0.00     0.074 A 
ATOM     63  C   UNL A   1      51.967  27.628  30.614  1.00  0.00     0.029 A 
ATOM     64  N   UNL A   1      51.500  27.648  28.437  1.00  0.00    -0.354 N 
ATOM     65  N   UNL A   1      52.008  28.374  25.586  1.00  0.00    -0.248 NA
ATOM     66  C   UNL A   1      53.270  29.520  23.986  1.00  0.00     0.031 C 
ATOM     67  C   UNL A   1      52.962  28.353  29.950  1.00  0.00     0.029 A 
ATOM     68  C   UNL A   1      52.673  28.360  28.593  1.00  0.00     0.049 A 
ATOM     69  H   UNL A   1      51.047  27.486  27.578  1.00  0.00     0.167 HD
ATOM     70  C   UNL A   1      53.085  28.983  26.215  1.00  0.00     0.074 A 
ATOM     71  C   UNL A   1      53.842  29.659  25.178  1.00  0.00     0.031 C 
ATOM     72  C   UNL A   1      53.418  28.985  27.528  1.00  0.00     0.034 A 
BRANCH  59  73
ATOM     73  C   UNL A   1      49.467  26.060  31.277  1.00  0.00     0.023 A 
ATOM     74  C   UNL A   1      48.435  26.773  31.918  1.00  0.00     0.012 A 
ATOM     75  C   UNL A   1      50.048  24.952  31.926  1.00  0.00     0.148 A 
ATOM     76  C   UNL A   1      47.992  26.398  33.187  1.00  0.00     0.002 A 
ATOM     77  C   UNL A   1      49.582  24.567  33.180  1.00  0.00     0.091 A 
ATOM     78  F   UNL A   1      51.034  24.292  31.302  1.00  0.00    -0.205 F 
ATOM     79  C   UNL A   1      48.559  25.292  33.813  1.00  0.00     0.022 A 
BRANCH  77  80
ATOM     80  S   UNL A   1      50.208  23.129  34.059  1.00  0.00     0.127 S 
ATOM     81  O   UNL A   1      51.532  23.588  34.476  1.00  0.00    -0.237 OA
ATOM     82  O   UNL A   1      49.239  22.992  35.147  1.00  0.00    -0.237 OA
ATOM     83  O   UNL A   1      50.212  22.036  33.097  1.00  0.00    -0.744 OA
ENDBRANCH  77  80
ENDBRANCH  59  73
BRANCH  60  84
ATOM     84  C   UNL A   1      51.523  28.602  21.761  1.00  0.00     0.023 A 
ATOM     85  C   UNL A   1      51.035  29.844  21.315  1.00  0.00     0.012 A 
ATOM     86  C   UNL A   1      52.359  27.842  20.919  1.00  0.00     0.148 A 
ATOM     87  C   UNL A   1      51.373  30.326  20.052  1.00  0.00     0.002 A 
ATOM     88  C   UNL A   1      52.717  28.343  19.672  1.00  0.00     0.091 A 
ATOM     89  F   UNL A   1      52.818  26.668  21.372  1.00  0.00    -0.205 F 
ATOM     90  C   UNL A   1      52.221  29.582  19.235  1.00  0.00     0.022 A 
BRANCH  88  91
ATOM     91  S   UNL A   1      53.888  27.516  18.588  1.00  0.00     0.127 S 
ATOM     92  O   UNL A   1      53.488  26.118  18.725  1.00  0.00    -0.237 OA
ATOM     93  O   UNL A   1      53.579  28.121  17.292  1.00  0.00    -0.237 OA
ATOM     94  O   UNL A   1      55.209  27.845  19.107  1.00  0.00    -0.744 OA
ENDBRANCH  88  91
ENDBRANCH  60  84
BRANCH  72  95
ATOM     95  C   UNL A   1      54.660  29.725  27.928  1.00  0.00     0.023 A 
ATOM     96  C   UNL A   1      54.551  31.041  28.415  1.00  0.00     0.012 A 
ATOM     97  C   UNL A   1      55.906  29.070  27.947  1.00  0.00     0.148 A 
ATOM     98  C   UNL A   1      55.673  31.700  28.915  1.00  0.00     0.002 A 
ATOM     99  C   UNL A   1      57.011  29.720  28.478  1.00  0.00     0.091 A 
ATOM    100  F   UNL A   1      55.976  27.820  27.468  1.00  0.00    -0.205 F 
ATOM    101  C   UNL A   1      56.897  31.035  28.957  1.00  0.00     0.022 A 
BRANCH  99 102
ATOM    102  S   UNL A   1      58.610  28.921  28.650  1.00  0.00     0.127 S 
ATOM    103  O   UNL A   1      59.019  28.773  27.254  1.00  0.00    -0.237 OA
ATOM    104  O   UNL A   1      59.371  29.914  29.407  1.00  0.00    -0.237 OA
ATOM    105  O   UNL A   1      58.365  27.673  29.360  1.00  0.00    -0.744 OA
ENDBRANCH  99 102
ENDBRANCH  72  95
ENDBRANCH  46  47
ENDBRANCH  39  41
ENDBRANCH  38  39
ENDBRANCH  37  38
ENDBRANCH  36  37
ENDBRANCH  35  36
ENDBRANCH  34  35
ENDBRANCH   1  34
TORSDOF 26
ENDMDL
MODEL 2
REMARK VINA RESULT:     -11.0      2.796      3.762
REMARK SMILES CC[C@H](C)[C@H](NC(=O)[C@H](C)Oc1ccc2c(C)c(C)c(=O)oc2c1C)C(=O)OCCOCCOCCOC(=O)c1ccc(-c2c3nc(c(-c4cccc(S(=O)(=O)[O-])c4F)c4ccc([nH]4)c(-c4cccc(S(=O)(=O)[O-])c4F)c4nc(c(-c5cccc(S(=O)(=O)[O-])c5F)c5ccc2[nH]5)C=C4)C=C3)cc1
REMARK SMILES IDX 32 1 31 2 30 3 29 4 28 5 26 6 27 7 5 8 3 9 4 10 2 11 1 12
REMARK SMILES IDX 6 13 7 14 8 16 9 17 10 18 11 19 12 20 13 21 24 22 14 23
REMARK SMILES IDX 23 24 25 25 15 26 22 27 16 28 20 29 17 30 18 31 21 32 19 33
REMARK SMILES IDX 33 34 34 35 35 36 36 37 37 38 38 39 39 40 40 41 41 42 102 43
REMARK SMILES IDX 42 44 101 45 43 46 44 47 45 48 95 49 46 50 100 51 94 52
REMARK SMILES IDX 96 53 47 54 99 55 93 56 92 57 48 59 80 60 60 61 79 62 61 63
REMARK SMILES IDX 64 64 78 65 97 66 62 67 63 68 77 70 98 71 65 72 49 73 50 74
REMARK SMILES IDX 58 75 51 76 53 77 59 78 52 79 54 80 55 81 56 82 57 83 81 84
REMARK SMILES IDX 82 85 90 86 83 87 85 88 91 89 84 90 86 91 87 92 88 93 89 94
REMARK SMILES IDX 66 95 67 96 75 97 68 98 70 99 76 100 69 101 71 102 72 103
REMARK SMILES IDX 73 104 74 105
REMARK H PARENT 6 15 96 58 64 69
REMARK Flexibility Score: inf
ROOT
ATOM      1  C   UNL A   1      35.193  22.631  24.145  1.00  0.00     0.188 C 
ENDROOT
BRANCH   1   2
ATOM      2  O   UNL A   1      33.838  22.452  23.664  1.00  0.00    -0.376 OA
BRANCH   2   3
ATOM      3  C   UNL A   1      33.326  23.025  22.426  1.00  0.00     0.202 C 
BRANCH   3   4
ATOM      4  C   UNL A   1      32.893  24.493  22.261  1.00  0.00     0.261 C 
BRANCH   4   5
ATOM      5  O   UNL A   1      31.627  24.732  22.860  1.00  0.00    -0.462 OA
BRANCH   5   6
ATOM      6  C   UNL A   1      31.084  25.920  22.512  1.00  0.00     0.328 C 
ATOM      7  O   UNL A   1      31.301  26.504  21.460  1.00  0.00    -0.250 OA
BRANCH   6   8
ATOM      8  C   UNL A   1      30.017  26.333  23.536  1.00  0.00     0.195 C 
BRANCH   8   9
ATOM      9  C   UNL A   1      29.294  27.629  23.054  1.00  0.00     0.019 C 
ATOM     10  C   UNL A   1      27.867  27.719  23.605  1.00  0.00     0.010 C 
BRANCH   9  11
ATOM     11  C   UNL A   1      30.032  28.965  23.368  1.00  0.00     0.002 C 
ATOM     12  C   UNL A   1      29.986  30.026  22.276  1.00  0.00     0.004 C 
ENDBRANCH   9  11
ENDBRANCH   8   9
BRANCH   8  13
ATOM     13  N   UNL A   1      30.439  26.409  25.000  1.00  0.00    -0.339 N 
ATOM     14  C   UNL A   1      31.604  26.457  25.739  1.00  0.00     0.261 C 
ATOM     15  H   UNL A   1      29.651  26.430  25.589  1.00  0.00     0.164 HD
ATOM     16  O   UNL A   1      31.489  25.780  26.782  1.00  0.00    -0.271 OA
BRANCH  14  17
ATOM     17  C   UNL A   1      33.043  27.410  25.572  1.00  0.00     0.258 C 
ATOM     18  C   UNL A   1      34.163  26.376  25.302  1.00  0.00     0.064 C 
BRANCH  17  19
ATOM     19  O   UNL A   1      33.674  28.727  26.100  1.00  0.00    -0.480 OA
BRANCH  19  20
ATOM     20  C   UNL A   1      33.558  29.883  27.128  1.00  0.00     0.127 A 
ATOM     21  C   UNL A   1      35.208  29.857  27.925  1.00  0.00     0.047 A 
ATOM     22  C   UNL A   1      32.560  31.491  27.202  1.00  0.00     0.035 A 
ATOM     23  C   UNL A   1      35.830  31.332  28.756  1.00  0.00     0.016 A 
ATOM     24  C   UNL A   1      33.339  32.977  27.966  1.00  0.00     0.145 A 
ATOM     25  C   UNL A   1      31.229  32.070  26.666  1.00  0.00     0.052 C 
ATOM     26  C   UNL A   1      34.883  32.863  28.819  1.00  0.00     0.021 A 
ATOM     27  O   UNL A   1      32.644  34.186  28.007  1.00  0.00    -0.422 OA
ATOM     28  C   UNL A   1      34.857  33.752  30.007  1.00  0.00    -0.030 A 
ATOM     29  C   UNL A   1      33.131  35.166  28.854  1.00  0.00     0.339 A 
ATOM     30  C   UNL A   1      35.569  33.306  31.261  1.00  0.00     0.045 C 
ATOM     31  C   UNL A   1      33.942  34.748  30.035  1.00  0.00     0.038 A 
ATOM     32  O   UNL A   1      32.811  36.341  28.686  1.00  0.00    -0.246 OA
ATOM     33  C   UNL A   1      33.559  35.486  31.301  1.00  0.00     0.052 C 
ENDBRANCH  19  20
ENDBRANCH  17  19
ENDBRANCH  14  17
ENDBRANCH   8  13
ENDBRANCH   6   8
ENDBRANCH   5   6
ENDBRANCH   4   5
ENDBRANCH   3   4
ENDBRANCH   2   3
ENDBRANCH   1   2
BRANCH   1  34
ATOM     34  C   UNL A   1      36.385  21.527  24.691  1.00  0.00     0.188 C 
BRANCH  34  35
ATOM     35  O   UNL A   1      37.446  21.666  25.869  1.00  0.00    -0.376 OA
BRANCH  35  36
ATOM     36  C   UNL A   1      38.836  22.437  26.118  1.00  0.00     0.202 C 
BRANCH  36  37
ATOM     37  C   UNL A   1      39.339  23.636  27.282  1.00  0.00     0.261 C 
BRANCH  37  38
ATOM     38  O   UNL A   1      40.916  24.435  27.138  1.00  0.00    -0.460 OA
BRANCH  38  39
ATOM     39  C   UNL A   1      41.849  25.704  26.127  1.00  0.00     0.338 C 
ATOM     40  O   UNL A   1      41.302  26.421  25.236  1.00  0.00    -0.246 OA
BRANCH  39  41
ATOM     41  C   UNL A   1      43.319  26.182  25.984  1.00  0.00     0.060 A 
ATOM     42  C   UNL A   1      44.209  25.120  25.645  1.00  0.00     0.016 A 
ATOM     43  C   UNL A   1      43.865  27.260  26.690  1.00  0.00     0.016 A 
ATOM     44  C   UNL A   1      45.537  25.086  26.055  1.00  0.00     0.010 A 
ATOM     45  C   UNL A   1      45.195  27.224  27.116  1.00  0.00     0.010 A 
ATOM     46  C   UNL A   1      46.006  26.111  26.859  1.00  0.00    -0.014 A 
BRANCH  46  47
ATOM     47  C   UNL A   1      47.297  25.998  27.561  1.00  0.00     0.031 A 
ATOM     48  C   UNL A   1      47.320  25.889  29.060  1.00  0.00     0.074 A 
ATOM     49  C   UNL A   1      48.417  26.150  26.837  1.00  0.00     0.049 A 
ATOM     50  N   UNL A   1      48.345  25.928  29.868  1.00  0.00    -0.248 NA
ATOM     51  C   UNL A   1      46.024  25.727  29.745  1.00  0.00     0.031 C 
ATOM     52  C   UNL A   1      48.454  26.286  25.380  1.00  0.00     0.029 A 
ATOM     53  N   UNL A   1      49.718  26.289  27.229  1.00  0.00    -0.354 N 
ATOM     54  C   UNL A   1      47.824  25.809  31.151  1.00  0.00     0.074 A 
ATOM     55  C   UNL A   1      46.389  25.692  31.020  1.00  0.00     0.031 C 
ATOM     56  C   UNL A   1      49.708  26.579  25.006  1.00  0.00     0.029 A 
ATOM     57  C   UNL A   1      50.552  26.639  26.196  1.00  0.00     0.049 A 
ATOM     58  H   UNL A   1      50.025  26.154  28.154  1.00  0.00     0.167 HD
ATOM     59  C   UNL A   1      48.494  25.792  32.327  1.00  0.00     0.034 A 
ATOM     60  C   UNL A   1      51.850  26.987  26.216  1.00  0.00     0.034 A 
ATOM     61  C   UNL A   1      49.924  25.921  32.420  1.00  0.00     0.049 A 
ATOM     62  C   UNL A   1      52.576  26.953  27.529  1.00  0.00     0.074 A 
ATOM     63  C   UNL A   1      50.726  25.847  33.543  1.00  0.00     0.029 A 
ATOM     64  N   UNL A   1      50.760  26.170  31.340  1.00  0.00    -0.354 N 
ATOM     65  N   UNL A   1      52.092  26.698  28.722  1.00  0.00    -0.248 NA
ATOM     66  C   UNL A   1      54.021  27.202  27.501  1.00  0.00     0.031 C 
ATOM     67  C   UNL A   1      52.049  26.061  33.143  1.00  0.00     0.029 A 
ATOM     68  C   UNL A   1      52.070  26.256  31.769  1.00  0.00     0.049 A 
ATOM     69  H   UNL A   1      50.463  26.269  30.407  1.00  0.00     0.167 HD
ATOM     70  C   UNL A   1      53.178  26.718  29.585  1.00  0.00     0.074 A 
ATOM     71  C   UNL A   1      54.346  27.013  28.775  1.00  0.00     0.031 C 
ATOM     72  C   UNL A   1      53.209  26.513  30.924  1.00  0.00     0.034 A 
BRANCH  59  73
ATOM     73  C   UNL A   1      47.715  25.576  33.598  1.00  0.00     0.023 A 
ATOM     74  C   UNL A   1      46.940  26.635  34.112  1.00  0.00     0.012 A 
ATOM     75  C   UNL A   1      47.663  24.315  34.223  1.00  0.00     0.148 A 
ATOM     76  C   UNL A   1      46.134  26.447  35.236  1.00  0.00     0.002 A 
ATOM     77  C   UNL A   1      46.836  24.126  35.327  1.00  0.00     0.091 A 
ATOM     78  F   UNL A   1      48.413  23.323  33.723  1.00  0.00    -0.205 F 
ATOM     79  C   UNL A   1      46.076  25.192  35.837  1.00  0.00     0.022 A 
BRANCH  77  80
ATOM     80  S   UNL A   1      46.646  22.541  36.152  1.00  0.00     0.127 S 
ATOM     81  O   UNL A   1      47.643  22.640  37.218  1.00  0.00    -0.237 OA
ATOM     82  O   UNL A   1      45.258  22.600  36.609  1.00  0.00    -0.237 OA
ATOM     83  O   UNL A   1      46.922  21.525  35.146  1.00  0.00    -0.744 OA
ENDBRANCH  77  80
ENDBRANCH  59  73
BRANCH  60  84
ATOM     84  C   UNL A   1      52.530  27.283  24.929  1.00  0.00     0.023 A 
ATOM     85  C   UNL A   1      53.033  26.210  24.171  1.00  0.00     0.012 A 
ATOM     86  C   UNL A   1      52.547  28.584  24.387  1.00  0.00     0.148 A 
ATOM     87  C   UNL A   1      53.544  26.424  22.893  1.00  0.00     0.002 A 
ATOM     88  C   UNL A   1      53.031  28.786  23.099  1.00  0.00     0.091 A 
ATOM     89  F   UNL A   1      52.052  29.586  25.125  1.00  0.00    -0.205 F 
ATOM     90  C   UNL A   1      53.535  27.707  22.353  1.00  0.00     0.022 A 
BRANCH  88  91
ATOM     91  S   UNL A   1      52.964  30.379  22.269  1.00  0.00     0.127 S 
ATOM     92  O   UNL A   1      53.755  31.216  23.166  1.00  0.00    -0.237 OA
ATOM     93  O   UNL A   1      53.599  30.078  20.986  1.00  0.00    -0.237 OA
ATOM     94  O   UNL A   1      51.550  30.718  22.178  1.00  0.00    -0.744 OA
ENDBRANCH  88  91
ENDBRANCH  60  84
BRANCH  72  95
ATOM     95  C   UNL A   1      54.543  26.582  31.607  1.00  0.00     0.023 A 
ATOM     96  C   UNL A   1      54.972  27.802  32.160  1.00  0.00     0.012 A 
ATOM     97  C   UNL A   1      55.301  25.413  31.814  1.00  0.00     0.148 A 
ATOM     98  C   UNL A   1      56.144  27.861  32.910  1.00  0.00     0.002 A 
ATOM     99  C   UNL A   1      56.448  25.471  32.592  1.00  0.00     0.091 A 
ATOM    100  F   UNL A   1      54.868  24.268  31.266  1.00  0.00    -0.205 F 
ATOM    101  C   UNL A   1      56.873  26.695  33.136  1.00  0.00     0.022 A 
BRANCH  99 102
ATOM    102  S   UNL A   1      57.409  24.012  33.005  1.00  0.00     0.127 S 
ATOM    103  O   UNL A   1      58.115  23.757  31.751  1.00  0.00    -0.237 OA
ATOM    104  O   UNL A   1      58.256  24.499  34.094  1.00  0.00    -0.237 OA
ATOM    105  O   UNL A   1      56.447  22.990  33.394  1.00  0.00    -0.744 OA
ENDBRANCH  99 102
ENDBRANCH  72  95
ENDBRANCH  46  47
ENDBRANCH  39  41
ENDBRANCH  38  39
ENDBRANCH  37  38
ENDBRANCH  36  37
ENDBRANCH  35  36
ENDBRANCH  34  35
ENDBRANCH   1  34
TORSDOF 26
ENDMDL
MODEL 3
REMARK VINA RESULT:     -10.7      4.752      8.432
REMARK SMILES CC[C@H](C)[C@H](NC(=O)[C@H](C)Oc1ccc2c(C)c(C)c(=O)oc2c1C)C(=O)OCCOCCOCCOC(=O)c1ccc(-c2c3nc(c(-c4cccc(S(=O)(=O)[O-])c4F)c4ccc([nH]4)c(-c4cccc(S(=O)(=O)[O-])c4F)c4nc(c(-c5cccc(S(=O)(=O)[O-])c5F)c5ccc2[nH]5)C=C4)C=C3)cc1
REMARK SMILES IDX 32 1 31 2 30 3 29 4 28 5 26 6 27 7 5 8 3 9 4 10 2 11 1 12
REMARK SMILES IDX 6 13 7 14 8 16 9 17 10 18 11 19 12 20 13 21 24 22 14 23
REMARK SMILES IDX 23 24 25 25 15 26 22 27 16 28 20 29 17 30 18 31 21 32 19 33
REMARK SMILES IDX 33 34 34 35 35 36 36 37 37 38 38 39 39 40 40 41 41 42 102 43
REMARK SMILES IDX 42 44 101 45 43 46 44 47 45 48 95 49 46 50 100 51 94 52
REMARK SMILES IDX 96 53 47 54 99 55 93 56 92 57 48 59 80 60 60 61 79 62 61 63
REMARK SMILES IDX 64 64 78 65 97 66 62 67 63 68 77 70 98 71 65 72 49 73 50 74
REMARK SMILES IDX 58 75 51 76 53 77 59 78 52 79 54 80 55 81 56 82 57 83 81 84
REMARK SMILES IDX 82 85 90 86 83 87 85 88 91 89 84 90 86 91 87 92 88 93 89 94
REMARK SMILES IDX 66 95 67 96 75 97 68 98 70 99 76 100 69 101 71 102 72 103
REMARK SMILES IDX 73 104 74 105
REMARK H PARENT 6 15 96 58 64 69
REMARK Flexibility Score: inf
ROOT
ATOM      1  C   UNL A   1      33.888  29.427  26.223  1.00  0.00     0.188 C 
ENDROOT
BRANCH   1   2
ATOM      2  O   UNL A   1      33.530  28.514  25.157  1.00  0.00    -0.376 OA
BRANCH   2   3
ATOM      3  C   UNL A   1      33.624  28.834  23.738  1.00  0.00     0.202 C 
BRANCH   3   4
ATOM      4  C   UNL A   1      33.566  27.792  22.606  1.00  0.00     0.261 C 
BRANCH   4   5
ATOM      5  O   UNL A   1      33.850  26.486  23.086  1.00  0.00    -0.462 OA
BRANCH   5   6
ATOM      6  C   UNL A   1      32.761  25.686  23.142  1.00  0.00     0.328 C 
ATOM      7  O   UNL A   1      31.652  25.989  22.728  1.00  0.00    -0.250 OA
BRANCH   6   8
ATOM      8  C   UNL A   1      33.160  24.284  23.623  1.00  0.00     0.195 C 
BRANCH   8   9
ATOM      9  C   UNL A   1      31.929  23.328  23.548  1.00  0.00     0.019 C 
ATOM     10  C   UNL A   1      32.334  21.917  23.108  1.00  0.00     0.010 C 
BRANCH   9  11
ATOM     11  C   UNL A   1      31.086  23.217  24.854  1.00  0.00     0.002 C 
ATOM     12  C   UNL A   1      31.222  21.912  25.628  1.00  0.00     0.004 C 
ENDBRANCH   9  11
ENDBRANCH   8   9
BRANCH   8  13
ATOM     13  N   UNL A   1      33.901  24.180  24.952  1.00  0.00    -0.339 N 
ATOM     14  C   UNL A   1      34.617  23.239  25.666  1.00  0.00     0.261 C 
ATOM     15  H   UNL A   1      33.855  25.031  25.444  1.00  0.00     0.164 HD
ATOM     16  O   UNL A   1      34.367  23.332  26.886  1.00  0.00    -0.271 OA
BRANCH  14  17
ATOM     17  C   UNL A   1      35.885  22.153  25.201  1.00  0.00     0.258 C 
ATOM     18  C   UNL A   1      35.171  20.796  24.982  1.00  0.00     0.064 C 
BRANCH  17  19
ATOM     19  O   UNL A   1      37.399  21.905  25.445  1.00  0.00    -0.480 OA
BRANCH  19  20
ATOM     20  C   UNL A   1      38.747  22.534  25.880  1.00  0.00     0.127 A 
ATOM     21  C   UNL A   1      38.215  24.141  26.583  1.00  0.00     0.047 A 
ATOM     22  C   UNL A   1      40.417  21.830  26.434  1.00  0.00     0.035 A 
ATOM     23  C   UNL A   1      39.277  25.006  27.757  1.00  0.00     0.016 A 
ATOM     24  C   UNL A   1      41.366  22.732  27.732  1.00  0.00     0.145 A 
ATOM     25  C   UNL A   1      41.275  20.558  26.239  1.00  0.00     0.052 C 
ATOM     26  C   UNL A   1      40.860  24.332  28.289  1.00  0.00     0.021 A 
ATOM     27  O   UNL A   1      42.583  22.224  28.187  1.00  0.00    -0.422 OA
ATOM     28  C   UNL A   1      42.059  25.173  28.529  1.00  0.00    -0.030 A 
ATOM     29  C   UNL A   1      43.393  23.079  28.914  1.00  0.00     0.339 A 
ATOM     30  C   UNL A   1      41.985  26.647  28.214  1.00  0.00     0.045 C 
ATOM     31  C   UNL A   1      43.248  24.549  28.702  1.00  0.00     0.038 A 
ATOM     32  O   UNL A   1      44.277  22.625  29.636  1.00  0.00    -0.246 OA
ATOM     33  C   UNL A   1      44.580  25.262  28.593  1.00  0.00     0.052 C 
ENDBRANCH  19  20
ENDBRANCH  17  19
ENDBRANCH  14  17
ENDBRANCH   8  13
ENDBRANCH   6   8
ENDBRANCH   5   6
ENDBRANCH   4   5
ENDBRANCH   3   4
ENDBRANCH   2   3
ENDBRANCH   1   2
BRANCH   1  34
ATOM     34  C   UNL A   1      33.066  30.748  26.943  1.00  0.00     0.188 C 
BRANCH  34  35
ATOM     35  O   UNL A   1      33.578  31.813  28.009  1.00  0.00    -0.376 OA
BRANCH  35  36
ATOM     36  C   UNL A   1      33.779  33.408  28.078  1.00  0.00     0.202 C 
BRANCH  36  37
ATOM     37  C   UNL A   1      34.977  34.423  28.839  1.00  0.00     0.261 C 
BRANCH  37  38
ATOM     38  O   UNL A   1      36.221  33.723  29.894  1.00  0.00    -0.460 OA
BRANCH  38  39
ATOM     39  C   UNL A   1      38.060  33.394  30.002  1.00  0.00     0.338 C 
ATOM     40  O   UNL A   1      38.938  34.211  29.590  1.00  0.00    -0.246 OA
BRANCH  39  41
ATOM     41  C   UNL A   1      38.979  32.230  30.460  1.00  0.00     0.060 A 
ATOM     42  C   UNL A   1      40.060  32.675  31.277  1.00  0.00     0.016 A 
ATOM     43  C   UNL A   1      39.188  31.059  29.723  1.00  0.00     0.016 A 
ATOM     44  C   UNL A   1      41.302  32.050  31.296  1.00  0.00     0.010 A 
ATOM     45  C   UNL A   1      40.438  30.436  29.728  1.00  0.00     0.010 A 
ATOM     46  C   UNL A   1      41.509  30.968  30.456  1.00  0.00    -0.014 A 
BRANCH  46  47
ATOM     47  C   UNL A   1      42.864  30.444  30.211  1.00  0.00     0.031 A 
ATOM     48  C   UNL A   1      43.318  29.198  30.916  1.00  0.00     0.074 A 
ATOM     49  C   UNL A   1      43.699  31.195  29.474  1.00  0.00     0.049 A 
ATOM     50  N   UNL A   1      44.509  28.663  30.949  1.00  0.00    -0.248 NA
ATOM     51  C   UNL A   1      42.308  28.458  31.696  1.00  0.00     0.031 C 
ATOM     52  C   UNL A   1      43.321  32.430  28.787  1.00  0.00     0.029 A 
ATOM     53  N   UNL A   1      45.041  31.071  29.246  1.00  0.00    -0.354 N 
ATOM     54  C   UNL A   1      44.399  27.538  31.758  1.00  0.00     0.074 A 
ATOM     55  C   UNL A   1      43.025  27.460  32.196  1.00  0.00     0.031 C 
ATOM     56  C   UNL A   1      44.427  33.001  28.285  1.00  0.00     0.029 A 
ATOM     57  C   UNL A   1      45.578  32.164  28.611  1.00  0.00     0.049 A 
ATOM     58  H   UNL A   1      45.567  30.282  29.510  1.00  0.00     0.167 HD
ATOM     59  C   UNL A   1      45.367  26.651  32.092  1.00  0.00     0.034 A 
ATOM     60  C   UNL A   1      46.861  32.460  28.341  1.00  0.00     0.034 A 
ATOM     61  C   UNL A   1      46.729  26.766  31.644  1.00  0.00     0.049 A 
ATOM     62  C   UNL A   1      47.915  31.459  28.712  1.00  0.00     0.074 A 
ATOM     63  C   UNL A   1      47.782  25.897  31.853  1.00  0.00     0.029 A 
ATOM     64  N   UNL A   1      47.224  27.834  30.908  1.00  0.00    -0.354 N 
ATOM     65  N   UNL A   1      47.773  30.325  29.358  1.00  0.00    -0.248 NA
ATOM     66  C   UNL A   1      49.288  31.744  28.282  1.00  0.00     0.031 C 
ATOM     67  C   UNL A   1      48.920  26.445  31.250  1.00  0.00     0.029 A 
ATOM     68  C   UNL A   1      48.569  27.650  30.657  1.00  0.00     0.049 A 
ATOM     69  H   UNL A   1      46.694  28.608  30.610  1.00  0.00     0.167 HD
ATOM     70  C   UNL A   1      49.031  29.739  29.380  1.00  0.00     0.074 A 
ATOM     71  C   UNL A   1      49.923  30.648  28.685  1.00  0.00     0.031 C 
ATOM     72  C   UNL A   1      49.415  28.560  29.926  1.00  0.00     0.034 A 
BRANCH  59  73
ATOM     73  C   UNL A   1      44.991  25.457  32.929  1.00  0.00     0.023 A 
ATOM     74  C   UNL A   1      44.476  24.311  32.291  1.00  0.00     0.012 A 
ATOM     75  C   UNL A   1      45.237  25.424  34.316  1.00  0.00     0.148 A 
ATOM     76  C   UNL A   1      44.199  23.153  33.020  1.00  0.00     0.002 A 
ATOM     77  C   UNL A   1      44.985  24.258  35.033  1.00  0.00     0.091 A 
ATOM     78  F   UNL A   1      45.720  26.527  34.904  1.00  0.00    -0.205 F 
ATOM     79  C   UNL A   1      44.462  23.125  34.388  1.00  0.00     0.022 A 
BRANCH  77  80
ATOM     80  S   UNL A   1      45.329  24.092  36.789  1.00  0.00     0.127 S 
ATOM     81  O   UNL A   1      44.180  24.775  37.383  1.00  0.00    -0.237 OA
ATOM     82  O   UNL A   1      45.332  22.640  36.963  1.00  0.00    -0.237 OA
ATOM     83  O   UNL A   1      46.613  24.742  37.013  1.00  0.00    -0.744 OA
ENDBRANCH  77  80
ENDBRANCH  59  73
BRANCH  60  84
ATOM     84  C   UNL A   1      47.163  33.708  27.596  1.00  0.00     0.023 A 
ATOM     85  C   UNL A   1      47.112  33.681  26.190  1.00  0.00     0.012 A 
ATOM     86  C   UNL A   1      47.349  34.937  28.260  1.00  0.00     0.148 A 
ATOM     87  C   UNL A   1      47.242  34.857  25.454  1.00  0.00     0.002 A 
ATOM     88  C   UNL A   1      47.448  36.111  27.521  1.00  0.00     0.091 A 
ATOM     89  F   UNL A   1      47.383  34.936  29.600  1.00  0.00    -0.205 F 
ATOM     90  C   UNL A   1      47.400  36.071  26.117  1.00  0.00     0.022 A 
BRANCH  88  91
ATOM     91  S   UNL A   1      47.544  37.737  28.280  1.00  0.00     0.127 S 
ATOM     92  O   UNL A   1      46.294  37.789  29.033  1.00  0.00    -0.237 OA
ATOM     93  O   UNL A   1      48.752  37.618  29.097  1.00  0.00    -0.237 OA
ATOM     94  O   UNL A   1      47.652  38.683  27.177  1.00  0.00    -0.744 OA
ENDBRANCH  88  91
ENDBRANCH  60  84
BRANCH  72  95
ATOM     95  C   UNL A   1      50.855  28.167  29.787  1.00  0.00     0.023 A 
ATOM     96  C   UNL A   1      51.718  28.310  30.888  1.00  0.00     0.012 A 
ATOM     97  C   UNL A   1      51.312  27.535  28.615  1.00  0.00     0.148 A 
ATOM     98  C   UNL A   1      53.025  27.832  30.824  1.00  0.00     0.002 A 
ATOM     99  C   UNL A   1      52.604  27.029  28.570  1.00  0.00     0.091 A 
ATOM    100  F   UNL A   1      50.467  27.422  27.580  1.00  0.00    -0.205 F 
ATOM    101  C   UNL A   1      53.462  27.181  29.672  1.00  0.00     0.022 A 
BRANCH  99 102
ATOM    102  S   UNL A   1      53.231  26.107  27.163  1.00  0.00     0.127 S 
ATOM    103  O   UNL A   1      52.167  25.128  26.952  1.00  0.00    -0.237 OA
ATOM    104  O   UNL A   1      53.323  27.141  26.133  1.00  0.00    -0.237 OA
ATOM    105  O   UNL A   1      54.512  25.551  27.582  1.00  0.00    -0.744 OA
ENDBRANCH  99 102
ENDBRANCH  72  95
ENDBRANCH  46  47
ENDBRANCH  39  41
ENDBRANCH  38  39
ENDBRANCH  37  38
ENDBRANCH  36  37
ENDBRANCH  35  36
ENDBRANCH  34  35
ENDBRANCH   1  34
TORSDOF 26
ENDMDL
