MODEL 1
REMARK VINA RESULT:     -11.0      0.000      0.000
REMARK SMILES N#C/C(=C\c1cccn1-c1cccc(C(=O)OCCOCCOCCOC(=O)c2ccc(-c3c4nc(c(-c5cccc(S(=O)(=O)[O-])c5F)c5ccc([nH]5)c(-c5cccc(S(=O)(=O)[O-])c5F)c5nc(c(-c6cccc(S(=O)(=O)[O-])c6F)c6ccc3[nH]6)C=C5)C=C4)cc2)c1)C(=O)Nc1cccc(Cl)c1
REMARK SMILES IDX 21 1 20 2 19 3 18 4 17 5 15 6 16 7 14 8 10 9 11 10 92 11
REMARK SMILES IDX 12 12 13 13 9 14 5 15 6 16 7 17 8 18 4 19 3 20 2 21 1 22
REMARK SMILES IDX 93 23 94 24 95 25 96 27 97 28 102 29 98 30 100 31 99 32
REMARK SMILES IDX 101 33 22 34 23 35 24 36 25 37 26 38 27 39 28 40 29 41 30 42
REMARK SMILES IDX 91 43 31 44 90 45 32 46 33 47 34 48 84 49 35 50 89 51 83 52
REMARK SMILES IDX 85 53 36 54 88 55 82 56 81 57 37 59 69 60 49 61 68 62 50 63
REMARK SMILES IDX 53 64 67 65 86 66 51 67 52 68 66 70 87 71 54 72 38 73 39 74
REMARK SMILES IDX 47 75 40 76 42 77 48 78 41 79 43 80 44 81 45 82 46 83 70 84
REMARK SMILES IDX 71 85 79 86 72 87 74 88 80 89 73 90 75 91 76 92 77 93 78 94
REMARK SMILES IDX 55 95 56 96 64 97 57 98 59 99 65 100 58 101 60 102 61 103
REMARK SMILES IDX 62 104 63 105
REMARK H PARENT 95 26 85 58 53 69
REMARK Flexibility Score: inf
ROOT
ATOM      1  C   UNL A   1      40.130  20.175  26.368  1.00  0.00     0.188 C 
ENDROOT
BRANCH   1   2
ATOM      2  O   UNL A   1      39.300  19.588  25.372  1.00  0.00    -0.376 OA
BRANCH   2   3
ATOM      3  C   UNL A   1      38.067  20.197  25.014  1.00  0.00     0.202 C 
BRANCH   3   4
ATOM      4  C   UNL A   1      37.525  21.349  25.874  1.00  0.00     0.261 C 
BRANCH   4   5
ATOM      5  O   UNL A   1      36.267  21.873  25.421  1.00  0.00    -0.460 OA
BRANCH   5   6
ATOM      6  C   UNL A   1      36.280  23.098  24.863  1.00  0.00     0.338 C 
ATOM      7  O   UNL A   1      37.021  23.503  23.964  1.00  0.00    -0.246 OA
BRANCH   6   8
ATOM      8  C   UNL A   1      35.166  23.901  25.404  1.00  0.00     0.062 A 
ATOM      9  C   UNL A   1      33.967  25.997  25.606  1.00  0.00     0.046 A 
ATOM     10  C   UNL A   1      33.054  25.395  26.479  1.00  0.00     0.026 A 
ATOM     11  C   UNL A   1      35.065  25.265  25.129  1.00  0.00     0.042 A 
ATOM     12  C   UNL A   1      33.184  24.040  26.787  1.00  0.00     0.003 A 
ATOM     13  C   UNL A   1      34.215  23.285  26.225  1.00  0.00     0.016 A 
BRANCH   9  14
ATOM     14  N   UNL A   1      33.711  27.310  25.112  1.00  0.00    -0.317 N 
ATOM     15  C   UNL A   1      33.609  27.699  23.768  1.00  0.00     0.047 A 
ATOM     16  C   UNL A   1      33.292  29.051  23.759  1.00  0.00     0.028 A 
ATOM     17  C   UNL A   1      33.185  29.495  25.091  1.00  0.00     0.020 A 
ATOM     18  C   UNL A   1      33.411  28.406  25.898  1.00  0.00     0.092 A 
BRANCH  15  19
ATOM     19  C   UNL A   1      33.671  26.718  22.721  1.00  0.00     0.052 C 
ATOM     20  C   UNL A   1      32.632  26.216  22.021  1.00  0.00     0.119 C 
BRANCH  20  21
ATOM     21  C   UNL A   1      31.354  27.012  22.234  1.00  0.00     0.105 C 
ATOM     22  N   UNL A   1      30.295  27.673  22.411  1.00  0.00    -0.192 NA
ENDBRANCH  20  21
BRANCH  20  23
ATOM     23  C   UNL A   1      32.728  25.153  20.977  1.00  0.00     0.266 C 
ATOM     24  O   UNL A   1      32.849  25.479  19.795  1.00  0.00    -0.268 OA
ATOM     25  N   UNL A   1      32.795  23.807  21.281  1.00  0.00    -0.321 N 
ATOM     26  H   UNL A   1      33.062  23.238  20.524  1.00  0.00     0.170 HD
BRANCH  25  27
ATOM     27  C   UNL A   1      32.552  23.098  22.474  1.00  0.00     0.042 A 
ATOM     28  C   UNL A   1      31.482  23.524  23.268  1.00  0.00     0.026 A 
ATOM     29  C   UNL A   1      33.249  21.935  22.825  1.00  0.00     0.046 A 
ATOM     30  C   UNL A   1      31.011  22.713  24.306  1.00  0.00     0.004 A 
ATOM     31  C   UNL A   1      32.765  21.126  23.857  1.00  0.00     0.043 A 
ATOM     32  C   UNL A   1      31.634  21.497  24.581  1.00  0.00     0.020 A 
ATOM     33  Cl  UNL A   1      33.511  19.606  24.167  1.00  0.00    -0.084 Cl
ENDBRANCH  25  27
ENDBRANCH  20  23
ENDBRANCH  15  19
ENDBRANCH   9  14
ENDBRANCH   6   8
ENDBRANCH   5   6
ENDBRANCH   4   5
ENDBRANCH   3   4
ENDBRANCH   2   3
ENDBRANCH   1   2
BRANCH   1  34
ATOM     34  C   UNL A   1      41.622  20.460  26.098  1.00  0.00     0.188 C 
BRANCH  34  35
ATOM     35  O   UNL A   1      42.223  21.408  26.963  1.00  0.00    -0.376 OA
BRANCH  35  36
ATOM     36  C   UNL A   1      43.000  22.425  26.342  1.00  0.00     0.202 C 
BRANCH  36  37
ATOM     37  C   UNL A   1      42.261  23.721  25.986  1.00  0.00     0.261 C 
BRANCH  37  38
ATOM     38  O   UNL A   1      41.663  24.429  27.074  1.00  0.00    -0.460 OA
BRANCH  38  39
ATOM     39  C   UNL A   1      40.338  24.616  26.987  1.00  0.00     0.338 C 
ATOM     40  O   UNL A   1      39.500  23.854  26.497  1.00  0.00    -0.246 OA
BRANCH  39  41
ATOM     41  C   UNL A   1      39.982  25.908  27.541  1.00  0.00     0.060 A 
ATOM     42  C   UNL A   1      40.442  27.060  26.899  1.00  0.00     0.016 A 
ATOM     43  C   UNL A   1      39.426  25.930  28.824  1.00  0.00     0.016 A 
ATOM     44  C   UNL A   1      40.442  28.246  27.603  1.00  0.00     0.010 A 
ATOM     45  C   UNL A   1      39.474  27.106  29.542  1.00  0.00     0.010 A 
ATOM     46  C   UNL A   1      40.015  28.247  28.938  1.00  0.00    -0.014 A 
BRANCH  46  47
ATOM     47  C   UNL A   1      40.122  29.500  29.698  1.00  0.00     0.031 A 
ATOM     48  C   UNL A   1      38.906  30.398  29.447  1.00  0.00     0.074 A 
ATOM     49  C   UNL A   1      41.294  29.665  30.391  1.00  0.00     0.049 A 
ATOM     50  N   UNL A   1      38.851  31.686  29.290  1.00  0.00    -0.248 NA
ATOM     51  C   UNL A   1      37.582  29.774  29.174  1.00  0.00     0.031 C 
ATOM     52  C   UNL A   1      42.352  28.632  30.527  1.00  0.00     0.029 A 
ATOM     53  N   UNL A   1      41.848  30.702  31.113  1.00  0.00    -0.354 N 
ATOM     54  C   UNL A   1      37.486  32.028  29.151  1.00  0.00     0.074 A 
ATOM     55  C   UNL A   1      36.782  30.810  28.911  1.00  0.00     0.031 C 
ATOM     56  C   UNL A   1      43.424  29.115  31.195  1.00  0.00     0.029 A 
ATOM     57  C   UNL A   1      43.169  30.488  31.588  1.00  0.00     0.049 A 
ATOM     58  H   UNL A   1      41.360  31.539  31.287  1.00  0.00     0.167 HD
ATOM     59  C   UNL A   1      37.007  33.280  29.420  1.00  0.00     0.034 A 
ATOM     60  C   UNL A   1      44.016  31.365  32.216  1.00  0.00     0.034 A 
ATOM     61  C   UNL A   1      38.084  34.093  29.884  1.00  0.00     0.049 A 
ATOM     62  C   UNL A   1      43.224  32.583  32.433  1.00  0.00     0.074 A 
ATOM     63  C   UNL A   1      39.143  34.692  29.257  1.00  0.00     0.029 A 
ATOM     64  N   UNL A   1      38.313  34.036  31.238  1.00  0.00    -0.354 N 
ATOM     65  N   UNL A   1      42.290  32.711  33.327  1.00  0.00    -0.248 NA
ATOM     66  C   UNL A   1      43.402  33.708  31.505  1.00  0.00     0.031 C 
ATOM     67  C   UNL A   1      40.176  34.608  30.211  1.00  0.00     0.029 A 
ATOM     68  C   UNL A   1      39.663  34.146  31.431  1.00  0.00     0.049 A 
ATOM     69  H   UNL A   1      37.631  33.935  31.941  1.00  0.00     0.167 HD
ATOM     70  C   UNL A   1      41.558  33.755  32.818  1.00  0.00     0.074 A 
ATOM     71  C   UNL A   1      42.452  34.511  31.972  1.00  0.00     0.031 C 
ATOM     72  C   UNL A   1      40.217  33.614  32.654  1.00  0.00     0.034 A 
BRANCH  59  73
ATOM     73  C   UNL A   1      35.625  33.865  29.592  1.00  0.00     0.023 A 
ATOM     74  C   UNL A   1      35.042  34.393  28.403  1.00  0.00     0.012 A 
ATOM     75  C   UNL A   1      35.008  34.194  30.809  1.00  0.00     0.148 A 
ATOM     76  C   UNL A   1      33.997  35.312  28.423  1.00  0.00     0.002 A 
ATOM     77  C   UNL A   1      33.919  35.074  30.819  1.00  0.00     0.091 A 
ATOM     78  F   UNL A   1      35.515  33.733  31.955  1.00  0.00    -0.205 F 
ATOM     79  C   UNL A   1      33.445  35.665  29.638  1.00  0.00     0.022 A 
BRANCH  77  80
ATOM     80  S   UNL A   1      33.052  35.531  32.325  1.00  0.00     0.127 S 
ATOM     81  O   UNL A   1      31.848  36.169  31.801  1.00  0.00    -0.237 OA
ATOM     82  O   UNL A   1      32.823  34.223  32.948  1.00  0.00    -0.237 OA
ATOM     83  O   UNL A   1      33.972  36.384  33.065  1.00  0.00    -0.744 OA
ENDBRANCH  77  80
ENDBRANCH  59  73
BRANCH  60  84
ATOM     84  C   UNL A   1      45.479  31.424  32.606  1.00  0.00     0.023 A 
ATOM     85  C   UNL A   1      46.543  31.452  31.694  1.00  0.00     0.012 A 
ATOM     86  C   UNL A   1      45.852  31.505  33.986  1.00  0.00     0.148 A 
ATOM     87  C   UNL A   1      47.875  31.643  32.124  1.00  0.00     0.002 A 
ATOM     88  C   UNL A   1      47.142  31.812  34.402  1.00  0.00     0.091 A 
ATOM     89  F   UNL A   1      44.954  31.234  34.936  1.00  0.00    -0.205 F 
ATOM     90  C   UNL A   1      48.170  31.869  33.469  1.00  0.00     0.022 A 
BRANCH  88  91
ATOM     91  S   UNL A   1      47.504  32.274  36.111  1.00  0.00     0.127 S 
ATOM     92  O   UNL A   1      47.322  31.010  36.821  1.00  0.00    -0.237 OA
ATOM     93  O   UNL A   1      48.892  32.723  36.003  1.00  0.00    -0.237 OA
ATOM     94  O   UNL A   1      46.559  33.325  36.464  1.00  0.00    -0.744 OA
ENDBRANCH  88  91
ENDBRANCH  60  84
BRANCH  72  95
ATOM     95  C   UNL A   1      39.557  32.633  33.618  1.00  0.00     0.023 A 
ATOM     96  C   UNL A   1      39.089  31.422  33.071  1.00  0.00     0.012 A 
ATOM     97  C   UNL A   1      39.272  32.880  34.983  1.00  0.00     0.148 A 
ATOM     98  C   UNL A   1      38.362  30.504  33.833  1.00  0.00     0.002 A 
ATOM     99  C   UNL A   1      38.531  31.969  35.744  1.00  0.00     0.091 A 
ATOM    100  F   UNL A   1      39.721  34.006  35.534  1.00  0.00    -0.205 F 
ATOM    101  C   UNL A   1      38.080  30.776  35.167  1.00  0.00     0.022 A 
BRANCH  99 102
ATOM    102  S   UNL A   1      38.039  32.256  37.459  1.00  0.00     0.127 S 
ATOM    103  O   UNL A   1      39.325  32.478  38.125  1.00  0.00    -0.237 OA
ATOM    104  O   UNL A   1      37.212  33.455  37.345  1.00  0.00    -0.237 OA
ATOM    105  O   UNL A   1      37.342  31.054  37.900  1.00  0.00    -0.744 OA
ENDBRANCH  99 102
ENDBRANCH  72  95
ENDBRANCH  46  47
ENDBRANCH  39  41
ENDBRANCH  38  39
ENDBRANCH  37  38
ENDBRANCH  36  37
ENDBRANCH  35  36
ENDBRANCH  34  35
ENDBRANCH   1  34
TORSDOF 25
ENDMDL
MODEL 2
REMARK VINA RESULT:     -10.4      3.268      8.361
REMARK SMILES N#C/C(=C\c1cccn1-c1cccc(C(=O)OCCOCCOCCOC(=O)c2ccc(-c3c4nc(c(-c5cccc(S(=O)(=O)[O-])c5F)c5ccc([nH]5)c(-c5cccc(S(=O)(=O)[O-])c5F)c5nc(c(-c6cccc(S(=O)(=O)[O-])c6F)c6ccc3[nH]6)C=C5)C=C4)cc2)c1)C(=O)Nc1cccc(Cl)c1
REMARK SMILES IDX 21 1 20 2 19 3 18 4 17 5 15 6 16 7 14 8 10 9 11 10 92 11
REMARK SMILES IDX 12 12 13 13 9 14 5 15 6 16 7 17 8 18 4 19 3 20 2 21 1 22
REMARK SMILES IDX 93 23 94 24 95 25 96 27 97 28 102 29 98 30 100 31 99 32
REMARK SMILES IDX 101 33 22 34 23 35 24 36 25 37 26 38 27 39 28 40 29 41 30 42
REMARK SMILES IDX 91 43 31 44 90 45 32 46 33 47 34 48 84 49 35 50 89 51 83 52
REMARK SMILES IDX 85 53 36 54 88 55 82 56 81 57 37 59 69 60 49 61 68 62 50 63
REMARK SMILES IDX 53 64 67 65 86 66 51 67 52 68 66 70 87 71 54 72 38 73 39 74
REMARK SMILES IDX 47 75 40 76 42 77 48 78 41 79 43 80 44 81 45 82 46 83 70 84
REMARK SMILES IDX 71 85 79 86 72 87 74 88 80 89 73 90 75 91 76 92 77 93 78 94
REMARK SMILES IDX 55 95 56 96 64 97 57 98 59 99 65 100 58 101 60 102 61 103
REMARK SMILES IDX 62 104 63 105
REMARK H PARENT 95 26 85 58 53 69
REMARK Flexibility Score: inf
ROOT
ATOM      1  C   UNL A   1      40.588  19.951  26.500  1.00  0.00     0.188 C 
ENDROOT
BRANCH   1   2
ATOM      2  O   UNL A   1      39.645  19.475  25.548  1.00  0.00    -0.376 OA
BRANCH   2   3
ATOM      3  C   UNL A   1      38.480  20.230  25.250  1.00  0.00     0.202 C 
BRANCH   3   4
ATOM      4  C   UNL A   1      38.472  21.739  25.545  1.00  0.00     0.261 C 
BRANCH   4   5
ATOM      5  O   UNL A   1      37.543  22.485  24.744  1.00  0.00    -0.460 OA
BRANCH   5   6
ATOM      6  C   UNL A   1      36.693  23.302  25.393  1.00  0.00     0.338 C 
ATOM      7  O   UNL A   1      36.954  24.060  26.331  1.00  0.00    -0.246 OA
BRANCH   6   8
ATOM      8  C   UNL A   1      35.372  23.266  24.737  1.00  0.00     0.062 A 
ATOM      9  C   UNL A   1      32.956  23.423  24.829  1.00  0.00     0.046 A 
ATOM     10  C   UNL A   1      32.882  23.158  23.457  1.00  0.00     0.026 A 
ATOM     11  C   UNL A   1      34.198  23.403  25.480  1.00  0.00     0.042 A 
ATOM     12  C   UNL A   1      34.057  22.977  22.725  1.00  0.00     0.003 A 
ATOM     13  C   UNL A   1      35.300  23.066  23.354  1.00  0.00     0.016 A 
BRANCH   9  14
ATOM     14  N   UNL A   1      31.784  23.829  25.533  1.00  0.00    -0.317 N 
ATOM     15  C   UNL A   1      31.228  25.117  25.569  1.00  0.00     0.047 A 
ATOM     16  C   UNL A   1      30.063  25.036  26.321  1.00  0.00     0.028 A 
ATOM     17  C   UNL A   1      29.891  23.701  26.738  1.00  0.00     0.020 A 
ATOM     18  C   UNL A   1      30.935  22.978  26.215  1.00  0.00     0.092 A 
BRANCH  15  19
ATOM     19  C   UNL A   1      31.789  26.173  24.775  1.00  0.00     0.052 C 
ATOM     20  C   UNL A   1      31.889  27.475  25.117  1.00  0.00     0.119 C 
BRANCH  20  21
ATOM     21  C   UNL A   1      31.611  27.707  26.593  1.00  0.00     0.105 C 
ATOM     22  N   UNL A   1      31.381  27.900  27.818  1.00  0.00    -0.192 NA
ENDBRANCH  20  21
BRANCH  20  23
ATOM     23  C   UNL A   1      32.425  28.559  24.240  1.00  0.00     0.266 C 
ATOM     24  O   UNL A   1      33.631  28.812  24.267  1.00  0.00    -0.268 OA
ATOM     25  N   UNL A   1      31.649  29.228  23.315  1.00  0.00    -0.321 N 
ATOM     26  H   UNL A   1      32.166  29.762  22.670  1.00  0.00     0.170 HD
BRANCH  25  27
ATOM     27  C   UNL A   1      30.255  29.289  23.122  1.00  0.00     0.042 A 
ATOM     28  C   UNL A   1      29.585  28.083  22.893  1.00  0.00     0.026 A 
ATOM     29  C   UNL A   1      29.516  30.470  23.269  1.00  0.00     0.046 A 
ATOM     30  C   UNL A   1      28.189  28.029  22.971  1.00  0.00     0.004 A 
ATOM     31  C   UNL A   1      28.123  30.405  23.356  1.00  0.00     0.043 A 
ATOM     32  C   UNL A   1      27.458  29.186  23.233  1.00  0.00     0.020 A 
ATOM     33  Cl  UNL A   1      27.226  31.828  23.723  1.00  0.00    -0.084 Cl
ENDBRANCH  25  27
ENDBRANCH  20  23
ENDBRANCH  15  19
ENDBRANCH   9  14
ENDBRANCH   6   8
ENDBRANCH   5   6
ENDBRANCH   4   5
ENDBRANCH   3   4
ENDBRANCH   2   3
ENDBRANCH   1   2
BRANCH   1  34
ATOM     34  C   UNL A   1      42.076  20.132  26.131  1.00  0.00     0.188 C 
BRANCH  34  35
ATOM     35  O   UNL A   1      42.527  21.474  26.077  1.00  0.00    -0.376 OA
BRANCH  35  36
ATOM     36  C   UNL A   1      43.771  21.696  25.423  1.00  0.00     0.202 C 
BRANCH  36  37
ATOM     37  C   UNL A   1      43.796  22.817  24.377  1.00  0.00     0.261 C 
BRANCH  37  38
ATOM     38  O   UNL A   1      43.523  24.135  24.854  1.00  0.00    -0.460 OA
BRANCH  38  39
ATOM     39  C   UNL A   1      44.598  24.874  25.166  1.00  0.00     0.338 C 
ATOM     40  O   UNL A   1      45.679  24.920  24.573  1.00  0.00    -0.246 OA
BRANCH  39  41
ATOM     41  C   UNL A   1      44.342  25.639  26.371  1.00  0.00     0.060 A 
ATOM     42  C   UNL A   1      43.534  25.075  27.361  1.00  0.00     0.016 A 
ATOM     43  C   UNL A   1      44.694  26.992  26.366  1.00  0.00     0.016 A 
ATOM     44  C   UNL A   1      42.979  25.909  28.309  1.00  0.00     0.010 A 
ATOM     45  C   UNL A   1      44.099  27.830  27.284  1.00  0.00     0.010 A 
ATOM     46  C   UNL A   1      43.217  27.288  28.225  1.00  0.00    -0.014 A 
BRANCH  46  47
ATOM     47  C   UNL A   1      42.532  28.168  29.183  1.00  0.00     0.031 A 
ATOM     48  C   UNL A   1      43.274  28.199  30.524  1.00  0.00     0.074 A 
ATOM     49  C   UNL A   1      41.349  28.702  28.743  1.00  0.00     0.049 A 
ATOM     50  N   UNL A   1      42.794  28.205  31.731  1.00  0.00    -0.248 NA
ATOM     51  C   UNL A   1      44.755  28.046  30.543  1.00  0.00     0.031 C 
ATOM     52  C   UNL A   1      40.817  28.563  27.364  1.00  0.00     0.029 A 
ATOM     53  N   UNL A   1      40.354  29.455  29.332  1.00  0.00    -0.354 N 
ATOM     54  C   UNL A   1      43.895  28.302  32.614  1.00  0.00     0.074 A 
ATOM     55  C   UNL A   1      45.063  28.023  31.842  1.00  0.00     0.031 C 
ATOM     56  C   UNL A   1      39.591  29.125  27.254  1.00  0.00     0.029 A 
ATOM     57  C   UNL A   1      39.213  29.709  28.527  1.00  0.00     0.049 A 
ATOM     58  H   UNL A   1      40.430  29.794  30.253  1.00  0.00     0.167 HD
ATOM     59  C   UNL A   1      43.779  28.782  33.888  1.00  0.00     0.034 A 
ATOM     60  C   UNL A   1      38.028  30.309  28.869  1.00  0.00     0.034 A 
ATOM     61  C   UNL A   1      42.427  29.181  34.108  1.00  0.00     0.049 A 
ATOM     62  C   UNL A   1      38.213  30.778  30.248  1.00  0.00     0.074 A 
ATOM     63  C   UNL A   1      41.269  28.486  34.322  1.00  0.00     0.029 A 
ATOM     64  N   UNL A   1      42.135  30.473  33.738  1.00  0.00    -0.354 N 
ATOM     65  N   UNL A   1      38.932  31.805  30.593  1.00  0.00    -0.248 NA
ATOM     66  C   UNL A   1      37.653  29.973  31.343  1.00  0.00     0.031 C 
ATOM     67  C   UNL A   1      40.294  29.267  33.671  1.00  0.00     0.029 A 
ATOM     68  C   UNL A   1      40.854  30.483  33.260  1.00  0.00     0.049 A 
ATOM     69  H   UNL A   1      42.739  31.249  33.806  1.00  0.00     0.167 HD
ATOM     70  C   UNL A   1      39.195  31.532  31.912  1.00  0.00     0.074 A 
ATOM     71  C   UNL A   1      38.137  30.662  32.372  1.00  0.00     0.031 C 
ATOM     72  C   UNL A   1      40.479  31.544  32.354  1.00  0.00     0.034 A 
BRANCH  59  73
ATOM     73  C   UNL A   1      44.768  29.216  34.944  1.00  0.00     0.023 A 
ATOM     74  C   UNL A   1      44.605  28.592  36.215  1.00  0.00     0.012 A 
ATOM     75  C   UNL A   1      45.606  30.342  34.886  1.00  0.00     0.148 A 
ATOM     76  C   UNL A   1      45.123  29.132  37.390  1.00  0.00     0.002 A 
ATOM     77  C   UNL A   1      46.171  30.848  36.062  1.00  0.00     0.091 A 
ATOM     78  F   UNL A   1      45.790  30.971  33.722  1.00  0.00    -0.205 F 
ATOM     79  C   UNL A   1      45.895  30.274  37.313  1.00  0.00     0.022 A 
BRANCH  77  80
ATOM     80  S   UNL A   1      47.274  32.266  36.079  1.00  0.00     0.127 S 
ATOM     81  O   UNL A   1      46.383  33.349  35.670  1.00  0.00    -0.237 OA
ATOM     82  O   UNL A   1      47.680  32.315  37.487  1.00  0.00    -0.237 OA
ATOM     83  O   UNL A   1      48.356  31.933  35.164  1.00  0.00    -0.744 OA
ENDBRANCH  77  80
ENDBRANCH  59  73
BRANCH  60  84
ATOM     84  C   UNL A   1      36.650  30.492  28.266  1.00  0.00     0.023 A 
ATOM     85  C   UNL A   1      35.845  29.445  27.795  1.00  0.00     0.012 A 
ATOM     86  C   UNL A   1      36.065  31.796  28.192  1.00  0.00     0.148 A 
ATOM     87  C   UNL A   1      34.517  29.674  27.369  1.00  0.00     0.002 A 
ATOM     88  C   UNL A   1      34.724  32.006  27.890  1.00  0.00     0.091 A 
ATOM     89  F   UNL A   1      36.825  32.879  28.372  1.00  0.00    -0.205 F 
ATOM     90  C   UNL A   1      33.942  30.942  27.459  1.00  0.00     0.022 A 
BRANCH  88  91
ATOM     91  S   UNL A   1      33.928  33.604  28.166  1.00  0.00     0.127 S 
ATOM     92  O   UNL A   1      32.564  33.359  27.702  1.00  0.00    -0.237 OA
ATOM     93  O   UNL A   1      34.066  33.751  29.615  1.00  0.00    -0.237 OA
ATOM     94  O   UNL A   1      34.680  34.581  27.389  1.00  0.00    -0.744 OA
ENDBRANCH  88  91
ENDBRANCH  60  84
BRANCH  72  95
ATOM     95  C   UNL A   1      41.411  32.470  31.578  1.00  0.00     0.023 A 
ATOM     96  C   UNL A   1      41.142  33.852  31.655  1.00  0.00     0.012 A 
ATOM     97  C   UNL A   1      42.443  32.060  30.701  1.00  0.00     0.148 A 
ATOM     98  C   UNL A   1      41.851  34.782  30.891  1.00  0.00     0.002 A 
ATOM     99  C   UNL A   1      43.145  32.989  29.924  1.00  0.00     0.091 A 
ATOM    100  F   UNL A   1      42.735  30.763  30.623  1.00  0.00    -0.205 F 
ATOM    101  C   UNL A   1      42.850  34.353  30.025  1.00  0.00     0.022 A 
BRANCH  99 102
ATOM    102  S   UNL A   1      44.404  32.537  28.708  1.00  0.00     0.127 S 
ATOM    103  O   UNL A   1      43.972  33.275  27.517  1.00  0.00    -0.237 OA
ATOM    104  O   UNL A   1      45.624  33.056  29.321  1.00  0.00    -0.237 OA
ATOM    105  O   UNL A   1      44.343  31.088  28.563  1.00  0.00    -0.744 OA
ENDBRANCH  99 102
ENDBRANCH  72  95
ENDBRANCH  46  47
ENDBRANCH  39  41
ENDBRANCH  38  39
ENDBRANCH  37  38
ENDBRANCH  36  37
ENDBRANCH  35  36
ENDBRANCH  34  35
ENDBRANCH   1  34
TORSDOF 25
ENDMDL
MODEL 3
REMARK VINA RESULT:      -9.5      3.871      8.603
REMARK SMILES N#C/C(=C\c1cccn1-c1cccc(C(=O)OCCOCCOCCOC(=O)c2ccc(-c3c4nc(c(-c5cccc(S(=O)(=O)[O-])c5F)c5ccc([nH]5)c(-c5cccc(S(=O)(=O)[O-])c5F)c5nc(c(-c6cccc(S(=O)(=O)[O-])c6F)c6ccc3[nH]6)C=C5)C=C4)cc2)c1)C(=O)Nc1cccc(Cl)c1
REMARK SMILES IDX 21 1 20 2 19 3 18 4 17 5 15 6 16 7 14 8 10 9 11 10 92 11
REMARK SMILES IDX 12 12 13 13 9 14 5 15 6 16 7 17 8 18 4 19 3 20 2 21 1 22
REMARK SMILES IDX 93 23 94 24 95 25 96 27 97 28 102 29 98 30 100 31 99 32
REMARK SMILES IDX 101 33 22 34 23 35 24 36 25 37 26 38 27 39 28 40 29 41 30 42
REMARK SMILES IDX 91 43 31 44 90 45 32 46 33 47 34 48 84 49 35 50 89 51 83 52
REMARK SMILES IDX 85 53 36 54 88 55 82 56 81 57 37 59 69 60 49 61 68 62 50 63
REMARK SMILES IDX 53 64 67 65 86 66 51 67 52 68 66 70 87 71 54 72 38 73 39 74
REMARK SMILES IDX 47 75 40 76 42 77 48 78 41 79 43 80 44 81 45 82 46 83 70 84
REMARK SMILES IDX 71 85 79 86 72 87 74 88 80 89 73 90 75 91 76 92 77 93 78 94
REMARK SMILES IDX 55 95 56 96 64 97 57 98 59 99 65 100 58 101 60 102 61 103
REMARK SMILES IDX 62 104 63 105
REMARK H PARENT 95 26 85 58 53 69
REMARK Flexibility Score: inf
ROOT
ATOM      1  C   UNL A   1      40.585  21.184  27.008  1.00  0.00     0.188 C 
ENDROOT
BRANCH   1   2
ATOM      2  O   UNL A   1      39.887  20.596  25.916  1.00  0.00    -0.376 OA
BRANCH   2   3
ATOM      3  C   UNL A   1      38.515  20.890  25.697  1.00  0.00     0.202 C 
BRANCH   3   4
ATOM      4  C   UNL A   1      38.085  22.355  25.518  1.00  0.00     0.261 C 
BRANCH   4   5
ATOM      5  O   UNL A   1      36.790  22.513  24.916  1.00  0.00    -0.460 OA
BRANCH   5   6
ATOM      6  C   UNL A   1      36.052  23.564  25.318  1.00  0.00     0.338 C 
ATOM      7  O   UNL A   1      36.247  24.282  26.302  1.00  0.00    -0.246 OA
BRANCH   6   8
ATOM      8  C   UNL A   1      34.996  23.838  24.325  1.00  0.00     0.062 A 
ATOM      9  C   UNL A   1      33.332  25.305  23.352  1.00  0.00     0.046 A 
ATOM     10  C   UNL A   1      32.975  24.304  22.442  1.00  0.00     0.026 A 
ATOM     11  C   UNL A   1      34.292  25.042  24.340  1.00  0.00     0.042 A 
ATOM     12  C   UNL A   1      33.652  23.083  22.459  1.00  0.00     0.003 A 
ATOM     13  C   UNL A   1      34.683  22.862  23.373  1.00  0.00     0.016 A 
BRANCH   9  14
ATOM     14  N   UNL A   1      32.806  26.621  23.194  1.00  0.00    -0.317 N 
ATOM     15  C   UNL A   1      31.548  27.081  23.614  1.00  0.00     0.047 A 
ATOM     16  C   UNL A   1      31.489  28.435  23.311  1.00  0.00     0.028 A 
ATOM     17  C   UNL A   1      32.708  28.816  22.719  1.00  0.00     0.020 A 
ATOM     18  C   UNL A   1      33.509  27.699  22.690  1.00  0.00     0.092 A 
BRANCH  15  19
ATOM     19  C   UNL A   1      30.674  26.223  24.362  1.00  0.00     0.052 C 
ATOM     20  C   UNL A   1      30.745  25.950  25.682  1.00  0.00     0.119 C 
BRANCH  20  21
ATOM     21  C   UNL A   1      31.691  26.887  26.415  1.00  0.00     0.105 C 
ATOM     22  N   UNL A   1      32.477  27.664  27.023  1.00  0.00    -0.192 NA
ENDBRANCH  20  21
BRANCH  20  23
ATOM     23  C   UNL A   1      29.852  25.005  26.417  1.00  0.00     0.266 C 
ATOM     24  O   UNL A   1      28.758  25.403  26.822  1.00  0.00    -0.268 OA
ATOM     25  N   UNL A   1      30.147  23.665  26.577  1.00  0.00    -0.321 N 
ATOM     26  H   UNL A   1      29.388  23.123  26.893  1.00  0.00     0.170 HD
BRANCH  25  27
ATOM     27  C   UNL A   1      31.331  22.930  26.372  1.00  0.00     0.042 A 
ATOM     28  C   UNL A   1      32.367  23.112  27.295  1.00  0.00     0.026 A 
ATOM     29  C   UNL A   1      31.461  21.958  25.373  1.00  0.00     0.046 A 
ATOM     30  C   UNL A   1      33.448  22.225  27.319  1.00  0.00     0.004 A 
ATOM     31  C   UNL A   1      32.540  21.071  25.411  1.00  0.00     0.043 A 
ATOM     32  C   UNL A   1      33.520  21.184  26.395  1.00  0.00     0.020 A 
ATOM     33  Cl  UNL A   1      32.604  19.760  24.297  1.00  0.00    -0.084 Cl
ENDBRANCH  25  27
ENDBRANCH  20  23
ENDBRANCH  15  19
ENDBRANCH   9  14
ENDBRANCH   6   8
ENDBRANCH   5   6
ENDBRANCH   4   5
ENDBRANCH   3   4
ENDBRANCH   2   3
ENDBRANCH   1   2
BRANCH   1  34
ATOM     34  C   UNL A   1      42.110  21.412  26.953  1.00  0.00     0.188 C 
BRANCH  34  35
ATOM     35  O   UNL A   1      42.538  22.417  26.050  1.00  0.00    -0.376 OA
BRANCH  35  36
ATOM     36  C   UNL A   1      43.522  22.032  25.097  1.00  0.00     0.202 C 
BRANCH  36  37
ATOM     37  C   UNL A   1      44.593  23.079  24.767  1.00  0.00     0.261 C 
BRANCH  37  38
ATOM     38  O   UNL A   1      44.184  24.447  24.835  1.00  0.00    -0.460 OA
BRANCH  38  39
ATOM     39  C   UNL A   1      45.109  25.308  25.284  1.00  0.00     0.338 C 
ATOM     40  O   UNL A   1      46.039  25.812  24.651  1.00  0.00    -0.246 OA
BRANCH  39  41
ATOM     41  C   UNL A   1      44.897  25.573  26.694  1.00  0.00     0.060 A 
ATOM     42  C   UNL A   1      43.622  25.373  27.228  1.00  0.00     0.016 A 
ATOM     43  C   UNL A   1      45.901  26.262  27.380  1.00  0.00     0.016 A 
ATOM     44  C   UNL A   1      43.314  25.969  28.433  1.00  0.00     0.010 A 
ATOM     45  C   UNL A   1      45.576  26.898  28.559  1.00  0.00     0.010 A 
ATOM     46  C   UNL A   1      44.275  26.777  29.058  1.00  0.00    -0.014 A 
BRANCH  46  47
ATOM     47  C   UNL A   1      43.889  27.484  30.287  1.00  0.00     0.031 A 
ATOM     48  C   UNL A   1      44.343  26.711  31.529  1.00  0.00     0.074 A 
ATOM     49  C   UNL A   1      43.140  28.617  30.098  1.00  0.00     0.049 A 
ATOM     50  N   UNL A   1      43.722  26.522  32.655  1.00  0.00    -0.248 NA
ATOM     51  C   UNL A   1      45.589  25.897  31.468  1.00  0.00     0.031 C 
ATOM     52  C   UNL A   1      42.831  29.220  28.777  1.00  0.00     0.029 A 
ATOM     53  N   UNL A   1      42.484  29.490  30.943  1.00  0.00    -0.354 N 
ATOM     54  C   UNL A   1      44.599  25.794  33.494  1.00  0.00     0.074 A 
ATOM     55  C   UNL A   1      45.641  25.293  32.657  1.00  0.00     0.031 C 
ATOM     56  C   UNL A   1      42.003  30.281  28.905  1.00  0.00     0.029 A 
ATOM     57  C   UNL A   1      41.711  30.499  30.310  1.00  0.00     0.049 A 
ATOM     58  H   UNL A   1      42.547  29.418  31.922  1.00  0.00     0.167 HD
ATOM     59  C   UNL A   1      44.495  25.805  34.856  1.00  0.00     0.034 A 
ATOM     60  C   UNL A   1      40.862  31.418  30.870  1.00  0.00     0.034 A 
ATOM     61  C   UNL A   1      43.430  26.678  35.229  1.00  0.00     0.049 A 
ATOM     62  C   UNL A   1      41.004  31.245  32.321  1.00  0.00     0.074 A 
ATOM     63  C   UNL A   1      42.067  26.567  35.181  1.00  0.00     0.029 A 
ATOM     64  N   UNL A   1      43.787  27.997  35.381  1.00  0.00    -0.354 N 
ATOM     65  N   UNL A   1      42.028  31.638  33.019  1.00  0.00    -0.248 NA
ATOM     66  C   UNL A   1      39.982  30.468  33.037  1.00  0.00     0.031 C 
ATOM     67  C   UNL A   1      41.644  27.878  34.888  1.00  0.00     0.029 A 
ATOM     68  C   UNL A   1      42.731  28.759  34.960  1.00  0.00     0.049 A 
ATOM     69  H   UNL A   1      44.645  28.332  35.729  1.00  0.00     0.167 HD
ATOM     70  C   UNL A   1      41.929  30.842  34.133  1.00  0.00     0.074 A 
ATOM     71  C   UNL A   1      40.540  30.458  34.243  1.00  0.00     0.031 C 
ATOM     72  C   UNL A   1      43.002  30.110  34.528  1.00  0.00     0.034 A 
BRANCH  59  73
ATOM     73  C   UNL A   1      45.388  25.344  35.984  1.00  0.00     0.023 A 
ATOM     74  C   UNL A   1      46.298  26.327  36.472  1.00  0.00     0.012 A 
ATOM     75  C   UNL A   1      45.608  24.015  36.381  1.00  0.00     0.148 A 
ATOM     76  C   UNL A   1      47.443  26.000  37.193  1.00  0.00     0.002 A 
ATOM     77  C   UNL A   1      46.731  23.698  37.154  1.00  0.00     0.091 A 
ATOM     78  F   UNL A   1      44.791  23.052  35.948  1.00  0.00    -0.205 F 
ATOM     79  C   UNL A   1      47.668  24.678  37.520  1.00  0.00     0.022 A 
BRANCH  77  80
ATOM     80  S   UNL A   1      47.077  22.032  37.728  1.00  0.00     0.127 S 
ATOM     81  O   UNL A   1      47.602  21.398  36.522  1.00  0.00    -0.237 OA
ATOM     82  O   UNL A   1      48.080  22.274  38.770  1.00  0.00    -0.237 OA
ATOM     83  O   UNL A   1      45.812  21.520  38.234  1.00  0.00    -0.744 OA
ENDBRANCH  77  80
ENDBRANCH  59  73
BRANCH  60  84
ATOM     84  C   UNL A   1      39.814  32.408  30.401  1.00  0.00     0.023 A 
ATOM     85  C   UNL A   1      40.024  33.789  30.285  1.00  0.00     0.012 A 
ATOM     86  C   UNL A   1      38.522  31.947  29.993  1.00  0.00     0.148 A 
ATOM     87  C   UNL A   1      39.047  34.635  29.713  1.00  0.00     0.002 A 
ATOM     88  C   UNL A   1      37.610  32.755  29.322  1.00  0.00     0.091 A 
ATOM     89  F   UNL A   1      38.129  30.708  30.296  1.00  0.00    -0.205 F 
ATOM     90  C   UNL A   1      37.862  34.115  29.191  1.00  0.00     0.022 A 
BRANCH  88  91
ATOM     91  S   UNL A   1      36.160  32.065  28.495  1.00  0.00     0.127 S 
ATOM     92  O   UNL A   1      35.756  33.154  27.610  1.00  0.00    -0.237 OA
ATOM     93  O   UNL A   1      36.737  30.904  27.817  1.00  0.00    -0.237 OA
ATOM     94  O   UNL A   1      35.204  31.733  29.544  1.00  0.00    -0.744 OA
ENDBRANCH  88  91
ENDBRANCH  60  84
BRANCH  72  95
ATOM     95  C   UNL A   1      44.354  30.706  34.148  1.00  0.00     0.023 A 
ATOM     96  C   UNL A   1      45.062  30.066  33.111  1.00  0.00     0.012 A 
ATOM     97  C   UNL A   1      45.008  31.768  34.818  1.00  0.00     0.148 A 
ATOM     98  C   UNL A   1      46.360  30.449  32.762  1.00  0.00     0.002 A 
ATOM     99  C   UNL A   1      46.313  32.143  34.479  1.00  0.00     0.091 A 
ATOM    100  F   UNL A   1      44.356  32.407  35.787  1.00  0.00    -0.205 F 
ATOM    101  C   UNL A   1      46.987  31.484  33.445  1.00  0.00     0.022 A 
BRANCH  99 102
ATOM    102  S   UNL A   1      47.252  33.417  35.352  1.00  0.00     0.127 S 
ATOM    103  O   UNL A   1      48.555  33.364  34.683  1.00  0.00    -0.237 OA
ATOM    104  O   UNL A   1      46.482  34.623  35.060  1.00  0.00    -0.237 OA
ATOM    105  O   UNL A   1      47.289  33.021  36.755  1.00  0.00    -0.744 OA
ENDBRANCH  99 102
ENDBRANCH  72  95
ENDBRANCH  46  47
ENDBRANCH  39  41
ENDBRANCH  38  39
ENDBRANCH  37  38
ENDBRANCH  36  37
ENDBRANCH  35  36
ENDBRANCH  34  35
ENDBRANCH   1  34
TORSDOF 25
ENDMDL
