MODEL 1
REMARK VINA RESULT:     -10.6      0.000      0.000
REMARK SMILES Cc1cc2nc(S/C(=C\c3ccc(O)cc3)C(=O)OCCOCCOCCOC(=O)c3ccc(-c4c5nc(c(-c6cccc(S(=O)(=O)[O-])c6F)c6ccc([nH]6)c(-c6cccc(S(=O)(=O)[O-])c6F)c6nc(c(-c7cccc(S(=O)(=O)[O-])c7F)c7ccc4[nH]7)C=C6)C=C5)cc3)[nH]c2cc1C
REMARK SMILES IDX 24 1 23 2 22 3 21 4 20 5 19 6 17 7 18 8 8 9 9 10 7 11 6 12
REMARK SMILES IDX 1 13 2 14 3 15 97 16 4 17 96 18 98 19 5 20 95 21 94 22 10 24
REMARK SMILES IDX 11 25 16 26 12 27 15 28 13 29 14 30 25 32 26 33 27 34 28 35
REMARK SMILES IDX 29 36 30 37 31 38 32 39 93 40 33 41 92 42 34 43 35 44 36 45
REMARK SMILES IDX 86 46 37 47 91 48 85 49 87 50 38 51 90 52 84 53 83 54 39 56
REMARK SMILES IDX 71 57 51 58 70 59 52 60 55 61 69 62 88 63 53 64 54 65 68 67
REMARK SMILES IDX 89 68 56 69 40 70 41 71 49 72 42 73 44 74 50 75 43 76 45 77
REMARK SMILES IDX 46 78 47 79 48 80 72 81 73 82 81 83 74 84 76 85 82 86 75 87
REMARK SMILES IDX 77 88 78 89 79 90 80 91 57 92 58 93 66 94 59 95 61 96 67 97
REMARK SMILES IDX 60 98 62 99 63 100 64 101 65 102
REMARK H PARENT 94 23 14 31 87 55 55 66
REMARK Flexibility Score: inf
ROOT
ATOM      1  C   UNL A   1      33.628  34.533  29.207  1.00  0.00     0.188 C 
ENDROOT
BRANCH   1   2
ATOM      2  C   UNL A   1      34.935  34.468  28.387  1.00  0.00     0.188 C 
BRANCH   2   3
ATOM      3  O   UNL A   1      35.209  33.315  27.610  1.00  0.00    -0.376 OA
BRANCH   3   4
ATOM      4  C   UNL A   1      34.882  32.029  28.114  1.00  0.00     0.202 C 
BRANCH   4   5
ATOM      5  C   UNL A   1      34.261  30.956  27.204  1.00  0.00     0.261 C 
BRANCH   5   6
ATOM      6  O   UNL A   1      32.921  30.584  27.559  1.00  0.00    -0.459 OA
BRANCH   6   7
ATOM      7  C   UNL A   1      32.001  30.585  26.552  1.00  0.00     0.345 C 
ATOM      8  O   UNL A   1      31.321  31.542  26.215  1.00  0.00    -0.246 OA
BRANCH   7   9
ATOM      9  C   UNL A   1      31.973  29.245  25.851  1.00  0.00     0.101 C 
ATOM     10  C   UNL A   1      32.111  29.289  24.510  1.00  0.00     0.031 C 
BRANCH   9  11
ATOM     11  S   UNL A   1      31.682  27.941  26.957  1.00  0.00    -0.044 SA
BRANCH  11  12
ATOM     12  C   UNL A   1      32.387  26.503  26.332  1.00  0.00     0.171 A 
ATOM     13  C   UNL A   1      33.420  21.201  23.900  1.00  0.00     0.044 C 
ATOM     14  C   UNL A   1      33.613  22.611  24.392  1.00  0.00    -0.046 A 
ATOM     15  C   UNL A   1      32.493  23.271  24.947  1.00  0.00     0.034 A 
ATOM     16  C   UNL A   1      34.870  23.255  24.381  1.00  0.00    -0.046 A 
ATOM     17  C   UNL A   1      32.645  24.553  25.496  1.00  0.00     0.090 A 
ATOM     18  C   UNL A   1      35.050  24.479  25.055  1.00  0.00     0.032 A 
ATOM     19  C   UNL A   1      36.051  22.675  23.647  1.00  0.00     0.044 C 
ATOM     20  N   UNL A   1      31.707  25.439  25.965  1.00  0.00    -0.222 NA
ATOM     21  C   UNL A   1      33.919  25.092  25.593  1.00  0.00     0.066 A 
ATOM     22  N   UNL A   1      33.731  26.281  26.256  1.00  0.00    -0.333 N 
ATOM     23  H   UNL A   1      34.438  26.866  26.612  1.00  0.00     0.169 HD
ENDBRANCH  11  12
ENDBRANCH   9  11
BRANCH  10  24
ATOM     24  C   UNL A   1      32.150  28.224  23.506  1.00  0.00    -0.024 A 
ATOM     25  C   UNL A   1      31.005  27.601  22.999  1.00  0.00     0.012 A 
ATOM     26  C   UNL A   1      33.416  27.806  23.065  1.00  0.00     0.012 A 
ATOM     27  C   UNL A   1      31.130  26.496  22.152  1.00  0.00     0.047 A 
ATOM     28  C   UNL A   1      33.540  26.716  22.208  1.00  0.00     0.047 A 
ATOM     29  C   UNL A   1      32.398  26.046  21.791  1.00  0.00     0.115 A 
BRANCH  29  30
ATOM     30  O   UNL A   1      32.560  24.901  21.070  1.00  0.00    -0.508 OA
ATOM     31  H   UNL A   1      31.815  24.474  20.696  1.00  0.00     0.293 HD
ENDBRANCH  29  30
ENDBRANCH  10  24
ENDBRANCH   7   9
ENDBRANCH   6   7
ENDBRANCH   5   6
ENDBRANCH   4   5
ENDBRANCH   3   4
ENDBRANCH   2   3
ENDBRANCH   1   2
BRANCH   1  32
ATOM     32  O   UNL A   1      33.760  34.747  30.591  1.00  0.00    -0.376 OA
BRANCH  32  33
ATOM     33  C   UNL A   1      34.698  33.993  31.340  1.00  0.00     0.202 C 
BRANCH  33  34
ATOM     34  C   UNL A   1      34.450  32.628  32.020  1.00  0.00     0.261 C 
BRANCH  34  35
ATOM     35  O   UNL A   1      35.490  31.650  32.009  1.00  0.00    -0.460 OA
BRANCH  35  36
ATOM     36  C   UNL A   1      36.541  31.883  32.832  1.00  0.00     0.338 C 
ATOM     37  O   UNL A   1      36.499  32.107  34.033  1.00  0.00    -0.246 OA
BRANCH  36  38
ATOM     38  C   UNL A   1      37.785  31.625  32.085  1.00  0.00     0.060 A 
ATOM     39  C   UNL A   1      37.848  31.980  30.729  1.00  0.00     0.016 A 
ATOM     40  C   UNL A   1      38.881  31.036  32.715  1.00  0.00     0.016 A 
ATOM     41  C   UNL A   1      39.008  31.733  29.995  1.00  0.00     0.010 A 
ATOM     42  C   UNL A   1      40.032  30.765  31.971  1.00  0.00     0.010 A 
ATOM     43  C   UNL A   1      40.093  31.088  30.602  1.00  0.00    -0.014 A 
BRANCH  43  44
ATOM     44  C   UNL A   1      41.223  30.602  29.775  1.00  0.00     0.031 A 
ATOM     45  C   UNL A   1      41.091  29.273  29.083  1.00  0.00     0.074 A 
ATOM     46  C   UNL A   1      42.356  31.317  29.651  1.00  0.00     0.049 A 
ATOM     47  N   UNL A   1      41.965  28.622  28.361  1.00  0.00    -0.248 NA
ATOM     48  C   UNL A   1      39.797  28.584  29.230  1.00  0.00     0.031 C 
ATOM     49  C   UNL A   1      42.602  32.624  30.258  1.00  0.00     0.029 A 
ATOM     50  N   UNL A   1      43.524  31.025  28.990  1.00  0.00    -0.354 N 
ATOM     51  C   UNL A   1      41.342  27.434  27.996  1.00  0.00     0.074 A 
ATOM     52  C   UNL A   1      40.021  27.449  28.583  1.00  0.00     0.031 C 
ATOM     53  C   UNL A   1      43.859  33.006  29.971  1.00  0.00     0.029 A 
ATOM     54  C   UNL A   1      44.512  31.961  29.184  1.00  0.00     0.049 A 
ATOM     55  H   UNL A   1      43.642  30.223  28.432  1.00  0.00     0.167 HD
ATOM     56  C   UNL A   1      41.823  26.426  27.231  1.00  0.00     0.034 A 
ATOM     57  C   UNL A   1      45.803  31.959  28.795  1.00  0.00     0.034 A 
ATOM     58  C   UNL A   1      43.133  26.417  26.637  1.00  0.00     0.049 A 
ATOM     59  C   UNL A   1      46.327  30.806  27.975  1.00  0.00     0.074 A 
ATOM     60  C   UNL A   1      43.694  25.462  25.807  1.00  0.00     0.029 A 
ATOM     61  N   UNL A   1      44.095  27.397  26.828  1.00  0.00    -0.354 N 
ATOM     62  N   UNL A   1      45.693  29.743  27.539  1.00  0.00    -0.248 NA
ATOM     63  C   UNL A   1      47.739  30.867  27.566  1.00  0.00     0.031 C 
ATOM     64  C   UNL A   1      45.010  25.845  25.529  1.00  0.00     0.029 A 
ATOM     65  C   UNL A   1      45.254  27.061  26.148  1.00  0.00     0.049 A 
ATOM     66  H   UNL A   1      43.973  28.212  27.366  1.00  0.00     0.167 HD
ATOM     67  C   UNL A   1      46.614  29.032  26.778  1.00  0.00     0.074 A 
ATOM     68  C   UNL A   1      47.845  29.794  26.794  1.00  0.00     0.031 C 
ATOM     69  C   UNL A   1      46.460  27.849  26.132  1.00  0.00     0.034 A 
BRANCH  56  70
ATOM     70  C   UNL A   1      40.920  25.246  26.985  1.00  0.00     0.023 A 
ATOM     71  C   UNL A   1      39.631  25.446  26.451  1.00  0.00     0.012 A 
ATOM     72  C   UNL A   1      41.369  23.933  27.234  1.00  0.00     0.148 A 
ATOM     73  C   UNL A   1      38.788  24.363  26.204  1.00  0.00     0.002 A 
ATOM     74  C   UNL A   1      40.542  22.856  26.940  1.00  0.00     0.091 A 
ATOM     75  F   UNL A   1      42.590  23.764  27.761  1.00  0.00    -0.205 F 
ATOM     76  C   UNL A   1      39.248  23.069  26.439  1.00  0.00     0.022 A 
BRANCH  74  77
ATOM     77  S   UNL A   1      41.068  21.150  27.129  1.00  0.00     0.127 S 
ATOM     78  O   UNL A   1      42.382  21.174  26.486  1.00  0.00    -0.237 OA
ATOM     79  O   UNL A   1      41.104  21.000  28.583  1.00  0.00    -0.237 OA
ATOM     80  O   UNL A   1      40.062  20.340  26.457  1.00  0.00    -0.744 OA
ENDBRANCH  74  77
ENDBRANCH  56  70
BRANCH  57  81
ATOM     81  C   UNL A   1      46.697  33.097  29.159  1.00  0.00     0.023 A 
ATOM     82  C   UNL A   1      47.625  32.945  30.206  1.00  0.00     0.012 A 
ATOM     83  C   UNL A   1      46.628  34.327  28.476  1.00  0.00     0.148 A 
ATOM     84  C   UNL A   1      48.444  34.007  30.590  1.00  0.00     0.002 A 
ATOM     85  C   UNL A   1      47.485  35.363  28.826  1.00  0.00     0.091 A 
ATOM     86  F   UNL A   1      45.725  34.456  27.492  1.00  0.00    -0.205 F 
ATOM     87  C   UNL A   1      48.380  35.212  29.895  1.00  0.00     0.022 A 
BRANCH  85  88
ATOM     88  S   UNL A   1      47.552  36.911  27.917  1.00  0.00     0.127 S 
ATOM     89  O   UNL A   1      47.568  36.445  26.533  1.00  0.00    -0.237 OA
ATOM     90  O   UNL A   1      46.308  37.558  28.334  1.00  0.00    -0.237 OA
ATOM     91  O   UNL A   1      48.763  37.584  28.368  1.00  0.00    -0.744 OA
ENDBRANCH  85  88
ENDBRANCH  57  81
BRANCH  69  92
ATOM     92  C   UNL A   1      47.634  27.314  25.349  1.00  0.00     0.023 A 
ATOM     93  C   UNL A   1      48.490  26.357  25.927  1.00  0.00     0.012 A 
ATOM     94  C   UNL A   1      47.842  27.706  24.011  1.00  0.00     0.148 A 
ATOM     95  C   UNL A   1      49.557  25.827  25.201  1.00  0.00     0.002 A 
ATOM     96  C   UNL A   1      48.873  27.134  23.275  1.00  0.00     0.091 A 
ATOM     97  F   UNL A   1      47.024  28.628  23.480  1.00  0.00    -0.205 F 
ATOM     98  C   UNL A   1      49.740  26.205  23.872  1.00  0.00     0.022 A 
BRANCH  96  99
ATOM     99  S   UNL A   1      49.127  27.485  21.532  1.00  0.00     0.127 S 
ATOM    100  O   UNL A   1      50.460  26.929  21.307  1.00  0.00    -0.237 OA
ATOM    101  O   UNL A   1      48.040  26.733  20.903  1.00  0.00    -0.237 OA
ATOM    102  O   UNL A   1      49.023  28.931  21.391  1.00  0.00    -0.744 OA
ENDBRANCH  96  99
ENDBRANCH  69  92
ENDBRANCH  43  44
ENDBRANCH  36  38
ENDBRANCH  35  36
ENDBRANCH  34  35
ENDBRANCH  33  34
ENDBRANCH  32  33
ENDBRANCH   1  32
TORSDOF 24
ENDMDL
MODEL 2
REMARK VINA RESULT:     -10.4      5.325      8.515
REMARK SMILES Cc1cc2nc(S/C(=C\c3ccc(O)cc3)C(=O)OCCOCCOCCOC(=O)c3ccc(-c4c5nc(c(-c6cccc(S(=O)(=O)[O-])c6F)c6ccc([nH]6)c(-c6cccc(S(=O)(=O)[O-])c6F)c6nc(c(-c7cccc(S(=O)(=O)[O-])c7F)c7ccc4[nH]7)C=C6)C=C5)cc3)[nH]c2cc1C
REMARK SMILES IDX 24 1 23 2 22 3 21 4 20 5 19 6 17 7 18 8 8 9 9 10 7 11 6 12
REMARK SMILES IDX 1 13 2 14 3 15 97 16 4 17 96 18 98 19 5 20 95 21 94 22 10 24
REMARK SMILES IDX 11 25 16 26 12 27 15 28 13 29 14 30 25 32 26 33 27 34 28 35
REMARK SMILES IDX 29 36 30 37 31 38 32 39 93 40 33 41 92 42 34 43 35 44 36 45
REMARK SMILES IDX 86 46 37 47 91 48 85 49 87 50 38 51 90 52 84 53 83 54 39 56
REMARK SMILES IDX 71 57 51 58 70 59 52 60 55 61 69 62 88 63 53 64 54 65 68 67
REMARK SMILES IDX 89 68 56 69 40 70 41 71 49 72 42 73 44 74 50 75 43 76 45 77
REMARK SMILES IDX 46 78 47 79 48 80 72 81 73 82 81 83 74 84 76 85 82 86 75 87
REMARK SMILES IDX 77 88 78 89 79 90 80 91 57 92 58 93 66 94 59 95 61 96 67 97
REMARK SMILES IDX 60 98 62 99 63 100 64 101 65 102
REMARK H PARENT 94 23 14 31 87 55 55 66
REMARK Flexibility Score: inf
ROOT
ATOM      1  C   UNL A   1      33.384  29.512  26.015  1.00  0.00     0.188 C 
ENDROOT
BRANCH   1   2
ATOM      2  C   UNL A   1      33.662  27.997  25.919  1.00  0.00     0.188 C 
BRANCH   2   3
ATOM      3  O   UNL A   1      32.814  27.091  26.606  1.00  0.00    -0.376 OA
BRANCH   3   4
ATOM      4  C   UNL A   1      31.406  27.183  26.449  1.00  0.00     0.202 C 
BRANCH   4   5
ATOM      5  C   UNL A   1      30.602  26.034  25.820  1.00  0.00     0.261 C 
BRANCH   5   6
ATOM      6  O   UNL A   1      31.399  25.075  25.109  1.00  0.00    -0.459 OA
BRANCH   6   7
ATOM      7  C   UNL A   1      31.617  23.881  25.733  1.00  0.00     0.345 C 
ATOM      8  O   UNL A   1      30.854  23.346  26.522  1.00  0.00    -0.246 OA
BRANCH   7   9
ATOM      9  C   UNL A   1      32.916  23.263  25.268  1.00  0.00     0.101 C 
ATOM     10  C   UNL A   1      34.015  23.636  25.956  1.00  0.00     0.031 C 
BRANCH   9  11
ATOM     11  S   UNL A   1      32.693  22.256  23.873  1.00  0.00    -0.044 SA
BRANCH  11  12
ATOM     12  C   UNL A   1      32.977  20.618  24.308  1.00  0.00     0.171 A 
ATOM     13  C   UNL A   1      32.493  14.896  25.765  1.00  0.00     0.044 C 
ATOM     14  C   UNL A   1      33.052  16.205  25.271  1.00  0.00    -0.046 A 
ATOM     15  C   UNL A   1      32.189  17.323  25.257  1.00  0.00     0.034 A 
ATOM     16  C   UNL A   1      34.405  16.359  24.896  1.00  0.00    -0.046 A 
ATOM     17  C   UNL A   1      32.689  18.580  24.886  1.00  0.00     0.090 A 
ATOM     18  C   UNL A   1      34.937  17.643  24.659  1.00  0.00     0.032 A 
ATOM     19  C   UNL A   1      35.320  15.175  24.721  1.00  0.00     0.044 C 
ATOM     20  N   UNL A   1      32.039  19.769  24.668  1.00  0.00    -0.222 NA
ATOM     21  C   UNL A   1      34.050  18.719  24.661  1.00  0.00     0.066 A 
ATOM     22  N   UNL A   1      34.217  20.063  24.427  1.00  0.00    -0.333 N 
ATOM     23  H   UNL A   1      35.076  20.538  24.358  1.00  0.00     0.169 HD
ENDBRANCH  11  12
ENDBRANCH   9  11
BRANCH  10  24
ATOM     24  C   UNL A   1      35.421  23.249  25.819  1.00  0.00    -0.024 A 
ATOM     25  C   UNL A   1      35.851  21.919  25.765  1.00  0.00     0.012 A 
ATOM     26  C   UNL A   1      36.367  24.284  25.768  1.00  0.00     0.012 A 
ATOM     27  C   UNL A   1      37.219  21.629  25.779  1.00  0.00     0.047 A 
ATOM     28  C   UNL A   1      37.730  23.995  25.765  1.00  0.00     0.047 A 
ATOM     29  C   UNL A   1      38.142  22.671  25.811  1.00  0.00     0.115 A 
BRANCH  29  30
ATOM     30  O   UNL A   1      39.476  22.425  25.951  1.00  0.00    -0.508 OA
ATOM     31  H   UNL A   1      39.890  21.770  25.423  1.00  0.00     0.293 HD
ENDBRANCH  29  30
ENDBRANCH  10  24
ENDBRANCH   7   9
ENDBRANCH   6   7
ENDBRANCH   5   6
ENDBRANCH   4   5
ENDBRANCH   3   4
ENDBRANCH   2   3
ENDBRANCH   1   2
BRANCH   1  32
ATOM     32  O   UNL A   1      33.206  30.043  27.305  1.00  0.00    -0.376 OA
BRANCH  32  33
ATOM     33  C   UNL A   1      33.662  31.351  27.604  1.00  0.00     0.202 C 
BRANCH  33  34
ATOM     34  C   UNL A   1      32.820  32.646  27.589  1.00  0.00     0.261 C 
BRANCH  34  35
ATOM     35  O   UNL A   1      33.489  33.907  27.609  1.00  0.00    -0.460 OA
BRANCH  35  36
ATOM     36  C   UNL A   1      33.459  34.584  28.783  1.00  0.00     0.338 C 
ATOM     37  O   UNL A   1      32.550  35.286  29.203  1.00  0.00    -0.246 OA
BRANCH  36  38
ATOM     38  C   UNL A   1      34.628  34.181  29.585  1.00  0.00     0.060 A 
ATOM     39  C   UNL A   1      35.910  34.333  29.038  1.00  0.00     0.016 A 
ATOM     40  C   UNL A   1      34.461  33.655  30.867  1.00  0.00     0.016 A 
ATOM     41  C   UNL A   1      37.032  33.945  29.770  1.00  0.00     0.010 A 
ATOM     42  C   UNL A   1      35.585  33.243  31.587  1.00  0.00     0.010 A 
ATOM     43  C   UNL A   1      36.874  33.361  31.033  1.00  0.00    -0.014 A 
BRANCH  43  44
ATOM     44  C   UNL A   1      38.031  32.725  31.707  1.00  0.00     0.031 A 
ATOM     45  C   UNL A   1      38.687  31.542  31.048  1.00  0.00     0.074 A 
ATOM     46  C   UNL A   1      38.485  33.176  32.890  1.00  0.00     0.049 A 
ATOM     47  N   UNL A   1      39.668  30.792  31.476  1.00  0.00    -0.248 NA
ATOM     48  C   UNL A   1      38.159  31.150  29.731  1.00  0.00     0.031 C 
ATOM     49  C   UNL A   1      37.947  34.321  33.622  1.00  0.00     0.029 A 
ATOM     50  N   UNL A   1      39.491  32.701  33.696  1.00  0.00    -0.354 N 
ATOM     51  C   UNL A   1      39.854  29.821  30.499  1.00  0.00     0.074 A 
ATOM     52  C   UNL A   1      38.878  30.070  29.462  1.00  0.00     0.031 C 
ATOM     53  C   UNL A   1      38.606  34.439  34.788  1.00  0.00     0.029 A 
ATOM     54  C   UNL A   1      39.592  33.365  34.896  1.00  0.00     0.049 A 
ATOM     55  H   UNL A   1      40.082  31.958  33.439  1.00  0.00     0.167 HD
ATOM     56  C   UNL A   1      40.763  28.818  30.464  1.00  0.00     0.034 A 
ATOM     57  C   UNL A   1      40.370  33.114  35.968  1.00  0.00     0.034 A 
ATOM     58  C   UNL A   1      41.741  28.578  31.491  1.00  0.00     0.049 A 
ATOM     59  C   UNL A   1      41.349  31.967  35.919  1.00  0.00     0.074 A 
ATOM     60  C   UNL A   1      42.735  27.616  31.522  1.00  0.00     0.029 A 
ATOM     61  N   UNL A   1      41.835  29.290  32.677  1.00  0.00    -0.354 N 
ATOM     62  N   UNL A   1      41.594  31.127  34.942  1.00  0.00    -0.248 NA
ATOM     63  C   UNL A   1      42.182  31.752  37.113  1.00  0.00     0.031 C 
ATOM     64  C   UNL A   1      43.404  27.721  32.746  1.00  0.00     0.029 A 
ATOM     65  C   UNL A   1      42.857  28.777  33.457  1.00  0.00     0.049 A 
ATOM     66  H   UNL A   1      41.260  30.049  32.927  1.00  0.00     0.167 HD
ATOM     67  C   UNL A   1      42.630  30.312  35.387  1.00  0.00     0.074 A 
ATOM     68  C   UNL A   1      42.981  30.772  36.714  1.00  0.00     0.031 C 
ATOM     69  C   UNL A   1      43.230  29.271  34.758  1.00  0.00     0.034 A 
BRANCH  56  70
ATOM     70  C   UNL A   1      40.747  27.904  29.267  1.00  0.00     0.023 A 
ATOM     71  C   UNL A   1      39.799  26.864  29.188  1.00  0.00     0.012 A 
ATOM     72  C   UNL A   1      41.639  28.109  28.194  1.00  0.00     0.148 A 
ATOM     73  C   UNL A   1      39.762  26.018  28.080  1.00  0.00     0.002 A 
ATOM     74  C   UNL A   1      41.564  27.293  27.073  1.00  0.00     0.091 A 
ATOM     75  F   UNL A   1      42.547  29.090  28.296  1.00  0.00    -0.205 F 
ATOM     76  C   UNL A   1      40.636  26.240  27.020  1.00  0.00     0.022 A 
BRANCH  74  77
ATOM     77  S   UNL A   1      42.589  27.545  25.620  1.00  0.00     0.127 S 
ATOM     78  O   UNL A   1      42.169  28.879  25.191  1.00  0.00    -0.237 OA
ATOM     79  O   UNL A   1      43.938  27.483  26.183  1.00  0.00    -0.237 OA
ATOM     80  O   UNL A   1      42.261  26.465  24.702  1.00  0.00    -0.744 OA
ENDBRANCH  74  77
ENDBRANCH  56  70
BRANCH  57  81
ATOM     81  C   UNL A   1      40.272  33.975  37.181  1.00  0.00     0.023 A 
ATOM     82  C   UNL A   1      39.153  33.863  38.028  1.00  0.00     0.012 A 
ATOM     83  C   UNL A   1      41.281  34.907  37.498  1.00  0.00     0.148 A 
ATOM     84  C   UNL A   1      39.021  34.685  39.147  1.00  0.00     0.002 A 
ATOM     85  C   UNL A   1      41.171  35.684  38.645  1.00  0.00     0.091 A 
ATOM     86  F   UNL A   1      42.331  35.010  36.671  1.00  0.00    -0.205 F 
ATOM     87  C   UNL A   1      40.034  35.589  39.460  1.00  0.00     0.022 A 
BRANCH  85  88
ATOM     88  S   UNL A   1      42.474  36.794  39.190  1.00  0.00     0.127 S 
ATOM     89  O   UNL A   1      42.346  37.895  38.239  1.00  0.00    -0.237 OA
ATOM     90  O   UNL A   1      42.050  37.107  40.555  1.00  0.00    -0.237 OA
ATOM     91  O   UNL A   1      43.710  36.029  39.103  1.00  0.00    -0.744 OA
ENDBRANCH  85  88
ENDBRANCH  57  81
BRANCH  69  92
ATOM     92  C   UNL A   1      44.361  28.572  35.472  1.00  0.00     0.023 A 
ATOM     93  C   UNL A   1      45.692  28.979  35.254  1.00  0.00     0.012 A 
ATOM     94  C   UNL A   1      44.096  27.561  36.418  1.00  0.00     0.148 A 
ATOM     95  C   UNL A   1      46.743  28.366  35.937  1.00  0.00     0.002 A 
ATOM     96  C   UNL A   1      45.142  26.992  37.135  1.00  0.00     0.091 A 
ATOM     97  F   UNL A   1      42.824  27.177  36.604  1.00  0.00    -0.205 F 
ATOM     98  C   UNL A   1      46.467  27.383  36.885  1.00  0.00     0.022 A 
BRANCH  96  99
ATOM     99  S   UNL A   1      44.878  25.790  38.443  1.00  0.00     0.127 S 
ATOM    100  O   UNL A   1      46.239  25.575  38.930  1.00  0.00    -0.237 OA
ATOM    101  O   UNL A   1      44.010  26.524  39.366  1.00  0.00    -0.237 OA
ATOM    102  O   UNL A   1      44.252  24.636  37.812  1.00  0.00    -0.744 OA
ENDBRANCH  96  99
ENDBRANCH  69  92
ENDBRANCH  43  44
ENDBRANCH  36  38
ENDBRANCH  35  36
ENDBRANCH  34  35
ENDBRANCH  33  34
ENDBRANCH  32  33
ENDBRANCH   1  32
TORSDOF 24
ENDMDL
MODEL 3
REMARK VINA RESULT:     -10.2      5.339      9.950
REMARK SMILES Cc1cc2nc(S/C(=C\c3ccc(O)cc3)C(=O)OCCOCCOCCOC(=O)c3ccc(-c4c5nc(c(-c6cccc(S(=O)(=O)[O-])c6F)c6ccc([nH]6)c(-c6cccc(S(=O)(=O)[O-])c6F)c6nc(c(-c7cccc(S(=O)(=O)[O-])c7F)c7ccc4[nH]7)C=C6)C=C5)cc3)[nH]c2cc1C
REMARK SMILES IDX 24 1 23 2 22 3 21 4 20 5 19 6 17 7 18 8 8 9 9 10 7 11 6 12
REMARK SMILES IDX 1 13 2 14 3 15 97 16 4 17 96 18 98 19 5 20 95 21 94 22 10 24
REMARK SMILES IDX 11 25 16 26 12 27 15 28 13 29 14 30 25 32 26 33 27 34 28 35
REMARK SMILES IDX 29 36 30 37 31 38 32 39 93 40 33 41 92 42 34 43 35 44 36 45
REMARK SMILES IDX 86 46 37 47 91 48 85 49 87 50 38 51 90 52 84 53 83 54 39 56
REMARK SMILES IDX 71 57 51 58 70 59 52 60 55 61 69 62 88 63 53 64 54 65 68 67
REMARK SMILES IDX 89 68 56 69 40 70 41 71 49 72 42 73 44 74 50 75 43 76 45 77
REMARK SMILES IDX 46 78 47 79 48 80 72 81 73 82 81 83 74 84 76 85 82 86 75 87
REMARK SMILES IDX 77 88 78 89 79 90 80 91 57 92 58 93 66 94 59 95 61 96 67 97
REMARK SMILES IDX 60 98 62 99 63 100 64 101 65 102
REMARK H PARENT 94 23 14 31 87 55 55 66
REMARK Flexibility Score: inf
ROOT
ATOM      1  C   UNL A   1      33.380  29.509  26.060  1.00  0.00     0.188 C 
ENDROOT
BRANCH   1   2
ATOM      2  C   UNL A   1      33.666  27.993  26.042  1.00  0.00     0.188 C 
BRANCH   2   3
ATOM      3  O   UNL A   1      32.767  27.109  26.690  1.00  0.00    -0.376 OA
BRANCH   3   4
ATOM      4  C   UNL A   1      31.367  27.268  26.511  1.00  0.00     0.202 C 
BRANCH   4   5
ATOM      5  C   UNL A   1      30.547  26.235  25.722  1.00  0.00     0.261 C 
BRANCH   5   6
ATOM      6  O   UNL A   1      31.336  25.318  24.950  1.00  0.00    -0.459 OA
BRANCH   6   7
ATOM      7  C   UNL A   1      31.301  24.009  25.333  1.00  0.00     0.345 C 
ATOM      8  O   UNL A   1      30.354  23.454  25.868  1.00  0.00    -0.246 OA
BRANCH   7   9
ATOM      9  C   UNL A   1      32.582  23.304  24.949  1.00  0.00     0.101 C 
ATOM     10  C   UNL A   1      33.683  23.689  25.627  1.00  0.00     0.031 C 
BRANCH   9  11
ATOM     11  S   UNL A   1      32.343  22.194  23.637  1.00  0.00    -0.044 SA
BRANCH  11  12
ATOM     12  C   UNL A   1      32.749  20.608  24.158  1.00  0.00     0.171 A 
ATOM     13  C   UNL A   1      32.702  14.937  25.870  1.00  0.00     0.044 C 
ATOM     14  C   UNL A   1      33.165  16.265  25.332  1.00  0.00    -0.046 A 
ATOM     15  C   UNL A   1      32.211  17.303  25.237  1.00  0.00     0.034 A 
ATOM     16  C   UNL A   1      34.512  16.519  24.992  1.00  0.00    -0.046 A 
ATOM     17  C   UNL A   1      32.616  18.581  24.823  1.00  0.00     0.090 A 
ATOM     18  C   UNL A   1      34.941  17.832  24.712  1.00  0.00     0.032 A 
ATOM     19  C   UNL A   1      35.531  15.412  24.903  1.00  0.00     0.044 C 
ATOM     20  N   UNL A   1      31.874  19.698  24.528  1.00  0.00    -0.222 NA
ATOM     21  C   UNL A   1      33.967  18.826  24.634  1.00  0.00     0.066 A 
ATOM     22  N   UNL A   1      34.027  20.168  24.342  1.00  0.00    -0.333 N 
ATOM     23  H   UNL A   1      34.844  20.712  24.278  1.00  0.00     0.169 HD
ENDBRANCH  11  12
ENDBRANCH   9  11
BRANCH  10  24
ATOM     24  C   UNL A   1      35.073  23.237  25.552  1.00  0.00    -0.024 A 
ATOM     25  C   UNL A   1      35.587  22.195  26.331  1.00  0.00     0.012 A 
ATOM     26  C   UNL A   1      35.921  23.918  24.665  1.00  0.00     0.012 A 
ATOM     27  C   UNL A   1      36.957  21.918  26.308  1.00  0.00     0.047 A 
ATOM     28  C   UNL A   1      37.283  23.631  24.629  1.00  0.00     0.047 A 
ATOM     29  C   UNL A   1      37.795  22.661  25.480  1.00  0.00     0.115 A 
BRANCH  29  30
ATOM     30  O   UNL A   1      39.148  22.503  25.523  1.00  0.00    -0.508 OA
ATOM     31  H   UNL A   1      39.537  21.706  25.220  1.00  0.00     0.293 HD
ENDBRANCH  29  30
ENDBRANCH  10  24
ENDBRANCH   7   9
ENDBRANCH   6   7
ENDBRANCH   5   6
ENDBRANCH   4   5
ENDBRANCH   3   4
ENDBRANCH   2   3
ENDBRANCH   1   2
BRANCH   1  32
ATOM     32  O   UNL A   1      33.194  30.103  27.321  1.00  0.00    -0.376 OA
BRANCH  32  33
ATOM     33  C   UNL A   1      33.618  31.437  27.548  1.00  0.00     0.202 C 
BRANCH  33  34
ATOM     34  C   UNL A   1      32.727  32.699  27.554  1.00  0.00     0.261 C 
BRANCH  34  35
ATOM     35  O   UNL A   1      33.346  33.983  27.626  1.00  0.00    -0.460 OA
BRANCH  35  36
ATOM     36  C   UNL A   1      33.359  34.575  28.845  1.00  0.00     0.338 C 
ATOM     37  O   UNL A   1      32.508  35.319  29.310  1.00  0.00    -0.246 OA
BRANCH  36  38
ATOM     38  C   UNL A   1      34.483  34.021  29.621  1.00  0.00     0.060 A 
ATOM     39  C   UNL A   1      35.792  34.230  29.162  1.00  0.00     0.016 A 
ATOM     40  C   UNL A   1      34.248  33.298  30.790  1.00  0.00     0.016 A 
ATOM     41  C   UNL A   1      36.872  33.703  29.870  1.00  0.00     0.010 A 
ATOM     42  C   UNL A   1      35.331  32.749  31.483  1.00  0.00     0.010 A 
ATOM     43  C   UNL A   1      36.645  32.926  31.013  1.00  0.00    -0.014 A 
BRANCH  43  44
ATOM     44  C   UNL A   1      37.760  32.162  31.623  1.00  0.00     0.031 A 
ATOM     45  C   UNL A   1      38.271  32.588  32.972  1.00  0.00     0.074 A 
ATOM     46  C   UNL A   1      38.322  31.118  30.987  1.00  0.00     0.049 A 
ATOM     47  N   UNL A   1      39.269  32.112  33.669  1.00  0.00    -0.248 NA
ATOM     48  C   UNL A   1      37.563  33.705  33.618  1.00  0.00     0.031 C 
ATOM     49  C   UNL A   1      37.909  30.599  29.685  1.00  0.00     0.029 A 
ATOM     50  N   UNL A   1      39.385  30.326  31.346  1.00  0.00    -0.354 N 
ATOM     51  C   UNL A   1      39.331  32.891  34.820  1.00  0.00     0.074 A 
ATOM     52  C   UNL A   1      38.277  33.876  34.722  1.00  0.00     0.031 C 
ATOM     53  C   UNL A   1      38.733  29.595  29.337  1.00  0.00     0.029 A 
ATOM     54  C   UNL A   1      39.745  29.419  30.377  1.00  0.00     0.049 A 
ATOM     55  H   UNL A   1      39.845  30.401  32.213  1.00  0.00     0.167 HD
ATOM     56  C   UNL A   1      40.181  32.789  35.868  1.00  0.00     0.034 A 
ATOM     57  C   UNL A   1      40.789  28.568  30.325  1.00  0.00     0.034 A 
ATOM     58  C   UNL A   1      41.222  31.801  35.969  1.00  0.00     0.049 A 
ATOM     59  C   UNL A   1      41.746  28.499  31.490  1.00  0.00     0.074 A 
ATOM     60  C   UNL A   1      42.104  31.587  37.014  1.00  0.00     0.029 A 
ATOM     61  N   UNL A   1      41.537  30.878  34.984  1.00  0.00    -0.354 N 
ATOM     62  N   UNL A   1      41.724  29.161  32.622  1.00  0.00    -0.248 NA
ATOM     63  C   UNL A   1      42.857  27.539  31.382  1.00  0.00     0.031 C 
ATOM     64  C   UNL A   1      42.979  30.560  36.642  1.00  0.00     0.029 A 
ATOM     65  C   UNL A   1      42.613  30.105  35.386  1.00  0.00     0.049 A 
ATOM     66  H   UNL A   1      41.065  30.785  34.125  1.00  0.00     0.167 HD
ATOM     67  C   UNL A   1      42.789  28.674  33.372  1.00  0.00     0.074 A 
ATOM     68  C   UNL A   1      43.425  27.647  32.575  1.00  0.00     0.031 C 
ATOM     69  C   UNL A   1      43.210  29.052  34.605  1.00  0.00     0.034 A 
BRANCH  56  70
ATOM     70  C   UNL A   1      40.016  33.770  36.998  1.00  0.00     0.023 A 
ATOM     71  C   UNL A   1      40.481  35.093  36.855  1.00  0.00     0.012 A 
ATOM     72  C   UNL A   1      39.354  33.395  38.185  1.00  0.00     0.148 A 
ATOM     73  C   UNL A   1      40.324  36.018  37.886  1.00  0.00     0.002 A 
ATOM     74  C   UNL A   1      39.158  34.335  39.189  1.00  0.00     0.091 A 
ATOM     75  F   UNL A   1      38.938  32.127  38.311  1.00  0.00    -0.205 F 
ATOM     76  C   UNL A   1      39.653  35.641  39.047  1.00  0.00     0.022 A 
BRANCH  74  77
ATOM     77  S   UNL A   1      38.236  33.974  40.687  1.00  0.00     0.127 S 
ATOM     78  O   UNL A   1      38.174  35.291  41.319  1.00  0.00    -0.237 OA
ATOM     79  O   UNL A   1      36.961  33.494  40.154  1.00  0.00    -0.237 OA
ATOM     80  O   UNL A   1      39.011  32.974  41.407  1.00  0.00    -0.744 OA
ENDBRANCH  74  77
ENDBRANCH  56  70
BRANCH  57  81
ATOM     81  C   UNL A   1      40.983  27.693  29.133  1.00  0.00     0.023 A 
ATOM     82  C   UNL A   1      40.229  26.510  29.007  1.00  0.00     0.012 A 
ATOM     83  C   UNL A   1      41.911  28.025  28.127  1.00  0.00     0.148 A 
ATOM     84  C   UNL A   1      40.420  25.656  27.921  1.00  0.00     0.002 A 
ATOM     85  C   UNL A   1      42.058  27.198  27.019  1.00  0.00     0.091 A 
ATOM     86  F   UNL A   1      42.632  29.147  28.273  1.00  0.00    -0.205 F 
ATOM     87  C   UNL A   1      41.328  26.005  26.923  1.00  0.00     0.022 A 
BRANCH  85  88
ATOM     88  S   UNL A   1      43.119  27.619  25.632  1.00  0.00     0.127 S 
ATOM     89  O   UNL A   1      42.192  28.325  24.750  1.00  0.00    -0.237 OA
ATOM     90  O   UNL A   1      44.126  28.466  26.271  1.00  0.00    -0.237 OA
ATOM     91  O   UNL A   1      43.629  26.354  25.123  1.00  0.00    -0.744 OA
ENDBRANCH  85  88
ENDBRANCH  57  81
BRANCH  69  92
ATOM     92  C   UNL A   1      44.393  28.326  35.200  1.00  0.00     0.023 A 
ATOM     93  C   UNL A   1      45.693  28.594  34.731  1.00  0.00     0.012 A 
ATOM     94  C   UNL A   1      44.219  27.433  36.276  1.00  0.00     0.148 A 
ATOM     95  C   UNL A   1      46.798  27.958  35.298  1.00  0.00     0.002 A 
ATOM     96  C   UNL A   1      45.328  26.844  36.873  1.00  0.00     0.091 A 
ATOM     97  F   UNL A   1      42.972  27.180  36.702  1.00  0.00    -0.205 F 
ATOM     98  C   UNL A   1      46.616  27.094  36.375  1.00  0.00     0.022 A 
BRANCH  96  99
ATOM     99  S   UNL A   1      45.201  25.795  38.325  1.00  0.00     0.127 S 
ATOM    100  O   UNL A   1      44.559  24.602  37.777  1.00  0.00    -0.237 OA
ATOM    101  O   UNL A   1      46.605  25.614  38.699  1.00  0.00    -0.237 OA
ATOM    102  O   UNL A   1      44.408  26.540  39.294  1.00  0.00    -0.744 OA
ENDBRANCH  96  99
ENDBRANCH  69  92
ENDBRANCH  43  44
ENDBRANCH  36  38
ENDBRANCH  35  36
ENDBRANCH  34  35
ENDBRANCH  33  34
ENDBRANCH  32  33
ENDBRANCH   1  32
TORSDOF 24
ENDMDL
