MODEL 1
REMARK VINA RESULT:     -10.1      0.000      0.000
REMARK SMILES CC[C@@H]1CC[C@H]([C@@H](C)C(=O)OCCOCCOCCOC(=O)c2ccc(-c3c4nc(c(-c5cccc(S(=O)(=O)[O-])c5F)c5ccc([nH]5)c(-c5cccc(S(=O)(=O)[O-])c5F)c5nc(c(-c6cccc(S(=O)(=O)[O-])c6F)c6ccc3[nH]6)C=C5)C=C4)cc2)C1
REMARK SMILES IDX 16 1 15 2 14 3 13 4 12 5 11 6 9 7 10 8 7 9 8 10 6 11 3 12
REMARK SMILES IDX 4 13 86 14 5 15 2 16 1 17 17 18 18 19 19 20 20 21 21 22
REMARK SMILES IDX 22 23 23 24 24 25 85 26 25 27 84 28 26 29 27 30 28 31 78 32
REMARK SMILES IDX 29 33 83 34 77 35 79 36 30 37 82 38 76 39 75 40 31 42 63 43
REMARK SMILES IDX 43 44 62 45 44 46 47 47 61 48 80 49 45 50 46 51 60 53 81 54
REMARK SMILES IDX 48 55 32 56 33 57 41 58 34 59 36 60 42 61 35 62 37 63 38 64
REMARK SMILES IDX 39 65 40 66 64 67 65 68 73 69 66 70 68 71 74 72 67 73 69 74
REMARK SMILES IDX 70 75 71 76 72 77 49 78 50 79 58 80 51 81 53 82 59 83 52 84
REMARK SMILES IDX 54 85 55 86 56 87 57 88
REMARK H PARENT 79 41 47 52
REMARK Flexibility Score: inf
ROOT
ATOM      1  C   UNL A   1      30.762  29.270  24.211  1.00  0.00     0.188 C 
ENDROOT
BRANCH   1   2
ATOM      2  C   UNL A   1      30.236  28.026  23.498  1.00  0.00     0.188 C 
BRANCH   2   3
ATOM      3  O   UNL A   1      30.662  26.752  23.953  1.00  0.00    -0.376 OA
BRANCH   3   4
ATOM      4  C   UNL A   1      31.376  25.896  23.073  1.00  0.00     0.202 C 
BRANCH   4   5
ATOM      5  C   UNL A   1      32.809  26.282  22.669  1.00  0.00     0.261 C 
BRANCH   5   6
ATOM      6  O   UNL A   1      33.857  25.277  22.816  1.00  0.00    -0.463 OA
BRANCH   6   7
ATOM      7  C   UNL A   1      34.052  24.837  24.086  1.00  0.00     0.309 C 
ATOM      8  O   UNL A   1      34.198  25.599  25.042  1.00  0.00    -0.252 OA
BRANCH   7   9
ATOM      9  C   UNL A   1      34.237  23.327  24.294  1.00  0.00     0.099 C 
ATOM     10  C   UNL A   1      35.129  22.911  23.105  1.00  0.00     0.020 C 
BRANCH   9  11
ATOM     11  C   UNL A   1      33.088  22.292  24.503  1.00  0.00     0.003 C 
ATOM     12  C   UNL A   1      32.386  19.936  24.313  1.00  0.00    -0.011 C 
ATOM     13  C   UNL A   1      32.241  20.544  22.932  1.00  0.00     0.004 C 
ATOM     14  C   UNL A   1      33.456  20.855  24.937  1.00  0.00     0.008 C 
ATOM     15  C   UNL A   1      32.333  22.046  23.160  1.00  0.00     0.005 C 
BRANCH  12  16
ATOM     16  C   UNL A   1      32.751  18.448  24.210  1.00  0.00     0.000 C 
ATOM     17  C   UNL A   1      32.682  17.910  22.791  1.00  0.00     0.004 C 
ENDBRANCH  12  16
ENDBRANCH   9  11
ENDBRANCH   7   9
ENDBRANCH   6   7
ENDBRANCH   5   6
ENDBRANCH   4   5
ENDBRANCH   3   4
ENDBRANCH   2   3
ENDBRANCH   1   2
BRANCH   1  18
ATOM     18  O   UNL A   1      32.163  29.438  24.109  1.00  0.00    -0.376 OA
BRANCH  18  19
ATOM     19  C   UNL A   1      32.891  29.526  25.322  1.00  0.00     0.202 C 
BRANCH  19  20
ATOM     20  C   UNL A   1      32.198  30.468  26.313  1.00  0.00     0.261 C 
BRANCH  20  21
ATOM     21  O   UNL A   1      32.917  30.632  27.551  1.00  0.00    -0.460 OA
BRANCH  21  22
ATOM     22  C   UNL A   1      33.690  31.739  27.629  1.00  0.00     0.338 C 
ATOM     23  O   UNL A   1      33.318  32.896  27.528  1.00  0.00    -0.246 OA
BRANCH  22  24
ATOM     24  C   UNL A   1      35.031  31.340  28.098  1.00  0.00     0.060 A 
ATOM     25  C   UNL A   1      35.259  29.992  28.406  1.00  0.00     0.016 A 
ATOM     26  C   UNL A   1      36.050  32.276  28.236  1.00  0.00     0.016 A 
ATOM     27  C   UNL A   1      36.490  29.577  28.904  1.00  0.00     0.010 A 
ATOM     28  C   UNL A   1      37.284  31.863  28.740  1.00  0.00     0.010 A 
ATOM     29  C   UNL A   1      37.499  30.521  29.110  1.00  0.00    -0.014 A 
BRANCH  29  30
ATOM     30  C   UNL A   1      38.723  30.155  29.859  1.00  0.00     0.031 A 
ATOM     31  C   UNL A   1      39.659  29.151  29.248  1.00  0.00     0.074 A 
ATOM     32  C   UNL A   1      38.992  30.689  31.063  1.00  0.00     0.049 A 
ATOM     33  N   UNL A   1      40.709  28.571  29.765  1.00  0.00    -0.248 NA
ATOM     34  C   UNL A   1      39.362  28.743  27.865  1.00  0.00     0.031 C 
ATOM     35  C   UNL A   1      38.193  31.713  31.733  1.00  0.00     0.029 A 
ATOM     36  N   UNL A   1      40.007  30.420  31.947  1.00  0.00    -0.354 N 
ATOM     37  C   UNL A   1      41.169  27.691  28.792  1.00  0.00     0.074 A 
ATOM     38  C   UNL A   1      40.281  27.812  27.657  1.00  0.00     0.031 C 
ATOM     39  C   UNL A   1      38.737  31.972  32.935  1.00  0.00     0.029 A 
ATOM     40  C   UNL A   1      39.890  31.098  33.137  1.00  0.00     0.049 A 
ATOM     41  H   UNL A   1      40.746  29.801  31.747  1.00  0.00     0.167 HD
ATOM     42  C   UNL A   1      42.239  26.862  28.837  1.00  0.00     0.034 A 
ATOM     43  C   UNL A   1      40.615  30.997  34.268  1.00  0.00     0.034 A 
ATOM     44  C   UNL A   1      43.128  26.762  29.963  1.00  0.00     0.049 A 
ATOM     45  C   UNL A   1      41.761  30.021  34.322  1.00  0.00     0.074 A 
ATOM     46  C   UNL A   1      44.254  25.972  30.105  1.00  0.00     0.029 A 
ATOM     47  N   UNL A   1      42.984  27.470  31.147  1.00  0.00    -0.354 N 
ATOM     48  N   UNL A   1      42.226  29.237  33.377  1.00  0.00    -0.248 NA
ATOM     49  C   UNL A   1      42.497  29.930  35.591  1.00  0.00     0.031 C 
ATOM     50  C   UNL A   1      44.774  26.180  31.388  1.00  0.00     0.029 A 
ATOM     51  C   UNL A   1      43.992  27.127  32.032  1.00  0.00     0.049 A 
ATOM     52  H   UNL A   1      42.270  28.122  31.332  1.00  0.00     0.167 HD
ATOM     53  C   UNL A   1      43.329  28.590  33.925  1.00  0.00     0.074 A 
ATOM     54  C   UNL A   1      43.470  29.085  35.279  1.00  0.00     0.031 C 
ATOM     55  C   UNL A   1      44.146  27.665  33.360  1.00  0.00     0.034 A 
BRANCH  42  56
ATOM     56  C   UNL A   1      42.493  26.001  27.627  1.00  0.00     0.023 A 
ATOM     57  C   UNL A   1      43.137  26.546  26.497  1.00  0.00     0.012 A 
ATOM     58  C   UNL A   1      42.091  24.652  27.607  1.00  0.00     0.148 A 
ATOM     59  C   UNL A   1      43.331  25.778  25.349  1.00  0.00     0.002 A 
ATOM     60  C   UNL A   1      42.332  23.877  26.476  1.00  0.00     0.091 A 
ATOM     61  F   UNL A   1      41.456  24.155  28.679  1.00  0.00    -0.205 F 
ATOM     62  C   UNL A   1      42.936  24.443  25.342  1.00  0.00     0.022 A 
BRANCH  60  63
ATOM     63  S   UNL A   1      41.928  22.130  26.404  1.00  0.00     0.127 S 
ATOM     64  O   UNL A   1      40.483  22.169  26.188  1.00  0.00    -0.237 OA
ATOM     65  O   UNL A   1      42.704  21.680  25.248  1.00  0.00    -0.237 OA
ATOM     66  O   UNL A   1      42.359  21.568  27.677  1.00  0.00    -0.744 OA
ENDBRANCH  60  63
ENDBRANCH  42  56
BRANCH  43  67
ATOM     67  C   UNL A   1      40.300  31.871  35.436  1.00  0.00     0.023 A 
ATOM     68  C   UNL A   1      41.112  32.991  35.693  1.00  0.00     0.012 A 
ATOM     69  C   UNL A   1      39.195  31.617  36.270  1.00  0.00     0.148 A 
ATOM     70  C   UNL A   1      40.842  33.834  36.771  1.00  0.00     0.002 A 
ATOM     71  C   UNL A   1      38.900  32.489  37.313  1.00  0.00     0.091 A 
ATOM     72  F   UNL A   1      38.443  30.536  36.018  1.00  0.00    -0.205 F 
ATOM     73  C   UNL A   1      39.731  33.589  37.574  1.00  0.00     0.022 A 
BRANCH  71  74
ATOM     74  S   UNL A   1      37.431  32.322  38.333  1.00  0.00     0.127 S 
ATOM     75  O   UNL A   1      36.434  33.036  37.540  1.00  0.00    -0.237 OA
ATOM     76  O   UNL A   1      37.260  30.869  38.375  1.00  0.00    -0.237 OA
ATOM     77  O   UNL A   1      37.767  32.930  39.613  1.00  0.00    -0.744 OA
ENDBRANCH  71  74
ENDBRANCH  43  67
BRANCH  55  78
ATOM     78  C   UNL A   1      45.300  27.156  34.187  1.00  0.00     0.023 A 
ATOM     79  C   UNL A   1      46.543  27.818  34.147  1.00  0.00     0.012 A 
ATOM     80  C   UNL A   1      45.126  26.064  35.061  1.00  0.00     0.148 A 
ATOM     81  C   UNL A   1      47.605  27.380  34.940  1.00  0.00     0.002 A 
ATOM     82  C   UNL A   1      46.172  25.665  35.885  1.00  0.00     0.091 A 
ATOM     83  F   UNL A   1      43.942  25.435  35.072  1.00  0.00    -0.205 F 
ATOM     84  C   UNL A   1      47.416  26.314  35.816  1.00  0.00     0.022 A 
BRANCH  82  85
ATOM     85  S   UNL A   1      45.991  24.368  37.115  1.00  0.00     0.127 S 
ATOM     86  O   UNL A   1      45.114  25.005  38.095  1.00  0.00    -0.237 OA
ATOM     87  O   UNL A   1      45.366  23.294  36.342  1.00  0.00    -0.237 OA
ATOM     88  O   UNL A   1      47.338  24.069  37.584  1.00  0.00    -0.744 OA
ENDBRANCH  82  85
ENDBRANCH  55  78
ENDBRANCH  29  30
ENDBRANCH  22  24
ENDBRANCH  21  22
ENDBRANCH  20  21
ENDBRANCH  19  20
ENDBRANCH  18  19
ENDBRANCH   1  18
TORSDOF 22
ENDMDL
MODEL 2
REMARK VINA RESULT:      -9.8      1.787      2.619
REMARK SMILES CC[C@@H]1CC[C@H]([C@@H](C)C(=O)OCCOCCOCCOC(=O)c2ccc(-c3c4nc(c(-c5cccc(S(=O)(=O)[O-])c5F)c5ccc([nH]5)c(-c5cccc(S(=O)(=O)[O-])c5F)c5nc(c(-c6cccc(S(=O)(=O)[O-])c6F)c6ccc3[nH]6)C=C5)C=C4)cc2)C1
REMARK SMILES IDX 16 1 15 2 14 3 13 4 12 5 11 6 9 7 10 8 7 9 8 10 6 11 3 12
REMARK SMILES IDX 4 13 86 14 5 15 2 16 1 17 17 18 18 19 19 20 20 21 21 22
REMARK SMILES IDX 22 23 23 24 24 25 85 26 25 27 84 28 26 29 27 30 28 31 78 32
REMARK SMILES IDX 29 33 83 34 77 35 79 36 30 37 82 38 76 39 75 40 31 42 63 43
REMARK SMILES IDX 43 44 62 45 44 46 47 47 61 48 80 49 45 50 46 51 60 53 81 54
REMARK SMILES IDX 48 55 32 56 33 57 41 58 34 59 36 60 42 61 35 62 37 63 38 64
REMARK SMILES IDX 39 65 40 66 64 67 65 68 73 69 66 70 68 71 74 72 67 73 69 74
REMARK SMILES IDX 70 75 71 76 72 77 49 78 50 79 58 80 51 81 53 82 59 83 52 84
REMARK SMILES IDX 54 85 55 86 56 87 57 88
REMARK H PARENT 79 41 47 52
REMARK Flexibility Score: inf
ROOT
ATOM      1  C   UNL A   1      31.173  27.774  26.209  1.00  0.00     0.188 C 
ENDROOT
BRANCH   1   2
ATOM      2  C   UNL A   1      32.126  26.596  26.398  1.00  0.00     0.188 C 
BRANCH   2   3
ATOM      3  O   UNL A   1      31.598  25.361  26.851  1.00  0.00    -0.376 OA
BRANCH   3   4
ATOM      4  C   UNL A   1      31.658  24.221  26.006  1.00  0.00     0.202 C 
BRANCH   4   5
ATOM      5  C   UNL A   1      30.873  24.240  24.683  1.00  0.00     0.261 C 
BRANCH   5   6
ATOM      6  O   UNL A   1      31.567  23.829  23.468  1.00  0.00    -0.463 OA
BRANCH   6   7
ATOM      7  C   UNL A   1      32.866  24.223  23.390  1.00  0.00     0.309 C 
ATOM      8  O   UNL A   1      33.199  25.377  23.123  1.00  0.00    -0.252 OA
BRANCH   7   9
ATOM      9  C   UNL A   1      33.945  23.136  23.506  1.00  0.00     0.099 C 
ATOM     10  C   UNL A   1      33.206  21.853  23.067  1.00  0.00     0.020 C 
BRANCH   9  11
ATOM     11  C   UNL A   1      34.823  22.857  24.765  1.00  0.00     0.003 C 
ATOM     12  C   UNL A   1      36.982  23.244  25.890  1.00  0.00    -0.011 C 
ATOM     13  C   UNL A   1      37.209  22.130  24.888  1.00  0.00     0.004 C 
ATOM     14  C   UNL A   1      35.772  23.970  25.266  1.00  0.00     0.008 C 
ATOM     15  C   UNL A   1      35.811  21.684  24.484  1.00  0.00     0.005 C 
BRANCH  12  16
ATOM     16  C   UNL A   1      38.257  24.083  26.059  1.00  0.00     0.000 C 
ATOM     17  C   UNL A   1      38.464  24.582  27.480  1.00  0.00     0.004 C 
ENDBRANCH  12  16
ENDBRANCH   9  11
ENDBRANCH   7   9
ENDBRANCH   6   7
ENDBRANCH   5   6
ENDBRANCH   4   5
ENDBRANCH   3   4
ENDBRANCH   2   3
ENDBRANCH   1   2
BRANCH   1  18
ATOM     18  O   UNL A   1      31.280  28.398  24.943  1.00  0.00    -0.376 OA
BRANCH  18  19
ATOM     19  C   UNL A   1      31.379  29.812  24.928  1.00  0.00     0.202 C 
BRANCH  19  20
ATOM     20  C   UNL A   1      31.793  30.349  26.304  1.00  0.00     0.261 C 
BRANCH  20  21
ATOM     21  O   UNL A   1      33.218  30.373  26.507  1.00  0.00    -0.460 OA
BRANCH  21  22
ATOM     22  C   UNL A   1      33.676  31.392  27.271  1.00  0.00     0.338 C 
ATOM     23  O   UNL A   1      33.035  32.351  27.666  1.00  0.00    -0.246 OA
BRANCH  22  24
ATOM     24  C   UNL A   1      35.025  31.041  27.757  1.00  0.00     0.060 A 
ATOM     25  C   UNL A   1      35.311  29.695  28.021  1.00  0.00     0.016 A 
ATOM     26  C   UNL A   1      35.993  32.019  27.952  1.00  0.00     0.016 A 
ATOM     27  C   UNL A   1      36.550  29.321  28.533  1.00  0.00     0.010 A 
ATOM     28  C   UNL A   1      37.235  31.648  28.470  1.00  0.00     0.010 A 
ATOM     29  C   UNL A   1      37.507  30.305  28.797  1.00  0.00    -0.014 A 
BRANCH  29  30
ATOM     30  C   UNL A   1      38.731  29.971  29.561  1.00  0.00     0.031 A 
ATOM     31  C   UNL A   1      39.684  28.968  28.977  1.00  0.00     0.074 A 
ATOM     32  C   UNL A   1      38.985  30.534  30.755  1.00  0.00     0.049 A 
ATOM     33  N   UNL A   1      40.738  28.413  29.513  1.00  0.00    -0.248 NA
ATOM     34  C   UNL A   1      39.402  28.526  27.602  1.00  0.00     0.031 C 
ATOM     35  C   UNL A   1      38.168  31.561  31.399  1.00  0.00     0.029 A 
ATOM     36  N   UNL A   1      39.997  30.297  31.651  1.00  0.00    -0.354 N 
ATOM     37  C   UNL A   1      41.217  27.519  28.561  1.00  0.00     0.074 A 
ATOM     38  C   UNL A   1      40.334  27.604  27.418  1.00  0.00     0.031 C 
ATOM     39  C   UNL A   1      38.701  31.852  32.598  1.00  0.00     0.029 A 
ATOM     40  C   UNL A   1      39.864  30.998  32.825  1.00  0.00     0.049 A 
ATOM     41  H   UNL A   1      40.746  29.684  31.468  1.00  0.00     0.167 HD
ATOM     42  C   UNL A   1      42.297  26.705  28.630  1.00  0.00     0.034 A 
ATOM     43  C   UNL A   1      40.583  30.931  33.964  1.00  0.00     0.034 A 
ATOM     44  C   UNL A   1      43.180  26.641  29.763  1.00  0.00     0.049 A 
ATOM     45  C   UNL A   1      41.742  29.971  34.045  1.00  0.00     0.074 A 
ATOM     46  C   UNL A   1      44.316  25.869  29.929  1.00  0.00     0.029 A 
ATOM     47  N   UNL A   1      43.019  27.371  30.932  1.00  0.00    -0.354 N 
ATOM     48  N   UNL A   1      42.222  29.174  33.120  1.00  0.00    -0.248 NA
ATOM     49  C   UNL A   1      42.470  29.916  35.320  1.00  0.00     0.031 C 
ATOM     50  C   UNL A   1      44.824  26.111  31.211  1.00  0.00     0.029 A 
ATOM     51  C   UNL A   1      44.025  27.061  31.829  1.00  0.00     0.049 A 
ATOM     52  H   UNL A   1      42.294  28.017  31.098  1.00  0.00     0.167 HD
ATOM     53  C   UNL A   1      43.330  28.554  33.687  1.00  0.00     0.074 A 
ATOM     54  C   UNL A   1      43.457  29.078  35.032  1.00  0.00     0.031 C 
ATOM     55  C   UNL A   1      44.164  27.628  33.147  1.00  0.00     0.034 A 
BRANCH  42  56
ATOM     56  C   UNL A   1      42.570  25.823  27.440  1.00  0.00     0.023 A 
ATOM     57  C   UNL A   1      43.238  26.346  26.313  1.00  0.00     0.012 A 
ATOM     58  C   UNL A   1      42.164  24.474  27.435  1.00  0.00     0.148 A 
ATOM     59  C   UNL A   1      43.449  25.557  25.182  1.00  0.00     0.002 A 
ATOM     60  C   UNL A   1      42.422  23.680  26.323  1.00  0.00     0.091 A 
ATOM     61  F   UNL A   1      41.507  23.999  28.504  1.00  0.00    -0.205 F 
ATOM     62  C   UNL A   1      43.049  24.224  25.191  1.00  0.00     0.022 A 
BRANCH  60  63
ATOM     63  S   UNL A   1      42.013  21.933  26.274  1.00  0.00     0.127 S 
ATOM     64  O   UNL A   1      42.869  21.459  25.188  1.00  0.00    -0.237 OA
ATOM     65  O   UNL A   1      42.416  21.482  27.606  1.00  0.00    -0.237 OA
ATOM     66  O   UNL A   1      40.580  21.866  26.022  1.00  0.00    -0.744 OA
ENDBRANCH  60  63
ENDBRANCH  42  56
BRANCH  43  67
ATOM     67  C   UNL A   1      40.248  31.824  35.111  1.00  0.00     0.023 A 
ATOM     68  C   UNL A   1      40.902  33.065  35.226  1.00  0.00     0.012 A 
ATOM     69  C   UNL A   1      39.276  31.468  36.065  1.00  0.00     0.148 A 
ATOM     70  C   UNL A   1      40.609  33.929  36.282  1.00  0.00     0.002 A 
ATOM     71  C   UNL A   1      38.950  32.354  37.085  1.00  0.00     0.091 A 
ATOM     72  F   UNL A   1      38.676  30.274  35.945  1.00  0.00    -0.205 F 
ATOM     73  C   UNL A   1      39.626  33.578  37.204  1.00  0.00     0.022 A 
BRANCH  71  74
ATOM     74  S   UNL A   1      37.624  32.043  38.256  1.00  0.00     0.127 S 
ATOM     75  O   UNL A   1      38.307  32.214  39.535  1.00  0.00    -0.237 OA
ATOM     76  O   UNL A   1      36.674  33.104  37.918  1.00  0.00    -0.237 OA
ATOM     77  O   UNL A   1      37.153  30.695  37.972  1.00  0.00    -0.744 OA
ENDBRANCH  71  74
ENDBRANCH  43  67
BRANCH  55  78
ATOM     78  C   UNL A   1      45.319  27.151  33.992  1.00  0.00     0.023 A 
ATOM     79  C   UNL A   1      45.217  25.944  34.711  1.00  0.00     0.012 A 
ATOM     80  C   UNL A   1      46.535  27.865  34.008  1.00  0.00     0.148 A 
ATOM     81  C   UNL A   1      46.294  25.472  35.462  1.00  0.00     0.002 A 
ATOM     82  C   UNL A   1      47.620  27.363  34.716  1.00  0.00     0.091 A 
ATOM     83  F   UNL A   1      46.608  29.020  33.332  1.00  0.00    -0.205 F 
ATOM     84  C   UNL A   1      47.497  26.174  35.454  1.00  0.00     0.022 A 
BRANCH  82  85
ATOM     85  S   UNL A   1      49.238  28.144  34.684  1.00  0.00     0.127 S 
ATOM     86  O   UNL A   1      49.052  29.254  35.617  1.00  0.00    -0.237 OA
ATOM     87  O   UNL A   1      50.108  27.074  35.173  1.00  0.00    -0.237 OA
ATOM     88  O   UNL A   1      49.472  28.526  33.298  1.00  0.00    -0.744 OA
ENDBRANCH  82  85
ENDBRANCH  55  78
ENDBRANCH  29  30
ENDBRANCH  22  24
ENDBRANCH  21  22
ENDBRANCH  20  21
ENDBRANCH  19  20
ENDBRANCH  18  19
ENDBRANCH   1  18
TORSDOF 22
ENDMDL
MODEL 3
REMARK VINA RESULT:      -9.4      1.073      2.137
REMARK SMILES CC[C@@H]1CC[C@H]([C@@H](C)C(=O)OCCOCCOCCOC(=O)c2ccc(-c3c4nc(c(-c5cccc(S(=O)(=O)[O-])c5F)c5ccc([nH]5)c(-c5cccc(S(=O)(=O)[O-])c5F)c5nc(c(-c6cccc(S(=O)(=O)[O-])c6F)c6ccc3[nH]6)C=C5)C=C4)cc2)C1
REMARK SMILES IDX 16 1 15 2 14 3 13 4 12 5 11 6 9 7 10 8 7 9 8 10 6 11 3 12
REMARK SMILES IDX 4 13 86 14 5 15 2 16 1 17 17 18 18 19 19 20 20 21 21 22
REMARK SMILES IDX 22 23 23 24 24 25 85 26 25 27 84 28 26 29 27 30 28 31 78 32
REMARK SMILES IDX 29 33 83 34 77 35 79 36 30 37 82 38 76 39 75 40 31 42 63 43
REMARK SMILES IDX 43 44 62 45 44 46 47 47 61 48 80 49 45 50 46 51 60 53 81 54
REMARK SMILES IDX 48 55 32 56 33 57 41 58 34 59 36 60 42 61 35 62 37 63 38 64
REMARK SMILES IDX 39 65 40 66 64 67 65 68 73 69 66 70 68 71 74 72 67 73 69 74
REMARK SMILES IDX 70 75 71 76 72 77 49 78 50 79 58 80 51 81 53 82 59 83 52 84
REMARK SMILES IDX 54 85 55 86 56 87 57 88
REMARK H PARENT 79 41 47 52
REMARK Flexibility Score: inf
ROOT
ATOM      1  C   UNL A   1      30.788  29.083  23.638  1.00  0.00     0.188 C 
ENDROOT
BRANCH   1   2
ATOM      2  C   UNL A   1      30.384  27.880  22.788  1.00  0.00     0.188 C 
BRANCH   2   3
ATOM      3  O   UNL A   1      30.726  26.581  23.243  1.00  0.00    -0.376 OA
BRANCH   3   4
ATOM      4  C   UNL A   1      31.942  25.985  22.815  1.00  0.00     0.202 C 
BRANCH   4   5
ATOM      5  C   UNL A   1      31.876  24.707  21.960  1.00  0.00     0.261 C 
BRANCH   5   6
ATOM      6  O   UNL A   1      33.045  23.835  21.941  1.00  0.00    -0.463 OA
BRANCH   6   7
ATOM      7  C   UNL A   1      32.853  22.610  22.497  1.00  0.00     0.309 C 
ATOM      8  O   UNL A   1      32.254  21.701  21.922  1.00  0.00    -0.252 OA
BRANCH   7   9
ATOM      9  C   UNL A   1      33.286  22.418  23.958  1.00  0.00     0.099 C 
ATOM     10  C   UNL A   1      31.963  22.088  24.682  1.00  0.00     0.020 C 
BRANCH   9  11
ATOM     11  C   UNL A   1      34.129  23.430  24.795  1.00  0.00     0.003 C 
ATOM     12  C   UNL A   1      36.338  23.968  25.748  1.00  0.00    -0.011 C 
ATOM     13  C   UNL A   1      35.686  22.983  26.697  1.00  0.00     0.004 C 
ATOM     14  C   UNL A   1      35.615  23.639  24.425  1.00  0.00     0.008 C 
ATOM     15  C   UNL A   1      34.223  22.955  26.278  1.00  0.00     0.005 C 
BRANCH  12  16
ATOM     16  C   UNL A   1      37.863  23.785  25.746  1.00  0.00     0.000 C 
ATOM     17  C   UNL A   1      38.544  24.411  26.952  1.00  0.00     0.004 C 
ENDBRANCH  12  16
ENDBRANCH   9  11
ENDBRANCH   7   9
ENDBRANCH   6   7
ENDBRANCH   5   6
ENDBRANCH   4   5
ENDBRANCH   3   4
ENDBRANCH   2   3
ENDBRANCH   1   2
BRANCH   1  18
ATOM     18  O   UNL A   1      31.838  28.813  24.547  1.00  0.00    -0.376 OA
BRANCH  18  19
ATOM     19  C   UNL A   1      31.543  28.938  25.928  1.00  0.00     0.202 C 
BRANCH  19  20
ATOM     20  C   UNL A   1      31.983  30.305  26.464  1.00  0.00     0.261 C 
BRANCH  20  21
ATOM     21  O   UNL A   1      33.413  30.454  26.556  1.00  0.00    -0.460 OA
BRANCH  21  22
ATOM     22  C   UNL A   1      33.841  31.428  27.391  1.00  0.00     0.338 C 
ATOM     23  O   UNL A   1      33.173  32.339  27.850  1.00  0.00    -0.246 OA
BRANCH  22  24
ATOM     24  C   UNL A   1      35.197  31.082  27.856  1.00  0.00     0.060 A 
ATOM     25  C   UNL A   1      35.509  29.732  28.065  1.00  0.00     0.016 A 
ATOM     26  C   UNL A   1      36.149  32.068  28.087  1.00  0.00     0.016 A 
ATOM     27  C   UNL A   1      36.757  29.359  28.556  1.00  0.00     0.010 A 
ATOM     28  C   UNL A   1      37.400  31.698  28.584  1.00  0.00     0.010 A 
ATOM     29  C   UNL A   1      37.698  30.348  28.855  1.00  0.00    -0.014 A 
BRANCH  29  30
ATOM     30  C   UNL A   1      38.931  30.005  29.600  1.00  0.00     0.031 A 
ATOM     31  C   UNL A   1      39.850  28.968  29.018  1.00  0.00     0.074 A 
ATOM     32  C   UNL A   1      39.223  30.589  30.774  1.00  0.00     0.049 A 
ATOM     33  N   UNL A   1      40.903  28.403  29.543  1.00  0.00    -0.248 NA
ATOM     34  C   UNL A   1      39.527  28.502  27.660  1.00  0.00     0.031 C 
ATOM     35  C   UNL A   1      38.443  31.648  31.412  1.00  0.00     0.029 A 
ATOM     36  N   UNL A   1      40.251  30.351  31.653  1.00  0.00    -0.354 N 
ATOM     37  C   UNL A   1      41.341  27.477  28.602  1.00  0.00     0.074 A 
ATOM     38  C   UNL A   1      40.436  27.556  27.477  1.00  0.00     0.031 C 
ATOM     39  C   UNL A   1      39.009  31.954  32.593  1.00  0.00     0.029 A 
ATOM     40  C   UNL A   1      40.159  31.081  32.814  1.00  0.00     0.049 A 
ATOM     41  H   UNL A   1      40.982  29.718  31.468  1.00  0.00     0.167 HD
ATOM     42  C   UNL A   1      42.406  26.643  28.666  1.00  0.00     0.034 A 
ATOM     43  C   UNL A   1      40.901  31.023  33.937  1.00  0.00     0.034 A 
ATOM     44  C   UNL A   1      43.312  26.585  29.781  1.00  0.00     0.049 A 
ATOM     45  C   UNL A   1      42.041  30.041  34.015  1.00  0.00     0.074 A 
ATOM     46  C   UNL A   1      44.434  25.792  29.939  1.00  0.00     0.029 A 
ATOM     47  N   UNL A   1      43.193  27.344  30.935  1.00  0.00    -0.354 N 
ATOM     48  N   UNL A   1      42.484  29.213  33.098  1.00  0.00    -0.248 NA
ATOM     49  C   UNL A   1      42.796  29.999  35.275  1.00  0.00     0.031 C 
ATOM     50  C   UNL A   1      44.976  26.052  31.204  1.00  0.00     0.029 A 
ATOM     51  C   UNL A   1      44.212  27.032  31.818  1.00  0.00     0.049 A 
ATOM     52  H   UNL A   1      42.486  28.009  31.103  1.00  0.00     0.167 HD
ATOM     53  C   UNL A   1      43.591  28.581  33.655  1.00  0.00     0.074 A 
ATOM     54  C   UNL A   1      43.758  29.133  34.985  1.00  0.00     0.031 C 
ATOM     55  C   UNL A   1      44.392  27.626  33.119  1.00  0.00     0.034 A 
BRANCH  42  56
ATOM     56  C   UNL A   1      42.633  25.728  27.491  1.00  0.00     0.023 A 
ATOM     57  C   UNL A   1      43.287  26.210  26.338  1.00  0.00     0.012 A 
ATOM     58  C   UNL A   1      42.198  24.389  27.526  1.00  0.00     0.148 A 
ATOM     59  C   UNL A   1      43.456  25.392  25.221  1.00  0.00     0.002 A 
ATOM     60  C   UNL A   1      42.415  23.564  26.427  1.00  0.00     0.091 A 
ATOM     61  F   UNL A   1      41.555  23.952  28.619  1.00  0.00    -0.205 F 
ATOM     62  C   UNL A   1      43.028  24.069  25.269  1.00  0.00     0.022 A 
BRANCH  60  63
ATOM     63  S   UNL A   1      41.967  21.825  26.426  1.00  0.00     0.127 S 
ATOM     64  O   UNL A   1      43.070  21.236  25.670  1.00  0.00    -0.237 OA
ATOM     65  O   UNL A   1      41.969  21.505  27.854  1.00  0.00    -0.237 OA
ATOM     66  O   UNL A   1      40.658  21.751  25.793  1.00  0.00    -0.744 OA
ENDBRANCH  60  63
ENDBRANCH  42  56
BRANCH  43  67
ATOM     67  C   UNL A   1      40.611  31.949  35.070  1.00  0.00     0.023 A 
ATOM     68  C   UNL A   1      41.488  33.021  35.321  1.00  0.00     0.012 A 
ATOM     69  C   UNL A   1      39.469  31.792  35.878  1.00  0.00     0.148 A 
ATOM     70  C   UNL A   1      41.244  33.911  36.367  1.00  0.00     0.002 A 
ATOM     71  C   UNL A   1      39.203  32.711  36.887  1.00  0.00     0.091 A 
ATOM     72  F   UNL A   1      38.655  30.755  35.633  1.00  0.00    -0.205 F 
ATOM     73  C   UNL A   1      40.097  33.762  37.143  1.00  0.00     0.022 A 
BRANCH  71  74
ATOM     74  S   UNL A   1      37.699  32.670  37.867  1.00  0.00     0.127 S 
ATOM     75  O   UNL A   1      37.728  31.313  38.405  1.00  0.00    -0.237 OA
ATOM     76  O   UNL A   1      37.952  33.727  38.847  1.00  0.00    -0.237 OA
ATOM     77  O   UNL A   1      36.613  32.954  36.938  1.00  0.00    -0.744 OA
ENDBRANCH  71  74
ENDBRANCH  43  67
BRANCH  55  78
ATOM     78  C   UNL A   1      45.556  27.143  33.948  1.00  0.00     0.023 A 
ATOM     79  C   UNL A   1      46.687  27.964  34.122  1.00  0.00     0.012 A 
ATOM     80  C   UNL A   1      45.491  25.904  34.618  1.00  0.00     0.148 A 
ATOM     81  C   UNL A   1      47.751  27.545  34.922  1.00  0.00     0.002 A 
ATOM     82  C   UNL A   1      46.531  25.516  35.453  1.00  0.00     0.091 A 
ATOM     83  F   UNL A   1      44.414  25.129  34.426  1.00  0.00    -0.205 F 
ATOM     84  C   UNL A   1      47.668  26.329  35.596  1.00  0.00     0.022 A 
BRANCH  82  85
ATOM     85  S   UNL A   1      46.469  24.015  36.439  1.00  0.00     0.127 S 
ATOM     86  O   UNL A   1      46.541  22.979  35.411  1.00  0.00    -0.237 OA
ATOM     87  O   UNL A   1      47.670  24.139  37.267  1.00  0.00    -0.237 OA
ATOM     88  O   UNL A   1      45.216  24.074  37.181  1.00  0.00    -0.744 OA
ENDBRANCH  82  85
ENDBRANCH  55  78
ENDBRANCH  29  30
ENDBRANCH  22  24
ENDBRANCH  21  22
ENDBRANCH  20  21
ENDBRANCH  19  20
ENDBRANCH  18  19
ENDBRANCH   1  18
TORSDOF 22
ENDMDL
