MODEL 1
REMARK VINA RESULT:     -10.2      0.000      0.000
REMARK SMILES C[NH+]1CCN(C(=O)c2ccc3c(c2)N(CC(=O)OCCOCCOCCOC(=O)c2ccc(-c4c5nc(c(-c6cccc(S(=O)(=O)[O-])c6F)c6ccc([nH]6)c(-c6cccc(S(=O)(=O)[O-])c6F)c6nc(c(-c7cccc(S(=O)(=O)[O-])c7F)c7ccc4[nH]7)C=C6)C=C5)cc2)C(=O)CO3)CC1
REMARK SMILES IDX 23 1 22 2 21 3 20 4 19 5 18 6 16 7 17 8 15 9 14 10 8 11 9 12
REMARK SMILES IDX 13 13 10 14 12 15 11 16 96 17 93 18 95 19 94 20 6 21 1 22
REMARK SMILES IDX 2 23 3 24 98 25 4 27 97 28 5 29 7 30 24 31 25 32 26 33 27 34
REMARK SMILES IDX 28 35 29 36 30 37 31 38 92 39 32 40 91 41 33 42 34 43 35 44
REMARK SMILES IDX 85 45 36 46 90 47 84 48 86 49 37 50 89 51 83 52 82 53 38 55
REMARK SMILES IDX 70 56 50 57 69 58 51 59 54 60 68 61 87 62 52 63 53 64 67 66
REMARK SMILES IDX 88 67 55 68 39 69 40 70 48 71 41 72 43 73 49 74 42 75 44 76
REMARK SMILES IDX 45 77 46 78 47 79 71 80 72 81 80 82 73 83 75 84 81 85 74 86
REMARK SMILES IDX 76 87 77 88 78 89 79 90 56 91 57 92 65 93 58 94 60 95 66 96
REMARK SMILES IDX 59 97 61 98 62 99 63 100 64 101
REMARK H PARENT 2 26 86 54 54 65
REMARK Flexibility Score: inf
ROOT
ATOM      1  C   UNL A   1      33.634  28.747  26.676  1.00  0.00     0.188 C 
ENDROOT
BRANCH   1   2
ATOM      2  C   UNL A   1      32.533  28.066  27.440  1.00  0.00     0.188 C 
BRANCH   2   3
ATOM      3  O   UNL A   1      31.946  26.953  26.811  1.00  0.00    -0.376 OA
BRANCH   3   4
ATOM      4  C   UNL A   1      30.544  26.776  27.011  1.00  0.00     0.202 C 
BRANCH   4   5
ATOM      5  C   UNL A   1      29.829  25.643  26.227  1.00  0.00     0.261 C 
BRANCH   5   6
ATOM      6  O   UNL A   1      29.869  24.285  26.809  1.00  0.00    -0.462 OA
BRANCH   6   7
ATOM      7  C   UNL A   1      30.733  23.407  26.202  1.00  0.00     0.326 C 
ATOM      8  O   UNL A   1      31.322  22.530  26.840  1.00  0.00    -0.250 OA
BRANCH   7   9
ATOM      9  C   UNL A   1      30.922  23.473  24.625  1.00  0.00     0.248 C 
BRANCH   9  10
ATOM     10  N   UNL A   1      31.988  24.079  23.811  1.00  0.00    -0.295 N 
ATOM     11  C   UNL A   1      31.474  27.937  23.368  1.00  0.00     0.042 A 
ATOM     12  C   UNL A   1      32.636  28.176  22.633  1.00  0.00     0.018 A 
ATOM     13  C   UNL A   1      31.140  26.519  23.386  1.00  0.00     0.044 A 
ATOM     14  C   UNL A   1      33.453  27.111  22.168  1.00  0.00     0.049 A 
ATOM     15  C   UNL A   1      32.056  25.426  23.205  1.00  0.00     0.087 A 
ATOM     16  C   UNL A   1      33.206  25.768  22.506  1.00  0.00     0.143 A 
ATOM     17  O   UNL A   1      34.179  24.875  22.143  1.00  0.00    -0.482 OA
ATOM     18  C   UNL A   1      32.971  23.143  23.476  1.00  0.00     0.265 C 
ATOM     19  C   UNL A   1      33.796  23.517  22.264  1.00  0.00     0.330 C 
ATOM     20  O   UNL A   1      33.083  22.045  24.021  1.00  0.00    -0.270 OA
BRANCH  11  21
ATOM     21  C   UNL A   1      30.637  29.246  23.826  1.00  0.00     0.254 C 
ATOM     22  C   UNL A   1      27.909  32.713  20.354  1.00  0.00     0.332 C 
ATOM     23  N   UNL A   1      27.801  31.871  21.570  1.00  0.00    -0.334 N 
ATOM     24  C   UNL A   1      28.734  32.337  22.622  1.00  0.00     0.283 C 
ATOM     25  C   UNL A   1      28.046  30.464  21.220  1.00  0.00     0.283 C 
ATOM     26  H   UNL A   1      26.857  31.951  21.946  1.00  0.00     0.347 HD
ATOM     27  C   UNL A   1      29.086  31.307  23.790  1.00  0.00     0.181 C 
ATOM     28  C   UNL A   1      28.236  29.516  22.458  1.00  0.00     0.181 C 
ATOM     29  N   UNL A   1      29.388  29.903  23.326  1.00  0.00    -0.327 N 
ATOM     30  O   UNL A   1      31.168  29.774  24.818  1.00  0.00    -0.269 OA
ENDBRANCH  11  21
ENDBRANCH   9  10
ENDBRANCH   7   9
ENDBRANCH   6   7
ENDBRANCH   5   6
ENDBRANCH   4   5
ENDBRANCH   3   4
ENDBRANCH   2   3
ENDBRANCH   1   2
BRANCH   1  31
ATOM     31  O   UNL A   1      34.495  29.706  27.229  1.00  0.00    -0.376 OA
BRANCH  31  32
ATOM     32  C   UNL A   1      33.830  30.970  27.184  1.00  0.00     0.202 C 
BRANCH  32  33
ATOM     33  C   UNL A   1      34.455  32.226  27.892  1.00  0.00     0.261 C 
BRANCH  33  34
ATOM     34  O   UNL A   1      34.225  32.724  29.346  1.00  0.00    -0.460 OA
BRANCH  34  35
ATOM     35  C   UNL A   1      35.037  32.990  30.434  1.00  0.00     0.338 C 
ATOM     36  O   UNL A   1      34.896  33.951  31.184  1.00  0.00    -0.246 OA
BRANCH  35  37
ATOM     37  C   UNL A   1      36.315  32.184  30.629  1.00  0.00     0.060 A 
ATOM     38  C   UNL A   1      37.520  32.660  30.098  1.00  0.00     0.016 A 
ATOM     39  C   UNL A   1      36.361  30.905  31.148  1.00  0.00     0.016 A 
ATOM     40  C   UNL A   1      38.673  31.854  30.061  1.00  0.00     0.010 A 
ATOM     41  C   UNL A   1      37.505  30.108  31.203  1.00  0.00     0.010 A 
ATOM     42  C   UNL A   1      38.693  30.590  30.684  1.00  0.00    -0.014 A 
BRANCH  42  43
ATOM     43  C   UNL A   1      39.961  29.953  31.125  1.00  0.00     0.031 A 
ATOM     44  C   UNL A   1      40.763  30.423  32.313  1.00  0.00     0.074 A 
ATOM     45  C   UNL A   1      40.493  29.083  30.240  1.00  0.00     0.049 A 
ATOM     46  N   UNL A   1      41.918  29.984  32.746  1.00  0.00    -0.248 NA
ATOM     47  C   UNL A   1      40.248  31.575  33.074  1.00  0.00     0.031 C 
ATOM     48  C   UNL A   1      39.918  28.787  28.919  1.00  0.00     0.029 A 
ATOM     49  N   UNL A   1      41.620  28.311  30.276  1.00  0.00    -0.354 N 
ATOM     50  C   UNL A   1      42.300  30.837  33.781  1.00  0.00     0.074 A 
ATOM     51  C   UNL A   1      41.257  31.833  33.900  1.00  0.00     0.031 C 
ATOM     52  C   UNL A   1      40.643  27.845  28.311  1.00  0.00     0.029 A 
ATOM     53  C   UNL A   1      41.763  27.507  29.168  1.00  0.00     0.049 A 
ATOM     54  H   UNL A   1      42.266  28.330  31.020  1.00  0.00     0.167 HD
ATOM     55  C   UNL A   1      43.412  30.770  34.558  1.00  0.00     0.034 A 
ATOM     56  C   UNL A   1      42.688  26.576  28.877  1.00  0.00     0.034 A 
ATOM     57  C   UNL A   1      44.381  29.706  34.433  1.00  0.00     0.049 A 
ATOM     58  C   UNL A   1      43.746  26.337  29.902  1.00  0.00     0.074 A 
ATOM     59  C   UNL A   1      45.453  29.403  35.252  1.00  0.00     0.029 A 
ATOM     60  N   UNL A   1      44.379  28.758  33.415  1.00  0.00    -0.354 N 
ATOM     61  N   UNL A   1      43.980  27.017  30.999  1.00  0.00    -0.248 NA
ATOM     62  C   UNL A   1      44.630  25.190  29.690  1.00  0.00     0.031 C 
ATOM     63  C   UNL A   1      46.097  28.274  34.730  1.00  0.00     0.029 A 
ATOM     64  C   UNL A   1      45.416  27.860  33.594  1.00  0.00     0.049 A 
ATOM     65  H   UNL A   1      43.733  28.730  32.672  1.00  0.00     0.167 HD
ATOM     66  C   UNL A   1      45.038  26.380  31.620  1.00  0.00     0.074 A 
ATOM     67  C   UNL A   1      45.369  25.231  30.792  1.00  0.00     0.031 C 
ATOM     68  C   UNL A   1      45.697  26.723  32.753  1.00  0.00     0.034 A 
BRANCH  55  69
ATOM     69  C   UNL A   1      43.607  31.791  35.665  1.00  0.00     0.023 A 
ATOM     70  C   UNL A   1      44.331  32.973  35.399  1.00  0.00     0.012 A 
ATOM     71  C   UNL A   1      42.990  31.647  36.928  1.00  0.00     0.148 A 
ATOM     72  C   UNL A   1      44.474  33.967  36.371  1.00  0.00     0.002 A 
ATOM     73  C   UNL A   1      43.097  32.664  37.877  1.00  0.00     0.091 A 
ATOM     74  F   UNL A   1      42.308  30.522  37.183  1.00  0.00    -0.205 F 
ATOM     75  C   UNL A   1      43.848  33.817  37.604  1.00  0.00     0.022 A 
BRANCH  73  76
ATOM     76  S   UNL A   1      42.252  32.621  39.467  1.00  0.00     0.127 S 
ATOM     77  O   UNL A   1      42.524  33.963  39.984  1.00  0.00    -0.237 OA
ATOM     78  O   UNL A   1      40.861  32.396  39.070  1.00  0.00    -0.237 OA
ATOM     79  O   UNL A   1      42.855  31.529  40.215  1.00  0.00    -0.744 OA
ENDBRANCH  73  76
ENDBRANCH  55  69
BRANCH  56  80
ATOM     80  C   UNL A   1      42.505  25.742  27.658  1.00  0.00     0.023 A 
ATOM     81  C   UNL A   1      43.310  25.999  26.532  1.00  0.00     0.012 A 
ATOM     82  C   UNL A   1      41.697  24.588  27.672  1.00  0.00     0.148 A 
ATOM     83  C   UNL A   1      43.309  25.128  25.441  1.00  0.00     0.002 A 
ATOM     84  C   UNL A   1      41.751  23.689  26.610  1.00  0.00     0.091 A 
ATOM     85  F   UNL A   1      40.942  24.351  28.755  1.00  0.00    -0.205 F 
ATOM     86  C   UNL A   1      42.546  23.965  25.488  1.00  0.00     0.022 A 
BRANCH  84  87
ATOM     87  S   UNL A   1      40.952  22.080  26.698  1.00  0.00     0.127 S 
ATOM     88  O   UNL A   1      41.304  21.643  28.046  1.00  0.00    -0.237 OA
ATOM     89  O   UNL A   1      39.540  22.419  26.509  1.00  0.00    -0.237 OA
ATOM     90  O   UNL A   1      41.527  21.313  25.601  1.00  0.00    -0.744 OA
ENDBRANCH  84  87
ENDBRANCH  56  80
BRANCH  68  91
ATOM     91  C   UNL A   1      46.843  25.838  33.143  1.00  0.00     0.023 A 
ATOM     92  C   UNL A   1      48.132  26.126  32.656  1.00  0.00     0.012 A 
ATOM     93  C   UNL A   1      46.644  24.744  34.002  1.00  0.00     0.148 A 
ATOM     94  C   UNL A   1      49.208  25.307  32.989  1.00  0.00     0.002 A 
ATOM     95  C   UNL A   1      47.729  23.960  34.367  1.00  0.00     0.091 A 
ATOM     96  F   UNL A   1      45.400  24.480  34.428  1.00  0.00    -0.205 F 
ATOM     97  C   UNL A   1      49.007  24.232  33.851  1.00  0.00     0.022 A 
BRANCH  95  98
ATOM     98  S   UNL A   1      47.576  22.608  35.535  1.00  0.00     0.127 S 
ATOM     99  O   UNL A   1      48.967  22.181  35.680  1.00  0.00    -0.237 OA
ATOM    100  O   UNL A   1      47.017  23.275  36.711  1.00  0.00    -0.237 OA
ATOM    101  O   UNL A   1      46.684  21.640  34.911  1.00  0.00    -0.744 OA
ENDBRANCH  95  98
ENDBRANCH  68  91
ENDBRANCH  42  43
ENDBRANCH  35  37
ENDBRANCH  34  35
ENDBRANCH  33  34
ENDBRANCH  32  33
ENDBRANCH  31  32
ENDBRANCH   1  31
TORSDOF 22
ENDMDL
MODEL 2
REMARK VINA RESULT:     -10.1      6.929     13.270
REMARK SMILES C[NH+]1CCN(C(=O)c2ccc3c(c2)N(CC(=O)OCCOCCOCCOC(=O)c2ccc(-c4c5nc(c(-c6cccc(S(=O)(=O)[O-])c6F)c6ccc([nH]6)c(-c6cccc(S(=O)(=O)[O-])c6F)c6nc(c(-c7cccc(S(=O)(=O)[O-])c7F)c7ccc4[nH]7)C=C6)C=C5)cc2)C(=O)CO3)CC1
REMARK SMILES IDX 23 1 22 2 21 3 20 4 19 5 18 6 16 7 17 8 15 9 14 10 8 11 9 12
REMARK SMILES IDX 13 13 10 14 12 15 11 16 96 17 93 18 95 19 94 20 6 21 1 22
REMARK SMILES IDX 2 23 3 24 98 25 4 27 97 28 5 29 7 30 24 31 25 32 26 33 27 34
REMARK SMILES IDX 28 35 29 36 30 37 31 38 92 39 32 40 91 41 33 42 34 43 35 44
REMARK SMILES IDX 85 45 36 46 90 47 84 48 86 49 37 50 89 51 83 52 82 53 38 55
REMARK SMILES IDX 70 56 50 57 69 58 51 59 54 60 68 61 87 62 52 63 53 64 67 66
REMARK SMILES IDX 88 67 55 68 39 69 40 70 48 71 41 72 43 73 49 74 42 75 44 76
REMARK SMILES IDX 45 77 46 78 47 79 71 80 72 81 80 82 73 83 75 84 81 85 74 86
REMARK SMILES IDX 76 87 77 88 78 89 79 90 56 91 57 92 65 93 58 94 60 95 66 96
REMARK SMILES IDX 59 97 61 98 62 99 63 100 64 101
REMARK H PARENT 2 26 86 54 54 65
REMARK Flexibility Score: inf
ROOT
ATOM      1  C   UNL A   1      43.121  19.638  26.132  1.00  0.00     0.188 C 
ENDROOT
BRANCH   1   2
ATOM      2  C   UNL A   1      43.397  18.378  25.359  1.00  0.00     0.188 C 
BRANCH   2   3
ATOM      3  O   UNL A   1      44.629  18.330  24.682  1.00  0.00    -0.376 OA
BRANCH   3   4
ATOM      4  C   UNL A   1      45.741  18.936  25.341  1.00  0.00     0.202 C 
BRANCH   4   5
ATOM      5  C   UNL A   1      46.601  19.952  24.543  1.00  0.00     0.261 C 
BRANCH   5   6
ATOM      6  O   UNL A   1      46.593  21.357  25.002  1.00  0.00    -0.462 OA
BRANCH   6   7
ATOM      7  C   UNL A   1      45.678  22.174  24.384  1.00  0.00     0.326 C 
ATOM      8  O   UNL A   1      44.792  21.722  23.653  1.00  0.00    -0.250 OA
BRANCH   7   9
ATOM      9  C   UNL A   1      45.714  23.737  24.676  1.00  0.00     0.248 C 
BRANCH   9  10
ATOM     10  N   UNL A   1      46.408  24.500  25.725  1.00  0.00    -0.295 N 
ATOM     11  C   UNL A   1      49.154  26.865  24.240  1.00  0.00     0.042 A 
ATOM     12  C   UNL A   1      49.545  27.445  25.447  1.00  0.00     0.018 A 
ATOM     13  C   UNL A   1      48.394  25.642  24.459  1.00  0.00     0.044 A 
ATOM     14  C   UNL A   1      49.056  26.968  26.693  1.00  0.00     0.049 A 
ATOM     15  C   UNL A   1      47.645  25.306  25.639  1.00  0.00     0.087 A 
ATOM     16  C   UNL A   1      48.073  25.966  26.783  1.00  0.00     0.143 A 
ATOM     17  O   UNL A   1      47.566  25.742  28.035  1.00  0.00    -0.482 OA
ATOM     18  C   UNL A   1      45.852  24.261  26.985  1.00  0.00     0.265 C 
ATOM     19  C   UNL A   1      46.777  24.571  28.141  1.00  0.00     0.330 C 
ATOM     20  O   UNL A   1      44.759  23.720  27.158  1.00  0.00    -0.270 OA
BRANCH  11  21
ATOM     21  C   UNL A   1      49.797  27.506  22.898  1.00  0.00     0.254 C 
ATOM     22  C   UNL A   1      51.525  24.579  18.430  1.00  0.00     0.332 C 
ATOM     23  N   UNL A   1      50.678  25.703  18.899  1.00  0.00    -0.334 N 
ATOM     24  C   UNL A   1      51.498  26.746  19.558  1.00  0.00     0.283 C 
ATOM     25  C   UNL A   1      49.634  25.192  19.799  1.00  0.00     0.283 C 
ATOM     26  H   UNL A   1      50.227  26.137  18.094  1.00  0.00     0.347 HD
ATOM     27  C   UNL A   1      50.736  27.775  20.511  1.00  0.00     0.181 C 
ATOM     28  C   UNL A   1      48.852  26.309  20.578  1.00  0.00     0.181 C 
ATOM     29  N   UNL A   1      49.731  27.149  21.446  1.00  0.00    -0.327 N 
ATOM     30  O   UNL A   1      50.463  28.518  23.178  1.00  0.00    -0.269 OA
ENDBRANCH  11  21
ENDBRANCH   9  10
ENDBRANCH   7   9
ENDBRANCH   6   7
ENDBRANCH   5   6
ENDBRANCH   4   5
ENDBRANCH   3   4
ENDBRANCH   2   3
ENDBRANCH   1   2
BRANCH   1  31
ATOM     31  O   UNL A   1      42.150  19.743  27.138  1.00  0.00    -0.376 OA
BRANCH  31  32
ATOM     32  C   UNL A   1      40.872  19.518  26.541  1.00  0.00     0.202 C 
BRANCH  32  33
ATOM     33  C   UNL A   1      39.860  20.704  26.349  1.00  0.00     0.261 C 
BRANCH  33  34
ATOM     34  O   UNL A   1      40.166  22.226  26.253  1.00  0.00    -0.460 OA
BRANCH  34  35
ATOM     35  C   UNL A   1      41.265  22.985  25.894  1.00  0.00     0.338 C 
ATOM     36  O   UNL A   1      42.228  22.555  25.267  1.00  0.00    -0.246 OA
BRANCH  35  37
ATOM     37  C   UNL A   1      41.425  24.388  26.466  1.00  0.00     0.060 A 
ATOM     38  C   UNL A   1      41.660  24.553  27.836  1.00  0.00     0.016 A 
ATOM     39  C   UNL A   1      41.181  25.551  25.763  1.00  0.00     0.016 A 
ATOM     40  C   UNL A   1      41.595  25.822  28.443  1.00  0.00     0.010 A 
ATOM     41  C   UNL A   1      41.191  26.833  26.314  1.00  0.00     0.010 A 
ATOM     42  C   UNL A   1      41.432  26.987  27.668  1.00  0.00    -0.014 A 
BRANCH  42  43
ATOM     43  C   UNL A   1      41.870  28.321  28.155  1.00  0.00     0.031 A 
ATOM     44  C   UNL A   1      43.308  28.778  28.160  1.00  0.00     0.074 A 
ATOM     45  C   UNL A   1      40.930  29.010  28.837  1.00  0.00     0.049 A 
ATOM     46  N   UNL A   1      43.810  29.893  28.626  1.00  0.00    -0.248 NA
ATOM     47  C   UNL A   1      44.324  27.843  27.647  1.00  0.00     0.031 C 
ATOM     48  C   UNL A   1      39.580  28.503  29.131  1.00  0.00     0.029 A 
ATOM     49  N   UNL A   1      40.943  30.241  29.428  1.00  0.00    -0.354 N 
ATOM     50  C   UNL A   1      45.195  29.774  28.524  1.00  0.00     0.074 A 
ATOM     51  C   UNL A   1      45.456  28.465  27.965  1.00  0.00     0.031 C 
ATOM     52  C   UNL A   1      38.875  29.440  29.767  1.00  0.00     0.029 A 
ATOM     53  C   UNL A   1      39.730  30.593  29.977  1.00  0.00     0.049 A 
ATOM     54  H   UNL A   1      41.740  30.819  29.459  1.00  0.00     0.167 HD
ATOM     55  C   UNL A   1      46.145  30.688  28.854  1.00  0.00     0.034 A 
ATOM     56  C   UNL A   1      39.337  31.732  30.572  1.00  0.00     0.034 A 
ATOM     57  C   UNL A   1      45.813  32.007  29.342  1.00  0.00     0.049 A 
ATOM     58  C   UNL A   1      40.348  32.825  30.662  1.00  0.00     0.074 A 
ATOM     59  C   UNL A   1      46.643  33.093  29.551  1.00  0.00     0.029 A 
ATOM     60  N   UNL A   1      44.530  32.416  29.688  1.00  0.00    -0.354 N 
ATOM     61  N   UNL A   1      41.624  32.777  30.363  1.00  0.00    -0.248 NA
ATOM     62  C   UNL A   1      39.874  34.134  31.117  1.00  0.00     0.031 C 
ATOM     63  C   UNL A   1      45.862  34.156  30.020  1.00  0.00     0.029 A 
ATOM     64  C   UNL A   1      44.540  33.740  30.090  1.00  0.00     0.049 A 
ATOM     65  H   UNL A   1      43.728  31.845  29.654  1.00  0.00     0.167 HD
ATOM     66  C   UNL A   1      42.114  34.050  30.586  1.00  0.00     0.074 A 
ATOM     67  C   UNL A   1      40.980  34.859  31.004  1.00  0.00     0.031 C 
ATOM     68  C   UNL A   1      43.385  34.508  30.482  1.00  0.00     0.034 A 
BRANCH  55  69
ATOM     69  C   UNL A   1      47.608  30.358  28.618  1.00  0.00     0.023 A 
ATOM     70  C   UNL A   1      48.250  30.841  27.457  1.00  0.00     0.012 A 
ATOM     71  C   UNL A   1      48.381  29.671  29.580  1.00  0.00     0.148 A 
ATOM     72  C   UNL A   1      49.611  30.616  27.237  1.00  0.00     0.002 A 
ATOM     73  C   UNL A   1      49.750  29.491  29.377  1.00  0.00     0.091 A 
ATOM     74  F   UNL A   1      47.771  29.206  30.679  1.00  0.00    -0.205 F 
ATOM     75  C   UNL A   1      50.362  29.951  28.201  1.00  0.00     0.022 A 
BRANCH  73  76
ATOM     76  S   UNL A   1      50.836  28.732  30.596  1.00  0.00     0.127 S 
ATOM     77  O   UNL A   1      50.582  29.560  31.776  1.00  0.00    -0.237 OA
ATOM     78  O   UNL A   1      50.300  27.373  30.682  1.00  0.00    -0.237 OA
ATOM     79  O   UNL A   1      52.182  28.822  30.049  1.00  0.00    -0.744 OA
ENDBRANCH  73  76
ENDBRANCH  55  69
BRANCH  56  80
ATOM     80  C   UNL A   1      37.903  31.890  30.939  1.00  0.00     0.023 A 
ATOM     81  C   UNL A   1      37.526  31.732  32.286  1.00  0.00     0.012 A 
ATOM     82  C   UNL A   1      36.959  32.383  30.017  1.00  0.00     0.148 A 
ATOM     83  C   UNL A   1      36.235  32.057  32.707  1.00  0.00     0.002 A 
ATOM     84  C   UNL A   1      35.695  32.768  30.456  1.00  0.00     0.091 A 
ATOM     85  F   UNL A   1      37.336  32.536  28.739  1.00  0.00    -0.205 F 
ATOM     86  C   UNL A   1      35.327  32.592  31.798  1.00  0.00     0.022 A 
BRANCH  84  87
ATOM     87  S   UNL A   1      34.554  33.649  29.381  1.00  0.00     0.127 S 
ATOM     88  O   UNL A   1      34.071  32.579  28.513  1.00  0.00    -0.237 OA
ATOM     89  O   UNL A   1      33.565  34.167  30.328  1.00  0.00    -0.237 OA
ATOM     90  O   UNL A   1      35.358  34.684  28.743  1.00  0.00    -0.744 OA
ENDBRANCH  84  87
ENDBRANCH  56  80
BRANCH  68  91
ATOM     91  C   UNL A   1      43.598  35.948  30.839  1.00  0.00     0.023 A 
ATOM     92  C   UNL A   1      43.881  36.293  32.175  1.00  0.00     0.012 A 
ATOM     93  C   UNL A   1      43.538  36.947  29.853  1.00  0.00     0.148 A 
ATOM     94  C   UNL A   1      44.064  37.625  32.533  1.00  0.00     0.002 A 
ATOM     95  C   UNL A   1      43.768  38.269  30.209  1.00  0.00     0.091 A 
ATOM     96  F   UNL A   1      43.240  36.591  28.595  1.00  0.00    -0.205 F 
ATOM     97  C   UNL A   1      44.017  38.610  31.549  1.00  0.00     0.022 A 
BRANCH  95  98
ATOM     98  S   UNL A   1      43.806  39.588  28.996  1.00  0.00     0.127 S 
ATOM     99  O   UNL A   1      43.771  40.777  29.847  1.00  0.00    -0.237 OA
ATOM    100  O   UNL A   1      45.086  39.356  28.325  1.00  0.00    -0.237 OA
ATOM    101  O   UNL A   1      42.638  39.388  28.149  1.00  0.00    -0.744 OA
ENDBRANCH  95  98
ENDBRANCH  68  91
ENDBRANCH  42  43
ENDBRANCH  35  37
ENDBRANCH  34  35
ENDBRANCH  33  34
ENDBRANCH  32  33
ENDBRANCH  31  32
ENDBRANCH   1  31
TORSDOF 22
ENDMDL
MODEL 3
REMARK VINA RESULT:     -10.0      2.712      5.382
REMARK SMILES C[NH+]1CCN(C(=O)c2ccc3c(c2)N(CC(=O)OCCOCCOCCOC(=O)c2ccc(-c4c5nc(c(-c6cccc(S(=O)(=O)[O-])c6F)c6ccc([nH]6)c(-c6cccc(S(=O)(=O)[O-])c6F)c6nc(c(-c7cccc(S(=O)(=O)[O-])c7F)c7ccc4[nH]7)C=C6)C=C5)cc2)C(=O)CO3)CC1
REMARK SMILES IDX 23 1 22 2 21 3 20 4 19 5 18 6 16 7 17 8 15 9 14 10 8 11 9 12
REMARK SMILES IDX 13 13 10 14 12 15 11 16 96 17 93 18 95 19 94 20 6 21 1 22
REMARK SMILES IDX 2 23 3 24 98 25 4 27 97 28 5 29 7 30 24 31 25 32 26 33 27 34
REMARK SMILES IDX 28 35 29 36 30 37 31 38 92 39 32 40 91 41 33 42 34 43 35 44
REMARK SMILES IDX 85 45 36 46 90 47 84 48 86 49 37 50 89 51 83 52 82 53 38 55
REMARK SMILES IDX 70 56 50 57 69 58 51 59 54 60 68 61 87 62 52 63 53 64 67 66
REMARK SMILES IDX 88 67 55 68 39 69 40 70 48 71 41 72 43 73 49 74 42 75 44 76
REMARK SMILES IDX 45 77 46 78 47 79 71 80 72 81 80 82 73 83 75 84 81 85 74 86
REMARK SMILES IDX 76 87 77 88 78 89 79 90 56 91 57 92 65 93 58 94 60 95 66 96
REMARK SMILES IDX 59 97 61 98 62 99 63 100 64 101
REMARK H PARENT 2 26 86 54 54 65
REMARK Flexibility Score: inf
ROOT
ATOM      1  C   UNL A   1      35.033  33.490  28.785  1.00  0.00     0.188 C 
ENDROOT
BRANCH   1   2
ATOM      2  C   UNL A   1      35.934  32.565  28.016  1.00  0.00     0.188 C 
BRANCH   2   3
ATOM      3  O   UNL A   1      36.127  31.289  28.577  1.00  0.00    -0.376 OA
BRANCH   3   4
ATOM      4  C   UNL A   1      36.102  30.187  27.671  1.00  0.00     0.202 C 
BRANCH   4   5
ATOM      5  C   UNL A   1      34.780  29.385  27.529  1.00  0.00     0.261 C 
BRANCH   5   6
ATOM      6  O   UNL A   1      33.594  30.115  27.036  1.00  0.00    -0.462 OA
BRANCH   6   7
ATOM      7  C   UNL A   1      33.178  29.780  25.771  1.00  0.00     0.326 C 
ATOM      8  O   UNL A   1      33.947  29.281  24.945  1.00  0.00    -0.250 OA
BRANCH   7   9
ATOM      9  C   UNL A   1      31.647  29.968  25.383  1.00  0.00     0.248 C 
BRANCH   9  10
ATOM     10  N   UNL A   1      30.756  29.133  24.563  1.00  0.00    -0.295 N 
ATOM     11  C   UNL A   1      31.127  25.327  25.411  1.00  0.00     0.042 A 
ATOM     12  C   UNL A   1      30.147  24.865  24.533  1.00  0.00     0.018 A 
ATOM     13  C   UNL A   1      31.532  26.688  25.085  1.00  0.00     0.044 A 
ATOM     14  C   UNL A   1      29.519  25.731  23.598  1.00  0.00     0.049 A 
ATOM     15  C   UNL A   1      30.745  27.665  24.384  1.00  0.00     0.087 A 
ATOM     16  C   UNL A   1      29.762  27.116  23.572  1.00  0.00     0.143 A 
ATOM     17  O   UNL A   1      28.949  27.847  22.746  1.00  0.00    -0.482 OA
ATOM     18  C   UNL A   1      29.930  29.913  23.748  1.00  0.00     0.265 C 
ATOM     19  C   UNL A   1      29.376  29.182  22.545  1.00  0.00     0.330 C 
ATOM     20  O   UNL A   1      29.764  31.123  23.904  1.00  0.00    -0.270 OA
BRANCH  11  21
ATOM     21  C   UNL A   1      31.763  24.227  26.416  1.00  0.00     0.254 C 
ATOM     22  C   UNL A   1      35.610  20.393  24.993  1.00  0.00     0.332 C 
ATOM     23  N   UNL A   1      35.260  21.475  25.946  1.00  0.00    -0.334 N 
ATOM     24  C   UNL A   1      34.017  21.149  26.684  1.00  0.00     0.283 C 
ATOM     25  C   UNL A   1      35.136  22.750  25.223  1.00  0.00     0.283 C 
ATOM     26  H   UNL A   1      36.006  21.564  26.634  1.00  0.00     0.347 HD
ATOM     27  C   UNL A   1      33.252  22.360  27.390  1.00  0.00     0.181 C 
ATOM     28  C   UNL A   1      34.499  23.909  26.068  1.00  0.00     0.181 C 
ATOM     29  N   UNL A   1      33.117  23.603  26.545  1.00  0.00    -0.327 N 
ATOM     30  O   UNL A   1      30.917  23.866  27.253  1.00  0.00    -0.269 OA
ENDBRANCH  11  21
ENDBRANCH   9  10
ENDBRANCH   7   9
ENDBRANCH   6   7
ENDBRANCH   5   6
ENDBRANCH   4   5
ENDBRANCH   3   4
ENDBRANCH   2   3
ENDBRANCH   1   2
BRANCH   1  31
ATOM     31  O   UNL A   1      33.654  33.610  28.558  1.00  0.00    -0.376 OA
BRANCH  31  32
ATOM     32  C   UNL A   1      33.358  34.995  28.374  1.00  0.00     0.202 C 
BRANCH  32  33
ATOM     33  C   UNL A   1      33.138  35.936  29.613  1.00  0.00     0.261 C 
BRANCH  33  34
ATOM     34  O   UNL A   1      32.548  35.573  31.005  1.00  0.00    -0.460 OA
BRANCH  34  35
ATOM     35  C   UNL A   1      33.059  35.439  32.283  1.00  0.00     0.338 C 
ATOM     36  O   UNL A   1      32.640  36.049  33.263  1.00  0.00    -0.246 OA
BRANCH  35  37
ATOM     37  C   UNL A   1      34.347  34.653  32.497  1.00  0.00     0.060 A 
ATOM     38  C   UNL A   1      35.581  35.300  32.363  1.00  0.00     0.016 A 
ATOM     39  C   UNL A   1      34.410  33.283  32.647  1.00  0.00     0.016 A 
ATOM     40  C   UNL A   1      36.788  34.577  32.333  1.00  0.00     0.010 A 
ATOM     41  C   UNL A   1      35.591  32.541  32.704  1.00  0.00     0.010 A 
ATOM     42  C   UNL A   1      36.806  33.189  32.579  1.00  0.00    -0.014 A 
BRANCH  42  43
ATOM     43  C   UNL A   1      38.026  32.496  33.069  1.00  0.00     0.031 A 
ATOM     44  C   UNL A   1      38.644  32.748  34.422  1.00  0.00     0.074 A 
ATOM     45  C   UNL A   1      38.702  31.808  32.124  1.00  0.00     0.049 A 
ATOM     46  N   UNL A   1      39.746  32.250  34.923  1.00  0.00    -0.248 NA
ATOM     47  C   UNL A   1      37.991  33.736  35.299  1.00  0.00     0.031 C 
ATOM     48  C   UNL A   1      38.320  31.753  30.705  1.00  0.00     0.029 A 
ATOM     49  N   UNL A   1      39.841  31.055  32.176  1.00  0.00    -0.354 N 
ATOM     50  C   UNL A   1      39.956  32.902  36.137  1.00  0.00     0.074 A 
ATOM     51  C   UNL A   1      38.871  33.849  36.289  1.00  0.00     0.031 C 
ATOM     52  C   UNL A   1      39.152  30.947  30.043  1.00  0.00     0.029 A 
ATOM     53  C   UNL A   1      40.159  30.469  30.971  1.00  0.00     0.049 A 
ATOM     54  H   UNL A   1      40.380  30.944  32.992  1.00  0.00     0.167 HD
ATOM     55  C   UNL A   1      40.955  32.706  37.036  1.00  0.00     0.034 A 
ATOM     56  C   UNL A   1      41.147  29.617  30.648  1.00  0.00     0.034 A 
ATOM     57  C   UNL A   1      41.969  31.693  36.856  1.00  0.00     0.049 A 
ATOM     58  C   UNL A   1      42.066  29.205  31.749  1.00  0.00     0.074 A 
ATOM     59  C   UNL A   1      42.933  31.256  37.747  1.00  0.00     0.029 A 
ATOM     60  N   UNL A   1      42.137  30.948  35.693  1.00  0.00    -0.354 N 
ATOM     61  N   UNL A   1      42.127  29.675  32.972  1.00  0.00    -0.248 NA
ATOM     62  C   UNL A   1      43.011  28.126  31.458  1.00  0.00     0.031 C 
ATOM     63  C   UNL A   1      43.680  30.249  37.124  1.00  0.00     0.029 A 
ATOM     64  C   UNL A   1      43.173  30.043  35.849  1.00  0.00     0.049 A 
ATOM     65  H   UNL A   1      41.598  31.050  34.876  1.00  0.00     0.167 HD
ATOM     66  C   UNL A   1      43.115  28.946  33.608  1.00  0.00     0.074 A 
ATOM     67  C   UNL A   1      43.593  27.972  32.641  1.00  0.00     0.031 C 
ATOM     68  C   UNL A   1      43.603  29.082  34.865  1.00  0.00     0.034 A 
BRANCH  55  69
ATOM     69  C   UNL A   1      40.964  33.508  38.325  1.00  0.00     0.023 A 
ATOM     70  C   UNL A   1      40.181  33.075  39.417  1.00  0.00     0.012 A 
ATOM     71  C   UNL A   1      41.819  34.619  38.505  1.00  0.00     0.148 A 
ATOM     72  C   UNL A   1      40.215  33.748  40.641  1.00  0.00     0.002 A 
ATOM     73  C   UNL A   1      41.883  35.257  39.744  1.00  0.00     0.091 A 
ATOM     74  F   UNL A   1      42.557  35.034  37.466  1.00  0.00    -0.205 F 
ATOM     75  C   UNL A   1      41.073  34.830  40.807  1.00  0.00     0.022 A 
BRANCH  73  76
ATOM     76  S   UNL A   1      43.023  36.604  40.102  1.00  0.00     0.127 S 
ATOM     77  O   UNL A   1      42.529  37.655  39.213  1.00  0.00    -0.237 OA
ATOM     78  O   UNL A   1      42.776  36.847  41.524  1.00  0.00    -0.237 OA
ATOM     79  O   UNL A   1      44.353  36.099  39.793  1.00  0.00    -0.744 OA
ENDBRANCH  73  76
ENDBRANCH  55  69
BRANCH  56  80
ATOM     80  C   UNL A   1      41.158  29.018  29.285  1.00  0.00     0.023 A 
ATOM     81  C   UNL A   1      41.948  29.619  28.286  1.00  0.00     0.012 A 
ATOM     82  C   UNL A   1      40.563  27.768  29.027  1.00  0.00     0.148 A 
ATOM     83  C   UNL A   1      42.140  28.989  27.055  1.00  0.00     0.002 A 
ATOM     84  C   UNL A   1      40.813  27.115  27.823  1.00  0.00     0.091 A 
ATOM     85  F   UNL A   1      39.820  27.204  29.991  1.00  0.00    -0.205 F 
ATOM     86  C   UNL A   1      41.590  27.731  26.831  1.00  0.00     0.022 A 
BRANCH  84  87
ATOM     87  S   UNL A   1      40.304  25.411  27.554  1.00  0.00     0.127 S 
ATOM     88  O   UNL A   1      38.906  25.445  27.974  1.00  0.00    -0.237 OA
ATOM     89  O   UNL A   1      40.511  25.245  26.114  1.00  0.00    -0.237 OA
ATOM     90  O   UNL A   1      41.205  24.613  28.375  1.00  0.00    -0.744 OA
ENDBRANCH  84  87
ENDBRANCH  56  80
BRANCH  68  91
ATOM     91  C   UNL A   1      44.717  28.153  35.242  1.00  0.00     0.023 A 
ATOM     92  C   UNL A   1      46.051  28.550  35.024  1.00  0.00     0.012 A 
ATOM     93  C   UNL A   1      44.443  26.906  35.829  1.00  0.00     0.148 A 
ATOM     94  C   UNL A   1      47.100  27.697  35.350  1.00  0.00     0.002 A 
ATOM     95  C   UNL A   1      45.496  26.080  36.194  1.00  0.00     0.091 A 
ATOM     96  F   UNL A   1      43.163  26.545  36.000  1.00  0.00    -0.205 F 
ATOM     97  C   UNL A   1      46.823  26.467  35.943  1.00  0.00     0.022 A 
BRANCH  95  98
ATOM     98  S   UNL A   1      45.233  24.519  37.036  1.00  0.00     0.127 S 
ATOM     99  O   UNL A   1      46.606  24.064  37.256  1.00  0.00    -0.237 OA
ATOM    100  O   UNL A   1      44.526  24.934  38.249  1.00  0.00    -0.237 OA
ATOM    101  O   UNL A   1      44.440  23.702  36.127  1.00  0.00    -0.744 OA
ENDBRANCH  95  98
ENDBRANCH  68  91
ENDBRANCH  42  43
ENDBRANCH  35  37
ENDBRANCH  34  35
ENDBRANCH  33  34
ENDBRANCH  32  33
ENDBRANCH  31  32
ENDBRANCH   1  31
TORSDOF 22
ENDMDL
