MODEL 1
REMARK VINA RESULT:     -10.9      0.000      0.000
REMARK SMILES Cc1ccc(-c2cnnc(-n3nc(C)c4c3NC(=O)C[C@@H]4c3ccc(C(=O)OCCOCCOCCOC(=O)c4ccc(-c5c6nc(c(-c7cccc(S(=O)(=O)[O-])c7F)c7ccc([nH]7)c(-c7cccc(S(=O)(=O)[O-])c7F)c7nc(c(-c8cccc(S(=O)(=O)[O-])c8F)c8ccc5[nH]8)C=C7)C=C6)cc4)cc3)n2)cc1
REMARK SMILES IDX 32 1 31 2 30 3 29 4 28 5 26 6 27 7 25 8 22 9 23 10 104 11
REMARK SMILES IDX 24 12 103 13 21 14 11 15 12 16 16 17 13 18 15 19 17 20 14 21
REMARK SMILES IDX 18 22 20 24 19 25 10 26 6 27 7 28 105 29 8 30 9 31 5 32 1 33
REMARK SMILES IDX 2 34 3 35 107 36 4 37 106 38 33 39 34 40 35 41 36 42 37 43
REMARK SMILES IDX 38 44 39 45 40 46 41 47 102 48 42 49 101 50 43 51 44 52
REMARK SMILES IDX 45 53 95 54 46 55 100 56 94 57 96 58 47 59 99 60 93 61 92 62
REMARK SMILES IDX 48 64 80 65 60 66 79 67 61 68 64 69 78 70 97 71 62 72 63 73
REMARK SMILES IDX 77 75 98 76 65 77 49 78 50 79 58 80 51 81 53 82 59 83 52 84
REMARK SMILES IDX 54 85 55 86 56 87 57 88 81 89 82 90 90 91 83 92 85 93 91 94
REMARK SMILES IDX 84 95 86 96 87 97 88 98 89 99 66 100 67 101 75 102 68 103
REMARK SMILES IDX 70 104 76 105 69 106 71 107 72 108 73 109 74 110
REMARK H PARENT 17 23 96 63 64 74
REMARK Flexibility Score: inf
ROOT
ATOM      1  C   UNL A   1      49.009  35.840  28.265  1.00  0.00     0.188 C 
ENDROOT
BRANCH   1   2
ATOM      2  O   UNL A   1      47.967  36.831  28.224  1.00  0.00    -0.376 OA
BRANCH   2   3
ATOM      3  C   UNL A   1      46.597  36.538  28.593  1.00  0.00     0.202 C 
BRANCH   3   4
ATOM      4  C   UNL A   1      45.309  37.044  27.743  1.00  0.00     0.261 C 
BRANCH   4   5
ATOM      5  O   UNL A   1      44.327  38.125  28.304  1.00  0.00    -0.460 OA
BRANCH   5   6
ATOM      6  C   UNL A   1      44.882  39.359  28.138  1.00  0.00     0.338 C 
ATOM      7  O   UNL A   1      45.378  39.659  29.213  1.00  0.00    -0.246 OA
BRANCH   6   8
ATOM      8  C   UNL A   1      44.837  40.587  26.862  1.00  0.00     0.060 A 
ATOM      9  C   UNL A   1      44.993  43.009  25.171  1.00  0.00    -0.040 A 
ATOM     10  C   UNL A   1      44.527  43.143  26.419  1.00  0.00     0.005 A 
ATOM     11  C   UNL A   1      45.489  41.709  24.793  1.00  0.00     0.005 A 
ATOM     12  C   UNL A   1      44.437  41.980  27.140  1.00  0.00     0.016 A 
ATOM     13  C   UNL A   1      45.396  40.511  25.611  1.00  0.00     0.016 A 
BRANCH   9  14
ATOM     14  C   UNL A   1      44.627  44.225  24.350  1.00  0.00     0.064 C 
ATOM     15  N   UNL A   1      43.924  43.047  21.072  1.00  0.00    -0.180 N 
ATOM     16  N   UNL A   1      43.148  42.148  21.738  1.00  0.00    -0.168 NA
ATOM     17  C   UNL A   1      44.812  43.637  21.955  1.00  0.00     0.143 A 
ATOM     18  C   UNL A   1      43.056  42.682  22.958  1.00  0.00     0.066 A 
ATOM     19  C   UNL A   1      44.112  43.619  23.131  1.00  0.00     0.026 A 
ATOM     20  N   UNL A   1      46.100  44.149  21.908  1.00  0.00    -0.310 N 
ATOM     21  C   UNL A   1      42.110  42.106  23.953  1.00  0.00     0.069 C 
ATOM     22  C   UNL A   1      46.659  44.787  23.080  1.00  0.00     0.226 C 
ATOM     23  H   UNL A   1      46.631  44.078  21.081  1.00  0.00     0.171 HD
ATOM     24  C   UNL A   1      45.707  45.267  24.130  1.00  0.00     0.113 C 
ATOM     25  O   UNL A   1      47.863  45.015  23.050  1.00  0.00    -0.275 OA
BRANCH  15  26
ATOM     26  C   UNL A   1      43.385  43.671  19.923  1.00  0.00     0.272 A 
ATOM     27  C   UNL A   1      42.965  45.456  18.612  1.00  0.00     0.095 A 
ATOM     28  C   UNL A   1      42.020  44.714  17.922  1.00  0.00     0.164 A 
ATOM     29  N   UNL A   1      43.633  44.968  19.683  1.00  0.00    -0.208 NA
ATOM     30  N   UNL A   1      41.775  43.440  18.235  1.00  0.00    -0.153 NA
ATOM     31  N   UNL A   1      42.506  42.903  19.220  1.00  0.00    -0.109 NA
BRANCH  27  32
ATOM     32  C   UNL A   1      43.404  46.760  18.126  1.00  0.00     0.002 A 
ATOM     33  C   UNL A   1      44.944  50.507  16.657  1.00  0.00     0.044 C 
ATOM     34  C   UNL A   1      44.422  49.202  17.170  1.00  0.00    -0.051 A 
ATOM     35  C   UNL A   1      43.529  48.454  16.394  1.00  0.00     0.004 A 
ATOM     36  C   UNL A   1      44.803  48.728  18.427  1.00  0.00     0.004 A 
ATOM     37  C   UNL A   1      43.024  47.244  16.868  1.00  0.00     0.011 A 
ATOM     38  C   UNL A   1      44.296  47.522  18.899  1.00  0.00     0.011 A 
ENDBRANCH  27  32
ENDBRANCH  15  26
ENDBRANCH   9  14
ENDBRANCH   6   8
ENDBRANCH   5   6
ENDBRANCH   4   5
ENDBRANCH   3   4
ENDBRANCH   2   3
ENDBRANCH   1   2
BRANCH   1  39
ATOM     39  C   UNL A   1      49.674  35.447  29.585  1.00  0.00     0.188 C 
BRANCH  39  40
ATOM     40  O   UNL A   1      48.968  34.363  30.174  1.00  0.00    -0.376 OA
BRANCH  40  41
ATOM     41  C   UNL A   1      48.897  34.374  31.587  1.00  0.00     0.202 C 
BRANCH  41  42
ATOM     42  C   UNL A   1      47.458  34.359  32.137  1.00  0.00     0.261 C 
BRANCH  42  43
ATOM     43  O   UNL A   1      47.437  33.956  33.529  1.00  0.00    -0.460 OA
BRANCH  43  44
ATOM     44  C   UNL A   1      46.998  34.858  34.479  1.00  0.00     0.338 C 
ATOM     45  O   UNL A   1      47.711  35.690  35.008  1.00  0.00    -0.246 OA
BRANCH  44  46
ATOM     46  C   UNL A   1      45.596  34.481  34.920  1.00  0.00     0.060 A 
ATOM     47  C   UNL A   1      45.210  33.275  35.538  1.00  0.00     0.016 A 
ATOM     48  C   UNL A   1      44.626  35.085  34.215  1.00  0.00     0.016 A 
ATOM     49  C   UNL A   1      43.987  32.550  35.154  1.00  0.00     0.010 A 
ATOM     50  C   UNL A   1      43.792  34.158  33.606  1.00  0.00     0.010 A 
ATOM     51  C   UNL A   1      43.257  32.886  34.018  1.00  0.00    -0.014 A 
BRANCH  51  52
ATOM     52  C   UNL A   1      42.107  31.870  33.151  1.00  0.00     0.031 A 
ATOM     53  C   UNL A   1      41.979  31.206  31.461  1.00  0.00     0.074 A 
ATOM     54  C   UNL A   1      41.230  31.207  33.928  1.00  0.00     0.049 A 
ATOM     55  N   UNL A   1      40.824  30.936  30.871  1.00  0.00    -0.248 NA
ATOM     56  C   UNL A   1      42.978  31.122  30.266  1.00  0.00     0.031 C 
ATOM     57  C   UNL A   1      40.525  29.987  33.560  1.00  0.00     0.029 A 
ATOM     58  N   UNL A   1      40.756  31.481  35.201  1.00  0.00    -0.354 N 
ATOM     59  C   UNL A   1      41.153  30.481  29.568  1.00  0.00     0.074 A 
ATOM     60  C   UNL A   1      42.264  31.204  29.156  1.00  0.00     0.031 C 
ATOM     61  C   UNL A   1      39.522  29.803  34.424  1.00  0.00     0.029 A 
ATOM     62  C   UNL A   1      39.444  31.002  35.225  1.00  0.00     0.049 A 
ATOM     63  H   UNL A   1      41.241  31.922  35.935  1.00  0.00     0.167 HD
ATOM     64  C   UNL A   1      40.826  29.250  29.075  1.00  0.00     0.034 A 
ATOM     65  C   UNL A   1      38.361  31.827  35.333  1.00  0.00     0.034 A 
ATOM     66  C   UNL A   1      39.681  28.796  29.816  1.00  0.00     0.049 A 
ATOM     67  C   UNL A   1      37.401  31.690  34.144  1.00  0.00     0.074 A 
ATOM     68  C   UNL A   1      39.385  27.821  30.738  1.00  0.00     0.029 A 
ATOM     69  N   UNL A   1      38.654  29.707  29.867  1.00  0.00    -0.354 N 
ATOM     70  N   UNL A   1      37.461  30.760  33.220  1.00  0.00    -0.248 NA
ATOM     71  C   UNL A   1      36.313  32.624  33.873  1.00  0.00     0.031 C 
ATOM     72  C   UNL A   1      38.172  28.227  31.397  1.00  0.00     0.029 A 
ATOM     73  C   UNL A   1      37.720  29.404  30.819  1.00  0.00     0.049 A 
ATOM     74  H   UNL A   1      38.595  30.494  29.280  1.00  0.00     0.167 HD
ATOM     75  C   UNL A   1      36.613  31.053  32.170  1.00  0.00     0.074 A 
ATOM     76  C   UNL A   1      35.875  32.206  32.670  1.00  0.00     0.031 C 
ATOM     77  C   UNL A   1      36.647  30.385  30.960  1.00  0.00     0.034 A 
BRANCH  64  78
ATOM     78  C   UNL A   1      41.579  28.438  27.976  1.00  0.00     0.023 A 
ATOM     79  C   UNL A   1      41.461  28.939  26.663  1.00  0.00     0.012 A 
ATOM     80  C   UNL A   1      42.317  27.205  28.076  1.00  0.00     0.148 A 
ATOM     81  C   UNL A   1      42.006  28.287  25.541  1.00  0.00     0.002 A 
ATOM     82  C   UNL A   1      42.921  26.590  26.961  1.00  0.00     0.091 A 
ATOM     83  F   UNL A   1      42.386  26.538  29.232  1.00  0.00    -0.205 F 
ATOM     84  C   UNL A   1      42.748  27.124  25.687  1.00  0.00     0.022 A 
BRANCH  82  85
ATOM     85  S   UNL A   1      43.934  25.085  27.060  1.00  0.00     0.127 S 
ATOM     86  O   UNL A   1      43.618  24.586  28.399  1.00  0.00    -0.237 OA
ATOM     87  O   UNL A   1      43.398  24.269  25.970  1.00  0.00    -0.237 OA
ATOM     88  O   UNL A   1      45.318  25.507  26.877  1.00  0.00    -0.744 OA
ENDBRANCH  82  85
ENDBRANCH  64  78
BRANCH  65  89
ATOM     89  C   UNL A   1      38.669  32.999  36.231  1.00  0.00     0.023 A 
ATOM     90  C   UNL A   1      38.523  32.711  37.618  1.00  0.00     0.012 A 
ATOM     91  C   UNL A   1      39.506  34.075  35.870  1.00  0.00     0.148 A 
ATOM     92  C   UNL A   1      39.350  33.299  38.578  1.00  0.00     0.002 A 
ATOM     93  C   UNL A   1      40.278  34.719  36.854  1.00  0.00     0.091 A 
ATOM     94  F   UNL A   1      39.624  34.396  34.575  1.00  0.00    -0.205 F 
ATOM     95  C   UNL A   1      40.254  34.277  38.190  1.00  0.00     0.022 A 
BRANCH  93  96
ATOM     96  S   UNL A   1      41.466  36.020  36.436  1.00  0.00     0.127 S 
ATOM     97  O   UNL A   1      41.018  37.116  37.287  1.00  0.00    -0.237 OA
ATOM     98  O   UNL A   1      42.749  35.433  36.825  1.00  0.00    -0.237 OA
ATOM     99  O   UNL A   1      41.319  36.210  34.999  1.00  0.00    -0.744 OA
ENDBRANCH  93  96
ENDBRANCH  65  89
BRANCH  77 100
ATOM    100  C   UNL A   1      35.824  30.729  29.684  1.00  0.00     0.023 A 
ATOM    101  C   UNL A   1      35.575  29.777  28.688  1.00  0.00     0.012 A 
ATOM    102  C   UNL A   1      35.285  32.031  29.411  1.00  0.00     0.148 A 
ATOM    103  C   UNL A   1      34.729  30.038  27.596  1.00  0.00     0.002 A 
ATOM    104  C   UNL A   1      34.403  32.278  28.362  1.00  0.00     0.091 A 
ATOM    105  F   UNL A   1      35.688  33.102  30.105  1.00  0.00    -0.205 F 
ATOM    106  C   UNL A   1      34.107  31.271  27.454  1.00  0.00     0.022 A 
BRANCH 104 107
ATOM    107  S   UNL A   1      33.590  33.876  28.166  1.00  0.00     0.127 S 
ATOM    108  O   UNL A   1      32.370  33.505  27.453  1.00  0.00    -0.237 OA
ATOM    109  O   UNL A   1      33.385  34.291  29.555  1.00  0.00    -0.237 OA
ATOM    110  O   UNL A   1      34.538  34.705  27.432  1.00  0.00    -0.744 OA
ENDBRANCH 104 107
ENDBRANCH  77 100
ENDBRANCH  51  52
ENDBRANCH  44  46
ENDBRANCH  43  44
ENDBRANCH  42  43
ENDBRANCH  41  42
ENDBRANCH  40  41
ENDBRANCH  39  40
ENDBRANCH   1  39
TORSDOF 23
ENDMDL
MODEL 2
REMARK VINA RESULT:     -10.7      7.374     14.656
REMARK SMILES Cc1ccc(-c2cnnc(-n3nc(C)c4c3NC(=O)C[C@@H]4c3ccc(C(=O)OCCOCCOCCOC(=O)c4ccc(-c5c6nc(c(-c7cccc(S(=O)(=O)[O-])c7F)c7ccc([nH]7)c(-c7cccc(S(=O)(=O)[O-])c7F)c7nc(c(-c8cccc(S(=O)(=O)[O-])c8F)c8ccc5[nH]8)C=C7)C=C6)cc4)cc3)n2)cc1
REMARK SMILES IDX 32 1 31 2 30 3 29 4 28 5 26 6 27 7 25 8 22 9 23 10 104 11
REMARK SMILES IDX 24 12 103 13 21 14 11 15 12 16 16 17 13 18 15 19 17 20 14 21
REMARK SMILES IDX 18 22 20 24 19 25 10 26 6 27 7 28 105 29 8 30 9 31 5 32 1 33
REMARK SMILES IDX 2 34 3 35 107 36 4 37 106 38 33 39 34 40 35 41 36 42 37 43
REMARK SMILES IDX 38 44 39 45 40 46 41 47 102 48 42 49 101 50 43 51 44 52
REMARK SMILES IDX 45 53 95 54 46 55 100 56 94 57 96 58 47 59 99 60 93 61 92 62
REMARK SMILES IDX 48 64 80 65 60 66 79 67 61 68 64 69 78 70 97 71 62 72 63 73
REMARK SMILES IDX 77 75 98 76 65 77 49 78 50 79 58 80 51 81 53 82 59 83 52 84
REMARK SMILES IDX 54 85 55 86 56 87 57 88 81 89 82 90 90 91 83 92 85 93 91 94
REMARK SMILES IDX 84 95 86 96 87 97 88 98 89 99 66 100 67 101 75 102 68 103
REMARK SMILES IDX 70 104 76 105 69 106 71 107 72 108 73 109 74 110
REMARK H PARENT 17 23 96 63 64 74
REMARK Flexibility Score: inf
ROOT
ATOM      1  C   UNL A   1      34.356  34.266  33.358  1.00  0.00     0.188 C 
ENDROOT
BRANCH   1   2
ATOM      2  O   UNL A   1      34.500  35.008  32.134  1.00  0.00    -0.376 OA
BRANCH   2   3
ATOM      3  C   UNL A   1      33.929  34.560  30.879  1.00  0.00     0.202 C 
BRANCH   3   4
ATOM      4  C   UNL A   1      34.744  33.681  29.783  1.00  0.00     0.261 C 
BRANCH   4   5
ATOM      5  O   UNL A   1      35.697  32.515  30.208  1.00  0.00    -0.460 OA
BRANCH   5   6
ATOM      6  C   UNL A   1      36.391  32.087  29.116  1.00  0.00     0.338 C 
ATOM      7  O   UNL A   1      36.041  32.799  28.188  1.00  0.00    -0.246 OA
BRANCH   6   8
ATOM      8  C   UNL A   1      37.430  30.697  28.763  1.00  0.00     0.060 A 
ATOM      9  C   UNL A   1      38.914  28.138  28.688  1.00  0.00    -0.040 A 
ATOM     10  C   UNL A   1      38.792  28.760  29.868  1.00  0.00     0.005 A 
ATOM     11  C   UNL A   1      38.210  28.715  27.569  1.00  0.00     0.005 A 
ATOM     12  C   UNL A   1      38.132  29.962  29.833  1.00  0.00     0.016 A 
ATOM     13  C   UNL A   1      37.498  29.981  27.594  1.00  0.00     0.016 A 
BRANCH   9  14
ATOM     14  C   UNL A   1      40.012  27.102  28.762  1.00  0.00     0.064 C 
ATOM     15  N   UNL A   1      42.023  27.564  25.868  1.00  0.00    -0.180 N 
ATOM     16  N   UNL A   1      41.995  28.869  26.257  1.00  0.00    -0.168 NA
ATOM     17  C   UNL A   1      41.018  26.865  26.515  1.00  0.00     0.143 A 
ATOM     18  C   UNL A   1      41.550  28.794  27.513  1.00  0.00     0.066 A 
ATOM     19  C   UNL A   1      40.907  27.539  27.701  1.00  0.00     0.026 A 
ATOM     20  N   UNL A   1      40.191  25.787  26.235  1.00  0.00    -0.310 N 
ATOM     21  C   UNL A   1      41.568  30.004  28.382  1.00  0.00     0.069 C 
ATOM     22  C   UNL A   1      39.296  25.290  27.258  1.00  0.00     0.226 C 
ATOM     23  H   UNL A   1      40.212  25.363  25.347  1.00  0.00     0.171 HD
ATOM     24  C   UNL A   1      39.599  25.644  28.680  1.00  0.00     0.113 C 
ATOM     25  O   UNL A   1      38.441  24.492  26.888  1.00  0.00    -0.275 OA
BRANCH  15  26
ATOM     26  C   UNL A   1      43.263  27.016  25.464  1.00  0.00     0.272 A 
ATOM     27  C   UNL A   1      44.741  25.328  25.242  1.00  0.00     0.095 A 
ATOM     28  C   UNL A   1      45.738  26.251  24.974  1.00  0.00     0.164 A 
ATOM     29  N   UNL A   1      43.477  25.695  25.560  1.00  0.00    -0.208 NA
ATOM     30  N   UNL A   1      45.481  27.561  24.940  1.00  0.00    -0.153 NA
ATOM     31  N   UNL A   1      44.213  27.938  25.142  1.00  0.00    -0.109 NA
BRANCH  27  32
ATOM     32  C   UNL A   1      44.961  23.900  25.045  1.00  0.00     0.002 A 
ATOM     33  C   UNL A   1      45.563  19.715  24.206  1.00  0.00     0.044 C 
ATOM     34  C   UNL A   1      45.347  21.169  24.486  1.00  0.00    -0.051 A 
ATOM     35  C   UNL A   1      46.432  21.982  24.836  1.00  0.00     0.004 A 
ATOM     36  C   UNL A   1      44.068  21.725  24.419  1.00  0.00     0.004 A 
ATOM     37  C   UNL A   1      46.241  23.334  25.114  1.00  0.00     0.011 A 
ATOM     38  C   UNL A   1      43.878  23.074  24.699  1.00  0.00     0.011 A 
ENDBRANCH  27  32
ENDBRANCH  15  26
ENDBRANCH   9  14
ENDBRANCH   6   8
ENDBRANCH   5   6
ENDBRANCH   4   5
ENDBRANCH   3   4
ENDBRANCH   2   3
ENDBRANCH   1   2
BRANCH   1  39
ATOM     39  C   UNL A   1      35.260  33.073  33.671  1.00  0.00     0.188 C 
BRANCH  39  40
ATOM     40  O   UNL A   1      36.064  33.364  34.805  1.00  0.00    -0.376 OA
BRANCH  40  41
ATOM     41  C   UNL A   1      37.426  32.996  34.701  1.00  0.00     0.202 C 
BRANCH  41  42
ATOM     42  C   UNL A   1      37.650  31.481  34.530  1.00  0.00     0.261 C 
BRANCH  42  43
ATOM     43  O   UNL A   1      38.109  31.170  33.191  1.00  0.00    -0.460 OA
BRANCH  43  44
ATOM     44  C   UNL A   1      39.143  31.909  32.651  1.00  0.00     0.338 C 
ATOM     45  O   UNL A   1      39.002  32.735  31.767  1.00  0.00    -0.246 OA
BRANCH  44  46
ATOM     46  C   UNL A   1      40.467  31.357  33.147  1.00  0.00     0.060 A 
ATOM     47  C   UNL A   1      41.525  32.099  33.707  1.00  0.00     0.016 A 
ATOM     48  C   UNL A   1      40.840  30.220  32.540  1.00  0.00     0.016 A 
ATOM     49  C   UNL A   1      42.933  31.857  33.348  1.00  0.00     0.010 A 
ATOM     50  C   UNL A   1      42.074  30.358  31.921  1.00  0.00     0.010 A 
ATOM     51  C   UNL A   1      43.291  31.039  32.281  1.00  0.00    -0.014 A 
BRANCH  51  52
ATOM     52  C   UNL A   1      44.828  31.026  31.418  1.00  0.00     0.031 A 
ATOM     53  C   UNL A   1      45.463  31.778  29.887  1.00  0.00     0.074 A 
ATOM     54  C   UNL A   1      45.878  30.571  32.127  1.00  0.00     0.049 A 
ATOM     55  N   UNL A   1      46.421  31.233  29.152  1.00  0.00    -0.248 NA
ATOM     56  C   UNL A   1      44.921  32.889  28.935  1.00  0.00     0.031 C 
ATOM     57  C   UNL A   1      47.276  30.884  31.866  1.00  0.00     0.029 A 
ATOM     58  N   UNL A   1      45.937  29.716  33.216  1.00  0.00    -0.354 N 
ATOM     59  C   UNL A   1      46.595  32.097  28.040  1.00  0.00     0.074 A 
ATOM     60  C   UNL A   1      45.340  32.596  27.716  1.00  0.00     0.031 C 
ATOM     61  C   UNL A   1      48.036  30.020  32.547  1.00  0.00     0.029 A 
ATOM     62  C   UNL A   1      47.141  29.021  33.083  1.00  0.00     0.049 A 
ATOM     63  H   UNL A   1      45.270  29.618  33.933  1.00  0.00     0.167 HD
ATOM     64  C   UNL A   1      47.764  32.733  27.732  1.00  0.00     0.034 A 
ATOM     65  C   UNL A   1      47.193  27.680  32.833  1.00  0.00     0.034 A 
ATOM     66  C   UNL A   1      48.825  31.959  28.317  1.00  0.00     0.049 A 
ATOM     67  C   UNL A   1      47.939  27.356  31.532  1.00  0.00     0.074 A 
ATOM     68  C   UNL A   1      49.742  32.091  29.332  1.00  0.00     0.029 A 
ATOM     69  N   UNL A   1      48.776  30.622  28.006  1.00  0.00    -0.354 N 
ATOM     70  N   UNL A   1      48.641  28.210  30.824  1.00  0.00    -0.248 NA
ATOM     71  C   UNL A   1      47.919  26.043  30.894  1.00  0.00     0.031 C 
ATOM     72  C   UNL A   1      50.185  30.764  29.666  1.00  0.00     0.029 A 
ATOM     73  C   UNL A   1      49.580  29.859  28.807  1.00  0.00     0.049 A 
ATOM     74  H   UNL A   1      48.221  30.252  27.283  1.00  0.00     0.167 HD
ATOM     75  C   UNL A   1      48.981  27.672  29.598  1.00  0.00     0.074 A 
ATOM     76  C   UNL A   1      48.550  26.286  29.730  1.00  0.00     0.031 C 
ATOM     77  C   UNL A   1      49.504  28.421  28.561  1.00  0.00     0.034 A 
BRANCH  64  78
ATOM     78  C   UNL A   1      47.937  34.079  26.963  1.00  0.00     0.023 A 
ATOM     79  C   UNL A   1      48.833  34.045  25.874  1.00  0.00     0.012 A 
ATOM     80  C   UNL A   1      47.384  35.381  27.235  1.00  0.00     0.148 A 
ATOM     81  C   UNL A   1      49.172  35.185  25.122  1.00  0.00     0.002 A 
ATOM     82  C   UNL A   1      47.671  36.507  26.438  1.00  0.00     0.091 A 
ATOM     83  F   UNL A   1      46.637  35.595  28.321  1.00  0.00    -0.205 F 
ATOM     84  C   UNL A   1      48.583  36.412  25.390  1.00  0.00     0.022 A 
BRANCH  82  85
ATOM     85  S   UNL A   1      46.925  38.144  26.694  1.00  0.00     0.127 S 
ATOM     86  O   UNL A   1      47.366  38.876  25.505  1.00  0.00    -0.237 OA
ATOM     87  O   UNL A   1      45.494  37.842  26.719  1.00  0.00    -0.237 OA
ATOM     88  O   UNL A   1      47.460  38.649  27.954  1.00  0.00    -0.744 OA
ENDBRANCH  82  85
ENDBRANCH  64  78
BRANCH  65  89
ATOM     89  C   UNL A   1      46.071  26.960  33.540  1.00  0.00     0.023 A 
ATOM     90  C   UNL A   1      44.890  26.832  32.755  1.00  0.00     0.012 A 
ATOM     91  C   UNL A   1      46.259  26.044  34.595  1.00  0.00     0.148 A 
ATOM     92  C   UNL A   1      44.062  25.711  32.856  1.00  0.00     0.002 A 
ATOM     93  C   UNL A   1      45.375  24.959  34.742  1.00  0.00     0.091 A 
ATOM     94  F   UNL A   1      47.339  26.171  35.378  1.00  0.00    -0.205 F 
ATOM     95  C   UNL A   1      44.328  24.755  33.826  1.00  0.00     0.022 A 
BRANCH  93  96
ATOM     96  S   UNL A   1      45.635  23.680  35.996  1.00  0.00     0.127 S 
ATOM     97  O   UNL A   1      46.968  23.197  35.656  1.00  0.00    -0.237 OA
ATOM     98  O   UNL A   1      45.561  24.428  37.252  1.00  0.00    -0.237 OA
ATOM     99  O   UNL A   1      44.535  22.743  35.806  1.00  0.00    -0.744 OA
ENDBRANCH  93  96
ENDBRANCH  65  89
BRANCH  77 100
ATOM    100  C   UNL A   1      49.795  27.930  27.113  1.00  0.00     0.023 A 
ATOM    101  C   UNL A   1      49.074  26.880  26.531  1.00  0.00     0.012 A 
ATOM    102  C   UNL A   1      50.825  28.480  26.277  1.00  0.00     0.148 A 
ATOM    103  C   UNL A   1      49.240  26.511  25.184  1.00  0.00     0.002 A 
ATOM    104  C   UNL A   1      50.954  28.157  24.929  1.00  0.00     0.091 A 
ATOM    105  F   UNL A   1      51.778  29.266  26.789  1.00  0.00    -0.205 F 
ATOM    106  C   UNL A   1      50.146  27.177  24.369  1.00  0.00     0.022 A 
BRANCH 104 107
ATOM    107  S   UNL A   1      52.129  29.013  23.860  1.00  0.00     0.127 S 
ATOM    108  O   UNL A   1      53.409  28.556  24.396  1.00  0.00    -0.237 OA
ATOM    109  O   UNL A   1      51.791  28.477  22.540  1.00  0.00    -0.237 OA
ATOM    110  O   UNL A   1      51.833  30.431  24.019  1.00  0.00    -0.744 OA
ENDBRANCH 104 107
ENDBRANCH  77 100
ENDBRANCH  51  52
ENDBRANCH  44  46
ENDBRANCH  43  44
ENDBRANCH  42  43
ENDBRANCH  41  42
ENDBRANCH  40  41
ENDBRANCH  39  40
ENDBRANCH   1  39
TORSDOF 23
ENDMDL
MODEL 3
REMARK VINA RESULT:     -10.1     10.036     19.236
REMARK SMILES Cc1ccc(-c2cnnc(-n3nc(C)c4c3NC(=O)C[C@@H]4c3ccc(C(=O)OCCOCCOCCOC(=O)c4ccc(-c5c6nc(c(-c7cccc(S(=O)(=O)[O-])c7F)c7ccc([nH]7)c(-c7cccc(S(=O)(=O)[O-])c7F)c7nc(c(-c8cccc(S(=O)(=O)[O-])c8F)c8ccc5[nH]8)C=C7)C=C6)cc4)cc3)n2)cc1
REMARK SMILES IDX 32 1 31 2 30 3 29 4 28 5 26 6 27 7 25 8 22 9 23 10 104 11
REMARK SMILES IDX 24 12 103 13 21 14 11 15 12 16 16 17 13 18 15 19 17 20 14 21
REMARK SMILES IDX 18 22 20 24 19 25 10 26 6 27 7 28 105 29 8 30 9 31 5 32 1 33
REMARK SMILES IDX 2 34 3 35 107 36 4 37 106 38 33 39 34 40 35 41 36 42 37 43
REMARK SMILES IDX 38 44 39 45 40 46 41 47 102 48 42 49 101 50 43 51 44 52
REMARK SMILES IDX 45 53 95 54 46 55 100 56 94 57 96 58 47 59 99 60 93 61 92 62
REMARK SMILES IDX 48 64 80 65 60 66 79 67 61 68 64 69 78 70 97 71 62 72 63 73
REMARK SMILES IDX 77 75 98 76 65 77 49 78 50 79 58 80 51 81 53 82 59 83 52 84
REMARK SMILES IDX 54 85 55 86 56 87 57 88 81 89 82 90 90 91 83 92 85 93 91 94
REMARK SMILES IDX 84 95 86 96 87 97 88 98 89 99 66 100 67 101 75 102 68 103
REMARK SMILES IDX 70 104 76 105 69 106 71 107 72 108 73 109 74 110
REMARK H PARENT 17 23 96 63 64 74
REMARK Flexibility Score: inf
ROOT
ATOM      1  C   UNL A   1      51.695  27.913  37.497  1.00  0.00     0.188 C 
ENDROOT
BRANCH   1   2
ATOM      2  O   UNL A   1      52.487  26.746  37.779  1.00  0.00    -0.376 OA
BRANCH   2   3
ATOM      3  C   UNL A   1      53.319  26.108  36.779  1.00  0.00     0.202 C 
BRANCH   3   4
ATOM      4  C   UNL A   1      52.778  25.653  35.317  1.00  0.00     0.261 C 
BRANCH   4   5
ATOM      5  O   UNL A   1      52.777  24.152  34.871  1.00  0.00    -0.460 OA
BRANCH   5   6
ATOM      6  C   UNL A   1      51.537  23.826  34.409  1.00  0.00     0.338 C 
ATOM      7  O   UNL A   1      51.392  24.432  33.359  1.00  0.00    -0.246 OA
BRANCH   6   8
ATOM      8  C   UNL A   1      50.145  22.957  35.076  1.00  0.00     0.060 A 
ATOM      9  C   UNL A   1      47.513  21.773  35.725  1.00  0.00    -0.040 A 
ATOM     10  C   UNL A   1      47.554  23.069  35.388  1.00  0.00     0.005 A 
ATOM     11  C   UNL A   1      48.747  21.033  35.631  1.00  0.00     0.005 A 
ATOM     12  C   UNL A   1      48.806  23.572  35.141  1.00  0.00     0.016 A 
ATOM     13  C   UNL A   1      50.047  21.613  35.335  1.00  0.00     0.016 A 
BRANCH   9  14
ATOM     14  C   UNL A   1      46.197  21.456  36.398  1.00  0.00     0.064 C 
ATOM     15  N   UNL A   1      46.981  19.494  39.256  1.00  0.00    -0.180 N 
ATOM     16  N   UNL A   1      47.889  20.483  39.483  1.00  0.00    -0.168 NA
ATOM     17  C   UNL A   1      46.545  19.557  37.943  1.00  0.00     0.143 A 
ATOM     18  C   UNL A   1      47.479  21.456  38.666  1.00  0.00     0.066 A 
ATOM     19  C   UNL A   1      46.638  20.894  37.666  1.00  0.00     0.026 A 
ATOM     20  N   UNL A   1      46.120  18.662  36.972  1.00  0.00    -0.310 N 
ATOM     21  C   UNL A   1      48.089  22.811  38.759  1.00  0.00     0.069 C 
ATOM     22  C   UNL A   1      45.646  19.162  35.700  1.00  0.00     0.226 C 
ATOM     23  H   UNL A   1      46.141  17.694  37.148  1.00  0.00     0.171 HD
ATOM     24  C   UNL A   1      45.213  20.592  35.632  1.00  0.00     0.113 C 
ATOM     25  O   UNL A   1      45.498  18.328  34.812  1.00  0.00    -0.275 OA
BRANCH  15  26
ATOM     26  C   UNL A   1      46.206  19.037  40.347  1.00  0.00     0.272 A 
ATOM     27  C   UNL A   1      44.516  17.860  41.263  1.00  0.00     0.095 A 
ATOM     28  C   UNL A   1      44.669  18.574  42.440  1.00  0.00     0.164 A 
ATOM     29  N   UNL A   1      45.245  18.120  40.153  1.00  0.00    -0.208 NA
ATOM     30  N   UNL A   1      45.611  19.513  42.563  1.00  0.00    -0.153 NA
ATOM     31  N   UNL A   1      46.417  19.708  41.514  1.00  0.00    -0.109 NA
BRANCH  27  32
ATOM     32  C   UNL A   1      43.658  16.681  41.201  1.00  0.00     0.002 A 
ATOM     33  C   UNL A   1      41.333  13.063  40.917  1.00  0.00     0.044 C 
ATOM     34  C   UNL A   1      42.149  14.314  41.007  1.00  0.00    -0.051 A 
ATOM     35  C   UNL A   1      42.534  14.809  42.259  1.00  0.00     0.004 A 
ATOM     36  C   UNL A   1      42.518  15.008  39.852  1.00  0.00     0.004 A 
ATOM     37  C   UNL A   1      43.281  15.982  42.355  1.00  0.00     0.011 A 
ATOM     38  C   UNL A   1      43.262  16.179  39.950  1.00  0.00     0.011 A 
ENDBRANCH  27  32
ENDBRANCH  15  26
ENDBRANCH   9  14
ENDBRANCH   6   8
ENDBRANCH   5   6
ENDBRANCH   4   5
ENDBRANCH   3   4
ENDBRANCH   2   3
ENDBRANCH   1   2
BRANCH   1  39
ATOM     39  C   UNL A   1      52.317  29.311  37.506  1.00  0.00     0.188 C 
BRANCH  39  40
ATOM     40  O   UNL A   1      51.299  30.289  37.345  1.00  0.00    -0.376 OA
BRANCH  40  41
ATOM     41  C   UNL A   1      51.740  31.570  36.935  1.00  0.00     0.202 C 
BRANCH  41  42
ATOM     42  C   UNL A   1      50.833  32.232  35.881  1.00  0.00     0.261 C 
BRANCH  42  43
ATOM     43  O   UNL A   1      50.019  31.245  35.200  1.00  0.00    -0.460 OA
BRANCH  43  44
ATOM     44  C   UNL A   1      50.375  30.850  33.925  1.00  0.00     0.338 C 
ATOM     45  O   UNL A   1      51.040  31.527  33.163  1.00  0.00    -0.246 OA
BRANCH  44  46
ATOM     46  C   UNL A   1      49.614  29.590  33.559  1.00  0.00     0.060 A 
ATOM     47  C   UNL A   1      49.712  28.876  32.349  1.00  0.00     0.016 A 
ATOM     48  C   UNL A   1      48.433  29.469  34.186  1.00  0.00     0.016 A 
ATOM     49  C   UNL A   1      48.529  28.351  31.645  1.00  0.00     0.010 A 
ATOM     50  C   UNL A   1      47.387  29.373  33.280  1.00  0.00     0.010 A 
ATOM     51  C   UNL A   1      47.236  28.713  32.009  1.00  0.00    -0.014 A 
BRANCH  51  52
ATOM     52  C   UNL A   1      45.780  28.599  31.021  1.00  0.00     0.031 A 
ATOM     53  C   UNL A   1      43.995  28.467  31.352  1.00  0.00     0.074 A 
ATOM     54  C   UNL A   1      45.942  28.920  29.724  1.00  0.00     0.049 A 
ATOM     55  N   UNL A   1      43.145  27.866  30.532  1.00  0.00    -0.248 NA
ATOM     56  C   UNL A   1      43.128  28.647  32.637  1.00  0.00     0.031 C 
ATOM     57  C   UNL A   1      44.889  29.371  28.825  1.00  0.00     0.029 A 
ATOM     58  N   UNL A   1      47.067  28.895  28.916  1.00  0.00    -0.354 N 
ATOM     59  C   UNL A   1      41.877  27.945  31.163  1.00  0.00     0.074 A 
ATOM     60  C   UNL A   1      42.097  27.826  32.529  1.00  0.00     0.031 C 
ATOM     61  C   UNL A   1      45.341  29.284  27.569  1.00  0.00     0.029 A 
ATOM     62  C   UNL A   1      46.603  28.586  27.635  1.00  0.00     0.049 A 
ATOM     63  H   UNL A   1      47.999  29.060  29.187  1.00  0.00     0.167 HD
ATOM     64  C   UNL A   1      40.783  28.560  30.624  1.00  0.00     0.034 A 
ATOM     65  C   UNL A   1      46.906  27.412  27.007  1.00  0.00     0.034 A 
ATOM     66  C   UNL A   1      40.970  28.565  29.198  1.00  0.00     0.049 A 
ATOM     67  C   UNL A   1      45.653  26.603  26.644  1.00  0.00     0.074 A 
ATOM     68  C   UNL A   1      41.207  29.485  28.205  1.00  0.00     0.029 A 
ATOM     69  N   UNL A   1      41.277  27.334  28.672  1.00  0.00    -0.354 N 
ATOM     70  N   UNL A   1      44.418  27.041  26.716  1.00  0.00    -0.248 NA
ATOM     71  C   UNL A   1      45.688  25.211  26.208  1.00  0.00     0.031 C 
ATOM     72  C   UNL A   1      41.741  28.757  27.084  1.00  0.00     0.029 A 
ATOM     73  C   UNL A   1      41.757  27.406  27.394  1.00  0.00     0.049 A 
ATOM     74  H   UNL A   1      41.164  26.489  29.164  1.00  0.00     0.167 HD
ATOM     75  C   UNL A   1      43.518  26.005  26.553  1.00  0.00     0.074 A 
ATOM     76  C   UNL A   1      44.380  24.893  26.176  1.00  0.00     0.031 C 
ATOM     77  C   UNL A   1      42.167  26.126  26.820  1.00  0.00     0.034 A 
BRANCH  64  78
ATOM     78  C   UNL A   1      39.589  29.210  31.387  1.00  0.00     0.023 A 
ATOM     79  C   UNL A   1      38.714  28.307  32.027  1.00  0.00     0.012 A 
ATOM     80  C   UNL A   1      39.188  30.590  31.480  1.00  0.00     0.148 A 
ATOM     81  C   UNL A   1      37.541  28.714  32.691  1.00  0.00     0.002 A 
ATOM     82  C   UNL A   1      38.050  31.003  32.203  1.00  0.00     0.091 A 
ATOM     83  F   UNL A   1      39.837  31.540  30.801  1.00  0.00    -0.205 F 
ATOM     84  C   UNL A   1      37.214  30.059  32.794  1.00  0.00     0.022 A 
BRANCH  82  85
ATOM     85  S   UNL A   1      37.562  32.739  32.419  1.00  0.00     0.127 S 
ATOM     86  O   UNL A   1      37.233  33.141  31.049  1.00  0.00    -0.237 OA
ATOM     87  O   UNL A   1      36.406  32.637  33.310  1.00  0.00    -0.237 OA
ATOM     88  O   UNL A   1      38.714  33.423  32.995  1.00  0.00    -0.744 OA
ENDBRANCH  82  85
ENDBRANCH  64  78
BRANCH  65  89
ATOM     89  C   UNL A   1      48.309  26.971  27.343  1.00  0.00     0.023 A 
ATOM     90  C   UNL A   1      48.373  25.690  27.962  1.00  0.00     0.012 A 
ATOM     91  C   UNL A   1      49.465  27.440  26.685  1.00  0.00     0.148 A 
ATOM     92  C   UNL A   1      49.442  24.820  27.733  1.00  0.00     0.002 A 
ATOM     93  C   UNL A   1      50.571  26.586  26.527  1.00  0.00     0.091 A 
ATOM     94  F   UNL A   1      49.446  28.661  26.135  1.00  0.00    -0.205 F 
ATOM     95  C   UNL A   1      50.525  25.256  26.984  1.00  0.00     0.022 A 
BRANCH  93  96
ATOM     96  S   UNL A   1      52.034  27.083  25.583  1.00  0.00     0.127 S 
ATOM     97  O   UNL A   1      52.727  27.941  26.538  1.00  0.00    -0.237 OA
ATOM     98  O   UNL A   1      52.702  25.809  25.313  1.00  0.00    -0.237 OA
ATOM     99  O   UNL A   1      51.504  27.732  24.391  1.00  0.00    -0.744 OA
ENDBRANCH  93  96
ENDBRANCH  65  89
BRANCH  77 100
ATOM    100  C   UNL A   1      41.107  24.987  26.789  1.00  0.00     0.023 A 
ATOM    101  C   UNL A   1      39.746  25.250  26.590  1.00  0.00     0.012 A 
ATOM    102  C   UNL A   1      41.423  23.600  26.986  1.00  0.00     0.148 A 
ATOM    103  C   UNL A   1      38.798  24.223  26.434  1.00  0.00     0.002 A 
ATOM    104  C   UNL A   1      40.499  22.580  26.776  1.00  0.00     0.091 A 
ATOM    105  F   UNL A   1      42.609  23.228  27.480  1.00  0.00    -0.205 F 
ATOM    106  C   UNL A   1      39.178  22.889  26.482  1.00  0.00     0.022 A 
BRANCH 104 107
ATOM    107  S   UNL A   1      40.979  20.841  26.838  1.00  0.00     0.127 S 
ATOM    108  O   UNL A   1      39.940  20.215  26.023  1.00  0.00    -0.237 OA
ATOM    109  O   UNL A   1      42.308  20.867  26.223  1.00  0.00    -0.237 OA
ATOM    110  O   UNL A   1      40.985  20.492  28.253  1.00  0.00    -0.744 OA
ENDBRANCH 104 107
ENDBRANCH  77 100
ENDBRANCH  51  52
ENDBRANCH  44  46
ENDBRANCH  43  44
ENDBRANCH  42  43
ENDBRANCH  41  42
ENDBRANCH  40  41
ENDBRANCH  39  40
ENDBRANCH   1  39
TORSDOF 23
ENDMDL
