MODEL 1
REMARK VINA RESULT:      -9.7      0.000      0.000
REMARK SMILES CCOc1cc(OCC)cc(-c2ccc([C@@H](C)C(=O)OCCOCCOCCOC(=O)c3ccc(-c4c5nc(c(-c6cccc(S(=O)(=O)[O-])c6F)c6ccc([nH]6)c(-c6cccc(S(=O)(=O)[O-])c6F)c6nc(c(-c7cccc(S(=O)(=O)[O-])c7F)c7ccc4[nH]7)C=C6)C=C5)cc3)cc2F)c1
REMARK SMILES IDX 24 1 23 2 22 3 21 4 20 5 18 6 19 7 16 8 17 9 15 10 12 11
REMARK SMILES IDX 13 12 96 13 14 14 95 15 97 16 11 17 4 18 5 19 98 20 6 21
REMARK SMILES IDX 10 22 3 23 2 24 1 25 7 26 8 27 9 28 25 29 26 30 27 31 28 32
REMARK SMILES IDX 29 33 30 34 31 35 32 36 33 37 94 38 34 39 93 40 35 41 36 42
REMARK SMILES IDX 37 43 87 44 38 45 92 46 86 47 88 48 39 49 91 50 85 51 84 52
REMARK SMILES IDX 40 54 72 55 52 56 71 57 53 58 56 59 70 60 89 61 54 62 55 63
REMARK SMILES IDX 69 65 90 66 57 67 41 68 42 69 50 70 43 71 45 72 51 73 44 74
REMARK SMILES IDX 46 75 47 76 48 77 49 78 73 79 74 80 82 81 75 82 77 83 83 84
REMARK SMILES IDX 76 85 78 86 79 87 80 88 81 89 58 90 59 91 67 92 60 93 62 94
REMARK SMILES IDX 68 95 61 96 63 97 64 98 65 99 66 100
REMARK H PARENT 88 53 56 64
REMARK Flexibility Score: inf
ROOT
ATOM      1  C   UNL A   1      39.082  22.201  26.239  1.00  0.00     0.188 C 
ENDROOT
BRANCH   1   2
ATOM      2  O   UNL A   1      37.950  22.460  25.418  1.00  0.00    -0.376 OA
BRANCH   2   3
ATOM      3  C   UNL A   1      37.192  21.365  24.918  1.00  0.00     0.202 C 
BRANCH   3   4
ATOM      4  C   UNL A   1      35.785  21.116  25.488  1.00  0.00     0.261 C 
BRANCH   4   5
ATOM      5  O   UNL A   1      34.701  21.202  24.534  1.00  0.00    -0.463 OA
BRANCH   5   6
ATOM      6  C   UNL A   1      33.576  20.503  24.834  1.00  0.00     0.313 C 
ATOM      7  O   UNL A   1      33.563  19.565  25.629  1.00  0.00    -0.252 OA
BRANCH   6   8
ATOM      8  C   UNL A   1      32.289  20.954  24.135  1.00  0.00     0.126 C 
ATOM      9  C   UNL A   1      32.260  20.338  22.737  1.00  0.00     0.025 C 
BRANCH   8  10
ATOM     10  C   UNL A   1      31.903  22.430  24.055  1.00  0.00    -0.031 A 
ATOM     11  C   UNL A   1      31.242  25.209  23.801  1.00  0.00     0.018 A 
ATOM     12  C   UNL A   1      30.770  24.429  24.876  1.00  0.00     0.012 A 
ATOM     13  C   UNL A   1      32.046  24.565  22.858  1.00  0.00     0.131 A 
ATOM     14  C   UNL A   1      31.105  23.069  25.012  1.00  0.00     0.005 A 
ATOM     15  C   UNL A   1      32.380  23.211  22.981  1.00  0.00     0.044 A 
ATOM     16  F   UNL A   1      32.541  25.246  21.814  1.00  0.00    -0.206 F 
BRANCH  11  17
ATOM     17  C   UNL A   1      30.965  26.659  23.748  1.00  0.00    -0.008 A 
ATOM     18  C   UNL A   1      29.718  28.606  22.983  1.00  0.00     0.123 A 
ATOM     19  C   UNL A   1      30.536  29.444  23.743  1.00  0.00     0.092 A 
ATOM     20  C   UNL A   1      29.939  27.222  22.975  1.00  0.00     0.055 A 
ATOM     21  C   UNL A   1      31.584  28.911  24.491  1.00  0.00     0.123 A 
ATOM     22  C   UNL A   1      31.788  27.531  24.483  1.00  0.00     0.055 A 
BRANCH  18  23
ATOM     23  O   UNL A   1      28.833  29.213  22.133  1.00  0.00    -0.494 OA
BRANCH  23  24
ATOM     24  C   UNL A   1      29.282  30.449  21.568  1.00  0.00     0.226 C 
ATOM     25  C   UNL A   1      28.128  31.283  21.052  1.00  0.00     0.049 C 
ENDBRANCH  23  24
ENDBRANCH  18  23
BRANCH  21  26
ATOM     26  O   UNL A   1      32.336  29.813  25.196  1.00  0.00    -0.494 OA
BRANCH  26  27
ATOM     27  C   UNL A   1      32.131  29.873  26.610  1.00  0.00     0.226 C 
ATOM     28  C   UNL A   1      33.147  30.785  27.281  1.00  0.00     0.049 C 
ENDBRANCH  26  27
ENDBRANCH  21  26
ENDBRANCH  11  17
ENDBRANCH   8  10
ENDBRANCH   6   8
ENDBRANCH   5   6
ENDBRANCH   4   5
ENDBRANCH   3   4
ENDBRANCH   2   3
ENDBRANCH   1   2
BRANCH   1  29
ATOM     29  C   UNL A   1      39.801  20.851  26.109  1.00  0.00     0.188 C 
BRANCH  29  30
ATOM     30  O   UNL A   1      41.209  20.908  26.194  1.00  0.00    -0.376 OA
BRANCH  30  31
ATOM     31  C   UNL A   1      41.863  19.722  26.606  1.00  0.00     0.202 C 
BRANCH  31  32
ATOM     32  C   UNL A   1      42.756  19.035  25.560  1.00  0.00     0.261 C 
BRANCH  32  33
ATOM     33  O   UNL A   1      44.146  19.417  25.560  1.00  0.00    -0.460 OA
BRANCH  33  34
ATOM     34  C   UNL A   1      44.576  20.107  24.481  1.00  0.00     0.338 C 
ATOM     35  O   UNL A   1      44.528  19.718  23.322  1.00  0.00    -0.246 OA
BRANCH  34  36
ATOM     36  C   UNL A   1      44.908  21.493  24.871  1.00  0.00     0.060 A 
ATOM     37  C   UNL A   1      45.343  21.744  26.182  1.00  0.00     0.016 A 
ATOM     38  C   UNL A   1      44.769  22.545  23.965  1.00  0.00     0.016 A 
ATOM     39  C   UNL A   1      45.613  23.050  26.595  1.00  0.00     0.010 A 
ATOM     40  C   UNL A   1      45.021  23.857  24.388  1.00  0.00     0.010 A 
ATOM     41  C   UNL A   1      45.416  24.121  25.713  1.00  0.00    -0.014 A 
BRANCH  41  42
ATOM     42  C   UNL A   1      45.485  25.515  26.225  1.00  0.00     0.031 A 
ATOM     43  C   UNL A   1      46.818  26.212  26.279  1.00  0.00     0.074 A 
ATOM     44  C   UNL A   1      44.373  26.166  26.617  1.00  0.00     0.049 A 
ATOM     45  N   UNL A   1      47.103  27.429  26.667  1.00  0.00    -0.248 NA
ATOM     46  C   UNL A   1      47.987  25.433  25.840  1.00  0.00     0.031 C 
ATOM     47  C   UNL A   1      43.023  25.607  26.620  1.00  0.00     0.029 A 
ATOM     48  N   UNL A   1      44.213  27.440  27.104  1.00  0.00    -0.354 N 
ATOM     49  C   UNL A   1      48.482  27.556  26.543  1.00  0.00     0.074 A 
ATOM     50  C   UNL A   1      48.978  26.285  26.060  1.00  0.00     0.031 C 
ATOM     51  C   UNL A   1      42.172  26.528  27.105  1.00  0.00     0.029 A 
ATOM     52  C   UNL A   1      42.919  27.732  27.466  1.00  0.00     0.049 A 
ATOM     53  H   UNL A   1      44.954  28.083  27.188  1.00  0.00     0.167 HD
ATOM     54  C   UNL A   1      49.265  28.633  26.794  1.00  0.00     0.034 A 
ATOM     55  C   UNL A   1      42.399  28.837  28.038  1.00  0.00     0.034 A 
ATOM     56  C   UNL A   1      48.774  29.901  27.265  1.00  0.00     0.049 A 
ATOM     57  C   UNL A   1      43.294  30.016  28.321  1.00  0.00     0.074 A 
ATOM     58  C   UNL A   1      49.485  31.065  27.503  1.00  0.00     0.029 A 
ATOM     59  N   UNL A   1      47.453  30.170  27.588  1.00  0.00    -0.354 N 
ATOM     60  N   UNL A   1      44.577  30.159  28.086  1.00  0.00    -0.248 NA
ATOM     61  C   UNL A   1      42.658  31.204  28.911  1.00  0.00     0.031 C 
ATOM     62  C   UNL A   1      48.600  32.025  28.008  1.00  0.00     0.029 A 
ATOM     63  C   UNL A   1      47.329  31.475  28.039  1.00  0.00     0.049 A 
ATOM     64  H   UNL A   1      46.711  29.528  27.510  1.00  0.00     0.167 HD
ATOM     65  C   UNL A   1      44.891  31.462  28.464  1.00  0.00     0.074 A 
ATOM     66  C   UNL A   1      43.659  32.073  28.915  1.00  0.00     0.031 C 
ATOM     67  C   UNL A   1      46.094  32.091  28.451  1.00  0.00     0.034 A 
BRANCH  54  68
ATOM     68  C   UNL A   1      50.746  28.491  26.547  1.00  0.00     0.023 A 
ATOM     69  C   UNL A   1      51.281  28.802  25.281  1.00  0.00     0.012 A 
ATOM     70  C   UNL A   1      51.615  28.102  27.587  1.00  0.00     0.148 A 
ATOM     71  C   UNL A   1      52.651  28.693  25.041  1.00  0.00     0.002 A 
ATOM     72  C   UNL A   1      52.984  28.044  27.355  1.00  0.00     0.091 A 
ATOM     73  F   UNL A   1      51.087  27.791  28.778  1.00  0.00    -0.205 F 
ATOM     74  C   UNL A   1      53.503  28.327  26.080  1.00  0.00     0.022 A 
BRANCH  72  75
ATOM     75  S   UNL A   1      54.171  27.662  28.647  1.00  0.00     0.127 S 
ATOM     76  O   UNL A   1      55.419  27.586  27.889  1.00  0.00    -0.237 OA
ATOM     77  O   UNL A   1      54.060  28.829  29.521  1.00  0.00    -0.237 OA
ATOM     78  O   UNL A   1      53.728  26.410  29.244  1.00  0.00    -0.744 OA
ENDBRANCH  72  75
ENDBRANCH  54  68
BRANCH  55  79
ATOM     79  C   UNL A   1      40.944  28.900  28.357  1.00  0.00     0.023 A 
ATOM     80  C   UNL A   1      40.006  29.074  27.319  1.00  0.00     0.012 A 
ATOM     81  C   UNL A   1      40.485  28.791  29.684  1.00  0.00     0.148 A 
ATOM     82  C   UNL A   1      38.643  29.176  27.602  1.00  0.00     0.002 A 
ATOM     83  C   UNL A   1      39.123  28.833  29.952  1.00  0.00     0.091 A 
ATOM     84  F   UNL A   1      41.394  28.642  30.658  1.00  0.00    -0.205 F 
ATOM     85  C   UNL A   1      38.201  29.045  28.916  1.00  0.00     0.022 A 
BRANCH  83  86
ATOM     86  S   UNL A   1      38.454  28.549  31.594  1.00  0.00     0.127 S 
ATOM     87  O   UNL A   1      37.059  28.948  31.422  1.00  0.00    -0.237 OA
ATOM     88  O   UNL A   1      38.669  27.111  31.759  1.00  0.00    -0.237 OA
ATOM     89  O   UNL A   1      39.242  29.383  32.491  1.00  0.00    -0.744 OA
ENDBRANCH  83  86
ENDBRANCH  55  79
BRANCH  67  90
ATOM     90  C   UNL A   1      46.130  33.533  28.899  1.00  0.00     0.023 A 
ATOM     91  C   UNL A   1      46.496  33.855  30.222  1.00  0.00     0.012 A 
ATOM     92  C   UNL A   1      45.822  34.573  27.999  1.00  0.00     0.148 A 
ATOM     93  C   UNL A   1      46.496  35.182  30.657  1.00  0.00     0.002 A 
ATOM     94  C   UNL A   1      45.881  35.896  28.424  1.00  0.00     0.091 A 
ATOM     95  F   UNL A   1      45.462  34.253  26.747  1.00  0.00    -0.205 F 
ATOM     96  C   UNL A   1      46.197  36.201  29.757  1.00  0.00     0.022 A 
BRANCH  94  97
ATOM     97  S   UNL A   1      45.609  37.277  27.307  1.00  0.00     0.127 S 
ATOM     98  O   UNL A   1      44.207  37.090  26.938  1.00  0.00    -0.237 OA
ATOM     99  O   UNL A   1      45.864  38.430  28.171  1.00  0.00    -0.237 OA
ATOM    100  O   UNL A   1      46.571  37.111  26.225  1.00  0.00    -0.744 OA
ENDBRANCH  94  97
ENDBRANCH  67  90
ENDBRANCH  41  42
ENDBRANCH  34  36
ENDBRANCH  33  34
ENDBRANCH  32  33
ENDBRANCH  31  32
ENDBRANCH  30  31
ENDBRANCH  29  30
ENDBRANCH   1  29
TORSDOF 26
ENDMDL
MODEL 2
REMARK VINA RESULT:      -9.5      1.614      2.625
REMARK SMILES CCOc1cc(OCC)cc(-c2ccc([C@@H](C)C(=O)OCCOCCOCCOC(=O)c3ccc(-c4c5nc(c(-c6cccc(S(=O)(=O)[O-])c6F)c6ccc([nH]6)c(-c6cccc(S(=O)(=O)[O-])c6F)c6nc(c(-c7cccc(S(=O)(=O)[O-])c7F)c7ccc4[nH]7)C=C6)C=C5)cc3)cc2F)c1
REMARK SMILES IDX 24 1 23 2 22 3 21 4 20 5 18 6 19 7 16 8 17 9 15 10 12 11
REMARK SMILES IDX 13 12 96 13 14 14 95 15 97 16 11 17 4 18 5 19 98 20 6 21
REMARK SMILES IDX 10 22 3 23 2 24 1 25 7 26 8 27 9 28 25 29 26 30 27 31 28 32
REMARK SMILES IDX 29 33 30 34 31 35 32 36 33 37 94 38 34 39 93 40 35 41 36 42
REMARK SMILES IDX 37 43 87 44 38 45 92 46 86 47 88 48 39 49 91 50 85 51 84 52
REMARK SMILES IDX 40 54 72 55 52 56 71 57 53 58 56 59 70 60 89 61 54 62 55 63
REMARK SMILES IDX 69 65 90 66 57 67 41 68 42 69 50 70 43 71 45 72 51 73 44 74
REMARK SMILES IDX 46 75 47 76 48 77 49 78 73 79 74 80 82 81 75 82 77 83 83 84
REMARK SMILES IDX 76 85 78 86 79 87 80 88 81 89 58 90 59 91 67 92 60 93 62 94
REMARK SMILES IDX 68 95 61 96 63 97 64 98 65 99 66 100
REMARK H PARENT 88 53 56 64
REMARK Flexibility Score: inf
ROOT
ATOM      1  C   UNL A   1      39.598  22.139  26.483  1.00  0.00     0.188 C 
ENDROOT
BRANCH   1   2
ATOM      2  O   UNL A   1      38.284  22.429  26.021  1.00  0.00    -0.376 OA
BRANCH   2   3
ATOM      3  C   UNL A   1      37.571  21.439  25.291  1.00  0.00     0.202 C 
BRANCH   3   4
ATOM      4  C   UNL A   1      36.092  21.188  25.632  1.00  0.00     0.261 C 
BRANCH   4   5
ATOM      5  O   UNL A   1      35.139  21.623  24.634  1.00  0.00    -0.463 OA
BRANCH   5   6
ATOM      6  C   UNL A   1      34.041  20.843  24.467  1.00  0.00     0.313 C 
ATOM      7  O   UNL A   1      34.066  19.619  24.584  1.00  0.00    -0.252 OA
BRANCH   6   8
ATOM      8  C   UNL A   1      32.734  21.570  24.132  1.00  0.00     0.126 C 
ATOM      9  C   UNL A   1      32.326  21.193  22.709  1.00  0.00     0.025 C 
BRANCH   8  10
ATOM     10  C   UNL A   1      32.592  23.079  24.326  1.00  0.00    -0.031 A 
ATOM     11  C   UNL A   1      32.239  25.889  24.773  1.00  0.00     0.018 A 
ATOM     12  C   UNL A   1      33.183  25.397  23.849  1.00  0.00     0.012 A 
ATOM     13  C   UNL A   1      31.482  24.944  25.467  1.00  0.00     0.131 A 
ATOM     14  C   UNL A   1      33.349  24.019  23.616  1.00  0.00     0.005 A 
ATOM     15  C   UNL A   1      31.643  23.570  25.247  1.00  0.00     0.044 A 
ATOM     16  F   UNL A   1      30.555  25.338  26.354  1.00  0.00    -0.206 F 
BRANCH  11  17
ATOM     17  C   UNL A   1      32.013  27.342  24.911  1.00  0.00    -0.008 A 
ATOM     18  C   UNL A   1      32.541  29.549  25.796  1.00  0.00     0.123 A 
ATOM     19  C   UNL A   1      31.479  30.104  25.081  1.00  0.00     0.092 A 
ATOM     20  C   UNL A   1      32.799  28.174  25.723  1.00  0.00     0.055 A 
ATOM     21  C   UNL A   1      30.662  29.292  24.296  1.00  0.00     0.123 A 
ATOM     22  C   UNL A   1      30.934  27.926  24.223  1.00  0.00     0.055 A 
BRANCH  18  23
ATOM     23  O   UNL A   1      33.181  30.369  26.686  1.00  0.00    -0.494 OA
BRANCH  23  24
ATOM     24  C   UNL A   1      34.026  29.704  27.629  1.00  0.00     0.226 C 
ATOM     25  C   UNL A   1      35.488  30.033  27.406  1.00  0.00     0.049 C 
ENDBRANCH  23  24
ENDBRANCH  18  23
BRANCH  21  26
ATOM     26  O   UNL A   1      29.641  29.927  23.640  1.00  0.00    -0.494 OA
BRANCH  26  27
ATOM     27  C   UNL A   1      29.696  29.951  22.211  1.00  0.00     0.226 C 
ATOM     28  C   UNL A   1      28.303  30.004  21.602  1.00  0.00     0.049 C 
ENDBRANCH  26  27
ENDBRANCH  21  26
ENDBRANCH  11  17
ENDBRANCH   8  10
ENDBRANCH   6   8
ENDBRANCH   5   6
ENDBRANCH   4   5
ENDBRANCH   3   4
ENDBRANCH   2   3
ENDBRANCH   1   2
BRANCH   1  29
ATOM     29  C   UNL A   1      40.127  20.703  26.359  1.00  0.00     0.188 C 
BRANCH  29  30
ATOM     30  O   UNL A   1      41.511  20.592  26.100  1.00  0.00    -0.376 OA
BRANCH  30  31
ATOM     31  C   UNL A   1      42.171  19.481  26.676  1.00  0.00     0.202 C 
BRANCH  31  32
ATOM     32  C   UNL A   1      43.014  18.617  25.724  1.00  0.00     0.261 C 
BRANCH  32  33
ATOM     33  O   UNL A   1      44.360  19.071  25.476  1.00  0.00    -0.460 OA
BRANCH  33  34
ATOM     34  C   UNL A   1      44.544  19.815  24.363  1.00  0.00     0.338 C 
ATOM     35  O   UNL A   1      44.229  19.486  23.228  1.00  0.00    -0.246 OA
BRANCH  34  36
ATOM     36  C   UNL A   1      44.974  21.179  24.737  1.00  0.00     0.060 A 
ATOM     37  C   UNL A   1      45.355  21.430  26.064  1.00  0.00     0.016 A 
ATOM     38  C   UNL A   1      44.979  22.210  23.798  1.00  0.00     0.016 A 
ATOM     39  C   UNL A   1      45.715  22.720  26.458  1.00  0.00     0.010 A 
ATOM     40  C   UNL A   1      45.321  23.508  24.201  1.00  0.00     0.010 A 
ATOM     41  C   UNL A   1      45.662  23.777  25.539  1.00  0.00    -0.014 A 
BRANCH  41  42
ATOM     42  C   UNL A   1      45.825  25.175  26.019  1.00  0.00     0.031 A 
ATOM     43  C   UNL A   1      47.202  25.781  26.062  1.00  0.00     0.074 A 
ATOM     44  C   UNL A   1      44.759  25.909  26.391  1.00  0.00     0.049 A 
ATOM     45  N   UNL A   1      47.567  26.985  26.422  1.00  0.00    -0.248 NA
ATOM     46  C   UNL A   1      48.316  24.915  25.645  1.00  0.00     0.031 C 
ATOM     47  C   UNL A   1      43.374  25.443  26.403  1.00  0.00     0.029 A 
ATOM     48  N   UNL A   1      44.684  27.202  26.848  1.00  0.00    -0.354 N 
ATOM     49  C   UNL A   1      48.952  27.015  26.301  1.00  0.00     0.074 A 
ATOM     50  C   UNL A   1      49.362  25.702  25.850  1.00  0.00     0.031 C 
ATOM     51  C   UNL A   1      42.586  26.430  26.863  1.00  0.00     0.029 A 
ATOM     52  C   UNL A   1      43.412  27.589  27.199  1.00  0.00     0.049 A 
ATOM     53  H   UNL A   1      45.467  27.795  26.920  1.00  0.00     0.167 HD
ATOM     54  C   UNL A   1      49.806  28.042  26.529  1.00  0.00     0.034 A 
ATOM     55  C   UNL A   1      42.967  28.740  27.742  1.00  0.00     0.034 A 
ATOM     56  C   UNL A   1      49.401  29.351  26.969  1.00  0.00     0.049 A 
ATOM     57  C   UNL A   1      43.940  29.862  28.001  1.00  0.00     0.074 A 
ATOM     58  C   UNL A   1      50.189  30.469  27.182  1.00  0.00     0.029 A 
ATOM     59  N   UNL A   1      48.101  29.717  27.281  1.00  0.00    -0.354 N 
ATOM     60  N   UNL A   1      45.229  29.912  27.768  1.00  0.00    -0.248 NA
ATOM     61  C   UNL A   1      43.384  31.104  28.561  1.00  0.00     0.031 C 
ATOM     62  C   UNL A   1      49.370  31.499  27.662  1.00  0.00     0.029 A 
ATOM     63  C   UNL A   1      48.065  31.037  27.700  1.00  0.00     0.049 A 
ATOM     64  H   UNL A   1      47.317  29.125  27.215  1.00  0.00     0.167 HD
ATOM     65  C   UNL A   1      45.631  31.199  28.116  1.00  0.00     0.074 A 
ATOM     66  C   UNL A   1      44.441  31.903  28.548  1.00  0.00     0.031 C 
ATOM     67  C   UNL A   1      46.873  31.745  28.093  1.00  0.00     0.034 A 
BRANCH  54  68
ATOM     68  C   UNL A   1      51.275  27.795  26.292  1.00  0.00     0.023 A 
ATOM     69  C   UNL A   1      52.118  27.474  27.374  1.00  0.00     0.012 A 
ATOM     70  C   UNL A   1      51.809  27.828  24.987  1.00  0.00     0.148 A 
ATOM     71  C   UNL A   1      53.476  27.225  27.169  1.00  0.00     0.002 A 
ATOM     72  C   UNL A   1      53.151  27.531  24.785  1.00  0.00     0.091 A 
ATOM     73  F   UNL A   1      50.997  28.156  23.973  1.00  0.00    -0.205 F 
ATOM     74  C   UNL A   1      53.989  27.242  25.875  1.00  0.00     0.022 A 
BRANCH  72  75
ATOM     75  S   UNL A   1      53.890  27.446  23.150  1.00  0.00     0.127 S 
ATOM     76  O   UNL A   1      55.238  26.974  23.459  1.00  0.00    -0.237 OA
ATOM     77  O   UNL A   1      53.039  26.462  22.480  1.00  0.00    -0.237 OA
ATOM     78  O   UNL A   1      53.811  28.792  22.602  1.00  0.00    -0.744 OA
ENDBRANCH  72  75
ENDBRANCH  54  68
BRANCH  55  79
ATOM     79  C   UNL A   1      41.519  28.909  28.054  1.00  0.00     0.023 A 
ATOM     80  C   UNL A   1      40.595  29.104  27.008  1.00  0.00     0.012 A 
ATOM     81  C   UNL A   1      41.054  28.880  29.383  1.00  0.00     0.148 A 
ATOM     82  C   UNL A   1      39.241  29.304  27.282  1.00  0.00     0.002 A 
ATOM     83  C   UNL A   1      39.697  29.020  29.645  1.00  0.00     0.091 A 
ATOM     84  F   UNL A   1      41.950  28.710  30.365  1.00  0.00    -0.205 F 
ATOM     85  C   UNL A   1      38.791  29.252  28.599  1.00  0.00     0.022 A 
BRANCH  83  86
ATOM     86  S   UNL A   1      39.010  28.843  31.295  1.00  0.00     0.127 S 
ATOM     87  O   UNL A   1      39.631  29.962  32.000  1.00  0.00    -0.237 OA
ATOM     88  O   UNL A   1      37.577  28.993  31.039  1.00  0.00    -0.237 OA
ATOM     89  O   UNL A   1      39.405  27.516  31.747  1.00  0.00    -0.744 OA
ENDBRANCH  83  86
ENDBRANCH  55  79
BRANCH  67  90
ATOM     90  C   UNL A   1      47.006  33.191  28.508  1.00  0.00     0.023 A 
ATOM     91  C   UNL A   1      47.270  33.522  29.853  1.00  0.00     0.012 A 
ATOM     92  C   UNL A   1      46.891  34.225  27.556  1.00  0.00     0.148 A 
ATOM     93  C   UNL A   1      47.358  34.856  30.253  1.00  0.00     0.002 A 
ATOM     94  C   UNL A   1      47.037  35.550  27.953  1.00  0.00     0.091 A 
ATOM     95  F   UNL A   1      46.626  33.899  26.283  1.00  0.00    -0.205 F 
ATOM     96  C   UNL A   1      47.249  35.869  29.303  1.00  0.00     0.022 A 
BRANCH  94  97
ATOM     97  S   UNL A   1      47.011  36.912  26.781  1.00  0.00     0.127 S 
ATOM     98  O   UNL A   1      47.375  38.044  27.632  1.00  0.00    -0.237 OA
ATOM     99  O   UNL A   1      48.041  36.515  25.820  1.00  0.00    -0.237 OA
ATOM    100  O   UNL A   1      45.660  36.944  26.237  1.00  0.00    -0.744 OA
ENDBRANCH  94  97
ENDBRANCH  67  90
ENDBRANCH  41  42
ENDBRANCH  34  36
ENDBRANCH  33  34
ENDBRANCH  32  33
ENDBRANCH  31  32
ENDBRANCH  30  31
ENDBRANCH  29  30
ENDBRANCH   1  29
TORSDOF 26
ENDMDL
MODEL 3
REMARK VINA RESULT:      -8.9      5.106     10.105
REMARK SMILES CCOc1cc(OCC)cc(-c2ccc([C@@H](C)C(=O)OCCOCCOCCOC(=O)c3ccc(-c4c5nc(c(-c6cccc(S(=O)(=O)[O-])c6F)c6ccc([nH]6)c(-c6cccc(S(=O)(=O)[O-])c6F)c6nc(c(-c7cccc(S(=O)(=O)[O-])c7F)c7ccc4[nH]7)C=C6)C=C5)cc3)cc2F)c1
REMARK SMILES IDX 24 1 23 2 22 3 21 4 20 5 18 6 19 7 16 8 17 9 15 10 12 11
REMARK SMILES IDX 13 12 96 13 14 14 95 15 97 16 11 17 4 18 5 19 98 20 6 21
REMARK SMILES IDX 10 22 3 23 2 24 1 25 7 26 8 27 9 28 25 29 26 30 27 31 28 32
REMARK SMILES IDX 29 33 30 34 31 35 32 36 33 37 94 38 34 39 93 40 35 41 36 42
REMARK SMILES IDX 37 43 87 44 38 45 92 46 86 47 88 48 39 49 91 50 85 51 84 52
REMARK SMILES IDX 40 54 72 55 52 56 71 57 53 58 56 59 70 60 89 61 54 62 55 63
REMARK SMILES IDX 69 65 90 66 57 67 41 68 42 69 50 70 43 71 45 72 51 73 44 74
REMARK SMILES IDX 46 75 47 76 48 77 49 78 73 79 74 80 82 81 75 82 77 83 83 84
REMARK SMILES IDX 76 85 78 86 79 87 80 88 81 89 58 90 59 91 67 92 60 93 62 94
REMARK SMILES IDX 68 95 61 96 63 97 64 98 65 99 66 100
REMARK H PARENT 88 53 56 64
REMARK Flexibility Score: inf
ROOT
ATOM      1  C   UNL A   1      34.509  29.160  26.949  1.00  0.00     0.188 C 
ENDROOT
BRANCH   1   2
ATOM      2  O   UNL A   1      33.771  29.921  26.001  1.00  0.00    -0.376 OA
BRANCH   2   3
ATOM      3  C   UNL A   1      32.395  30.186  26.244  1.00  0.00     0.202 C 
BRANCH   3   4
ATOM      4  C   UNL A   1      31.338  29.376  25.475  1.00  0.00     0.261 C 
BRANCH   4   5
ATOM      5  O   UNL A   1      31.259  29.641  24.055  1.00  0.00    -0.463 OA
BRANCH   5   6
ATOM      6  C   UNL A   1      30.015  29.662  23.513  1.00  0.00     0.313 C 
ATOM      7  O   UNL A   1      29.284  30.650  23.551  1.00  0.00    -0.252 OA
BRANCH   6   8
ATOM      8  C   UNL A   1      29.553  28.375  22.820  1.00  0.00     0.126 C 
ATOM      9  C   UNL A   1      28.080  28.150  23.157  1.00  0.00     0.025 C 
BRANCH   8  10
ATOM     10  C   UNL A   1      30.324  27.065  22.981  1.00  0.00    -0.031 A 
ATOM     11  C   UNL A   1      31.705  24.585  23.383  1.00  0.00     0.018 A 
ATOM     12  C   UNL A   1      31.992  25.426  22.289  1.00  0.00     0.012 A 
ATOM     13  C   UNL A   1      30.710  25.012  24.264  1.00  0.00     0.131 A 
ATOM     14  C   UNL A   1      31.327  26.651  22.097  1.00  0.00     0.005 A 
ATOM     15  C   UNL A   1      30.038  26.227  24.079  1.00  0.00     0.044 A 
ATOM     16  F   UNL A   1      30.389  24.269  25.334  1.00  0.00    -0.206 F 
BRANCH  11  17
ATOM     17  C   UNL A   1      32.498  23.361  23.617  1.00  0.00    -0.008 A 
ATOM     18  C   UNL A   1      32.745  20.959  23.932  1.00  0.00     0.123 A 
ATOM     19  C   UNL A   1      34.127  21.104  24.055  1.00  0.00     0.092 A 
ATOM     20  C   UNL A   1      31.932  22.081  23.727  1.00  0.00     0.055 A 
ATOM     21  C   UNL A   1      34.708  22.369  23.986  1.00  0.00     0.123 A 
ATOM     22  C   UNL A   1      33.891  23.479  23.771  1.00  0.00     0.055 A 
BRANCH  18  23
ATOM     23  O   UNL A   1      32.229  19.718  24.197  1.00  0.00    -0.494 OA
BRANCH  23  24
ATOM     24  C   UNL A   1      33.188  18.730  24.585  1.00  0.00     0.226 C 
ATOM     25  C   UNL A   1      32.697  17.898  25.752  1.00  0.00     0.049 C 
ENDBRANCH  23  24
ENDBRANCH  18  23
BRANCH  21  26
ATOM     26  O   UNL A   1      36.070  22.411  24.127  1.00  0.00    -0.494 OA
BRANCH  26  27
ATOM     27  C   UNL A   1      36.589  22.495  25.457  1.00  0.00     0.226 C 
ATOM     28  C   UNL A   1      35.682  23.321  26.357  1.00  0.00     0.049 C 
ENDBRANCH  26  27
ENDBRANCH  21  26
ENDBRANCH  11  17
ENDBRANCH   8  10
ENDBRANCH   6   8
ENDBRANCH   5   6
ENDBRANCH   4   5
ENDBRANCH   3   4
ENDBRANCH   2   3
ENDBRANCH   1   2
BRANCH   1  29
ATOM     29  C   UNL A   1      35.389  29.897  27.969  1.00  0.00     0.188 C 
BRANCH  29  30
ATOM     30  O   UNL A   1      35.373  31.306  27.872  1.00  0.00    -0.376 OA
BRANCH  30  31
ATOM     31  C   UNL A   1      35.861  32.019  28.992  1.00  0.00     0.202 C 
BRANCH  31  32
ATOM     32  C   UNL A   1      37.247  31.606  29.514  1.00  0.00     0.261 C 
BRANCH  32  33
ATOM     33  O   UNL A   1      37.366  31.440  30.941  1.00  0.00    -0.460 OA
BRANCH  33  34
ATOM     34  C   UNL A   1      37.336  30.170  31.399  1.00  0.00     0.338 C 
ATOM     35  O   UNL A   1      36.364  29.427  31.375  1.00  0.00    -0.246 OA
BRANCH  34  36
ATOM     36  C   UNL A   1      38.705  29.722  31.730  1.00  0.00     0.060 A 
ATOM     37  C   UNL A   1      39.779  30.596  31.499  1.00  0.00     0.016 A 
ATOM     38  C   UNL A   1      38.938  28.444  32.239  1.00  0.00     0.016 A 
ATOM     39  C   UNL A   1      41.088  30.183  31.751  1.00  0.00     0.010 A 
ATOM     40  C   UNL A   1      40.254  28.025  32.472  1.00  0.00     0.010 A 
ATOM     41  C   UNL A   1      41.339  28.879  32.202  1.00  0.00    -0.014 A 
BRANCH  41  42
ATOM     42  C   UNL A   1      42.736  28.376  32.250  1.00  0.00     0.031 A 
ATOM     43  C   UNL A   1      43.315  27.695  31.038  1.00  0.00     0.074 A 
ATOM     44  C   UNL A   1      43.496  28.541  33.349  1.00  0.00     0.049 A 
ATOM     45  N   UNL A   1      44.513  27.204  30.855  1.00  0.00    -0.248 NA
ATOM     46  C   UNL A   1      42.421  27.547  29.877  1.00  0.00     0.031 C 
ATOM     47  C   UNL A   1      43.060  29.177  34.590  1.00  0.00     0.029 A 
ATOM     48  N   UNL A   1      44.795  28.169  33.599  1.00  0.00    -0.354 N 
ATOM     49  C   UNL A   1      44.513  26.666  29.572  1.00  0.00     0.074 A 
ATOM     50  C   UNL A   1      43.188  26.877  29.029  1.00  0.00     0.031 C 
ATOM     51  C   UNL A   1      44.068  29.135  35.479  1.00  0.00     0.029 A 
ATOM     52  C   UNL A   1      45.211  28.451  34.878  1.00  0.00     0.049 A 
ATOM     53  H   UNL A   1      45.372  27.740  32.926  1.00  0.00     0.167 HD
ATOM     54  C   UNL A   1      45.524  26.064  28.900  1.00  0.00     0.034 A 
ATOM     55  C   UNL A   1      46.376  28.175  35.499  1.00  0.00     0.034 A 
ATOM     56  C   UNL A   1      46.845  25.861  29.433  1.00  0.00     0.049 A 
ATOM     57  C   UNL A   1      47.480  27.490  34.734  1.00  0.00     0.074 A 
ATOM     58  C   UNL A   1      47.948  25.303  28.810  1.00  0.00     0.029 A 
ATOM     59  N   UNL A   1      47.241  26.189  30.721  1.00  0.00    -0.354 N 
ATOM     60  N   UNL A   1      47.501  27.096  33.483  1.00  0.00    -0.248 NA
ATOM     61  C   UNL A   1      48.738  27.251  35.458  1.00  0.00     0.031 C 
ATOM     62  C   UNL A   1      48.998  25.257  29.734  1.00  0.00     0.029 A 
ATOM     63  C   UNL A   1      48.565  25.833  30.917  1.00  0.00     0.049 A 
ATOM     64  H   UNL A   1      46.665  26.615  31.397  1.00  0.00     0.167 HD
ATOM     65  C   UNL A   1      48.782  26.598  33.261  1.00  0.00     0.074 A 
ATOM     66  C   UNL A   1      49.514  26.768  34.498  1.00  0.00     0.031 C 
ATOM     67  C   UNL A   1      49.301  26.038  32.139  1.00  0.00     0.034 A 
BRANCH  54  68
ATOM     68  C   UNL A   1      45.244  25.591  27.495  1.00  0.00     0.023 A 
ATOM     69  C   UNL A   1      45.252  26.511  26.428  1.00  0.00     0.012 A 
ATOM     70  C   UNL A   1      45.025  24.224  27.226  1.00  0.00     0.148 A 
ATOM     71  C   UNL A   1      45.012  26.087  25.121  1.00  0.00     0.002 A 
ATOM     72  C   UNL A   1      44.836  23.802  25.916  1.00  0.00     0.091 A 
ATOM     73  F   UNL A   1      45.000  23.367  28.256  1.00  0.00    -0.205 F 
ATOM     74  C   UNL A   1      44.817  24.733  24.864  1.00  0.00     0.022 A 
BRANCH  72  75
ATOM     75  S   UNL A   1      44.657  22.071  25.471  1.00  0.00     0.127 S 
ATOM     76  O   UNL A   1      43.508  21.675  26.284  1.00  0.00    -0.237 OA
ATOM     77  O   UNL A   1      44.390  22.150  24.036  1.00  0.00    -0.237 OA
ATOM     78  O   UNL A   1      45.917  21.432  25.822  1.00  0.00    -0.744 OA
ENDBRANCH  72  75
ENDBRANCH  54  68
BRANCH  55  79
ATOM     79  C   UNL A   1      46.578  28.573  36.922  1.00  0.00     0.023 A 
ATOM     80  C   UNL A   1      47.140  29.829  37.224  1.00  0.00     0.012 A 
ATOM     81  C   UNL A   1      46.219  27.710  37.976  1.00  0.00     0.148 A 
ATOM     82  C   UNL A   1      47.375  30.203  38.549  1.00  0.00     0.002 A 
ATOM     83  C   UNL A   1      46.399  28.114  39.292  1.00  0.00     0.091 A 
ATOM     84  F   UNL A   1      45.701  26.513  37.667  1.00  0.00    -0.205 F 
ATOM     85  C   UNL A   1      46.995  29.351  39.582  1.00  0.00     0.022 A 
BRANCH  83  86
ATOM     86  S   UNL A   1      45.827  27.138  40.687  1.00  0.00     0.127 S 
ATOM     87  O   UNL A   1      44.389  27.072  40.437  1.00  0.00    -0.237 OA
ATOM     88  O   UNL A   1      46.546  25.879  40.485  1.00  0.00    -0.237 OA
ATOM     89  O   UNL A   1      46.227  27.875  41.877  1.00  0.00    -0.744 OA
ENDBRANCH  83  86
ENDBRANCH  55  79
BRANCH  67  90
ATOM     90  C   UNL A   1      50.748  25.607  32.181  1.00  0.00     0.023 A 
ATOM     91  C   UNL A   1      51.774  26.540  31.928  1.00  0.00     0.012 A 
ATOM     92  C   UNL A   1      51.092  24.276  32.497  1.00  0.00     0.148 A 
ATOM     93  C   UNL A   1      53.113  26.144  31.929  1.00  0.00     0.002 A 
ATOM     94  C   UNL A   1      52.431  23.902  32.551  1.00  0.00     0.091 A 
ATOM     95  F   UNL A   1      50.107  23.395  32.721  1.00  0.00    -0.205 F 
ATOM     96  C   UNL A   1      53.440  24.829  32.248  1.00  0.00     0.022 A 
BRANCH  94  97
ATOM     97  S   UNL A   1      52.949  22.256  33.051  1.00  0.00     0.127 S 
ATOM     98  O   UNL A   1      52.255  21.417  32.076  1.00  0.00    -0.237 OA
ATOM     99  O   UNL A   1      54.400  22.321  32.877  1.00  0.00    -0.237 OA
ATOM    100  O   UNL A   1      52.514  22.104  34.434  1.00  0.00    -0.744 OA
ENDBRANCH  94  97
ENDBRANCH  67  90
ENDBRANCH  41  42
ENDBRANCH  34  36
ENDBRANCH  33  34
ENDBRANCH  32  33
ENDBRANCH  31  32
ENDBRANCH  30  31
ENDBRANCH  29  30
ENDBRANCH   1  29
TORSDOF 26
ENDMDL
