MODEL 1
REMARK VINA RESULT:     -10.0      0.000      0.000
REMARK SMILES O=C(CC1(NC(=O)c2ccccc2[N+](=O)[O-])CCC1)OCCOCCOCCOC(=O)c1ccc(-c2c3nc(c(-c4cccc(S(=O)(=O)[O-])c4F)c4ccc([nH]4)c(-c4cccc(S(=O)(=O)[O-])c4F)c4nc(c(-c5cccc(S(=O)(=O)[O-])c5F)c5ccc2[nH]5)C=C4)C=C3)cc1
REMARK SMILES IDX 24 1 23 2 22 3 21 4 20 5 2 6 1 7 3 8 4 9 17 10 19 11 18 12
REMARK SMILES IDX 5 13 6 14 7 16 8 17 9 18 13 19 10 20 12 21 11 22 14 23 15 24
REMARK SMILES IDX 16 25 25 26 26 27 27 28 28 29 29 30 30 31 31 32 32 33 33 34
REMARK SMILES IDX 94 35 34 36 93 37 35 38 36 39 37 40 87 41 38 42 92 43 86 44
REMARK SMILES IDX 88 45 39 46 91 47 85 48 84 49 40 51 72 52 52 53 71 54 53 55
REMARK SMILES IDX 56 56 70 57 89 58 54 59 55 60 69 62 90 63 57 64 41 65 42 66
REMARK SMILES IDX 50 67 43 68 45 69 51 70 44 71 46 72 47 73 48 74 49 75 73 76
REMARK SMILES IDX 74 77 82 78 75 79 77 80 83 81 76 82 78 83 79 84 80 85 81 86
REMARK SMILES IDX 58 87 59 88 67 89 60 90 62 91 68 92 61 93 63 94 64 95 65 96
REMARK SMILES IDX 66 97
REMARK H PARENT 5 15 88 50 56 61
REMARK Flexibility Score: inf
ROOT
ATOM      1  C   UNL A   1      33.215  29.303  24.538  1.00  0.00     0.188 C 
ENDROOT
BRANCH   1   2
ATOM      2  O   UNL A   1      34.092  28.519  23.744  1.00  0.00    -0.376 OA
BRANCH   2   3
ATOM      3  C   UNL A   1      33.847  28.456  22.351  1.00  0.00     0.202 C 
BRANCH   3   4
ATOM      4  C   UNL A   1      33.410  27.090  21.807  1.00  0.00     0.261 C 
BRANCH   4   5
ATOM      5  O   UNL A   1      32.494  26.295  22.593  1.00  0.00    -0.463 OA
BRANCH   5   6
ATOM      6  C   UNL A   1      31.273  26.611  23.062  1.00  0.00     0.308 C 
ATOM      7  O   UNL A   1      30.492  27.233  22.346  1.00  0.00    -0.252 OA
BRANCH   6   8
ATOM      8  C   UNL A   1      30.911  26.292  24.481  1.00  0.00     0.151 C 
BRANCH   8   9
ATOM      9  C   UNL A   1      31.604  25.086  25.098  1.00  0.00     0.051 C 
ATOM     10  C   UNL A   1      32.948  24.553  24.489  1.00  0.00     0.029 C 
ATOM     11  C   UNL A   1      32.477  25.565  26.324  1.00  0.00     0.029 C 
ATOM     12  C   UNL A   1      33.737  25.432  25.466  1.00  0.00     0.005 C 
BRANCH   9  13
ATOM     13  N   UNL A   1      30.718  23.966  25.532  1.00  0.00    -0.346 N 
ATOM     14  C   UNL A   1      30.873  22.643  25.875  1.00  0.00     0.258 C 
ATOM     15  H   UNL A   1      29.777  24.248  25.587  1.00  0.00     0.164 HD
ATOM     16  O   UNL A   1      29.929  22.037  26.379  1.00  0.00    -0.269 OA
BRANCH  14  17
ATOM     17  C   UNL A   1      32.061  21.848  25.545  1.00  0.00     0.117 A 
ATOM     18  C   UNL A   1      31.924  21.043  24.396  1.00  0.00     0.021 A 
ATOM     19  C   UNL A   1      33.221  21.731  26.318  1.00  0.00     0.282 A 
ATOM     20  C   UNL A   1      32.952  20.189  23.994  1.00  0.00     0.001 A 
ATOM     21  C   UNL A   1      34.284  20.921  25.863  1.00  0.00     0.086 A 
ATOM     22  C   UNL A   1      34.147  20.156  24.703  1.00  0.00     0.007 A 
BRANCH  19  23
ATOM     23  N   UNL A   1      33.349  22.348  27.643  1.00  0.00     0.063 N 
ATOM     24  O   UNL A   1      34.386  22.991  27.870  1.00  0.00    -0.258 OA
ATOM     25  O   UNL A   1      32.452  22.172  28.475  1.00  0.00    -0.258 OA
ENDBRANCH  19  23
ENDBRANCH  14  17
ENDBRANCH   9  13
ENDBRANCH   8   9
ENDBRANCH   6   8
ENDBRANCH   5   6
ENDBRANCH   4   5
ENDBRANCH   3   4
ENDBRANCH   2   3
ENDBRANCH   1   2
BRANCH   1  26
ATOM     26  C   UNL A   1      33.508  29.213  26.042  1.00  0.00     0.188 C 
BRANCH  26  27
ATOM     27  O   UNL A   1      32.488  29.652  26.931  1.00  0.00    -0.376 OA
BRANCH  27  28
ATOM     28  C   UNL A   1      31.684  30.752  26.503  1.00  0.00     0.202 C 
BRANCH  28  29
ATOM     29  C   UNL A   1      31.907  32.127  27.165  1.00  0.00     0.261 C 
BRANCH  29  30
ATOM     30  O   UNL A   1      33.232  32.690  27.033  1.00  0.00    -0.460 OA
BRANCH  30  31
ATOM     31  C   UNL A   1      33.845  32.992  28.201  1.00  0.00     0.338 C 
ATOM     32  O   UNL A   1      33.379  33.653  29.129  1.00  0.00    -0.246 OA
BRANCH  31  33
ATOM     33  C   UNL A   1      35.162  32.347  28.320  1.00  0.00     0.060 A 
ATOM     34  C   UNL A   1      35.236  31.035  28.807  1.00  0.00     0.016 A 
ATOM     35  C   UNL A   1      36.321  33.118  28.202  1.00  0.00     0.016 A 
ATOM     36  C   UNL A   1      36.463  30.513  29.224  1.00  0.00     0.010 A 
ATOM     37  C   UNL A   1      37.548  32.588  28.621  1.00  0.00     0.010 A 
ATOM     38  C   UNL A   1      37.618  31.298  29.173  1.00  0.00    -0.014 A 
BRANCH  38  39
ATOM     39  C   UNL A   1      38.848  30.859  29.881  1.00  0.00     0.031 A 
ATOM     40  C   UNL A   1      39.697  29.791  29.252  1.00  0.00     0.074 A 
ATOM     41  C   UNL A   1      39.215  31.388  31.060  1.00  0.00     0.049 A 
ATOM     42  N   UNL A   1      40.686  29.107  29.765  1.00  0.00    -0.248 NA
ATOM     43  C   UNL A   1      39.389  29.453  27.852  1.00  0.00     0.031 C 
ATOM     44  C   UNL A   1      38.541  32.491  31.739  1.00  0.00     0.029 A 
ATOM     45  N   UNL A   1      40.235  31.035  31.912  1.00  0.00    -0.354 N 
ATOM     46  C   UNL A   1      41.076  28.212  28.776  1.00  0.00     0.074 A 
ATOM     47  C   UNL A   1      40.240  28.464  27.621  1.00  0.00     0.031 C 
ATOM     48  C   UNL A   1      39.135  32.696  32.927  1.00  0.00     0.029 A 
ATOM     49  C   UNL A   1      40.190  31.698  33.116  1.00  0.00     0.049 A 
ATOM     50  H   UNL A   1      40.928  30.374  31.684  1.00  0.00     0.167 HD
ATOM     51  C   UNL A   1      42.035  27.258  28.826  1.00  0.00     0.034 A 
ATOM     52  C   UNL A   1      40.872  31.483  34.261  1.00  0.00     0.034 A 
ATOM     53  C   UNL A   1      42.882  27.022  29.962  1.00  0.00     0.049 A 
ATOM     54  C   UNL A   1      41.897  30.378  34.322  1.00  0.00     0.074 A 
ATOM     55  C   UNL A   1      43.882  26.077  30.108  1.00  0.00     0.029 A 
ATOM     56  N   UNL A   1      42.825  27.733  31.151  1.00  0.00    -0.354 N 
ATOM     57  N   UNL A   1      42.280  29.553  33.377  1.00  0.00    -0.248 NA
ATOM     58  C   UNL A   1      42.590  30.177  35.604  1.00  0.00     0.031 C 
ATOM     59  C   UNL A   1      44.417  26.204  31.395  1.00  0.00     0.029 A 
ATOM     60  C   UNL A   1      43.765  27.243  32.040  1.00  0.00     0.049 A 
ATOM     61  H   UNL A   1      42.208  28.476  31.335  1.00  0.00     0.167 HD
ATOM     62  C   UNL A   1      43.275  28.758  33.938  1.00  0.00     0.074 A 
ATOM     63  C   UNL A   1      43.445  29.207  35.304  1.00  0.00     0.031 C 
ATOM     64  C   UNL A   1      43.970  27.737  33.379  1.00  0.00     0.034 A 
BRANCH  51  65
ATOM     65  C   UNL A   1      42.194  26.382  27.616  1.00  0.00     0.023 A 
ATOM     66  C   UNL A   1      42.840  26.876  26.467  1.00  0.00     0.012 A 
ATOM     67  C   UNL A   1      41.706  25.061  27.624  1.00  0.00     0.148 A 
ATOM     68  C   UNL A   1      42.965  26.079  25.329  1.00  0.00     0.002 A 
ATOM     69  C   UNL A   1      41.868  24.260  26.501  1.00  0.00     0.091 A 
ATOM     70  F   UNL A   1      41.064  24.620  28.716  1.00  0.00    -0.205 F 
ATOM     71  C   UNL A   1      42.488  24.770  25.349  1.00  0.00     0.022 A 
BRANCH  69  72
ATOM     72  S   UNL A   1      41.338  22.545  26.474  1.00  0.00     0.127 S 
ATOM     73  O   UNL A   1      42.143  22.003  25.380  1.00  0.00    -0.237 OA
ATOM     74  O   UNL A   1      41.723  22.075  27.805  1.00  0.00    -0.237 OA
ATOM     75  O   UNL A   1      39.900  22.584  26.244  1.00  0.00    -0.744 OA
ENDBRANCH  69  72
ENDBRANCH  51  65
BRANCH  52  76
ATOM     76  C   UNL A   1      40.580  32.324  35.456  1.00  0.00     0.023 A 
ATOM     77  C   UNL A   1      41.385  33.444  35.736  1.00  0.00     0.012 A 
ATOM     78  C   UNL A   1      39.480  32.041  36.291  1.00  0.00     0.148 A 
ATOM     79  C   UNL A   1      41.105  34.262  36.833  1.00  0.00     0.002 A 
ATOM     80  C   UNL A   1      39.170  32.894  37.343  1.00  0.00     0.091 A 
ATOM     81  F   UNL A   1      38.742  30.955  36.021  1.00  0.00    -0.205 F 
ATOM     82  C   UNL A   1      39.990  33.995  37.627  1.00  0.00     0.022 A 
BRANCH  80  83
ATOM     83  S   UNL A   1      37.678  32.707  38.325  1.00  0.00     0.127 S 
ATOM     84  O   UNL A   1      36.632  32.846  37.314  1.00  0.00    -0.237 OA
ATOM     85  O   UNL A   1      37.838  31.357  38.866  1.00  0.00    -0.237 OA
ATOM     86  O   UNL A   1      37.728  33.763  39.327  1.00  0.00    -0.744 OA
ENDBRANCH  80  83
ENDBRANCH  52  76
BRANCH  64  87
ATOM     87  C   UNL A   1      45.015  27.042  34.213  1.00  0.00     0.023 A 
ATOM     88  C   UNL A   1      46.309  27.591  34.310  1.00  0.00     0.012 A 
ATOM     89  C   UNL A   1      44.680  25.917  34.992  1.00  0.00     0.148 A 
ATOM     90  C   UNL A   1      47.257  27.021  35.161  1.00  0.00     0.002 A 
ATOM     91  C   UNL A   1      45.616  25.382  35.870  1.00  0.00     0.091 A 
ATOM     92  F   UNL A   1      43.449  25.399  34.871  1.00  0.00    -0.205 F 
ATOM     93  C   UNL A   1      46.907  25.928  35.950  1.00  0.00     0.022 A 
BRANCH  91  94
ATOM     94  S   UNL A   1      45.223  24.035  36.995  1.00  0.00     0.127 S 
ATOM     95  O   UNL A   1      46.519  23.786  37.625  1.00  0.00    -0.237 OA
ATOM     96  O   UNL A   1      44.224  24.643  37.873  1.00  0.00    -0.237 OA
ATOM     97  O   UNL A   1      44.715  22.953  36.162  1.00  0.00    -0.744 OA
ENDBRANCH  91  94
ENDBRANCH  64  87
ENDBRANCH  38  39
ENDBRANCH  31  33
ENDBRANCH  30  31
ENDBRANCH  29  30
ENDBRANCH  28  29
ENDBRANCH  27  28
ENDBRANCH  26  27
ENDBRANCH   1  26
TORSDOF 24
ENDMDL
MODEL 2
REMARK VINA RESULT:     -10.0      2.135      7.740
REMARK SMILES O=C(CC1(NC(=O)c2ccccc2[N+](=O)[O-])CCC1)OCCOCCOCCOC(=O)c1ccc(-c2c3nc(c(-c4cccc(S(=O)(=O)[O-])c4F)c4ccc([nH]4)c(-c4cccc(S(=O)(=O)[O-])c4F)c4nc(c(-c5cccc(S(=O)(=O)[O-])c5F)c5ccc2[nH]5)C=C4)C=C3)cc1
REMARK SMILES IDX 24 1 23 2 22 3 21 4 20 5 2 6 1 7 3 8 4 9 17 10 19 11 18 12
REMARK SMILES IDX 5 13 6 14 7 16 8 17 9 18 13 19 10 20 12 21 11 22 14 23 15 24
REMARK SMILES IDX 16 25 25 26 26 27 27 28 28 29 29 30 30 31 31 32 32 33 33 34
REMARK SMILES IDX 94 35 34 36 93 37 35 38 36 39 37 40 87 41 38 42 92 43 86 44
REMARK SMILES IDX 88 45 39 46 91 47 85 48 84 49 40 51 72 52 52 53 71 54 53 55
REMARK SMILES IDX 56 56 70 57 89 58 54 59 55 60 69 62 90 63 57 64 41 65 42 66
REMARK SMILES IDX 50 67 43 68 45 69 51 70 44 71 46 72 47 73 48 74 49 75 73 76
REMARK SMILES IDX 74 77 82 78 75 79 77 80 83 81 76 82 78 83 79 84 80 85 81 86
REMARK SMILES IDX 58 87 59 88 67 89 60 90 62 91 68 92 61 93 63 94 64 95 65 96
REMARK SMILES IDX 66 97
REMARK H PARENT 5 15 88 50 56 61
REMARK Flexibility Score: inf
ROOT
ATOM      1  C   UNL A   1      33.985  29.171  26.152  1.00  0.00     0.188 C 
ENDROOT
BRANCH   1   2
ATOM      2  O   UNL A   1      33.532  27.858  26.449  1.00  0.00    -0.376 OA
BRANCH   2   3
ATOM      3  C   UNL A   1      32.268  27.718  27.068  1.00  0.00     0.202 C 
BRANCH   3   4
ATOM      4  C   UNL A   1      31.155  27.118  26.199  1.00  0.00     0.261 C 
BRANCH   4   5
ATOM      5  O   UNL A   1      31.528  26.248  25.106  1.00  0.00    -0.463 OA
BRANCH   5   6
ATOM      6  C   UNL A   1      31.676  26.531  23.800  1.00  0.00     0.308 C 
ATOM      7  O   UNL A   1      31.614  27.698  23.423  1.00  0.00    -0.252 OA
BRANCH   6   8
ATOM      8  C   UNL A   1      31.818  25.419  22.804  1.00  0.00     0.151 C 
BRANCH   8   9
ATOM      9  C   UNL A   1      32.350  24.099  23.340  1.00  0.00     0.051 C 
ATOM     10  C   UNL A   1      32.924  23.022  22.354  1.00  0.00     0.029 C 
ATOM     11  C   UNL A   1      33.842  24.300  23.816  1.00  0.00     0.029 C 
ATOM     12  C   UNL A   1      34.331  23.600  22.547  1.00  0.00     0.005 C 
BRANCH   9  13
ATOM     13  N   UNL A   1      31.563  23.468  24.441  1.00  0.00    -0.346 N 
ATOM     14  C   UNL A   1      31.713  22.397  25.291  1.00  0.00     0.258 C 
ATOM     15  H   UNL A   1      30.716  23.943  24.600  1.00  0.00     0.164 HD
ATOM     16  O   UNL A   1      30.936  22.264  26.235  1.00  0.00    -0.269 OA
BRANCH  14  17
ATOM     17  C   UNL A   1      32.662  21.301  25.065  1.00  0.00     0.117 A 
ATOM     18  C   UNL A   1      32.176  20.269  24.238  1.00  0.00     0.021 A 
ATOM     19  C   UNL A   1      33.908  21.144  25.681  1.00  0.00     0.282 A 
ATOM     20  C   UNL A   1      32.947  19.134  23.981  1.00  0.00     0.001 A 
ATOM     21  C   UNL A   1      34.710  20.028  25.357  1.00  0.00     0.086 A 
ATOM     22  C   UNL A   1      34.229  19.030  24.507  1.00  0.00     0.007 A 
BRANCH  19  23
ATOM     23  N   UNL A   1      34.386  22.048  26.733  1.00  0.00     0.063 N 
ATOM     24  O   UNL A   1      35.278  22.854  26.424  1.00  0.00    -0.258 OA
ATOM     25  O   UNL A   1      33.915  21.946  27.871  1.00  0.00    -0.258 OA
ENDBRANCH  19  23
ENDBRANCH  14  17
ENDBRANCH   9  13
ENDBRANCH   8   9
ENDBRANCH   6   8
ENDBRANCH   5   6
ENDBRANCH   4   5
ENDBRANCH   3   4
ENDBRANCH   2   3
ENDBRANCH   1   2
BRANCH   1  26
ATOM     26  C   UNL A   1      34.615  29.885  27.356  1.00  0.00     0.188 C 
BRANCH  26  27
ATOM     27  O   UNL A   1      33.903  30.990  27.902  1.00  0.00    -0.376 OA
BRANCH  27  28
ATOM     28  C   UNL A   1      32.683  31.358  27.257  1.00  0.00     0.202 C 
BRANCH  28  29
ATOM     29  C   UNL A   1      32.263  32.842  27.271  1.00  0.00     0.261 C 
BRANCH  29  30
ATOM     30  O   UNL A   1      33.337  33.807  27.331  1.00  0.00    -0.460 OA
BRANCH  30  31
ATOM     31  C   UNL A   1      33.308  34.630  28.404  1.00  0.00     0.338 C 
ATOM     32  O   UNL A   1      32.483  35.515  28.632  1.00  0.00    -0.246 OA
BRANCH  31  33
ATOM     33  C   UNL A   1      34.353  34.302  29.386  1.00  0.00     0.060 A 
ATOM     34  C   UNL A   1      35.698  34.402  29.007  1.00  0.00     0.016 A 
ATOM     35  C   UNL A   1      34.004  33.655  30.574  1.00  0.00     0.016 A 
ATOM     36  C   UNL A   1      36.691  33.808  29.791  1.00  0.00     0.010 A 
ATOM     37  C   UNL A   1      35.004  33.064  31.356  1.00  0.00     0.010 A 
ATOM     38  C   UNL A   1      36.348  33.101  30.947  1.00  0.00    -0.014 A 
BRANCH  38  39
ATOM     39  C   UNL A   1      37.351  32.230  31.612  1.00  0.00     0.031 A 
ATOM     40  C   UNL A   1      37.805  32.585  33.000  1.00  0.00     0.074 A 
ATOM     41  C   UNL A   1      37.859  31.143  31.006  1.00  0.00     0.049 A 
ATOM     42  N   UNL A   1      38.805  32.108  33.694  1.00  0.00    -0.248 NA
ATOM     43  C   UNL A   1      37.020  33.617  33.698  1.00  0.00     0.031 C 
ATOM     44  C   UNL A   1      37.445  30.628  29.704  1.00  0.00     0.029 A 
ATOM     45  N   UNL A   1      38.868  30.297  31.403  1.00  0.00    -0.354 N 
ATOM     46  C   UNL A   1      38.811  32.826  34.883  1.00  0.00     0.074 A 
ATOM     47  C   UNL A   1      37.694  33.746  34.831  1.00  0.00     0.031 C 
ATOM     48  C   UNL A   1      38.224  29.581  29.385  1.00  0.00     0.029 A 
ATOM     49  C   UNL A   1      39.230  29.393  30.432  1.00  0.00     0.049 A 
ATOM     50  H   UNL A   1      39.288  30.333  32.292  1.00  0.00     0.167 HD
ATOM     51  C   UNL A   1      39.674  32.736  35.922  1.00  0.00     0.034 A 
ATOM     52  C   UNL A   1      40.288  28.558  30.364  1.00  0.00     0.034 A 
ATOM     53  C   UNL A   1      40.768  31.808  35.987  1.00  0.00     0.049 A 
ATOM     54  C   UNL A   1      41.276  28.510  31.503  1.00  0.00     0.074 A 
ATOM     55  C   UNL A   1      41.699  31.644  36.998  1.00  0.00     0.029 A 
ATOM     56  N   UNL A   1      41.085  30.890  34.998  1.00  0.00    -0.354 N 
ATOM     57  N   UNL A   1      41.262  29.170  32.637  1.00  0.00    -0.248 NA
ATOM     58  C   UNL A   1      42.421  27.598  31.360  1.00  0.00     0.031 C 
ATOM     59  C   UNL A   1      42.591  30.638  36.611  1.00  0.00     0.029 A 
ATOM     60  C   UNL A   1      42.202  30.162  35.369  1.00  0.00     0.049 A 
ATOM     61  H   UNL A   1      40.589  30.773  34.157  1.00  0.00     0.167 HD
ATOM     62  C   UNL A   1      42.374  28.735  33.351  1.00  0.00     0.074 A 
ATOM     63  C   UNL A   1      43.035  27.743  32.528  1.00  0.00     0.031 C 
ATOM     64  C   UNL A   1      42.818  29.133  34.569  1.00  0.00     0.034 A 
BRANCH  51  65
ATOM     65  C   UNL A   1      39.476  33.695  37.062  1.00  0.00     0.023 A 
ATOM     66  C   UNL A   1      39.860  35.043  36.927  1.00  0.00     0.012 A 
ATOM     67  C   UNL A   1      38.900  33.256  38.270  1.00  0.00     0.148 A 
ATOM     68  C   UNL A   1      39.708  35.932  37.990  1.00  0.00     0.002 A 
ATOM     69  C   UNL A   1      38.716  34.155  39.312  1.00  0.00     0.091 A 
ATOM     70  F   UNL A   1      38.573  31.961  38.392  1.00  0.00    -0.205 F 
ATOM     71  C   UNL A   1      39.129  35.491  39.179  1.00  0.00     0.022 A 
BRANCH  69  72
ATOM     72  S   UNL A   1      37.919  33.677  40.848  1.00  0.00     0.127 S 
ATOM     73  O   UNL A   1      38.438  34.681  41.776  1.00  0.00    -0.237 OA
ATOM     74  O   UNL A   1      36.499  33.822  40.525  1.00  0.00    -0.237 OA
ATOM     75  O   UNL A   1      38.340  32.305  41.097  1.00  0.00    -0.744 OA
ENDBRANCH  69  72
ENDBRANCH  51  65
BRANCH  52  76
ATOM     76  C   UNL A   1      40.479  27.715  29.150  1.00  0.00     0.023 A 
ATOM     77  C   UNL A   1      39.689  26.565  28.965  1.00  0.00     0.012 A 
ATOM     78  C   UNL A   1      41.412  28.076  28.156  1.00  0.00     0.148 A 
ATOM     79  C   UNL A   1      39.831  25.784  27.817  1.00  0.00     0.002 A 
ATOM     80  C   UNL A   1      41.505  27.329  26.988  1.00  0.00     0.091 A 
ATOM     81  F   UNL A   1      42.173  29.160  28.364  1.00  0.00    -0.205 F 
ATOM     82  C   UNL A   1      40.728  26.174  26.823  1.00  0.00     0.022 A 
BRANCH  80  83
ATOM     83  S   UNL A   1      42.527  27.837  25.601  1.00  0.00     0.127 S 
ATOM     84  O   UNL A   1      42.427  26.681  24.713  1.00  0.00    -0.237 OA
ATOM     85  O   UNL A   1      41.830  29.036  25.134  1.00  0.00    -0.237 OA
ATOM     86  O   UNL A   1      43.850  28.092  26.156  1.00  0.00    -0.744 OA
ENDBRANCH  80  83
ENDBRANCH  52  76
BRANCH  64  87
ATOM     87  C   UNL A   1      44.057  28.482  35.126  1.00  0.00     0.023 A 
ATOM     88  C   UNL A   1      45.326  28.983  34.775  1.00  0.00     0.012 A 
ATOM     89  C   UNL A   1      43.959  27.456  36.087  1.00  0.00     0.148 A 
ATOM     90  C   UNL A   1      46.480  28.462  35.364  1.00  0.00     0.002 A 
ATOM     91  C   UNL A   1      45.109  26.973  36.700  1.00  0.00     0.091 A 
ATOM     92  F   UNL A   1      42.742  26.981  36.393  1.00  0.00    -0.205 F 
ATOM     93  C   UNL A   1      46.371  27.469  36.335  1.00  0.00     0.022 A 
BRANCH  91  94
ATOM     94  S   UNL A   1      45.057  25.764  38.030  1.00  0.00     0.127 S 
ATOM     95  O   UNL A   1      46.462  25.699  38.429  1.00  0.00    -0.237 OA
ATOM     96  O   UNL A   1      44.175  26.408  39.004  1.00  0.00    -0.237 OA
ATOM     97  O   UNL A   1      44.517  24.545  37.442  1.00  0.00    -0.744 OA
ENDBRANCH  91  94
ENDBRANCH  64  87
ENDBRANCH  38  39
ENDBRANCH  31  33
ENDBRANCH  30  31
ENDBRANCH  29  30
ENDBRANCH  28  29
ENDBRANCH  27  28
ENDBRANCH  26  27
ENDBRANCH   1  26
TORSDOF 24
ENDMDL
MODEL 3
REMARK VINA RESULT:      -9.9      1.683      2.489
REMARK SMILES O=C(CC1(NC(=O)c2ccccc2[N+](=O)[O-])CCC1)OCCOCCOCCOC(=O)c1ccc(-c2c3nc(c(-c4cccc(S(=O)(=O)[O-])c4F)c4ccc([nH]4)c(-c4cccc(S(=O)(=O)[O-])c4F)c4nc(c(-c5cccc(S(=O)(=O)[O-])c5F)c5ccc2[nH]5)C=C4)C=C3)cc1
REMARK SMILES IDX 24 1 23 2 22 3 21 4 20 5 2 6 1 7 3 8 4 9 17 10 19 11 18 12
REMARK SMILES IDX 5 13 6 14 7 16 8 17 9 18 13 19 10 20 12 21 11 22 14 23 15 24
REMARK SMILES IDX 16 25 25 26 26 27 27 28 28 29 29 30 30 31 31 32 32 33 33 34
REMARK SMILES IDX 94 35 34 36 93 37 35 38 36 39 37 40 87 41 38 42 92 43 86 44
REMARK SMILES IDX 88 45 39 46 91 47 85 48 84 49 40 51 72 52 52 53 71 54 53 55
REMARK SMILES IDX 56 56 70 57 89 58 54 59 55 60 69 62 90 63 57 64 41 65 42 66
REMARK SMILES IDX 50 67 43 68 45 69 51 70 44 71 46 72 47 73 48 74 49 75 73 76
REMARK SMILES IDX 74 77 82 78 75 79 77 80 83 81 76 82 78 83 79 84 80 85 81 86
REMARK SMILES IDX 58 87 59 88 67 89 60 90 62 91 68 92 61 93 63 94 64 95 65 96
REMARK SMILES IDX 66 97
REMARK H PARENT 5 15 88 50 56 61
REMARK Flexibility Score: inf
ROOT
ATOM      1  C   UNL A   1      32.547  29.023  24.239  1.00  0.00     0.188 C 
ENDROOT
BRANCH   1   2
ATOM      2  O   UNL A   1      33.173  27.889  23.658  1.00  0.00    -0.376 OA
BRANCH   2   3
ATOM      3  C   UNL A   1      32.411  27.096  22.768  1.00  0.00     0.202 C 
BRANCH   3   4
ATOM      4  C   UNL A   1      33.210  26.197  21.815  1.00  0.00     0.261 C 
BRANCH   4   5
ATOM      5  O   UNL A   1      33.941  25.081  22.370  1.00  0.00    -0.463 OA
BRANCH   5   6
ATOM      6  C   UNL A   1      33.749  23.761  22.197  1.00  0.00     0.308 C 
ATOM      7  O   UNL A   1      33.229  23.356  21.159  1.00  0.00    -0.252 OA
BRANCH   6   8
ATOM      8  C   UNL A   1      34.077  22.805  23.303  1.00  0.00     0.151 C 
BRANCH   8   9
ATOM      9  C   UNL A   1      35.203  23.218  24.238  1.00  0.00     0.051 C 
ATOM     10  C   UNL A   1      35.899  22.151  25.154  1.00  0.00     0.029 C 
ATOM     11  C   UNL A   1      36.559  23.249  23.430  1.00  0.00     0.029 C 
ATOM     12  C   UNL A   1      36.961  21.920  24.073  1.00  0.00     0.005 C 
BRANCH   9  13
ATOM     13  N   UNL A   1      35.025  24.518  24.951  1.00  0.00    -0.346 N 
ATOM     14  C   UNL A   1      34.118  25.059  25.832  1.00  0.00     0.258 C 
ATOM     15  H   UNL A   1      35.746  25.152  24.735  1.00  0.00     0.164 HD
ATOM     16  O   UNL A   1      34.379  26.126  26.386  1.00  0.00    -0.269 OA
BRANCH  14  17
ATOM     17  C   UNL A   1      32.772  24.519  26.053  1.00  0.00     0.117 A 
ATOM     18  C   UNL A   1      31.726  25.399  25.712  1.00  0.00     0.021 A 
ATOM     19  C   UNL A   1      32.459  23.303  26.671  1.00  0.00     0.282 A 
ATOM     20  C   UNL A   1      30.393  25.042  25.923  1.00  0.00     0.001 A 
ATOM     21  C   UNL A   1      31.107  22.921  26.812  1.00  0.00     0.086 A 
ATOM     22  C   UNL A   1      30.081  23.789  26.435  1.00  0.00     0.007 A 
BRANCH  19  23
ATOM     23  N   UNL A   1      33.482  22.438  27.269  1.00  0.00     0.063 N 
ATOM     24  O   UNL A   1      34.278  22.966  28.061  1.00  0.00    -0.258 OA
ATOM     25  O   UNL A   1      33.530  21.249  26.934  1.00  0.00    -0.258 OA
ENDBRANCH  19  23
ENDBRANCH  14  17
ENDBRANCH   9  13
ENDBRANCH   8   9
ENDBRANCH   6   8
ENDBRANCH   5   6
ENDBRANCH   4   5
ENDBRANCH   3   4
ENDBRANCH   2   3
ENDBRANCH   1   2
BRANCH   1  26
ATOM     26  C   UNL A   1      33.208  29.481  25.547  1.00  0.00     0.188 C 
BRANCH  26  27
ATOM     27  O   UNL A   1      32.347  29.876  26.607  1.00  0.00    -0.376 OA
BRANCH  27  28
ATOM     28  C   UNL A   1      31.273  30.758  26.276  1.00  0.00     0.202 C 
BRANCH  28  29
ATOM     29  C   UNL A   1      31.346  32.220  26.760  1.00  0.00     0.261 C 
BRANCH  29  30
ATOM     30  O   UNL A   1      32.641  32.856  26.672  1.00  0.00    -0.460 OA
BRANCH  30  31
ATOM     31  C   UNL A   1      33.201  33.183  27.859  1.00  0.00     0.338 C 
ATOM     32  O   UNL A   1      32.691  33.857  28.754  1.00  0.00    -0.246 OA
BRANCH  31  33
ATOM     33  C   UNL A   1      34.517  32.551  28.047  1.00  0.00     0.060 A 
ATOM     34  C   UNL A   1      34.584  31.282  28.637  1.00  0.00     0.016 A 
ATOM     35  C   UNL A   1      35.677  33.312  27.884  1.00  0.00     0.016 A 
ATOM     36  C   UNL A   1      35.805  30.795  29.111  1.00  0.00     0.010 A 
ATOM     37  C   UNL A   1      36.898  32.818  28.359  1.00  0.00     0.010 A 
ATOM     38  C   UNL A   1      36.961  31.576  29.012  1.00  0.00    -0.014 A 
BRANCH  38  39
ATOM     39  C   UNL A   1      38.181  31.195  29.770  1.00  0.00     0.031 A 
ATOM     40  C   UNL A   1      39.109  30.174  29.172  1.00  0.00     0.074 A 
ATOM     41  C   UNL A   1      38.472  31.735  30.965  1.00  0.00     0.049 A 
ATOM     42  N   UNL A   1      40.109  29.538  29.723  1.00  0.00    -0.248 NA
ATOM     43  C   UNL A   1      38.876  29.829  27.760  1.00  0.00     0.031 C 
ATOM     44  C   UNL A   1      37.715  32.799  31.620  1.00  0.00     0.029 A 
ATOM     45  N   UNL A   1      39.472  31.429  31.857  1.00  0.00    -0.354 N 
ATOM     46  C   UNL A   1      40.584  28.670  28.748  1.00  0.00     0.074 A 
ATOM     47  C   UNL A   1      39.785  28.887  27.561  1.00  0.00     0.031 C 
ATOM     48  C   UNL A   1      38.249  33.026  32.832  1.00  0.00     0.029 A 
ATOM     49  C   UNL A   1      39.344  32.082  33.060  1.00  0.00     0.049 A 
ATOM     50  H   UNL A   1      40.207  30.805  31.656  1.00  0.00     0.167 HD
ATOM     51  C   UNL A   1      41.587  27.766  28.835  1.00  0.00     0.034 A 
ATOM     52  C   UNL A   1      39.988  31.895  34.232  1.00  0.00     0.034 A 
ATOM     53  C   UNL A   1      42.398  27.566  30.004  1.00  0.00     0.049 A 
ATOM     54  C   UNL A   1      41.064  30.843  34.331  1.00  0.00     0.074 A 
ATOM     55  C   UNL A   1      43.437  26.672  30.188  1.00  0.00     0.029 A 
ATOM     56  N   UNL A   1      42.256  28.266  31.192  1.00  0.00    -0.354 N 
ATOM     57  N   UNL A   1      41.528  30.044  33.400  1.00  0.00    -0.248 NA
ATOM     58  C   UNL A   1      41.713  30.670  35.640  1.00  0.00     0.031 C 
ATOM     59  C   UNL A   1      43.912  26.818  31.497  1.00  0.00     0.029 A 
ATOM     60  C   UNL A   1      43.182  27.819  32.118  1.00  0.00     0.049 A 
ATOM     61  H   UNL A   1      41.595  28.977  31.353  1.00  0.00     0.167 HD
ATOM     62  C   UNL A   1      42.537  29.297  33.999  1.00  0.00     0.074 A 
ATOM     63  C   UNL A   1      42.628  29.747  35.373  1.00  0.00     0.031 C 
ATOM     64  C   UNL A   1      43.306  28.315  33.466  1.00  0.00     0.034 A 
BRANCH  51  65
ATOM     65  C   UNL A   1      41.841  26.906  27.630  1.00  0.00     0.023 A 
ATOM     66  C   UNL A   1      42.404  27.467  26.468  1.00  0.00     0.012 A 
ATOM     67  C   UNL A   1      41.523  25.534  27.654  1.00  0.00     0.148 A 
ATOM     68  C   UNL A   1      42.615  26.682  25.334  1.00  0.00     0.002 A 
ATOM     69  C   UNL A   1      41.771  24.750  26.534  1.00  0.00     0.091 A 
ATOM     70  F   UNL A   1      40.955  25.026  28.757  1.00  0.00    -0.205 F 
ATOM     71  C   UNL A   1      42.307  25.323  25.370  1.00  0.00     0.022 A 
BRANCH  69  72
ATOM     72  S   UNL A   1      41.461  22.981  26.527  1.00  0.00     0.127 S 
ATOM     73  O   UNL A   1      40.003  22.936  26.439  1.00  0.00    -0.237 OA
ATOM     74  O   UNL A   1      42.160  22.543  25.318  1.00  0.00    -0.237 OA
ATOM     75  O   UNL A   1      42.037  22.479  27.768  1.00  0.00    -0.744 OA
ENDBRANCH  69  72
ENDBRANCH  51  65
BRANCH  52  76
ATOM     76  C   UNL A   1      39.605  32.713  35.417  1.00  0.00     0.023 A 
ATOM     77  C   UNL A   1      38.752  32.170  36.396  1.00  0.00     0.012 A 
ATOM     78  C   UNL A   1      40.121  34.013  35.599  1.00  0.00     0.148 A 
ATOM     79  C   UNL A   1      38.411  32.911  37.529  1.00  0.00     0.002 A 
ATOM     80  C   UNL A   1      39.828  34.720  36.757  1.00  0.00     0.091 A 
ATOM     81  F   UNL A   1      40.911  34.520  34.642  1.00  0.00    -0.205 F 
ATOM     82  C   UNL A   1      38.960  34.179  37.717  1.00  0.00     0.022 A 
BRANCH  80  83
ATOM     83  S   UNL A   1      40.602  36.294  37.146  1.00  0.00     0.127 S 
ATOM     84  O   UNL A   1      39.676  36.851  38.129  1.00  0.00    -0.237 OA
ATOM     85  O   UNL A   1      41.894  35.871  37.685  1.00  0.00    -0.237 OA
ATOM     86  O   UNL A   1      40.688  37.015  35.883  1.00  0.00    -0.744 OA
ENDBRANCH  80  83
ENDBRANCH  52  76
BRANCH  64  87
ATOM     87  C   UNL A   1      44.350  27.670  34.340  1.00  0.00     0.023 A 
ATOM     88  C   UNL A   1      45.616  28.272  34.476  1.00  0.00     0.012 A 
ATOM     89  C   UNL A   1      44.034  26.537  35.116  1.00  0.00     0.148 A 
ATOM     90  C   UNL A   1      46.557  27.747  35.364  1.00  0.00     0.002 A 
ATOM     91  C   UNL A   1      44.961  26.046  36.029  1.00  0.00     0.091 A 
ATOM     92  F   UNL A   1      42.830  25.968  34.958  1.00  0.00    -0.205 F 
ATOM     93  C   UNL A   1      46.226  26.645  36.148  1.00  0.00     0.022 A 
BRANCH  91  94
ATOM     94  S   UNL A   1      44.586  24.692  37.150  1.00  0.00     0.127 S 
ATOM     95  O   UNL A   1      45.101  23.541  36.410  1.00  0.00    -0.237 OA
ATOM     96  O   UNL A   1      45.359  25.048  38.340  1.00  0.00    -0.237 OA
ATOM     97  O   UNL A   1      43.142  24.718  37.340  1.00  0.00    -0.744 OA
ENDBRANCH  91  94
ENDBRANCH  64  87
ENDBRANCH  38  39
ENDBRANCH  31  33
ENDBRANCH  30  31
ENDBRANCH  29  30
ENDBRANCH  28  29
ENDBRANCH  27  28
ENDBRANCH  26  27
ENDBRANCH   1  26
TORSDOF 24
ENDMDL
