MODEL 1
REMARK VINA RESULT:      -9.2      0.000      0.000
REMARK SMILES NS(=O)(=O)c1ccc(C#Cc2cc(Cl)cc3c2O[C@H](C(F)(F)F)C(C(=O)OCCOCCOCCOC(=O)c2ccc(-c4c5nc(c(-c6cccc(S(=O)(=O)[O-])c6F)c6ccc([nH]6)c(-c6cccc(S(=O)(=O)[O-])c6F)c6nc(c(-c7cccc(S(=O)(=O)[O-])c7F)c7ccc4[nH]7)C=C6)C=C5)cc2)=C3)cc1
REMARK SMILES IDX 31 1 30 2 29 3 28 4 27 5 25 6 26 7 24 8 11 9 12 10 17 11
REMARK SMILES IDX 13 12 16 13 18 14 14 15 15 16 102 17 19 18 10 19 9 20 8 21
REMARK SMILES IDX 5 22 6 23 104 24 7 25 103 26 2 27 3 28 4 29 1 30 20 33 21 34
REMARK SMILES IDX 22 35 23 36 32 37 33 38 34 39 35 40 36 41 37 42 38 43 39 44
REMARK SMILES IDX 40 45 101 46 41 47 100 48 42 49 43 50 44 51 94 52 45 53
REMARK SMILES IDX 99 54 93 55 95 56 46 57 98 58 92 59 91 60 47 62 79 63 59 64
REMARK SMILES IDX 78 65 60 66 63 67 77 68 96 69 61 70 62 71 76 73 97 74 64 75
REMARK SMILES IDX 48 76 49 77 57 78 50 79 52 80 58 81 51 82 53 83 54 84 55 85
REMARK SMILES IDX 56 86 80 87 81 88 89 89 82 90 84 91 90 92 83 93 85 94 86 95
REMARK SMILES IDX 87 96 88 97 65 98 66 99 74 100 67 101 69 102 75 103 68 104
REMARK SMILES IDX 70 105 71 106 72 107 73 108
REMARK H PARENT 1 31 1 32 95 61 63 72
REMARK Flexibility Score: inf
ROOT
ATOM      1  C   UNL A   1      32.924  35.738  32.140  1.00  0.00     0.188 C 
ENDROOT
BRANCH   1   2
ATOM      2  O   UNL A   1      33.050  34.409  32.585  1.00  0.00    -0.376 OA
BRANCH   2   3
ATOM      3  C   UNL A   1      34.312  33.767  32.604  1.00  0.00     0.202 C 
BRANCH   3   4
ATOM      4  C   UNL A   1      35.357  33.850  33.736  1.00  0.00     0.261 C 
BRANCH   4   5
ATOM      5  O   UNL A   1      35.800  32.628  34.333  1.00  0.00    -0.460 OA
BRANCH   5   6
ATOM      6  C   UNL A   1      37.029  32.201  33.950  1.00  0.00     0.338 C 
ATOM      7  O   UNL A   1      37.274  31.288  33.180  1.00  0.00    -0.246 OA
BRANCH   6   8
ATOM      8  C   UNL A   1      38.059  33.113  34.494  1.00  0.00     0.087 C 
ATOM      9  C   UNL A   1      40.733  35.975  35.964  1.00  0.00     0.069 A 
ATOM     10  C   UNL A   1      40.579  36.445  37.272  1.00  0.00     0.041 A 
ATOM     11  C   UNL A   1      39.904  34.944  35.486  1.00  0.00     0.143 A 
ATOM     12  C   UNL A   1      39.622  35.871  38.106  1.00  0.00     0.043 A 
ATOM     13  C   UNL A   1      38.915  34.406  36.318  1.00  0.00     0.020 A 
ATOM     14  O   UNL A   1      40.105  34.513  34.203  1.00  0.00    -0.474 OA
ATOM     15  Cl  UNL A   1      39.436  36.457  39.711  1.00  0.00    -0.084 Cl
ATOM     16  C   UNL A   1      38.793  34.852  37.640  1.00  0.00     0.032 A 
ATOM     17  C   UNL A   1      37.961  33.442  35.789  1.00  0.00     0.027 C 
ATOM     18  C   UNL A   1      39.151  33.609  33.588  1.00  0.00     0.316 C 
BRANCH   9  19
ATOM     19  C   UNL A   1      41.698  36.616  35.118  1.00  0.00    -0.058 C 
ATOM     20  C   UNL A   1      42.539  37.093  34.399  1.00  0.00    -0.062 C 
BRANCH  20  21
ATOM     21  C   UNL A   1      43.588  37.583  33.558  1.00  0.00     0.025 A 
ATOM     22  C   UNL A   1      45.755  38.546  32.086  1.00  0.00     0.082 A 
ATOM     23  C   UNL A   1      44.881  39.447  32.703  1.00  0.00     0.023 A 
ATOM     24  C   UNL A   1      45.526  37.168  32.160  1.00  0.00     0.023 A 
ATOM     25  C   UNL A   1      43.800  38.960  33.444  1.00  0.00     0.018 A 
ATOM     26  C   UNL A   1      44.439  36.689  32.899  1.00  0.00     0.018 A 
BRANCH  22  27
ATOM     27  S   UNL A   1      47.192  39.167  31.265  1.00  0.00     0.238 S 
ATOM     28  O   UNL A   1      48.343  38.910  32.097  1.00  0.00    -0.207 OA
ATOM     29  O   UNL A   1      46.900  40.473  30.721  1.00  0.00    -0.207 OA
BRANCH  27  30
ATOM     30  N   UNL A   1      47.364  38.169  29.922  1.00  0.00    -0.225 NA
ATOM     31  H   UNL A   1      47.043  38.662  29.089  1.00  0.00     0.137 HD
ATOM     32  H   UNL A   1      46.808  37.324  30.054  1.00  0.00     0.137 HD
ENDBRANCH  27  30
ENDBRANCH  22  27
ENDBRANCH  20  21
ENDBRANCH   9  19
BRANCH  18  33
ATOM     33  C   UNL A   1      38.589  34.284  32.330  1.00  0.00     0.430 C 
ATOM     34  F   UNL A   1      37.645  35.205  32.644  1.00  0.00    -0.167 F 
ATOM     35  F   UNL A   1      39.551  34.941  31.639  1.00  0.00    -0.167 F 
ATOM     36  F   UNL A   1      38.021  33.393  31.488  1.00  0.00    -0.167 F 
ENDBRANCH  18  33
ENDBRANCH   6   8
ENDBRANCH   5   6
ENDBRANCH   4   5
ENDBRANCH   3   4
ENDBRANCH   2   3
ENDBRANCH   1   2
BRANCH   1  37
ATOM     37  C   UNL A   1      32.933  35.968  30.614  1.00  0.00     0.188 C 
BRANCH  37  38
ATOM     38  O   UNL A   1      32.731  34.868  29.754  1.00  0.00    -0.376 OA
BRANCH  38  39
ATOM     39  C   UNL A   1      33.814  34.374  28.981  1.00  0.00     0.202 C 
BRANCH  39  40
ATOM     40  C   UNL A   1      33.816  33.043  28.195  1.00  0.00     0.261 C 
BRANCH  40  41
ATOM     41  O   UNL A   1      35.027  32.281  28.153  1.00  0.00    -0.460 OA
BRANCH  41  42
ATOM     42  C   UNL A   1      34.884  30.934  28.032  1.00  0.00     0.338 C 
ATOM     43  O   UNL A   1      33.930  30.337  27.566  1.00  0.00    -0.246 OA
BRANCH  42  44
ATOM     44  C   UNL A   1      36.184  30.308  28.361  1.00  0.00     0.060 A 
ATOM     45  C   UNL A   1      37.239  30.374  27.453  1.00  0.00     0.016 A 
ATOM     46  C   UNL A   1      36.333  29.613  29.572  1.00  0.00     0.016 A 
ATOM     47  C   UNL A   1      38.447  29.746  27.762  1.00  0.00     0.010 A 
ATOM     48  C   UNL A   1      37.537  28.967  29.868  1.00  0.00     0.010 A 
ATOM     49  C   UNL A   1      38.611  29.044  28.973  1.00  0.00    -0.014 A 
BRANCH  49  50
ATOM     50  C   UNL A   1      39.962  28.561  29.357  1.00  0.00     0.031 A 
ATOM     51  C   UNL A   1      40.630  27.402  28.678  1.00  0.00     0.074 A 
ATOM     52  C   UNL A   1      40.597  29.207  30.354  1.00  0.00     0.049 A 
ATOM     53  N   UNL A   1      41.851  26.960  28.839  1.00  0.00    -0.248 NA
ATOM     54  C   UNL A   1      39.840  26.642  27.697  1.00  0.00     0.031 C 
ATOM     55  C   UNL A   1      40.026  30.311  31.129  1.00  0.00     0.029 A 
ATOM     56  N   UNL A   1      41.852  29.042  30.882  1.00  0.00    -0.354 N 
ATOM     57  C   UNL A   1      41.982  25.870  27.989  1.00  0.00     0.074 A 
ATOM     58  C   UNL A   1      40.706  25.705  27.323  1.00  0.00     0.031 C 
ATOM     59  C   UNL A   1      40.938  30.745  32.011  1.00  0.00     0.029 A 
ATOM     60  C   UNL A   1      42.146  29.936  31.884  1.00  0.00     0.049 A 
ATOM     61  H   UNL A   1      42.481  28.351  30.573  1.00  0.00     0.167 HD
ATOM     62  C   UNL A   1      43.073  25.096  27.772  1.00  0.00     0.034 A 
ATOM     63  C   UNL A   1      43.264  30.099  32.619  1.00  0.00     0.034 A 
ATOM     64  C   UNL A   1      44.343  25.270  28.429  1.00  0.00     0.049 A 
ATOM     65  C   UNL A   1      44.456  29.227  32.358  1.00  0.00     0.074 A 
ATOM     66  C   UNL A   1      45.519  24.569  28.216  1.00  0.00     0.029 A 
ATOM     67  N   UNL A   1      44.603  26.187  29.435  1.00  0.00    -0.354 N 
ATOM     68  N   UNL A   1      44.601  28.289  31.456  1.00  0.00    -0.248 NA
ATOM     69  C   UNL A   1      45.645  29.450  33.192  1.00  0.00     0.031 C 
ATOM     70  C   UNL A   1      46.479  25.038  29.117  1.00  0.00     0.029 A 
ATOM     71  C   UNL A   1      45.913  26.057  29.864  1.00  0.00     0.049 A 
ATOM     72  H   UNL A   1      43.953  26.834  29.792  1.00  0.00     0.167 HD
ATOM     73  C   UNL A   1      45.902  27.823  31.598  1.00  0.00     0.074 A 
ATOM     74  C   UNL A   1      46.508  28.590  32.666  1.00  0.00     0.031 C 
ATOM     75  C   UNL A   1      46.527  26.843  30.904  1.00  0.00     0.034 A 
BRANCH  62  76
ATOM     76  C   UNL A   1      42.984  24.003  26.741  1.00  0.00     0.023 A 
ATOM     77  C   UNL A   1      43.665  24.156  25.516  1.00  0.00     0.012 A 
ATOM     78  C   UNL A   1      42.357  22.777  27.038  1.00  0.00     0.148 A 
ATOM     79  C   UNL A   1      43.718  23.105  24.601  1.00  0.00     0.002 A 
ATOM     80  C   UNL A   1      42.436  21.726  26.130  1.00  0.00     0.091 A 
ATOM     81  F   UNL A   1      41.719  22.656  28.210  1.00  0.00    -0.205 F 
ATOM     82  C   UNL A   1      43.116  21.890  24.912  1.00  0.00     0.022 A 
BRANCH  80  83
ATOM     83  S   UNL A   1      41.729  20.106  26.450  1.00  0.00     0.127 S 
ATOM     84  O   UNL A   1      42.322  19.779  27.746  1.00  0.00    -0.237 OA
ATOM     85  O   UNL A   1      40.297  20.398  26.490  1.00  0.00    -0.237 OA
ATOM     86  O   UNL A   1      42.152  19.255  25.347  1.00  0.00    -0.744 OA
ENDBRANCH  80  83
ENDBRANCH  62  76
BRANCH  63  87
ATOM     87  C   UNL A   1      43.304  31.184  33.633  1.00  0.00     0.023 A 
ATOM     88  C   UNL A   1      43.815  32.446  33.277  1.00  0.00     0.012 A 
ATOM     89  C   UNL A   1      42.758  30.992  34.917  1.00  0.00     0.148 A 
ATOM     90  C   UNL A   1      43.781  33.503  34.187  1.00  0.00     0.002 A 
ATOM     91  C   UNL A   1      42.697  32.056  35.806  1.00  0.00     0.091 A 
ATOM     92  F   UNL A   1      42.273  29.780  35.222  1.00  0.00    -0.205 F 
ATOM     93  C   UNL A   1      43.213  33.312  35.446  1.00  0.00     0.022 A 
BRANCH  91  94
ATOM     94  S   UNL A   1      41.916  31.930  37.417  1.00  0.00     0.127 S 
ATOM     95  O   UNL A   1      42.742  30.916  38.069  1.00  0.00    -0.237 OA
ATOM     96  O   UNL A   1      42.082  33.287  37.935  1.00  0.00    -0.237 OA
ATOM     97  O   UNL A   1      40.537  31.539  37.162  1.00  0.00    -0.744 OA
ENDBRANCH  91  94
ENDBRANCH  63  87
BRANCH  75  98
ATOM     98  C   UNL A   1      47.958  26.525  31.246  1.00  0.00     0.023 A 
ATOM     99  C   UNL A   1      48.240  25.602  32.271  1.00  0.00     0.012 A 
ATOM    100  C   UNL A   1      49.010  27.038  30.462  1.00  0.00     0.148 A 
ATOM    101  C   UNL A   1      49.552  25.192  32.510  1.00  0.00     0.002 A 
ATOM    102  C   UNL A   1      50.310  26.602  30.686  1.00  0.00     0.091 A 
ATOM    103  F   UNL A   1      48.713  27.918  29.495  1.00  0.00    -0.205 F 
ATOM    104  C   UNL A   1      50.583  25.680  31.711  1.00  0.00     0.022 A 
BRANCH 102 105
ATOM    105  S   UNL A   1      51.699  27.131  29.676  1.00  0.00     0.127 S 
ATOM    106  O   UNL A   1      51.308  26.644  28.354  1.00  0.00    -0.237 OA
ATOM    107  O   UNL A   1      51.655  28.585  29.828  1.00  0.00    -0.237 OA
ATOM    108  O   UNL A   1      52.880  26.492  30.242  1.00  0.00    -0.744 OA
ENDBRANCH 102 105
ENDBRANCH  75  98
ENDBRANCH  49  50
ENDBRANCH  42  44
ENDBRANCH  41  42
ENDBRANCH  40  41
ENDBRANCH  39  40
ENDBRANCH  38  39
ENDBRANCH  37  38
ENDBRANCH   1  37
TORSDOF 25
ENDMDL
MODEL 2
REMARK VINA RESULT:      -8.5      1.793      2.152
REMARK SMILES NS(=O)(=O)c1ccc(C#Cc2cc(Cl)cc3c2O[C@H](C(F)(F)F)C(C(=O)OCCOCCOCCOC(=O)c2ccc(-c4c5nc(c(-c6cccc(S(=O)(=O)[O-])c6F)c6ccc([nH]6)c(-c6cccc(S(=O)(=O)[O-])c6F)c6nc(c(-c7cccc(S(=O)(=O)[O-])c7F)c7ccc4[nH]7)C=C6)C=C5)cc2)=C3)cc1
REMARK SMILES IDX 31 1 30 2 29 3 28 4 27 5 25 6 26 7 24 8 11 9 12 10 17 11
REMARK SMILES IDX 13 12 16 13 18 14 14 15 15 16 102 17 19 18 10 19 9 20 8 21
REMARK SMILES IDX 5 22 6 23 104 24 7 25 103 26 2 27 3 28 4 29 1 30 20 33 21 34
REMARK SMILES IDX 22 35 23 36 32 37 33 38 34 39 35 40 36 41 37 42 38 43 39 44
REMARK SMILES IDX 40 45 101 46 41 47 100 48 42 49 43 50 44 51 94 52 45 53
REMARK SMILES IDX 99 54 93 55 95 56 46 57 98 58 92 59 91 60 47 62 79 63 59 64
REMARK SMILES IDX 78 65 60 66 63 67 77 68 96 69 61 70 62 71 76 73 97 74 64 75
REMARK SMILES IDX 48 76 49 77 57 78 50 79 52 80 58 81 51 82 53 83 54 84 55 85
REMARK SMILES IDX 56 86 80 87 81 88 89 89 82 90 84 91 90 92 83 93 85 94 86 95
REMARK SMILES IDX 87 96 88 97 65 98 66 99 74 100 67 101 69 102 75 103 68 104
REMARK SMILES IDX 70 105 71 106 72 107 73 108
REMARK H PARENT 1 31 1 32 95 61 63 72
REMARK Flexibility Score: inf
ROOT
ATOM      1  C   UNL A   1      32.996  35.740  32.103  1.00  0.00     0.188 C 
ENDROOT
BRANCH   1   2
ATOM      2  O   UNL A   1      33.050  34.425  32.602  1.00  0.00    -0.376 OA
BRANCH   2   3
ATOM      3  C   UNL A   1      34.254  33.681  32.559  1.00  0.00     0.202 C 
BRANCH   3   4
ATOM      4  C   UNL A   1      35.477  33.878  33.478  1.00  0.00     0.261 C 
BRANCH   4   5
ATOM      5  O   UNL A   1      35.858  32.794  34.331  1.00  0.00    -0.460 OA
BRANCH   5   6
ATOM      6  C   UNL A   1      37.124  32.337  34.166  1.00  0.00     0.338 C 
ATOM      7  O   UNL A   1      37.535  31.657  33.242  1.00  0.00    -0.246 OA
BRANCH   6   8
ATOM      8  C   UNL A   1      37.997  32.912  35.213  1.00  0.00     0.087 C 
ATOM      9  C   UNL A   1      40.274  34.861  38.132  1.00  0.00     0.069 A 
ATOM     10  C   UNL A   1      39.765  34.977  39.429  1.00  0.00     0.041 A 
ATOM     11  C   UNL A   1      39.566  34.126  37.163  1.00  0.00     0.143 A 
ATOM     12  C   UNL A   1      38.571  34.342  39.765  1.00  0.00     0.043 A 
ATOM     13  C   UNL A   1      38.344  33.529  37.499  1.00  0.00     0.020 A 
ATOM     14  O   UNL A   1      40.114  34.034  35.913  1.00  0.00    -0.474 OA
ATOM     15  Cl  UNL A   1      37.951  34.493  41.361  1.00  0.00    -0.084 Cl
ATOM     16  C   UNL A   1      37.861  33.614  38.812  1.00  0.00     0.032 A 
ATOM     17  C   UNL A   1      37.537  32.890  36.471  1.00  0.00     0.027 C 
ATOM     18  C   UNL A   1      39.335  33.474  34.824  1.00  0.00     0.316 C 
BRANCH   9  19
ATOM     19  C   UNL A   1      41.482  35.563  37.807  1.00  0.00    -0.058 C 
ATOM     20  C   UNL A   1      42.482  36.143  37.468  1.00  0.00    -0.062 C 
BRANCH  20  21
ATOM     21  C   UNL A   1      43.659  36.795  36.981  1.00  0.00     0.025 A 
ATOM     22  C   UNL A   1      46.053  37.883  36.048  1.00  0.00     0.082 A 
ATOM     23  C   UNL A   1      45.799  37.845  37.423  1.00  0.00     0.023 A 
ATOM     24  C   UNL A   1      45.100  37.424  35.134  1.00  0.00     0.023 A 
ATOM     25  C   UNL A   1      44.600  37.294  37.886  1.00  0.00     0.018 A 
ATOM     26  C   UNL A   1      43.901  36.879  35.606  1.00  0.00     0.018 A 
BRANCH  22  27
ATOM     27  S   UNL A   1      47.625  38.458  35.481  1.00  0.00     0.238 S 
ATOM     28  O   UNL A   1      48.143  39.402  36.442  1.00  0.00    -0.207 OA
ATOM     29  O   UNL A   1      47.542  38.752  34.068  1.00  0.00    -0.207 OA
BRANCH  27  30
ATOM     30  N   UNL A   1      48.621  37.107  35.582  1.00  0.00    -0.225 NA
ATOM     31  H   UNL A   1      49.559  37.396  35.857  1.00  0.00     0.137 HD
ATOM     32  H   UNL A   1      48.659  36.645  34.674  1.00  0.00     0.137 HD
ENDBRANCH  27  30
ENDBRANCH  22  27
ENDBRANCH  20  21
ENDBRANCH   9  19
BRANCH  18  33
ATOM     33  C   UNL A   1      39.212  34.536  33.724  1.00  0.00     0.430 C 
ATOM     34  F   UNL A   1      39.233  33.974  32.491  1.00  0.00    -0.167 F 
ATOM     35  F   UNL A   1      38.046  35.220  33.814  1.00  0.00    -0.167 F 
ATOM     36  F   UNL A   1      40.216  35.439  33.776  1.00  0.00    -0.167 F 
ENDBRANCH  18  33
ENDBRANCH   6   8
ENDBRANCH   5   6
ENDBRANCH   4   5
ENDBRANCH   3   4
ENDBRANCH   2   3
ENDBRANCH   1   2
BRANCH   1  37
ATOM     37  C   UNL A   1      33.061  35.910  30.571  1.00  0.00     0.188 C 
BRANCH  37  38
ATOM     38  O   UNL A   1      32.821  34.790  29.747  1.00  0.00    -0.376 OA
BRANCH  38  39
ATOM     39  C   UNL A   1      33.891  34.227  29.002  1.00  0.00     0.202 C 
BRANCH  39  40
ATOM     40  C   UNL A   1      33.843  32.875  28.253  1.00  0.00     0.261 C 
BRANCH  40  41
ATOM     41  O   UNL A   1      35.054  32.120  28.136  1.00  0.00    -0.460 OA
BRANCH  41  42
ATOM     42  C   UNL A   1      34.914  30.770  28.065  1.00  0.00     0.338 C 
ATOM     43  O   UNL A   1      33.953  30.153  27.644  1.00  0.00    -0.246 OA
BRANCH  42  44
ATOM     44  C   UNL A   1      36.225  30.161  28.386  1.00  0.00     0.060 A 
ATOM     45  C   UNL A   1      37.264  30.215  27.458  1.00  0.00     0.016 A 
ATOM     46  C   UNL A   1      36.400  29.492  29.608  1.00  0.00     0.016 A 
ATOM     47  C   UNL A   1      38.482  29.603  27.759  1.00  0.00     0.010 A 
ATOM     48  C   UNL A   1      37.614  28.862  29.897  1.00  0.00     0.010 A 
ATOM     49  C   UNL A   1      38.672  28.929  28.981  1.00  0.00    -0.014 A 
BRANCH  49  50
ATOM     50  C   UNL A   1      40.033  28.464  29.352  1.00  0.00     0.031 A 
ATOM     51  C   UNL A   1      40.713  27.319  28.662  1.00  0.00     0.074 A 
ATOM     52  C   UNL A   1      40.666  29.115  30.348  1.00  0.00     0.049 A 
ATOM     53  N   UNL A   1      41.941  26.893  28.811  1.00  0.00    -0.248 NA
ATOM     54  C   UNL A   1      39.927  26.551  27.684  1.00  0.00     0.031 C 
ATOM     55  C   UNL A   1      40.085  30.206  31.132  1.00  0.00     0.029 A 
ATOM     56  N   UNL A   1      41.928  28.966  30.864  1.00  0.00    -0.354 N 
ATOM     57  C   UNL A   1      42.082  25.810  27.955  1.00  0.00     0.074 A 
ATOM     58  C   UNL A   1      40.803  25.629  27.299  1.00  0.00     0.031 C 
ATOM     59  C   UNL A   1      40.998  30.649  32.009  1.00  0.00     0.029 A 
ATOM     60  C   UNL A   1      42.217  29.859  31.868  1.00  0.00     0.049 A 
ATOM     61  H   UNL A   1      42.564  28.285  30.547  1.00  0.00     0.167 HD
ATOM     62  C   UNL A   1      43.182  25.053  27.725  1.00  0.00     0.034 A 
ATOM     63  C   UNL A   1      43.338  30.035  32.595  1.00  0.00     0.034 A 
ATOM     64  C   UNL A   1      44.455  25.243  28.373  1.00  0.00     0.049 A 
ATOM     65  C   UNL A   1      44.541  29.183  32.320  1.00  0.00     0.074 A 
ATOM     66  C   UNL A   1      45.639  24.561  28.147  1.00  0.00     0.029 A 
ATOM     67  N   UNL A   1      44.710  26.159  29.381  1.00  0.00    -0.354 N 
ATOM     68  N   UNL A   1      44.693  28.251  31.412  1.00  0.00    -0.248 NA
ATOM     69  C   UNL A   1      45.734  29.419  33.146  1.00  0.00     0.031 C 
ATOM     70  C   UNL A   1      46.600  25.040  29.042  1.00  0.00     0.029 A 
ATOM     71  C   UNL A   1      46.025  26.046  29.799  1.00  0.00     0.049 A 
ATOM     72  H   UNL A   1      44.053  26.795  29.747  1.00  0.00     0.167 HD
ATOM     73  C   UNL A   1      46.001  27.804  31.541  1.00  0.00     0.074 A 
ATOM     74  C   UNL A   1      46.605  28.575  32.608  1.00  0.00     0.031 C 
ATOM     75  C   UNL A   1      46.636  26.836  30.838  1.00  0.00     0.034 A 
BRANCH  62  76
ATOM     76  C   UNL A   1      43.101  23.964  26.689  1.00  0.00     0.023 A 
ATOM     77  C   UNL A   1      43.775  24.130  25.462  1.00  0.00     0.012 A 
ATOM     78  C   UNL A   1      42.489  22.729  26.984  1.00  0.00     0.148 A 
ATOM     79  C   UNL A   1      43.837  23.084  24.542  1.00  0.00     0.002 A 
ATOM     80  C   UNL A   1      42.576  21.684  26.071  1.00  0.00     0.091 A 
ATOM     81  F   UNL A   1      41.857  22.597  28.157  1.00  0.00    -0.205 F 
ATOM     82  C   UNL A   1      43.249  21.861  24.851  1.00  0.00     0.022 A 
BRANCH  80  83
ATOM     83  S   UNL A   1      41.889  20.055  26.386  1.00  0.00     0.127 S 
ATOM     84  O   UNL A   1      42.471  19.739  27.689  1.00  0.00    -0.237 OA
ATOM     85  O   UNL A   1      40.452  20.326  26.409  1.00  0.00    -0.237 OA
ATOM     86  O   UNL A   1      42.336  19.207  25.290  1.00  0.00    -0.744 OA
ENDBRANCH  80  83
ENDBRANCH  62  76
BRANCH  63  87
ATOM     87  C   UNL A   1      43.370  31.116  33.614  1.00  0.00     0.023 A 
ATOM     88  C   UNL A   1      43.445  32.458  33.198  1.00  0.00     0.012 A 
ATOM     89  C   UNL A   1      43.239  30.819  34.984  1.00  0.00     0.148 A 
ATOM     90  C   UNL A   1      43.388  33.491  34.134  1.00  0.00     0.002 A 
ATOM     91  C   UNL A   1      43.150  31.852  35.907  1.00  0.00     0.091 A 
ATOM     92  F   UNL A   1      43.163  29.531  35.347  1.00  0.00    -0.205 F 
ATOM     93  C   UNL A   1      43.230  33.189  35.486  1.00  0.00     0.022 A 
BRANCH  91  94
ATOM     94  S   UNL A   1      42.868  31.567  37.657  1.00  0.00     0.127 S 
ATOM     95  O   UNL A   1      43.413  32.786  38.249  1.00  0.00    -0.237 OA
ATOM     96  O   UNL A   1      41.411  31.454  37.709  1.00  0.00    -0.237 OA
ATOM     97  O   UNL A   1      43.586  30.342  37.982  1.00  0.00    -0.744 OA
ENDBRANCH  91  94
ENDBRANCH  63  87
BRANCH  75  98
ATOM     98  C   UNL A   1      48.074  26.539  31.167  1.00  0.00     0.023 A 
ATOM     99  C   UNL A   1      49.099  27.242  30.506  1.00  0.00     0.012 A 
ATOM    100  C   UNL A   1      48.398  25.664  32.223  1.00  0.00     0.148 A 
ATOM    101  C   UNL A   1      50.429  27.080  30.894  1.00  0.00     0.002 A 
ATOM    102  C   UNL A   1      49.722  25.531  32.623  1.00  0.00     0.091 A 
ATOM    103  F   UNL A   1      47.402  25.005  32.832  1.00  0.00    -0.205 F 
ATOM    104  C   UNL A   1      50.739  26.237  31.959  1.00  0.00     0.022 A 
BRANCH 102 105
ATOM    105  S   UNL A   1      50.216  24.511  34.018  1.00  0.00     0.127 S 
ATOM    106  O   UNL A   1      49.818  23.179  33.567  1.00  0.00    -0.237 OA
ATOM    107  O   UNL A   1      51.661  24.733  34.064  1.00  0.00    -0.237 OA
ATOM    108  O   UNL A   1      49.483  25.015  35.170  1.00  0.00    -0.744 OA
ENDBRANCH 102 105
ENDBRANCH  75  98
ENDBRANCH  49  50
ENDBRANCH  42  44
ENDBRANCH  41  42
ENDBRANCH  40  41
ENDBRANCH  39  40
ENDBRANCH  38  39
ENDBRANCH  37  38
ENDBRANCH   1  37
TORSDOF 25
ENDMDL
MODEL 3
REMARK VINA RESULT:      -8.3      2.866      4.668
REMARK SMILES NS(=O)(=O)c1ccc(C#Cc2cc(Cl)cc3c2O[C@H](C(F)(F)F)C(C(=O)OCCOCCOCCOC(=O)c2ccc(-c4c5nc(c(-c6cccc(S(=O)(=O)[O-])c6F)c6ccc([nH]6)c(-c6cccc(S(=O)(=O)[O-])c6F)c6nc(c(-c7cccc(S(=O)(=O)[O-])c7F)c7ccc4[nH]7)C=C6)C=C5)cc2)=C3)cc1
REMARK SMILES IDX 31 1 30 2 29 3 28 4 27 5 25 6 26 7 24 8 11 9 12 10 17 11
REMARK SMILES IDX 13 12 16 13 18 14 14 15 15 16 102 17 19 18 10 19 9 20 8 21
REMARK SMILES IDX 5 22 6 23 104 24 7 25 103 26 2 27 3 28 4 29 1 30 20 33 21 34
REMARK SMILES IDX 22 35 23 36 32 37 33 38 34 39 35 40 36 41 37 42 38 43 39 44
REMARK SMILES IDX 40 45 101 46 41 47 100 48 42 49 43 50 44 51 94 52 45 53
REMARK SMILES IDX 99 54 93 55 95 56 46 57 98 58 92 59 91 60 47 62 79 63 59 64
REMARK SMILES IDX 78 65 60 66 63 67 77 68 96 69 61 70 62 71 76 73 97 74 64 75
REMARK SMILES IDX 48 76 49 77 57 78 50 79 52 80 58 81 51 82 53 83 54 84 55 85
REMARK SMILES IDX 56 86 80 87 81 88 89 89 82 90 84 91 90 92 83 93 85 94 86 95
REMARK SMILES IDX 87 96 88 97 65 98 66 99 74 100 67 101 69 102 75 103 68 104
REMARK SMILES IDX 70 105 71 106 72 107 73 108
REMARK H PARENT 1 31 1 32 95 61 63 72
REMARK Flexibility Score: inf
ROOT
ATOM      1  C   UNL A   1      33.059  36.488  31.441  1.00  0.00     0.188 C 
ENDROOT
BRANCH   1   2
ATOM      2  O   UNL A   1      33.135  35.421  32.355  1.00  0.00    -0.376 OA
BRANCH   2   3
ATOM      3  C   UNL A   1      34.351  34.724  32.557  1.00  0.00     0.202 C 
BRANCH   3   4
ATOM      4  C   UNL A   1      35.058  34.504  33.911  1.00  0.00     0.261 C 
BRANCH   4   5
ATOM      5  O   UNL A   1      35.679  33.237  34.147  1.00  0.00    -0.460 OA
BRANCH   5   6
ATOM      6  C   UNL A   1      36.677  33.236  35.065  1.00  0.00     0.338 C 
ATOM      7  O   UNL A   1      36.686  33.832  36.128  1.00  0.00    -0.246 OA
BRANCH   6   8
ATOM      8  C   UNL A   1      37.721  32.271  34.657  1.00  0.00     0.087 C 
ATOM      9  C   UNL A   1      40.557  29.321  33.784  1.00  0.00     0.069 A 
ATOM     10  C   UNL A   1      40.171  28.205  33.035  1.00  0.00     0.041 A 
ATOM     11  C   UNL A   1      39.643  30.368  34.005  1.00  0.00     0.143 A 
ATOM     12  C   UNL A   1      38.892  28.146  32.488  1.00  0.00     0.043 A 
ATOM     13  C   UNL A   1      38.345  30.277  33.488  1.00  0.00     0.020 A 
ATOM     14  O   UNL A   1      40.075  31.442  34.734  1.00  0.00    -0.474 OA
ATOM     15  Cl  UNL A   1      38.425  26.768  31.572  1.00  0.00    -0.084 Cl
ATOM     16  C   UNL A   1      37.979  29.176  32.704  1.00  0.00     0.032 A 
ATOM     17  C   UNL A   1      37.351  31.284  33.830  1.00  0.00     0.027 C 
ATOM     18  C   UNL A   1      39.123  32.446  35.171  1.00  0.00     0.316 C 
BRANCH   9  19
ATOM     19  C   UNL A   1      41.866  29.331  34.370  1.00  0.00    -0.058 C 
ATOM     20  C   UNL A   1      42.940  29.377  34.915  1.00  0.00    -0.062 C 
BRANCH  20  21
ATOM     21  C   UNL A   1      44.183  29.500  35.612  1.00  0.00     0.025 A 
ATOM     22  C   UNL A   1      46.633  29.536  36.949  1.00  0.00     0.082 A 
ATOM     23  C   UNL A   1      45.457  29.289  37.664  1.00  0.00     0.023 A 
ATOM     24  C   UNL A   1      46.588  29.812  35.579  1.00  0.00     0.023 A 
ATOM     25  C   UNL A   1      44.233  29.266  36.990  1.00  0.00     0.018 A 
ATOM     26  C   UNL A   1      45.359  29.793  34.912  1.00  0.00     0.018 A 
BRANCH  22  27
ATOM     27  S   UNL A   1      48.186  29.430  37.785  1.00  0.00     0.238 S 
ATOM     28  O   UNL A   1      48.216  28.203  38.544  1.00  0.00    -0.207 OA
ATOM     29  O   UNL A   1      48.500  30.714  38.368  1.00  0.00    -0.207 OA
BRANCH  27  30
ATOM     30  N   UNL A   1      49.309  29.231  36.549  1.00  0.00    -0.225 NA
ATOM     31  H   UNL A   1      50.168  29.726  36.787  1.00  0.00     0.137 HD
ATOM     32  H   UNL A   1      48.928  29.608  35.681  1.00  0.00     0.137 HD
ENDBRANCH  27  30
ENDBRANCH  22  27
ENDBRANCH  20  21
ENDBRANCH   9  19
BRANCH  18  33
ATOM     33  C   UNL A   1      39.165  32.516  36.703  1.00  0.00     0.430 C 
ATOM     34  F   UNL A   1      40.385  32.168  37.180  1.00  0.00    -0.167 F 
ATOM     35  F   UNL A   1      38.919  33.769  37.156  1.00  0.00    -0.167 F 
ATOM     36  F   UNL A   1      38.257  31.693  37.273  1.00  0.00    -0.167 F 
ENDBRANCH  18  33
ENDBRANCH   6   8
ENDBRANCH   5   6
ENDBRANCH   4   5
ENDBRANCH   3   4
ENDBRANCH   2   3
ENDBRANCH   1   2
BRANCH   1  37
ATOM     37  C   UNL A   1      33.207  36.140  29.945  1.00  0.00     0.188 C 
BRANCH  37  38
ATOM     38  O   UNL A   1      32.844  34.850  29.503  1.00  0.00    -0.376 OA
BRANCH  38  39
ATOM     39  C   UNL A   1      33.836  33.988  28.967  1.00  0.00     0.202 C 
BRANCH  39  40
ATOM     40  C   UNL A   1      33.568  32.606  28.327  1.00  0.00     0.261 C 
BRANCH  40  41
ATOM     41  O   UNL A   1      34.625  31.982  27.592  1.00  0.00    -0.460 OA
BRANCH  41  42
ATOM     42  C   UNL A   1      34.664  30.624  27.632  1.00  0.00     0.338 C 
ATOM     43  O   UNL A   1      33.806  29.854  27.238  1.00  0.00    -0.246 OA
BRANCH  42  44
ATOM     44  C   UNL A   1      36.028  30.220  28.041  1.00  0.00     0.060 A 
ATOM     45  C   UNL A   1      37.048  30.155  27.093  1.00  0.00     0.016 A 
ATOM     46  C   UNL A   1      36.275  29.861  29.375  1.00  0.00     0.016 A 
ATOM     47  C   UNL A   1      38.320  29.735  27.487  1.00  0.00     0.010 A 
ATOM     48  C   UNL A   1      37.545  29.421  29.761  1.00  0.00     0.010 A 
ATOM     49  C   UNL A   1      38.584  29.372  28.822  1.00  0.00    -0.014 A 
BRANCH  49  50
ATOM     50  C   UNL A   1      39.985  29.124  29.246  1.00  0.00     0.031 A 
ATOM     51  C   UNL A   1      40.687  27.822  28.998  1.00  0.00     0.074 A 
ATOM     52  C   UNL A   1      40.636  30.124  29.872  1.00  0.00     0.049 A 
ATOM     53  N   UNL A   1      41.943  27.521  29.212  1.00  0.00    -0.248 NA
ATOM     54  C   UNL A   1      39.891  26.716  28.443  1.00  0.00     0.031 C 
ATOM     55  C   UNL A   1      40.040  31.416  30.221  1.00  0.00     0.029 A 
ATOM     56  N   UNL A   1      41.929  30.221  30.317  1.00  0.00    -0.354 N 
ATOM     57  C   UNL A   1      42.094  26.197  28.824  1.00  0.00     0.074 A 
ATOM     58  C   UNL A   1      40.794  25.742  28.377  1.00  0.00     0.031 C 
ATOM     59  C   UNL A   1      40.974  32.187  30.798  1.00  0.00     0.029 A 
ATOM     60  C   UNL A   1      42.224  31.438  30.883  1.00  0.00     0.049 A 
ATOM     61  H   UNL A   1      42.583  29.489  30.239  1.00  0.00     0.167 HD
ATOM     62  C   UNL A   1      43.219  25.442  28.823  1.00  0.00     0.034 A 
ATOM     63  C   UNL A   1      43.371  31.911  31.408  1.00  0.00     0.034 A 
ATOM     64  C   UNL A   1      44.513  25.901  29.260  1.00  0.00     0.049 A 
ATOM     65  C   UNL A   1      44.601  31.053  31.395  1.00  0.00     0.074 A 
ATOM     66  C   UNL A   1      45.718  25.218  29.229  1.00  0.00     0.029 A 
ATOM     67  N   UNL A   1      44.772  27.141  29.823  1.00  0.00    -0.354 N 
ATOM     68  N   UNL A   1      44.753  29.849  30.902  1.00  0.00    -0.248 NA
ATOM     69  C   UNL A   1      45.822  31.622  31.983  1.00  0.00     0.031 C 
ATOM     70  C   UNL A   1      46.698  26.031  29.805  1.00  0.00     0.029 A 
ATOM     71  C   UNL A   1      46.113  27.234  30.160  1.00  0.00     0.049 A 
ATOM     72  H   UNL A   1      44.104  27.848  29.964  1.00  0.00     0.167 HD
ATOM     73  C   UNL A   1      46.089  29.524  31.100  1.00  0.00     0.074 A 
ATOM     74  C   UNL A   1      46.707  30.661  31.748  1.00  0.00     0.031 C 
ATOM     75  C   UNL A   1      46.735  28.379  30.775  1.00  0.00     0.034 A 
BRANCH  62  76
ATOM     76  C   UNL A   1      43.141  24.036  28.288  1.00  0.00     0.023 A 
ATOM     77  C   UNL A   1      42.316  23.098  28.939  1.00  0.00     0.012 A 
ATOM     78  C   UNL A   1      43.761  23.690  27.071  1.00  0.00     0.148 A 
ATOM     79  C   UNL A   1      42.113  21.833  28.389  1.00  0.00     0.002 A 
ATOM     80  C   UNL A   1      43.534  22.435  26.517  1.00  0.00     0.091 A 
ATOM     81  F   UNL A   1      44.539  24.601  26.471  1.00  0.00    -0.205 F 
ATOM     82  C   UNL A   1      42.711  21.507  27.175  1.00  0.00     0.022 A 
BRANCH  80  83
ATOM     83  S   UNL A   1      44.223  21.927  24.938  1.00  0.00     0.127 S 
ATOM     84  O   UNL A   1      43.739  20.551  24.838  1.00  0.00    -0.237 OA
ATOM     85  O   UNL A   1      43.592  22.865  24.011  1.00  0.00    -0.237 OA
ATOM     86  O   UNL A   1      45.667  22.064  25.063  1.00  0.00    -0.744 OA
ENDBRANCH  80  83
ENDBRANCH  62  76
BRANCH  63  87
ATOM     87  C   UNL A   1      43.401  33.300  31.935  1.00  0.00     0.023 A 
ATOM     88  C   UNL A   1      43.431  34.381  31.035  1.00  0.00     0.012 A 
ATOM     89  C   UNL A   1      43.311  33.549  33.318  1.00  0.00     0.148 A 
ATOM     90  C   UNL A   1      43.370  35.693  31.506  1.00  0.00     0.002 A 
ATOM     91  C   UNL A   1      43.217  34.855  33.778  1.00  0.00     0.091 A 
ATOM     92  F   UNL A   1      43.277  32.497  34.148  1.00  0.00    -0.205 F 
ATOM     93  C   UNL A   1      43.253  35.930  32.874  1.00  0.00     0.022 A 
BRANCH  91  94
ATOM     94  S   UNL A   1      42.986  35.258  35.512  1.00  0.00     0.127 S 
ATOM     95  O   UNL A   1      44.176  34.664  36.117  1.00  0.00    -0.237 OA
ATOM     96  O   UNL A   1      42.975  36.720  35.478  1.00  0.00    -0.237 OA
ATOM     97  O   UNL A   1      41.721  34.648  35.897  1.00  0.00    -0.744 OA
ENDBRANCH  91  94
ENDBRANCH  63  87
BRANCH  75  98
ATOM     98  C   UNL A   1      48.203  28.271  31.091  1.00  0.00     0.023 A 
ATOM     99  C   UNL A   1      48.609  27.856  32.373  1.00  0.00     0.012 A 
ATOM    100  C   UNL A   1      49.166  28.450  30.079  1.00  0.00     0.148 A 
ATOM    101  C   UNL A   1      49.957  27.618  32.644  1.00  0.00     0.002 A 
ATOM    102  C   UNL A   1      50.503  28.182  30.347  1.00  0.00     0.091 A 
ATOM    103  F   UNL A   1      48.751  28.849  28.868  1.00  0.00    -0.205 F 
ATOM    104  C   UNL A   1      50.900  27.767  31.629  1.00  0.00     0.022 A 
BRANCH 102 105
ATOM    105  S   UNL A   1      51.786  28.293  29.093  1.00  0.00     0.127 S 
ATOM    106  O   UNL A   1      52.991  28.417  29.911  1.00  0.00    -0.237 OA
ATOM    107  O   UNL A   1      51.649  27.014  28.398  1.00  0.00    -0.237 OA
ATOM    108  O   UNL A   1      51.466  29.464  28.288  1.00  0.00    -0.744 OA
ENDBRANCH 102 105
ENDBRANCH  75  98
ENDBRANCH  49  50
ENDBRANCH  42  44
ENDBRANCH  41  42
ENDBRANCH  40  41
ENDBRANCH  39  40
ENDBRANCH  38  39
ENDBRANCH  37  38
ENDBRANCH   1  37
TORSDOF 25
ENDMDL
