MODEL 1
REMARK VINA RESULT:     -10.0      0.000      0.000
REMARK SMILES C[C@H](NC(=O)N[C@](C)(C(=O)OCCOCCOCCOC(=O)c1ccc(-c2c3nc(c(-c4cccc(S(=O)(=O)[O-])c4F)c4ccc([nH]4)c(-c4cccc(S(=O)(=O)[O-])c4F)c4nc(c(-c5cccc(S(=O)(=O)[O-])c5F)c5ccc2[nH]5)C=C4)C=C3)cc1)C(F)(F)F)C(N)=O
REMARK SMILES IDX 15 1 14 2 13 3 12 4 11 5 9 6 10 7 7 8 8 9 6 10 3 11 4 12
REMARK SMILES IDX 5 14 2 16 1 17 90 18 91 19 92 20 86 23 87 24 88 25 89 26
REMARK SMILES IDX 16 27 17 28 18 29 19 30 20 31 21 32 22 33 23 34 24 35 85 36
REMARK SMILES IDX 25 37 84 38 26 39 27 40 28 41 78 42 29 43 83 44 77 45 79 46
REMARK SMILES IDX 30 47 82 48 76 49 75 50 31 52 63 53 43 54 62 55 44 56 47 57
REMARK SMILES IDX 61 58 80 59 45 60 46 61 60 63 81 64 48 65 32 66 33 67 41 68
REMARK SMILES IDX 34 69 36 70 42 71 35 72 37 73 38 74 39 75 40 76 64 77 65 78
REMARK SMILES IDX 73 79 66 80 68 81 74 82 67 83 69 84 70 85 71 86 72 87 49 88
REMARK SMILES IDX 50 89 58 90 51 91 53 92 59 93 52 94 54 95 55 96 56 97 57 98
REMARK H PARENT 3 13 6 15 91 21 91 22 79 51 47 62
REMARK Flexibility Score: inf
ROOT
ATOM      1  C   UNL A   1      32.092  29.812  25.413  1.00  0.00     0.188 C 
ENDROOT
BRANCH   1   2
ATOM      2  O   UNL A   1      30.919  29.511  24.651  1.00  0.00    -0.376 OA
BRANCH   2   3
ATOM      3  C   UNL A   1      30.962  28.356  23.811  1.00  0.00     0.202 C 
BRANCH   3   4
ATOM      4  C   UNL A   1      30.585  27.058  24.576  1.00  0.00     0.261 C 
BRANCH   4   5
ATOM      5  O   UNL A   1      31.301  25.914  24.039  1.00  0.00    -0.461 OA
BRANCH   5   6
ATOM      6  C   UNL A   1      30.908  24.603  24.063  1.00  0.00     0.341 C 
ATOM      7  O   UNL A   1      30.111  24.209  23.215  1.00  0.00    -0.249 OA
BRANCH   6   8
ATOM      8  C   UNL A   1      31.736  23.631  24.873  1.00  0.00     0.232 C 
ATOM      9  C   UNL A   1      31.808  22.375  23.947  1.00  0.00     0.058 C 
BRANCH   8  10
ATOM     10  N   UNL A   1      33.102  24.151  25.153  1.00  0.00    -0.315 N 
ATOM     11  N   UNL A   1      34.796  22.555  24.504  1.00  0.00    -0.327 N 
ATOM     12  C   UNL A   1      34.323  23.773  24.762  1.00  0.00     0.316 C 
ATOM     13  H   UNL A   1      35.409  22.630  23.736  1.00  0.00     0.166 HD
ATOM     14  O   UNL A   1      35.130  24.705  24.654  1.00  0.00    -0.249 OA
ATOM     15  H   UNL A   1      33.107  24.935  25.749  1.00  0.00     0.166 HD
BRANCH  11  16
ATOM     16  C   UNL A   1      34.765  21.115  24.919  1.00  0.00     0.169 C 
ATOM     17  C   UNL A   1      36.052  20.320  25.051  1.00  0.00     0.041 C 
BRANCH  16  18
ATOM     18  C   UNL A   1      34.153  20.984  26.331  1.00  0.00     0.239 C 
ATOM     19  N   UNL A   1      33.184  20.018  26.450  1.00  0.00    -0.368 N 
ATOM     20  O   UNL A   1      34.537  21.631  27.297  1.00  0.00    -0.273 OA
ATOM     21  H   UNL A   1      32.894  19.512  25.657  1.00  0.00     0.159 HD
ATOM     22  H   UNL A   1      32.780  19.831  27.328  1.00  0.00     0.159 HD
ENDBRANCH  16  18
ENDBRANCH  11  16
ENDBRANCH   8  10
BRANCH   8  23
ATOM     23  C   UNL A   1      30.946  23.182  26.142  1.00  0.00     0.422 C 
ATOM     24  F   UNL A   1      31.692  23.109  27.265  1.00  0.00    -0.168 F 
ATOM     25  F   UNL A   1      29.968  24.095  26.430  1.00  0.00    -0.168 F 
ATOM     26  F   UNL A   1      30.310  22.004  25.976  1.00  0.00    -0.168 F 
ENDBRANCH   8  23
ENDBRANCH   6   8
ENDBRANCH   5   6
ENDBRANCH   4   5
ENDBRANCH   3   4
ENDBRANCH   2   3
ENDBRANCH   1   2
BRANCH   1  27
ATOM     27  C   UNL A   1      31.852  30.419  26.796  1.00  0.00     0.188 C 
BRANCH  27  28
ATOM     28  O   UNL A   1      32.675  31.543  27.114  1.00  0.00    -0.376 OA
BRANCH  28  29
ATOM     29  C   UNL A   1      32.016  32.801  27.179  1.00  0.00     0.202 C 
BRANCH  29  30
ATOM     30  C   UNL A   1      32.880  33.989  27.624  1.00  0.00     0.261 C 
BRANCH  30  31
ATOM     31  O   UNL A   1      32.582  34.461  28.942  1.00  0.00    -0.460 OA
BRANCH  31  32
ATOM     32  C   UNL A   1      33.659  34.980  29.605  1.00  0.00     0.338 C 
ATOM     33  O   UNL A   1      33.723  36.059  30.144  1.00  0.00    -0.246 OA
BRANCH  32  34
ATOM     34  C   UNL A   1      34.727  33.944  29.684  1.00  0.00     0.060 A 
ATOM     35  C   UNL A   1      34.411  32.700  30.248  1.00  0.00     0.016 A 
ATOM     36  C   UNL A   1      36.025  34.197  29.236  1.00  0.00     0.016 A 
ATOM     37  C   UNL A   1      35.412  31.744  30.453  1.00  0.00     0.010 A 
ATOM     38  C   UNL A   1      37.025  33.239  29.435  1.00  0.00     0.010 A 
ATOM     39  C   UNL A   1      36.737  32.034  30.105  1.00  0.00    -0.014 A 
BRANCH  39  40
ATOM     40  C   UNL A   1      37.863  31.241  30.671  1.00  0.00     0.031 A 
ATOM     41  C   UNL A   1      38.289  31.550  32.087  1.00  0.00     0.074 A 
ATOM     42  C   UNL A   1      38.515  30.296  29.970  1.00  0.00     0.049 A 
ATOM     43  N   UNL A   1      39.303  31.090  32.773  1.00  0.00    -0.248 NA
ATOM     44  C   UNL A   1      37.461  32.524  32.821  1.00  0.00     0.031 C 
ATOM     45  C   UNL A   1      38.199  29.873  28.608  1.00  0.00     0.029 A 
ATOM     46  N   UNL A   1      39.611  29.538  30.312  1.00  0.00    -0.354 N 
ATOM     47  C   UNL A   1      39.254  31.741  34.001  1.00  0.00     0.074 A 
ATOM     48  C   UNL A   1      38.127  32.646  33.958  1.00  0.00     0.031 C 
ATOM     49  C   UNL A   1      39.101  28.954  28.218  1.00  0.00     0.029 A 
ATOM     50  C   UNL A   1      40.074  28.743  29.289  1.00  0.00     0.049 A 
ATOM     51  H   UNL A   1      40.025  29.564  31.205  1.00  0.00     0.167 HD
ATOM     52  C   UNL A   1      40.057  31.590  35.080  1.00  0.00     0.034 A 
ATOM     53  C   UNL A   1      41.169  27.957  29.222  1.00  0.00     0.034 A 
ATOM     54  C   UNL A   1      41.166  30.680  35.139  1.00  0.00     0.049 A 
ATOM     55  C   UNL A   1      42.080  27.841  30.422  1.00  0.00     0.074 A 
ATOM     56  C   UNL A   1      42.024  30.438  36.198  1.00  0.00     0.029 A 
ATOM     57  N   UNL A   1      41.578  29.867  34.096  1.00  0.00    -0.354 N 
ATOM     58  N   UNL A   1      41.971  28.397  31.605  1.00  0.00    -0.248 NA
ATOM     59  C   UNL A   1      43.252  26.961  30.286  1.00  0.00     0.031 C 
ATOM     60  C   UNL A   1      42.975  29.501  35.783  1.00  0.00     0.029 A 
ATOM     61  C   UNL A   1      42.682  29.127  34.483  1.00  0.00     0.049 A 
ATOM     62  H   UNL A   1      41.148  29.822  33.212  1.00  0.00     0.167 HD
ATOM     63  C   UNL A   1      43.024  27.893  32.365  1.00  0.00     0.074 A 
ATOM     64  C   UNL A   1      43.754  26.979  31.514  1.00  0.00     0.031 C 
ATOM     65  C   UNL A   1      43.362  28.169  33.650  1.00  0.00     0.034 A 
BRANCH  52  66
ATOM     66  C   UNL A   1      39.747  32.419  36.299  1.00  0.00     0.023 A 
ATOM     67  C   UNL A   1      40.438  33.629  36.518  1.00  0.00     0.012 A 
ATOM     68  C   UNL A   1      38.741  32.026  37.203  1.00  0.00     0.148 A 
ATOM     69  C   UNL A   1      40.161  34.414  37.635  1.00  0.00     0.002 A 
ATOM     70  C   UNL A   1      38.434  32.839  38.288  1.00  0.00     0.091 A 
ATOM     71  F   UNL A   1      38.109  30.863  36.990  1.00  0.00    -0.205 F 
ATOM     72  C   UNL A   1      39.153  34.025  38.513  1.00  0.00     0.022 A 
BRANCH  70  73
ATOM     73  S   UNL A   1      37.102  32.469  39.432  1.00  0.00     0.127 S 
ATOM     74  O   UNL A   1      37.281  33.512  40.442  1.00  0.00    -0.237 OA
ATOM     75  O   UNL A   1      35.919  32.636  38.588  1.00  0.00    -0.237 OA
ATOM     76  O   UNL A   1      37.332  31.109  39.897  1.00  0.00    -0.744 OA
ENDBRANCH  70  73
ENDBRANCH  52  66
BRANCH  53  77
ATOM     77  C   UNL A   1      41.473  27.185  27.980  1.00  0.00     0.023 A 
ATOM     78  C   UNL A   1      41.978  27.859  26.850  1.00  0.00     0.012 A 
ATOM     79  C   UNL A   1      41.231  25.801  27.900  1.00  0.00     0.148 A 
ATOM     80  C   UNL A   1      42.195  27.178  25.651  1.00  0.00     0.002 A 
ATOM     81  C   UNL A   1      41.500  25.116  26.719  1.00  0.00     0.091 A 
ATOM     82  F   UNL A   1      40.731  25.180  28.978  1.00  0.00    -0.205 F 
ATOM     83  C   UNL A   1      41.964  25.806  25.588  1.00  0.00     0.022 A 
BRANCH  81  84
ATOM     84  S   UNL A   1      41.328  23.335  26.575  1.00  0.00     0.127 S 
ATOM     85  O   UNL A   1      42.143  23.050  25.397  1.00  0.00    -0.237 OA
ATOM     86  O   UNL A   1      41.894  22.873  27.842  1.00  0.00    -0.237 OA
ATOM     87  O   UNL A   1      39.899  23.086  26.428  1.00  0.00    -0.744 OA
ENDBRANCH  81  84
ENDBRANCH  53  77
BRANCH  65  88
ATOM     88  C   UNL A   1      44.530  27.428  34.253  1.00  0.00     0.023 A 
ATOM     89  C   UNL A   1      45.835  27.948  34.148  1.00  0.00     0.012 A 
ATOM     90  C   UNL A   1      44.315  26.248  34.997  1.00  0.00     0.148 A 
ATOM     91  C   UNL A   1      46.912  27.286  34.739  1.00  0.00     0.002 A 
ATOM     92  C   UNL A   1      45.385  25.625  35.628  1.00  0.00     0.091 A 
ATOM     93  F   UNL A   1      43.069  25.761  35.076  1.00  0.00    -0.205 F 
ATOM     94  C   UNL A   1      46.686  26.133  35.487  1.00  0.00     0.022 A 
BRANCH  92  95
ATOM     95  S   UNL A   1      45.176  24.195  36.696  1.00  0.00     0.127 S 
ATOM     96  O   UNL A   1      44.529  23.242  35.795  1.00  0.00    -0.237 OA
ATOM     97  O   UNL A   1      46.558  23.863  37.043  1.00  0.00    -0.237 OA
ATOM     98  O   UNL A   1      44.362  24.644  37.818  1.00  0.00    -0.744 OA
ENDBRANCH  92  95
ENDBRANCH  65  88
ENDBRANCH  39  40
ENDBRANCH  32  34
ENDBRANCH  31  32
ENDBRANCH  30  31
ENDBRANCH  29  30
ENDBRANCH  28  29
ENDBRANCH  27  28
ENDBRANCH   1  27
TORSDOF 24
ENDMDL
MODEL 2
REMARK VINA RESULT:      -8.9      2.229      2.786
REMARK SMILES C[C@H](NC(=O)N[C@](C)(C(=O)OCCOCCOCCOC(=O)c1ccc(-c2c3nc(c(-c4cccc(S(=O)(=O)[O-])c4F)c4ccc([nH]4)c(-c4cccc(S(=O)(=O)[O-])c4F)c4nc(c(-c5cccc(S(=O)(=O)[O-])c5F)c5ccc2[nH]5)C=C4)C=C3)cc1)C(F)(F)F)C(N)=O
REMARK SMILES IDX 15 1 14 2 13 3 12 4 11 5 9 6 10 7 7 8 8 9 6 10 3 11 4 12
REMARK SMILES IDX 5 14 2 16 1 17 90 18 91 19 92 20 86 23 87 24 88 25 89 26
REMARK SMILES IDX 16 27 17 28 18 29 19 30 20 31 21 32 22 33 23 34 24 35 85 36
REMARK SMILES IDX 25 37 84 38 26 39 27 40 28 41 78 42 29 43 83 44 77 45 79 46
REMARK SMILES IDX 30 47 82 48 76 49 75 50 31 52 63 53 43 54 62 55 44 56 47 57
REMARK SMILES IDX 61 58 80 59 45 60 46 61 60 63 81 64 48 65 32 66 33 67 41 68
REMARK SMILES IDX 34 69 36 70 42 71 35 72 37 73 38 74 39 75 40 76 64 77 65 78
REMARK SMILES IDX 73 79 66 80 68 81 74 82 67 83 69 84 70 85 71 86 72 87 49 88
REMARK SMILES IDX 50 89 58 90 51 91 53 92 59 93 52 94 54 95 55 96 56 97 57 98
REMARK H PARENT 3 13 6 15 91 21 91 22 79 51 47 62
REMARK Flexibility Score: inf
ROOT
ATOM      1  C   UNL A   1      32.815  29.088  24.687  1.00  0.00     0.188 C 
ENDROOT
BRANCH   1   2
ATOM      2  O   UNL A   1      32.607  27.910  23.901  1.00  0.00    -0.376 OA
BRANCH   2   3
ATOM      3  C   UNL A   1      32.120  26.749  24.577  1.00  0.00     0.202 C 
BRANCH   3   4
ATOM      4  C   UNL A   1      33.053  26.310  25.739  1.00  0.00     0.261 C 
BRANCH   4   5
ATOM      5  O   UNL A   1      33.508  24.944  25.549  1.00  0.00    -0.461 OA
BRANCH   5   6
ATOM      6  C   UNL A   1      33.779  24.316  24.364  1.00  0.00     0.341 C 
ATOM      7  O   UNL A   1      34.453  24.907  23.522  1.00  0.00    -0.249 OA
BRANCH   6   8
ATOM      8  C   UNL A   1      33.568  22.821  24.290  1.00  0.00     0.232 C 
ATOM      9  C   UNL A   1      34.920  22.304  23.705  1.00  0.00     0.058 C 
BRANCH   8  10
ATOM     10  N   UNL A   1      33.315  22.221  25.628  1.00  0.00    -0.315 N 
ATOM     11  N   UNL A   1      34.275  20.010  25.791  1.00  0.00    -0.327 N 
ATOM     12  C   UNL A   1      33.831  21.170  26.272  1.00  0.00     0.316 C 
ATOM     13  H   UNL A   1      35.066  19.752  26.319  1.00  0.00     0.166 HD
ATOM     14  O   UNL A   1      33.872  21.301  27.502  1.00  0.00    -0.249 OA
ATOM     15  H   UNL A   1      32.624  22.696  26.144  1.00  0.00     0.166 HD
BRANCH  11  16
ATOM     16  C   UNL A   1      34.049  18.942  24.764  1.00  0.00     0.169 C 
ATOM     17  C   UNL A   1      35.177  18.013  24.353  1.00  0.00     0.041 C 
BRANCH  16  18
ATOM     18  C   UNL A   1      32.973  17.951  25.260  1.00  0.00     0.239 C 
ATOM     19  N   UNL A   1      33.443  16.951  26.075  1.00  0.00    -0.368 N 
ATOM     20  O   UNL A   1      31.778  18.071  25.014  1.00  0.00    -0.273 OA
ATOM     21  H   UNL A   1      34.408  16.877  26.256  1.00  0.00     0.159 HD
ATOM     22  H   UNL A   1      32.816  16.308  26.478  1.00  0.00     0.159 HD
ENDBRANCH  16  18
ENDBRANCH  11  16
ENDBRANCH   8  10
BRANCH   8  23
ATOM     23  C   UNL A   1      32.483  22.486  23.218  1.00  0.00     0.422 C 
ATOM     24  F   UNL A   1      32.958  22.388  21.958  1.00  0.00    -0.168 F 
ATOM     25  F   UNL A   1      31.932  21.261  23.480  1.00  0.00    -0.168 F 
ATOM     26  F   UNL A   1      31.455  23.358  23.220  1.00  0.00    -0.168 F 
ENDBRANCH   8  23
ENDBRANCH   6   8
ENDBRANCH   5   6
ENDBRANCH   4   5
ENDBRANCH   3   4
ENDBRANCH   2   3
ENDBRANCH   1   2
BRANCH   1  27
ATOM     27  C   UNL A   1      31.671  29.473  25.626  1.00  0.00     0.188 C 
BRANCH  27  28
ATOM     28  O   UNL A   1      31.435  30.878  25.745  1.00  0.00    -0.376 OA
BRANCH  28  29
ATOM     29  C   UNL A   1      32.032  31.519  26.864  1.00  0.00     0.202 C 
BRANCH  29  30
ATOM     30  C   UNL A   1      31.915  33.049  26.902  1.00  0.00     0.261 C 
BRANCH  30  31
ATOM     31  O   UNL A   1      32.534  33.649  28.044  1.00  0.00    -0.460 OA
BRANCH  31  32
ATOM     32  C   UNL A   1      33.776  34.167  27.799  1.00  0.00     0.338 C 
ATOM     33  O   UNL A   1      34.061  34.993  26.965  1.00  0.00    -0.246 OA
BRANCH  32  34
ATOM     34  C   UNL A   1      34.730  33.649  28.820  1.00  0.00     0.060 A 
ATOM     35  C   UNL A   1      35.987  34.259  28.929  1.00  0.00     0.016 A 
ATOM     36  C   UNL A   1      34.406  32.567  29.640  1.00  0.00     0.016 A 
ATOM     37  C   UNL A   1      36.956  33.727  29.789  1.00  0.00     0.010 A 
ATOM     38  C   UNL A   1      35.371  32.039  30.504  1.00  0.00     0.010 A 
ATOM     39  C   UNL A   1      36.672  32.575  30.534  1.00  0.00    -0.014 A 
BRANCH  39  40
ATOM     40  C   UNL A   1      37.772  31.761  31.120  1.00  0.00     0.031 A 
ATOM     41  C   UNL A   1      38.178  32.062  32.544  1.00  0.00     0.074 A 
ATOM     42  C   UNL A   1      38.419  30.804  30.431  1.00  0.00     0.049 A 
ATOM     43  N   UNL A   1      39.170  31.583  33.248  1.00  0.00    -0.248 NA
ATOM     44  C   UNL A   1      37.355  33.051  33.263  1.00  0.00     0.031 C 
ATOM     45  C   UNL A   1      38.120  30.388  29.063  1.00  0.00     0.029 A 
ATOM     46  N   UNL A   1      39.494  30.026  30.792  1.00  0.00    -0.354 N 
ATOM     47  C   UNL A   1      39.111  32.234  34.476  1.00  0.00     0.074 A 
ATOM     48  C   UNL A   1      38.002  33.160  34.412  1.00  0.00     0.031 C 
ATOM     49  C   UNL A   1      39.012  29.451  28.689  1.00  0.00     0.029 A 
ATOM     50  C   UNL A   1      39.961  29.222  29.778  1.00  0.00     0.049 A 
ATOM     51  H   UNL A   1      39.892  30.044  31.693  1.00  0.00     0.167 HD
ATOM     52  C   UNL A   1      39.891  32.068  35.569  1.00  0.00     0.034 A 
ATOM     53  C   UNL A   1      41.042  28.416  29.730  1.00  0.00     0.034 A 
ATOM     54  C   UNL A   1      40.982  31.138  35.648  1.00  0.00     0.049 A 
ATOM     55  C   UNL A   1      41.928  28.283  30.947  1.00  0.00     0.074 A 
ATOM     56  C   UNL A   1      41.815  30.879  36.723  1.00  0.00     0.029 A 
ATOM     57  N   UNL A   1      41.398  30.317  34.612  1.00  0.00    -0.354 N 
ATOM     58  N   UNL A   1      41.809  28.840  32.128  1.00  0.00    -0.248 NA
ATOM     59  C   UNL A   1      43.086  27.381  30.832  1.00  0.00     0.031 C 
ATOM     60  C   UNL A   1      42.757  29.925  36.324  1.00  0.00     0.029 A 
ATOM     61  C   UNL A   1      42.480  29.556  35.018  1.00  0.00     0.049 A 
ATOM     62  H   UNL A   1      40.983  30.280  33.720  1.00  0.00     0.167 HD
ATOM     63  C   UNL A   1      42.838  28.317  32.906  1.00  0.00     0.074 A 
ATOM     64  C   UNL A   1      43.566  27.389  32.069  1.00  0.00     0.031 C 
ATOM     65  C   UNL A   1      43.157  28.586  34.198  1.00  0.00     0.034 A 
BRANCH  52  66
ATOM     66  C   UNL A   1      39.574  32.903  36.783  1.00  0.00     0.023 A 
ATOM     67  C   UNL A   1      38.646  32.431  37.735  1.00  0.00     0.012 A 
ATOM     68  C   UNL A   1      40.228  34.131  37.005  1.00  0.00     0.148 A 
ATOM     69  C   UNL A   1      38.345  33.185  38.867  1.00  0.00     0.002 A 
ATOM     70  C   UNL A   1      39.960  34.853  38.162  1.00  0.00     0.091 A 
ATOM     71  F   UNL A   1      41.092  34.572  36.080  1.00  0.00    -0.205 F 
ATOM     72  C   UNL A   1      39.009  34.389  39.086  1.00  0.00     0.022 A 
BRANCH  70  73
ATOM     73  S   UNL A   1      40.818  36.374  38.576  1.00  0.00     0.127 S 
ATOM     74  O   UNL A   1      39.717  37.338  38.601  1.00  0.00    -0.237 OA
ATOM     75  O   UNL A   1      41.382  36.059  39.889  1.00  0.00    -0.237 OA
ATOM     76  O   UNL A   1      41.802  36.584  37.524  1.00  0.00    -0.744 OA
ENDBRANCH  70  73
ENDBRANCH  52  66
BRANCH  53  77
ATOM     77  C   UNL A   1      41.354  27.639  28.493  1.00  0.00     0.023 A 
ATOM     78  C   UNL A   1      42.112  28.240  27.469  1.00  0.00     0.012 A 
ATOM     79  C   UNL A   1      40.875  26.328  28.312  1.00  0.00     0.148 A 
ATOM     80  C   UNL A   1      42.351  27.567  26.269  1.00  0.00     0.002 A 
ATOM     81  C   UNL A   1      41.161  25.641  27.136  1.00  0.00     0.091 A 
ATOM     82  F   UNL A   1      40.139  25.779  29.288  1.00  0.00    -0.205 F 
ATOM     83  C   UNL A   1      41.883  26.265  26.106  1.00  0.00     0.022 A 
BRANCH  81  84
ATOM     84  S   UNL A   1      40.687  23.929  26.878  1.00  0.00     0.127 S 
ATOM     85  O   UNL A   1      41.610  23.518  25.823  1.00  0.00    -0.237 OA
ATOM     86  O   UNL A   1      40.951  23.340  28.191  1.00  0.00    -0.237 OA
ATOM     87  O   UNL A   1      39.278  23.961  26.506  1.00  0.00    -0.744 OA
ENDBRANCH  81  84
ENDBRANCH  53  77
BRANCH  65  88
ATOM     88  C   UNL A   1      44.300  27.823  34.822  1.00  0.00     0.023 A 
ATOM     89  C   UNL A   1      44.077  26.564  35.413  1.00  0.00     0.012 A 
ATOM     90  C   UNL A   1      45.616  28.326  34.747  1.00  0.00     0.148 A 
ATOM     91  C   UNL A   1      45.138  25.837  35.955  1.00  0.00     0.002 A 
ATOM     92  C   UNL A   1      46.673  27.572  35.240  1.00  0.00     0.091 A 
ATOM     93  F   UNL A   1      45.809  29.531  34.192  1.00  0.00    -0.205 F 
ATOM     94  C   UNL A   1      46.435  26.334  35.859  1.00  0.00     0.022 A 
BRANCH  92  95
ATOM     95  S   UNL A   1      48.388  28.084  35.068  1.00  0.00     0.127 S 
ATOM     96  O   UNL A   1      48.526  29.035  36.171  1.00  0.00    -0.237 OA
ATOM     97  O   UNL A   1      49.107  26.824  35.256  1.00  0.00    -0.237 OA
ATOM     98  O   UNL A   1      48.507  28.655  33.734  1.00  0.00    -0.744 OA
ENDBRANCH  92  95
ENDBRANCH  65  88
ENDBRANCH  39  40
ENDBRANCH  32  34
ENDBRANCH  31  32
ENDBRANCH  30  31
ENDBRANCH  29  30
ENDBRANCH  28  29
ENDBRANCH  27  28
ENDBRANCH   1  27
TORSDOF 24
ENDMDL
MODEL 3
REMARK VINA RESULT:      -8.9      2.612      7.973
REMARK SMILES C[C@H](NC(=O)N[C@](C)(C(=O)OCCOCCOCCOC(=O)c1ccc(-c2c3nc(c(-c4cccc(S(=O)(=O)[O-])c4F)c4ccc([nH]4)c(-c4cccc(S(=O)(=O)[O-])c4F)c4nc(c(-c5cccc(S(=O)(=O)[O-])c5F)c5ccc2[nH]5)C=C4)C=C3)cc1)C(F)(F)F)C(N)=O
REMARK SMILES IDX 15 1 14 2 13 3 12 4 11 5 9 6 10 7 7 8 8 9 6 10 3 11 4 12
REMARK SMILES IDX 5 14 2 16 1 17 90 18 91 19 92 20 86 23 87 24 88 25 89 26
REMARK SMILES IDX 16 27 17 28 18 29 19 30 20 31 21 32 22 33 23 34 24 35 85 36
REMARK SMILES IDX 25 37 84 38 26 39 27 40 28 41 78 42 29 43 83 44 77 45 79 46
REMARK SMILES IDX 30 47 82 48 76 49 75 50 31 52 63 53 43 54 62 55 44 56 47 57
REMARK SMILES IDX 61 58 80 59 45 60 46 61 60 63 81 64 48 65 32 66 33 67 41 68
REMARK SMILES IDX 34 69 36 70 42 71 35 72 37 73 38 74 39 75 40 76 64 77 65 78
REMARK SMILES IDX 73 79 66 80 68 81 74 82 67 83 69 84 70 85 71 86 72 87 49 88
REMARK SMILES IDX 50 89 58 90 51 91 53 92 59 93 52 94 54 95 55 96 56 97 57 98
REMARK H PARENT 3 13 6 15 91 21 91 22 79 51 47 62
REMARK Flexibility Score: inf
ROOT
ATOM      1  C   UNL A   1      32.887  28.744  26.755  1.00  0.00     0.188 C 
ENDROOT
BRANCH   1   2
ATOM      2  O   UNL A   1      33.499  27.896  25.777  1.00  0.00    -0.376 OA
BRANCH   2   3
ATOM      3  C   UNL A   1      32.660  27.380  24.742  1.00  0.00     0.202 C 
BRANCH   3   4
ATOM      4  C   UNL A   1      33.395  26.346  23.848  1.00  0.00     0.261 C 
BRANCH   4   5
ATOM      5  O   UNL A   1      32.965  24.994  24.158  1.00  0.00    -0.461 OA
BRANCH   5   6
ATOM      6  C   UNL A   1      33.536  24.125  25.047  1.00  0.00     0.341 C 
ATOM      7  O   UNL A   1      34.046  24.575  26.071  1.00  0.00    -0.249 OA
BRANCH   6   8
ATOM      8  C   UNL A   1      33.192  22.658  24.924  1.00  0.00     0.232 C 
ATOM      9  C   UNL A   1      33.059  22.456  23.381  1.00  0.00     0.058 C 
BRANCH   8  10
ATOM     10  N   UNL A   1      34.261  21.780  25.474  1.00  0.00    -0.315 N 
ATOM     11  N   UNL A   1      34.221  19.597  24.438  1.00  0.00    -0.327 N 
ATOM     12  C   UNL A   1      34.791  20.621  25.071  1.00  0.00     0.316 C 
ATOM     13  H   UNL A   1      34.877  19.242  23.795  1.00  0.00     0.166 HD
ATOM     14  O   UNL A   1      35.987  20.485  25.360  1.00  0.00    -0.249 OA
ATOM     15  H   UNL A   1      34.659  22.124  26.306  1.00  0.00     0.166 HD
BRANCH  11  16
ATOM     16  C   UNL A   1      32.975  18.773  24.315  1.00  0.00     0.169 C 
ATOM     17  C   UNL A   1      32.289  18.604  22.971  1.00  0.00     0.041 C 
BRANCH  16  18
ATOM     18  C   UNL A   1      33.265  17.311  24.721  1.00  0.00     0.239 C 
ATOM     19  N   UNL A   1      33.401  17.105  26.072  1.00  0.00    -0.368 N 
ATOM     20  O   UNL A   1      33.302  16.383  23.923  1.00  0.00    -0.273 OA
ATOM     21  H   UNL A   1      33.367  17.869  26.692  1.00  0.00     0.159 HD
ATOM     22  H   UNL A   1      33.534  16.195  26.420  1.00  0.00     0.159 HD
ENDBRANCH  16  18
ENDBRANCH  11  16
ENDBRANCH   8  10
BRANCH   8  23
ATOM     23  C   UNL A   1      31.772  22.389  25.514  1.00  0.00     0.422 C 
ATOM     24  F   UNL A   1      30.777  23.058  24.894  1.00  0.00    -0.168 F 
ATOM     25  F   UNL A   1      31.449  21.067  25.368  1.00  0.00    -0.168 F 
ATOM     26  F   UNL A   1      31.696  22.641  26.837  1.00  0.00    -0.168 F 
ENDBRANCH   8  23
ENDBRANCH   6   8
ENDBRANCH   5   6
ENDBRANCH   4   5
ENDBRANCH   3   4
ENDBRANCH   2   3
ENDBRANCH   1   2
BRANCH   1  27
ATOM     27  C   UNL A   1      32.909  30.242  26.445  1.00  0.00     0.188 C 
BRANCH  27  28
ATOM     28  O   UNL A   1      31.664  30.917  26.641  1.00  0.00    -0.376 OA
BRANCH  28  29
ATOM     29  C   UNL A   1      31.747  32.302  26.950  1.00  0.00     0.202 C 
BRANCH  29  30
ATOM     30  C   UNL A   1      33.133  32.818  27.357  1.00  0.00     0.261 C 
BRANCH  30  31
ATOM     31  O   UNL A   1      33.140  34.183  27.788  1.00  0.00    -0.460 OA
BRANCH  31  32
ATOM     32  C   UNL A   1      33.414  34.348  29.117  1.00  0.00     0.338 C 
ATOM     33  O   UNL A   1      32.739  34.940  29.924  1.00  0.00    -0.246 OA
BRANCH  32  34
ATOM     34  C   UNL A   1      34.629  33.560  29.465  1.00  0.00     0.060 A 
ATOM     35  C   UNL A   1      34.469  32.364  30.179  1.00  0.00     0.016 A 
ATOM     36  C   UNL A   1      35.909  33.998  29.118  1.00  0.00     0.016 A 
ATOM     37  C   UNL A   1      35.589  31.656  30.631  1.00  0.00     0.010 A 
ATOM     38  C   UNL A   1      37.029  33.289  29.564  1.00  0.00     0.010 A 
ATOM     39  C   UNL A   1      36.876  32.151  30.379  1.00  0.00    -0.014 A 
BRANCH  39  40
ATOM     40  C   UNL A   1      38.041  31.674  31.173  1.00  0.00     0.031 A 
ATOM     41  C   UNL A   1      38.903  30.593  30.563  1.00  0.00     0.074 A 
ATOM     42  C   UNL A   1      38.330  32.144  32.400  1.00  0.00     0.049 A 
ATOM     43  N   UNL A   1      39.901  29.928  31.084  1.00  0.00    -0.248 NA
ATOM     44  C   UNL A   1      38.583  30.205  29.178  1.00  0.00     0.031 C 
ATOM     45  C   UNL A   1      37.605  33.200  33.102  1.00  0.00     0.029 A 
ATOM     46  N   UNL A   1      39.308  31.759  33.287  1.00  0.00    -0.354 N 
ATOM     47  C   UNL A   1      40.303  29.024  30.107  1.00  0.00     0.074 A 
ATOM     48  C   UNL A   1      39.426  29.207  28.972  1.00  0.00     0.031 C 
ATOM     49  C   UNL A   1      38.144  33.358  34.325  1.00  0.00     0.029 A 
ATOM     50  C   UNL A   1      39.232  32.397  34.504  1.00  0.00     0.049 A 
ATOM     51  H   UNL A   1      39.998  31.090  33.071  1.00  0.00     0.167 HD
ATOM     52  C   UNL A   1      41.321  28.132  30.135  1.00  0.00     0.034 A 
ATOM     53  C   UNL A   1      39.943  32.208  35.635  1.00  0.00     0.034 A 
ATOM     54  C   UNL A   1      42.209  27.957  31.250  1.00  0.00     0.049 A 
ATOM     55  C   UNL A   1      41.043  31.172  35.660  1.00  0.00     0.074 A 
ATOM     56  C   UNL A   1      43.287  27.095  31.363  1.00  0.00     0.029 A 
ATOM     57  N   UNL A   1      42.121  28.647  32.448  1.00  0.00    -0.354 N 
ATOM     58  N   UNL A   1      41.467  30.385  34.700  1.00  0.00    -0.248 NA
ATOM     59  C   UNL A   1      41.787  31.021  36.922  1.00  0.00     0.031 C 
ATOM     60  C   UNL A   1      43.830  27.243  32.644  1.00  0.00     0.029 A 
ATOM     61  C   UNL A   1      43.119  28.228  33.309  1.00  0.00     0.049 A 
ATOM     62  H   UNL A   1      41.447  29.335  32.654  1.00  0.00     0.167 HD
ATOM     63  C   UNL A   1      42.554  29.690  35.224  1.00  0.00     0.074 A 
ATOM     64  C   UNL A   1      42.733  30.155  36.582  1.00  0.00     0.031 C 
ATOM     65  C   UNL A   1      43.330  28.745  34.636  1.00  0.00     0.034 A 
BRANCH  52  66
ATOM     66  C   UNL A   1      41.542  27.289  28.906  1.00  0.00     0.023 A 
ATOM     67  C   UNL A   1      40.820  26.088  28.741  1.00  0.00     0.012 A 
ATOM     68  C   UNL A   1      42.427  27.707  27.893  1.00  0.00     0.148 A 
ATOM     69  C   UNL A   1      41.004  25.299  27.608  1.00  0.00     0.002 A 
ATOM     70  C   UNL A   1      42.569  26.940  26.743  1.00  0.00     0.091 A 
ATOM     71  F   UNL A   1      43.120  28.840  28.077  1.00  0.00    -0.205 F 
ATOM     72  C   UNL A   1      41.869  25.729  26.606  1.00  0.00     0.022 A 
BRANCH  70  73
ATOM     73  S   UNL A   1      43.595  27.445  25.360  1.00  0.00     0.127 S 
ATOM     74  O   UNL A   1      44.513  28.386  26.001  1.00  0.00    -0.237 OA
ATOM     75  O   UNL A   1      44.205  26.179  24.954  1.00  0.00    -0.237 OA
ATOM     76  O   UNL A   1      42.692  28.030  24.378  1.00  0.00    -0.744 OA
ENDBRANCH  70  73
ENDBRANCH  52  66
BRANCH  53  77
ATOM     77  C   UNL A   1      39.666  33.028  36.852  1.00  0.00     0.023 A 
ATOM     78  C   UNL A   1      38.604  32.667  37.706  1.00  0.00     0.012 A 
ATOM     79  C   UNL A   1      40.419  34.180  37.146  1.00  0.00     0.148 A 
ATOM     80  C   UNL A   1      38.272  33.460  38.805  1.00  0.00     0.002 A 
ATOM     81  C   UNL A   1      40.118  34.937  38.273  1.00  0.00     0.091 A 
ATOM     82  F   UNL A   1      41.412  34.520  36.312  1.00  0.00    -0.205 F 
ATOM     83  C   UNL A   1      39.033  34.590  39.094  1.00  0.00     0.022 A 
BRANCH  81  84
ATOM     84  S   UNL A   1      41.103  36.350  38.779  1.00  0.00     0.127 S 
ATOM     85  O   UNL A   1      42.389  36.058  38.151  1.00  0.00    -0.237 OA
ATOM     86  O   UNL A   1      40.366  37.464  38.182  1.00  0.00    -0.237 OA
ATOM     87  O   UNL A   1      41.096  36.336  40.236  1.00  0.00    -0.744 OA
ENDBRANCH  81  84
ENDBRANCH  53  77
BRANCH  65  88
ATOM     88  C   UNL A   1      44.494  28.191  35.421  1.00  0.00     0.023 A 
ATOM     89  C   UNL A   1      44.353  27.001  36.161  1.00  0.00     0.012 A 
ATOM     90  C   UNL A   1      45.757  28.817  35.357  1.00  0.00     0.148 A 
ATOM     91  C   UNL A   1      45.438  26.465  36.856  1.00  0.00     0.002 A 
ATOM     92  C   UNL A   1      46.845  28.247  36.007  1.00  0.00     0.091 A 
ATOM     93  F   UNL A   1      45.871  29.955  34.658  1.00  0.00    -0.205 F 
ATOM     94  C   UNL A   1      46.684  27.079  36.770  1.00  0.00     0.022 A 
BRANCH  92  95
ATOM     95  S   UNL A   1      48.509  28.911  35.867  1.00  0.00     0.127 S 
ATOM     96  O   UNL A   1      48.358  30.227  36.488  1.00  0.00    -0.237 OA
ATOM     97  O   UNL A   1      49.291  27.954  36.651  1.00  0.00    -0.237 OA
ATOM     98  O   UNL A   1      48.821  28.925  34.445  1.00  0.00    -0.744 OA
ENDBRANCH  92  95
ENDBRANCH  65  88
ENDBRANCH  39  40
ENDBRANCH  32  34
ENDBRANCH  31  32
ENDBRANCH  30  31
ENDBRANCH  29  30
ENDBRANCH  28  29
ENDBRANCH  27  28
ENDBRANCH   1  27
TORSDOF 24
ENDMDL
