MODEL 1
REMARK VINA RESULT:     -11.7      0.000      0.000
REMARK SMILES O=C(OCCOCCOCCOC(=O)c1cc(-c2ccc(C(F)(F)F)cc2)cc([N+](=O)[O-])c1)c1ccc(-c2c3nc(c(-c4cccc(S(=O)(=O)[O-])c4F)c4ccc([nH]4)c(-c4cccc(S(=O)(=O)[O-])c4F)c4nc(c(-c5cccc(S(=O)(=O)[O-])c5F)c5ccc2[nH]5)C=C4)C=C3)cc1
REMARK SMILES IDX 7 1 6 2 5 3 4 4 3 5 2 6 1 7 34 8 35 9 96 10 36 11 95 12
REMARK SMILES IDX 37 13 38 14 39 15 89 16 40 17 94 18 88 19 90 20 41 21 93 22
REMARK SMILES IDX 87 23 86 24 42 26 74 27 54 28 73 29 55 30 58 31 72 32 91 33
REMARK SMILES IDX 56 34 57 35 71 37 92 38 59 39 43 40 44 41 52 42 45 43 47 44
REMARK SMILES IDX 53 45 46 46 48 47 49 48 50 49 51 50 75 51 76 52 84 53 77 54
REMARK SMILES IDX 79 55 85 56 78 57 80 58 81 59 82 60 83 61 60 62 61 63 69 64
REMARK SMILES IDX 62 65 64 66 70 67 63 68 65 69 66 70 67 71 68 72 8 73 9 74
REMARK SMILES IDX 10 75 11 76 12 77 13 78 14 79 15 80 16 81 33 82 17 83 29 84
REMARK SMILES IDX 28 85 18 86 19 87 27 88 20 89 26 90 21 91 22 92 23 93 24 94
REMARK SMILES IDX 25 95 30 96 31 97 32 98
REMARK H PARENT 90 25 58 36
REMARK Flexibility Score: inf
ROOT
ATOM      1  C   UNL A   1      31.707  29.562  25.914  1.00  0.00     0.188 C 
ENDROOT
BRANCH   1   2
ATOM      2  O   UNL A   1      31.370  30.953  25.999  1.00  0.00    -0.376 OA
BRANCH   2   3
ATOM      3  C   UNL A   1      32.248  31.710  26.837  1.00  0.00     0.202 C 
BRANCH   3   4
ATOM      4  C   UNL A   1      31.866  33.188  26.969  1.00  0.00     0.261 C 
BRANCH   4   5
ATOM      5  O   UNL A   1      32.638  33.841  27.988  1.00  0.00    -0.460 OA
BRANCH   5   6
ATOM      6  C   UNL A   1      33.965  34.120  27.964  1.00  0.00     0.338 C 
ATOM      7  O   UNL A   1      34.325  35.241  27.606  1.00  0.00    -0.246 OA
BRANCH   6   8
ATOM      8  C   UNL A   1      35.018  33.161  28.420  1.00  0.00     0.060 A 
ATOM      9  C   UNL A   1      34.800  31.832  28.795  1.00  0.00     0.016 A 
ATOM     10  C   UNL A   1      36.338  33.638  28.414  1.00  0.00     0.016 A 
ATOM     11  C   UNL A   1      35.836  31.044  29.296  1.00  0.00     0.010 A 
ATOM     12  C   UNL A   1      37.392  32.831  28.848  1.00  0.00     0.010 A 
ATOM     13  C   UNL A   1      37.134  31.549  29.349  1.00  0.00    -0.014 A 
BRANCH  13  14
ATOM     14  C   UNL A   1      38.197  30.807  30.059  1.00  0.00     0.031 A 
ATOM     15  C   UNL A   1      38.492  31.177  31.481  1.00  0.00     0.074 A 
ATOM     16  C   UNL A   1      38.883  29.827  29.446  1.00  0.00     0.049 A 
ATOM     17  N   UNL A   1      39.455  30.767  32.259  1.00  0.00    -0.248 NA
ATOM     18  C   UNL A   1      37.576  32.144  32.113  1.00  0.00     0.031 C 
ATOM     19  C   UNL A   1      38.640  29.352  28.086  1.00  0.00     0.029 A 
ATOM     20  N   UNL A   1      39.944  29.075  29.881  1.00  0.00    -0.354 N 
ATOM     21  C   UNL A   1      39.296  31.465  33.449  1.00  0.00     0.074 A 
ATOM     22  C   UNL A   1      38.142  32.320  33.295  1.00  0.00     0.031 C 
ATOM     23  C   UNL A   1      39.557  28.419  27.784  1.00  0.00     0.029 A 
ATOM     24  C   UNL A   1      40.465  28.257  28.908  1.00  0.00     0.049 A 
ATOM     25  H   UNL A   1      40.298  29.116  30.799  1.00  0.00     0.167 HD
ATOM     26  C   UNL A   1      40.044  31.392  34.573  1.00  0.00     0.034 A 
ATOM     27  C   UNL A   1      41.571  27.487  28.906  1.00  0.00     0.034 A 
ATOM     28  C   UNL A   1      41.172  30.518  34.719  1.00  0.00     0.049 A 
ATOM     29  C   UNL A   1      42.394  27.422  30.159  1.00  0.00     0.074 A 
ATOM     30  C   UNL A   1      42.006  30.357  35.809  1.00  0.00     0.029 A 
ATOM     31  N   UNL A   1      41.626  29.654  33.732  1.00  0.00    -0.354 N 
ATOM     32  N   UNL A   1      42.204  28.050  31.295  1.00  0.00    -0.248 NA
ATOM     33  C   UNL A   1      43.555  26.523  30.150  1.00  0.00     0.031 C 
ATOM     34  C   UNL A   1      42.970  29.399  35.476  1.00  0.00     0.029 A 
ATOM     35  C   UNL A   1      42.726  28.952  34.185  1.00  0.00     0.049 A 
ATOM     36  H   UNL A   1      41.222  29.555  32.839  1.00  0.00     0.167 HD
ATOM     37  C   UNL A   1      43.204  27.604  32.147  1.00  0.00     0.074 A 
ATOM     38  C   UNL A   1      43.992  26.643  31.398  1.00  0.00     0.031 C 
ATOM     39  C   UNL A   1      43.453  27.963  33.430  1.00  0.00     0.034 A 
BRANCH  26  40
ATOM     40  C   UNL A   1      39.646  32.287  35.712  1.00  0.00     0.023 A 
ATOM     41  C   UNL A   1      38.803  31.793  36.729  1.00  0.00     0.012 A 
ATOM     42  C   UNL A   1      40.069  33.629  35.755  1.00  0.00     0.148 A 
ATOM     43  C   UNL A   1      38.354  32.633  37.748  1.00  0.00     0.002 A 
ATOM     44  C   UNL A   1      39.644  34.451  36.792  1.00  0.00     0.091 A 
ATOM     45  F   UNL A   1      40.838  34.091  34.759  1.00  0.00    -0.205 F 
ATOM     46  C   UNL A   1      38.778  33.959  37.783  1.00  0.00     0.022 A 
BRANCH  44  47
ATOM     47  S   UNL A   1      40.181  36.158  36.935  1.00  0.00     0.127 S 
ATOM     48  O   UNL A   1      39.792  36.700  35.635  1.00  0.00    -0.237 OA
ATOM     49  O   UNL A   1      39.382  36.645  38.061  1.00  0.00    -0.237 OA
ATOM     50  O   UNL A   1      41.612  36.098  37.197  1.00  0.00    -0.744 OA
ENDBRANCH  44  47
ENDBRANCH  26  40
BRANCH  27  51
ATOM     51  C   UNL A   1      41.932  26.709  27.688  1.00  0.00     0.023 A 
ATOM     52  C   UNL A   1      42.599  27.350  26.628  1.00  0.00     0.012 A 
ATOM     53  C   UNL A   1      41.668  25.327  27.597  1.00  0.00     0.148 A 
ATOM     54  C   UNL A   1      42.991  26.630  25.497  1.00  0.00     0.002 A 
ATOM     55  C   UNL A   1      42.081  24.610  26.477  1.00  0.00     0.091 A 
ATOM     56  F   UNL A   1      41.022  24.732  28.611  1.00  0.00    -0.205 F 
ATOM     57  C   UNL A   1      42.741  25.260  25.424  1.00  0.00     0.022 A 
BRANCH  55  58
ATOM     58  S   UNL A   1      41.840  22.829  26.376  1.00  0.00     0.127 S 
ATOM     59  O   UNL A   1      42.545  22.367  27.569  1.00  0.00    -0.237 OA
ATOM     60  O   UNL A   1      40.385  22.681  26.441  1.00  0.00    -0.237 OA
ATOM     61  O   UNL A   1      42.426  22.440  25.097  1.00  0.00    -0.744 OA
ENDBRANCH  55  58
ENDBRANCH  27  51
BRANCH  39  62
ATOM     62  C   UNL A   1      44.603  27.295  34.126  1.00  0.00     0.023 A 
ATOM     63  C   UNL A   1      45.888  27.862  34.049  1.00  0.00     0.012 A 
ATOM     64  C   UNL A   1      44.379  26.178  34.952  1.00  0.00     0.148 A 
ATOM     65  C   UNL A   1      46.942  27.319  34.782  1.00  0.00     0.002 A 
ATOM     66  C   UNL A   1      45.422  25.668  35.713  1.00  0.00     0.091 A 
ATOM     67  F   UNL A   1      43.149  25.645  34.988  1.00  0.00    -0.205 F 
ATOM     68  C   UNL A   1      46.705  26.233  35.626  1.00  0.00     0.022 A 
BRANCH  66  69
ATOM     69  S   UNL A   1      45.183  24.339  36.897  1.00  0.00     0.127 S 
ATOM     70  O   UNL A   1      44.065  24.844  37.691  1.00  0.00    -0.237 OA
ATOM     71  O   UNL A   1      44.855  23.206  36.030  1.00  0.00    -0.237 OA
ATOM     72  O   UNL A   1      46.446  24.205  37.609  1.00  0.00    -0.744 OA
ENDBRANCH  66  69
ENDBRANCH  39  62
ENDBRANCH  13  14
ENDBRANCH   6   8
ENDBRANCH   5   6
ENDBRANCH   4   5
ENDBRANCH   3   4
ENDBRANCH   2   3
ENDBRANCH   1   2
BRANCH   1  73
ATOM     73  C   UNL A   1      33.222  29.368  26.005  1.00  0.00     0.188 C 
BRANCH  73  74
ATOM     74  O   UNL A   1      33.772  28.435  25.072  1.00  0.00    -0.376 OA
BRANCH  74  75
ATOM     75  C   UNL A   1      33.581  28.712  23.688  1.00  0.00     0.202 C 
BRANCH  75  76
ATOM     76  C   UNL A   1      33.549  27.512  22.735  1.00  0.00     0.261 C 
BRANCH  76  77
ATOM     77  O   UNL A   1      34.030  26.276  23.285  1.00  0.00    -0.460 OA
BRANCH  77  78
ATOM     78  C   UNL A   1      33.435  25.176  22.767  1.00  0.00     0.338 C 
ATOM     79  O   UNL A   1      33.142  24.967  21.598  1.00  0.00    -0.246 OA
BRANCH  78  80
ATOM     80  C   UNL A   1      33.055  24.245  23.831  1.00  0.00     0.067 A 
ATOM     81  C   UNL A   1      33.449  22.901  23.793  1.00  0.00     0.025 A 
ATOM     82  C   UNL A   1      32.089  24.685  24.729  1.00  0.00     0.101 A 
ATOM     83  C   UNL A   1      32.849  21.956  24.650  1.00  0.00    -0.011 A 
ATOM     84  C   UNL A   1      31.490  23.758  25.580  1.00  0.00     0.270 A 
ATOM     85  C   UNL A   1      31.860  22.402  25.551  1.00  0.00     0.094 A 
BRANCH  83  86
ATOM     86  C   UNL A   1      33.168  20.522  24.518  1.00  0.00    -0.018 A 
ATOM     87  C   UNL A   1      32.174  19.556  24.306  1.00  0.00     0.009 A 
ATOM     88  C   UNL A   1      34.494  20.078  24.647  1.00  0.00     0.009 A 
ATOM     89  C   UNL A   1      32.492  18.191  24.239  1.00  0.00     0.014 A 
ATOM     90  C   UNL A   1      34.816  18.718  24.590  1.00  0.00     0.014 A 
ATOM     91  C   UNL A   1      33.816  17.757  24.393  1.00  0.00     0.056 A 
BRANCH  91  92
ATOM     92  C   UNL A   1      34.150  16.286  24.350  1.00  0.00     0.416 C 
ATOM     93  F   UNL A   1      34.608  15.893  23.125  1.00  0.00    -0.166 F 
ATOM     94  F   UNL A   1      35.119  15.931  25.236  1.00  0.00    -0.166 F 
ATOM     95  F   UNL A   1      33.087  15.472  24.614  1.00  0.00    -0.166 F 
ENDBRANCH  91  92
ENDBRANCH  83  86
BRANCH  84  96
ATOM     96  N   UNL A   1      30.423  24.226  26.468  1.00  0.00     0.062 N 
ATOM     97  O   UNL A   1      29.963  25.349  26.269  1.00  0.00    -0.258 OA
ATOM     98  O   UNL A   1      30.042  23.450  27.358  1.00  0.00    -0.258 OA
ENDBRANCH  84  96
ENDBRANCH  78  80
ENDBRANCH  77  78
ENDBRANCH  76  77
ENDBRANCH  75  76
ENDBRANCH  74  75
ENDBRANCH  73  74
ENDBRANCH   1  73
TORSDOF 23
ENDMDL
MODEL 2
REMARK VINA RESULT:     -11.2      2.807      7.826
REMARK SMILES O=C(OCCOCCOCCOC(=O)c1cc(-c2ccc(C(F)(F)F)cc2)cc([N+](=O)[O-])c1)c1ccc(-c2c3nc(c(-c4cccc(S(=O)(=O)[O-])c4F)c4ccc([nH]4)c(-c4cccc(S(=O)(=O)[O-])c4F)c4nc(c(-c5cccc(S(=O)(=O)[O-])c5F)c5ccc2[nH]5)C=C4)C=C3)cc1
REMARK SMILES IDX 7 1 6 2 5 3 4 4 3 5 2 6 1 7 34 8 35 9 96 10 36 11 95 12
REMARK SMILES IDX 37 13 38 14 39 15 89 16 40 17 94 18 88 19 90 20 41 21 93 22
REMARK SMILES IDX 87 23 86 24 42 26 74 27 54 28 73 29 55 30 58 31 72 32 91 33
REMARK SMILES IDX 56 34 57 35 71 37 92 38 59 39 43 40 44 41 52 42 45 43 47 44
REMARK SMILES IDX 53 45 46 46 48 47 49 48 50 49 51 50 75 51 76 52 84 53 77 54
REMARK SMILES IDX 79 55 85 56 78 57 80 58 81 59 82 60 83 61 60 62 61 63 69 64
REMARK SMILES IDX 62 65 64 66 70 67 63 68 65 69 66 70 67 71 68 72 8 73 9 74
REMARK SMILES IDX 10 75 11 76 12 77 13 78 14 79 15 80 16 81 33 82 17 83 29 84
REMARK SMILES IDX 28 85 18 86 19 87 27 88 20 89 26 90 21 91 22 92 23 93 24 94
REMARK SMILES IDX 25 95 30 96 31 97 32 98
REMARK H PARENT 90 25 58 36
REMARK Flexibility Score: inf
ROOT
ATOM      1  C   UNL A   1      33.360  29.964  26.373  1.00  0.00     0.188 C 
ENDROOT
BRANCH   1   2
ATOM      2  O   UNL A   1      32.425  31.002  26.697  1.00  0.00    -0.376 OA
BRANCH   2   3
ATOM      3  C   UNL A   1      32.940  31.979  27.607  1.00  0.00     0.202 C 
BRANCH   3   4
ATOM      4  C   UNL A   1      32.615  33.426  27.221  1.00  0.00     0.261 C 
BRANCH   4   5
ATOM      5  O   UNL A   1      32.412  34.247  28.381  1.00  0.00    -0.460 OA
BRANCH   5   6
ATOM      6  C   UNL A   1      33.363  34.784  29.185  1.00  0.00     0.338 C 
ATOM      7  O   UNL A   1      33.264  35.969  29.503  1.00  0.00    -0.246 OA
BRANCH   6   8
ATOM      8  C   UNL A   1      34.491  33.997  29.770  1.00  0.00     0.060 A 
ATOM      9  C   UNL A   1      34.368  32.997  30.740  1.00  0.00     0.016 A 
ATOM     10  C   UNL A   1      35.768  34.261  29.251  1.00  0.00     0.016 A 
ATOM     11  C   UNL A   1      35.494  32.384  31.290  1.00  0.00     0.010 A 
ATOM     12  C   UNL A   1      36.893  33.600  29.748  1.00  0.00     0.010 A 
ATOM     13  C   UNL A   1      36.764  32.702  30.815  1.00  0.00    -0.014 A 
BRANCH  13  14
ATOM     14  C   UNL A   1      37.969  32.216  31.519  1.00  0.00     0.031 A 
ATOM     15  C   UNL A   1      38.772  31.122  30.879  1.00  0.00     0.074 A 
ATOM     16  C   UNL A   1      38.336  32.736  32.703  1.00  0.00     0.049 A 
ATOM     17  N   UNL A   1      39.779  30.447  31.361  1.00  0.00    -0.248 NA
ATOM     18  C   UNL A   1      38.385  30.737  29.511  1.00  0.00     0.031 C 
ATOM     19  C   UNL A   1      37.659  33.836  33.385  1.00  0.00     0.029 A 
ATOM     20  N   UNL A   1      39.354  32.388  33.554  1.00  0.00    -0.354 N 
ATOM     21  C   UNL A   1      40.110  29.521  30.380  1.00  0.00     0.074 A 
ATOM     22  C   UNL A   1      39.202  29.724  29.274  1.00  0.00     0.031 C 
ATOM     23  C   UNL A   1      38.255  34.043  34.570  1.00  0.00     0.029 A 
ATOM     24  C   UNL A   1      39.326  33.073  34.744  1.00  0.00     0.049 A 
ATOM     25  H   UNL A   1      40.038  31.714  33.334  1.00  0.00     0.167 HD
ATOM     26  C   UNL A   1      41.090  28.590  30.398  1.00  0.00     0.034 A 
ATOM     27  C   UNL A   1      40.056  32.918  35.866  1.00  0.00     0.034 A 
ATOM     28  C   UNL A   1      41.999  28.419  31.494  1.00  0.00     0.049 A 
ATOM     29  C   UNL A   1      41.134  31.876  35.872  1.00  0.00     0.074 A 
ATOM     30  C   UNL A   1      43.032  27.510  31.626  1.00  0.00     0.029 A 
ATOM     31  N   UNL A   1      41.980  29.181  32.654  1.00  0.00    -0.354 N 
ATOM     32  N   UNL A   1      41.469  31.040  34.918  1.00  0.00    -0.248 NA
ATOM     33  C   UNL A   1      41.958  31.775  37.084  1.00  0.00     0.031 C 
ATOM     34  C   UNL A   1      43.632  27.719  32.874  1.00  0.00     0.029 A 
ATOM     35  C   UNL A   1      42.983  28.768  33.509  1.00  0.00     0.049 A 
ATOM     36  H   UNL A   1      41.344  29.910  32.841  1.00  0.00     0.167 HD
ATOM     37  C   UNL A   1      42.560  30.331  35.401  1.00  0.00     0.074 A 
ATOM     38  C   UNL A   1      42.836  30.844  36.730  1.00  0.00     0.031 C 
ATOM     39  C   UNL A   1      43.264  29.339  34.803  1.00  0.00     0.034 A 
BRANCH  26  40
ATOM     40  C   UNL A   1      41.204  27.702  29.191  1.00  0.00     0.023 A 
ATOM     41  C   UNL A   1      40.658  26.402  29.225  1.00  0.00     0.012 A 
ATOM     42  C   UNL A   1      41.889  28.136  28.041  1.00  0.00     0.148 A 
ATOM     43  C   UNL A   1      40.830  25.534  28.147  1.00  0.00     0.002 A 
ATOM     44  C   UNL A   1      42.026  27.276  26.957  1.00  0.00     0.091 A 
ATOM     45  F   UNL A   1      42.434  29.360  28.042  1.00  0.00    -0.205 F 
ATOM     46  C   UNL A   1      41.508  25.971  27.013  1.00  0.00     0.022 A 
BRANCH  44  47
ATOM     47  S   UNL A   1      42.846  27.778  25.441  1.00  0.00     0.127 S 
ATOM     48  O   UNL A   1      44.198  28.065  25.918  1.00  0.00    -0.237 OA
ATOM     49  O   UNL A   1      42.735  26.577  24.612  1.00  0.00    -0.237 OA
ATOM     50  O   UNL A   1      42.091  28.920  24.947  1.00  0.00    -0.744 OA
ENDBRANCH  44  47
ENDBRANCH  26  40
BRANCH  27  51
ATOM     51  C   UNL A   1      39.797  33.790  37.046  1.00  0.00     0.023 A 
ATOM     52  C   UNL A   1      40.226  35.129  37.027  1.00  0.00     0.012 A 
ATOM     53  C   UNL A   1      39.080  33.315  38.164  1.00  0.00     0.148 A 
ATOM     54  C   UNL A   1      39.952  35.978  38.102  1.00  0.00     0.002 A 
ATOM     55  C   UNL A   1      38.790  34.171  39.222  1.00  0.00     0.091 A 
ATOM     56  F   UNL A   1      38.686  32.032  38.172  1.00  0.00    -0.205 F 
ATOM     57  C   UNL A   1      39.227  35.504  39.195  1.00  0.00     0.022 A 
BRANCH  55  58
ATOM     58  S   UNL A   1      37.798  33.617  40.618  1.00  0.00     0.127 S 
ATOM     59  O   UNL A   1      36.607  33.100  39.948  1.00  0.00    -0.237 OA
ATOM     60  O   UNL A   1      38.633  32.589  41.240  1.00  0.00    -0.237 OA
ATOM     61  O   UNL A   1      37.601  34.809  41.438  1.00  0.00    -0.744 OA
ENDBRANCH  55  58
ENDBRANCH  27  51
BRANCH  39  62
ATOM     62  C   UNL A   1      44.424  28.759  35.558  1.00  0.00     0.023 A 
ATOM     63  C   UNL A   1      45.702  29.330  35.417  1.00  0.00     0.012 A 
ATOM     64  C   UNL A   1      44.216  27.731  36.497  1.00  0.00     0.148 A 
ATOM     65  C   UNL A   1      46.764  28.878  36.197  1.00  0.00     0.002 A 
ATOM     66  C   UNL A   1      45.268  27.315  37.301  1.00  0.00     0.091 A 
ATOM     67  F   UNL A   1      42.992  27.191  36.593  1.00  0.00    -0.205 F 
ATOM     68  C   UNL A   1      46.544  27.883  37.150  1.00  0.00     0.022 A 
BRANCH  66  69
ATOM     69  S   UNL A   1      45.049  26.113  38.617  1.00  0.00     0.127 S 
ATOM     70  O   UNL A   1      44.141  26.819  39.518  1.00  0.00    -0.237 OA
ATOM     71  O   UNL A   1      44.450  24.981  37.908  1.00  0.00    -0.237 OA
ATOM     72  O   UNL A   1      46.380  25.853  39.148  1.00  0.00    -0.744 OA
ENDBRANCH  66  69
ENDBRANCH  39  62
ENDBRANCH  13  14
ENDBRANCH   6   8
ENDBRANCH   5   6
ENDBRANCH   4   5
ENDBRANCH   3   4
ENDBRANCH   2   3
ENDBRANCH   1   2
BRANCH   1  73
ATOM     73  C   UNL A   1      32.777  29.026  25.313  1.00  0.00     0.188 C 
BRANCH  73  74
ATOM     74  O   UNL A   1      31.467  29.369  24.854  1.00  0.00    -0.376 OA
BRANCH  74  75
ATOM     75  C   UNL A   1      31.125  28.988  23.525  1.00  0.00     0.202 C 
BRANCH  75  76
ATOM     76  C   UNL A   1      32.157  28.162  22.749  1.00  0.00     0.261 C 
BRANCH  76  77
ATOM     77  O   UNL A   1      32.024  26.737  22.872  1.00  0.00    -0.460 OA
BRANCH  77  78
ATOM     78  C   UNL A   1      33.196  26.066  22.787  1.00  0.00     0.338 C 
ATOM     79  O   UNL A   1      33.887  25.894  21.792  1.00  0.00    -0.246 OA
BRANCH  78  80
ATOM     80  C   UNL A   1      33.525  25.436  24.067  1.00  0.00     0.067 A 
ATOM     81  C   UNL A   1      34.792  24.887  24.301  1.00  0.00     0.025 A 
ATOM     82  C   UNL A   1      32.462  25.182  24.927  1.00  0.00     0.101 A 
ATOM     83  C   UNL A   1      35.010  24.037  25.404  1.00  0.00    -0.011 A 
ATOM     84  C   UNL A   1      32.668  24.343  26.021  1.00  0.00     0.270 A 
ATOM     85  C   UNL A   1      33.928  23.770  26.268  1.00  0.00     0.094 A 
BRANCH  83  86
ATOM     86  C   UNL A   1      36.306  23.355  25.575  1.00  0.00    -0.018 A 
ATOM     87  C   UNL A   1      36.480  21.999  25.262  1.00  0.00     0.009 A 
ATOM     88  C   UNL A   1      37.406  24.049  26.104  1.00  0.00     0.009 A 
ATOM     89  C   UNL A   1      37.707  21.355  25.484  1.00  0.00     0.014 A 
ATOM     90  C   UNL A   1      38.629  23.410  26.336  1.00  0.00     0.014 A 
ATOM     91  C   UNL A   1      38.791  22.051  26.035  1.00  0.00     0.056 A 
BRANCH  91  92
ATOM     92  C   UNL A   1      40.099  21.348  26.300  1.00  0.00     0.416 C 
ATOM     93  F   UNL A   1      40.103  20.065  25.833  1.00  0.00    -0.166 F 
ATOM     94  F   UNL A   1      41.164  21.957  25.710  1.00  0.00    -0.166 F 
ATOM     95  F   UNL A   1      40.413  21.249  27.624  1.00  0.00    -0.166 F 
ENDBRANCH  91  92
ENDBRANCH  83  86
BRANCH  84  96
ATOM     96  N   UNL A   1      31.519  24.028  26.874  1.00  0.00     0.062 N 
ATOM     97  O   UNL A   1      30.524  24.744  26.784  1.00  0.00    -0.258 OA
ATOM     98  O   UNL A   1      31.621  23.046  27.626  1.00  0.00    -0.258 OA
ENDBRANCH  84  96
ENDBRANCH  78  80
ENDBRANCH  77  78
ENDBRANCH  76  77
ENDBRANCH  75  76
ENDBRANCH  74  75
ENDBRANCH  73  74
ENDBRANCH   1  73
TORSDOF 23
ENDMDL
MODEL 3
REMARK VINA RESULT:     -11.0      2.643      3.362
REMARK SMILES O=C(OCCOCCOCCOC(=O)c1cc(-c2ccc(C(F)(F)F)cc2)cc([N+](=O)[O-])c1)c1ccc(-c2c3nc(c(-c4cccc(S(=O)(=O)[O-])c4F)c4ccc([nH]4)c(-c4cccc(S(=O)(=O)[O-])c4F)c4nc(c(-c5cccc(S(=O)(=O)[O-])c5F)c5ccc2[nH]5)C=C4)C=C3)cc1
REMARK SMILES IDX 7 1 6 2 5 3 4 4 3 5 2 6 1 7 34 8 35 9 96 10 36 11 95 12
REMARK SMILES IDX 37 13 38 14 39 15 89 16 40 17 94 18 88 19 90 20 41 21 93 22
REMARK SMILES IDX 87 23 86 24 42 26 74 27 54 28 73 29 55 30 58 31 72 32 91 33
REMARK SMILES IDX 56 34 57 35 71 37 92 38 59 39 43 40 44 41 52 42 45 43 47 44
REMARK SMILES IDX 53 45 46 46 48 47 49 48 50 49 51 50 75 51 76 52 84 53 77 54
REMARK SMILES IDX 79 55 85 56 78 57 80 58 81 59 82 60 83 61 60 62 61 63 69 64
REMARK SMILES IDX 62 65 64 66 70 67 63 68 65 69 66 70 67 71 68 72 8 73 9 74
REMARK SMILES IDX 10 75 11 76 12 77 13 78 14 79 15 80 16 81 33 82 17 83 29 84
REMARK SMILES IDX 28 85 18 86 19 87 27 88 20 89 26 90 21 91 22 92 23 93 24 94
REMARK SMILES IDX 25 95 30 96 31 97 32 98
REMARK H PARENT 90 25 58 36
REMARK Flexibility Score: inf
ROOT
ATOM      1  C   UNL A   1      31.496  29.909  25.202  1.00  0.00     0.188 C 
ENDROOT
BRANCH   1   2
ATOM      2  O   UNL A   1      31.980  30.830  26.189  1.00  0.00    -0.376 OA
BRANCH   2   3
ATOM      3  C   UNL A   1      31.110  31.943  26.416  1.00  0.00     0.202 C 
BRANCH   3   4
ATOM      4  C   UNL A   1      31.840  33.267  26.662  1.00  0.00     0.261 C 
BRANCH   4   5
ATOM      5  O   UNL A   1      32.267  33.387  28.027  1.00  0.00    -0.460 OA
BRANCH   5   6
ATOM      6  C   UNL A   1      33.186  34.250  28.529  1.00  0.00     0.338 C 
ATOM      7  O   UNL A   1      33.009  35.458  28.368  1.00  0.00    -0.246 OA
BRANCH   6   8
ATOM      8  C   UNL A   1      34.369  33.819  29.335  1.00  0.00     0.060 A 
ATOM      9  C   UNL A   1      35.680  34.272  29.160  1.00  0.00     0.016 A 
ATOM     10  C   UNL A   1      34.114  32.924  30.385  1.00  0.00     0.016 A 
ATOM     11  C   UNL A   1      36.733  33.739  29.903  1.00  0.00     0.010 A 
ATOM     12  C   UNL A   1      35.154  32.439  31.180  1.00  0.00     0.010 A 
ATOM     13  C   UNL A   1      36.478  32.799  30.900  1.00  0.00    -0.014 A 
BRANCH  13  14
ATOM     14  C   UNL A   1      37.592  32.080  31.553  1.00  0.00     0.031 A 
ATOM     15  C   UNL A   1      38.070  32.574  32.886  1.00  0.00     0.074 A 
ATOM     16  C   UNL A   1      38.165  31.014  30.969  1.00  0.00     0.049 A 
ATOM     17  N   UNL A   1      39.106  32.197  33.584  1.00  0.00    -0.248 NA
ATOM     18  C   UNL A   1      37.271  33.640  33.517  1.00  0.00     0.031 C 
ATOM     19  C   UNL A   1      37.743  30.421  29.702  1.00  0.00     0.029 A 
ATOM     20  N   UNL A   1      39.244  30.259  31.352  1.00  0.00    -0.354 N 
ATOM     21  C   UNL A   1      39.116  33.015  34.707  1.00  0.00     0.074 A 
ATOM     22  C   UNL A   1      37.982  33.904  34.601  1.00  0.00     0.031 C 
ATOM     23  C   UNL A   1      38.583  29.420  29.393  1.00  0.00     0.029 A 
ATOM     24  C   UNL A   1      39.615  29.326  30.414  1.00  0.00     0.049 A 
ATOM     25  H   UNL A   1      39.707  30.374  32.213  1.00  0.00     0.167 HD
ATOM     26  C   UNL A   1      39.991  33.017  35.737  1.00  0.00     0.034 A 
ATOM     27  C   UNL A   1      40.684  28.509  30.361  1.00  0.00     0.034 A 
ATOM     28  C   UNL A   1      41.097  32.109  35.839  1.00  0.00     0.049 A 
ATOM     29  C   UNL A   1      41.649  28.528  31.510  1.00  0.00     0.074 A 
ATOM     30  C   UNL A   1      42.050  32.017  36.835  1.00  0.00     0.029 A 
ATOM     31  N   UNL A   1      41.397  31.132  34.899  1.00  0.00    -0.354 N 
ATOM     32  N   UNL A   1      41.620  29.273  32.590  1.00  0.00    -0.248 NA
ATOM     33  C   UNL A   1      42.769  27.579  31.457  1.00  0.00     0.031 C 
ATOM     34  C   UNL A   1      42.933  30.986  36.492  1.00  0.00     0.029 A 
ATOM     35  C   UNL A   1      42.519  30.428  35.291  1.00  0.00     0.049 A 
ATOM     36  H   UNL A   1      40.886  30.965  34.075  1.00  0.00     0.167 HD
ATOM     37  C   UNL A   1      42.700  28.865  33.361  1.00  0.00     0.074 A 
ATOM     38  C   UNL A   1      43.358  27.800  32.627  1.00  0.00     0.031 C 
ATOM     39  C   UNL A   1      43.115  29.336  34.562  1.00  0.00     0.034 A 
BRANCH  26  40
ATOM     40  C   UNL A   1      39.765  34.037  36.816  1.00  0.00     0.023 A 
ATOM     41  C   UNL A   1      40.121  35.384  36.592  1.00  0.00     0.012 A 
ATOM     42  C   UNL A   1      39.242  33.659  38.067  1.00  0.00     0.148 A 
ATOM     43  C   UNL A   1      39.999  36.328  37.611  1.00  0.00     0.002 A 
ATOM     44  C   UNL A   1      39.092  34.613  39.067  1.00  0.00     0.091 A 
ATOM     45  F   UNL A   1      38.946  32.368  38.275  1.00  0.00    -0.205 F 
ATOM     46  C   UNL A   1      39.480  35.945  38.845  1.00  0.00     0.022 A 
BRANCH  44  47
ATOM     47  S   UNL A   1      38.389  34.211  40.669  1.00  0.00     0.127 S 
ATOM     48  O   UNL A   1      37.145  33.546  40.287  1.00  0.00    -0.237 OA
ATOM     49  O   UNL A   1      39.403  33.323  41.242  1.00  0.00    -0.237 OA
ATOM     50  O   UNL A   1      38.244  35.482  41.364  1.00  0.00    -0.744 OA
ENDBRANCH  44  47
ENDBRANCH  26  40
BRANCH  27  51
ATOM     51  C   UNL A   1      40.868  27.600  29.196  1.00  0.00     0.023 A 
ATOM     52  C   UNL A   1      40.199  26.362  29.169  1.00  0.00     0.012 A 
ATOM     53  C   UNL A   1      41.656  27.977  28.089  1.00  0.00     0.148 A 
ATOM     54  C   UNL A   1      40.317  25.515  28.065  1.00  0.00     0.002 A 
ATOM     55  C   UNL A   1      41.752  27.139  26.982  1.00  0.00     0.091 A 
ATOM     56  F   UNL A   1      42.296  29.155  28.134  1.00  0.00    -0.205 F 
ATOM     57  C   UNL A   1      41.085  25.905  26.968  1.00  0.00     0.022 A 
BRANCH  55  58
ATOM     58  S   UNL A   1      42.676  27.637  25.520  1.00  0.00     0.127 S 
ATOM     59  O   UNL A   1      42.403  26.530  24.606  1.00  0.00    -0.237 OA
ATOM     60  O   UNL A   1      42.047  28.903  25.137  1.00  0.00    -0.237 OA
ATOM     61  O   UNL A   1      44.058  27.765  25.972  1.00  0.00    -0.744 OA
ENDBRANCH  55  58
ENDBRANCH  27  51
BRANCH  39  62
ATOM     62  C   UNL A   1      44.317  28.686  35.184  1.00  0.00     0.023 A 
ATOM     63  C   UNL A   1      45.603  29.177  34.893  1.00  0.00     0.012 A 
ATOM     64  C   UNL A   1      44.155  27.672  36.147  1.00  0.00     0.148 A 
ATOM     65  C   UNL A   1      46.717  28.659  35.550  1.00  0.00     0.002 A 
ATOM     66  C   UNL A   1      45.264  27.192  36.828  1.00  0.00     0.091 A 
ATOM     67  F   UNL A   1      42.919  27.208  36.386  1.00  0.00    -0.205 F 
ATOM     68  C   UNL A   1      46.547  27.680  36.528  1.00  0.00     0.022 A 
BRANCH  66  69
ATOM     69  S   UNL A   1      45.124  26.004  38.168  1.00  0.00     0.127 S 
ATOM     70  O   UNL A   1      44.782  24.780  37.447  1.00  0.00    -0.237 OA
ATOM     71  O   UNL A   1      46.471  26.020  38.741  1.00  0.00    -0.237 OA
ATOM     72  O   UNL A   1      44.088  26.520  39.053  1.00  0.00    -0.744 OA
ENDBRANCH  66  69
ENDBRANCH  39  62
ENDBRANCH  13  14
ENDBRANCH   6   8
ENDBRANCH   5   6
ENDBRANCH   4   5
ENDBRANCH   3   4
ENDBRANCH   2   3
ENDBRANCH   1   2
BRANCH   1  73
ATOM     73  C   UNL A   1      32.053  28.506  25.456  1.00  0.00     0.188 C 
BRANCH  73  74
ATOM     74  O   UNL A   1      33.390  28.292  24.999  1.00  0.00    -0.376 OA
BRANCH  74  75
ATOM     75  C   UNL A   1      33.698  28.711  23.673  1.00  0.00     0.202 C 
BRANCH  75  76
ATOM     76  C   UNL A   1      33.081  27.902  22.526  1.00  0.00     0.261 C 
BRANCH  76  77
ATOM     77  O   UNL A   1      33.823  26.740  22.124  1.00  0.00    -0.460 OA
BRANCH  77  78
ATOM     78  C   UNL A   1      33.137  25.581  22.248  1.00  0.00     0.338 C 
ATOM     79  O   UNL A   1      32.322  25.107  21.467  1.00  0.00    -0.246 OA
BRANCH  78  80
ATOM     80  C   UNL A   1      33.405  24.958  23.546  1.00  0.00     0.067 A 
ATOM     81  C   UNL A   1      34.687  24.502  23.880  1.00  0.00     0.025 A 
ATOM     82  C   UNL A   1      32.297  24.614  24.312  1.00  0.00     0.101 A 
ATOM     83  C   UNL A   1      34.876  23.655  24.991  1.00  0.00    -0.011 A 
ATOM     84  C   UNL A   1      32.475  23.777  25.413  1.00  0.00     0.270 A 
ATOM     85  C   UNL A   1      33.750  23.296  25.759  1.00  0.00     0.094 A 
BRANCH  83  86
ATOM     86  C   UNL A   1      36.202  23.069  25.263  1.00  0.00    -0.018 A 
ATOM     87  C   UNL A   1      36.517  21.748  24.914  1.00  0.00     0.009 A 
ATOM     88  C   UNL A   1      37.184  23.820  25.930  1.00  0.00     0.009 A 
ATOM     89  C   UNL A   1      37.766  21.192  25.232  1.00  0.00     0.014 A 
ATOM     90  C   UNL A   1      38.427  23.268  26.258  1.00  0.00     0.014 A 
ATOM     91  C   UNL A   1      38.729  21.943  25.919  1.00  0.00     0.056 A 
BRANCH  91  92
ATOM     92  C   UNL A   1      40.059  21.332  26.285  1.00  0.00     0.416 C 
ATOM     93  F   UNL A   1      40.163  20.032  25.882  1.00  0.00    -0.166 F 
ATOM     94  F   UNL A   1      41.118  21.977  25.723  1.00  0.00    -0.166 F 
ATOM     95  F   UNL A   1      40.305  21.312  27.627  1.00  0.00    -0.166 F 
ENDBRANCH  91  92
ENDBRANCH  83  86
BRANCH  84  96
ATOM     96  N   UNL A   1      31.287  23.365  26.165  1.00  0.00     0.062 N 
ATOM     97  O   UNL A   1      30.781  22.280  25.890  1.00  0.00    -0.258 OA
ATOM     98  O   UNL A   1      30.874  24.138  27.044  1.00  0.00    -0.258 OA
ENDBRANCH  84  96
ENDBRANCH  78  80
ENDBRANCH  77  78
ENDBRANCH  76  77
ENDBRANCH  75  76
ENDBRANCH  74  75
ENDBRANCH  73  74
ENDBRANCH   1  73
TORSDOF 23
ENDMDL
