MODEL 1
REMARK VINA RESULT:     -11.8      0.000      0.000
REMARK SMILES Cc1ccc(NC(=O)Cn2c(CCC(=O)OCCOCCOCCOC(=O)c3ccc(-c4c5nc(c(-c6cccc(S(=O)(=O)[O-])c6F)c6ccc([nH]6)c(-c6cccc(S(=O)(=O)[O-])c6F)c6nc(c(-c7cccc(S(=O)(=O)[O-])c7F)c7ccc4[nH]7)C=C6)C=C5)cc3)ccc2-c2ccccc2)cc1
REMARK SMILES IDX 20 1 19 2 18 3 17 4 16 5 14 6 15 7 13 8 12 9 11 10 10 11
REMARK SMILES IDX 93 12 91 13 92 14 9 15 7 16 6 17 8 19 5 20 1 21 2 22 3 23
REMARK SMILES IDX 101 24 4 25 100 26 94 27 95 28 99 29 96 30 98 31 97 32 21 33
REMARK SMILES IDX 22 34 23 35 24 36 25 37 26 38 27 39 28 40 29 41 90 42 30 43
REMARK SMILES IDX 89 44 31 45 32 46 33 47 83 48 34 49 88 50 82 51 84 52 35 53
REMARK SMILES IDX 87 54 81 55 80 56 36 58 68 59 48 60 67 61 49 62 52 63 66 64
REMARK SMILES IDX 85 65 50 66 51 67 65 69 86 70 53 71 37 72 38 73 46 74 39 75
REMARK SMILES IDX 41 76 47 77 40 78 42 79 43 80 44 81 45 82 69 83 70 84 78 85
REMARK SMILES IDX 71 86 73 87 79 88 72 89 74 90 75 91 76 92 77 93 54 94 55 95
REMARK SMILES IDX 63 96 56 97 58 98 64 99 57 100 59 101 60 102 61 103 62 104
REMARK H PARENT 6 18 84 57 52 68
REMARK Flexibility Score: inf
ROOT
ATOM      1  C   UNL A   1      36.825  33.244  34.126  1.00  0.00     0.188 C 
ENDROOT
BRANCH   1   2
ATOM      2  O   UNL A   1      35.530  32.670  33.965  1.00  0.00    -0.376 OA
BRANCH   2   3
ATOM      3  C   UNL A   1      34.667  33.213  32.960  1.00  0.00     0.202 C 
BRANCH   3   4
ATOM      4  C   UNL A   1      35.001  33.143  31.365  1.00  0.00     0.261 C 
BRANCH   4   5
ATOM      5  O   UNL A   1      34.174  32.705  30.114  1.00  0.00    -0.463 OA
BRANCH   5   6
ATOM      6  C   UNL A   1      34.192  32.845  28.730  1.00  0.00     0.306 C 
ATOM      7  O   UNL A   1      34.615  33.860  28.175  1.00  0.00    -0.252 OA
BRANCH   6   8
ATOM      8  C   UNL A   1      34.022  31.309  27.656  1.00  0.00     0.129 C 
BRANCH   8   9
ATOM      9  C   UNL A   1      32.429  30.243  26.329  1.00  0.00     0.066 C 
BRANCH   9  10
ATOM     10  C   UNL A   1      33.054  29.042  24.877  1.00  0.00     0.019 A 
ATOM     11  N   UNL A   1      32.808  27.459  24.951  1.00  0.00    -0.335 N 
ATOM     12  C   UNL A   1      33.332  26.849  23.833  1.00  0.00     0.049 A 
ATOM     13  C   UNL A   1      33.740  29.185  23.682  1.00  0.00     0.024 A 
ATOM     14  C   UNL A   1      33.900  27.873  23.076  1.00  0.00     0.029 A 
BRANCH  11  15
ATOM     15  C   UNL A   1      32.140  26.610  26.377  1.00  0.00     0.222 C 
BRANCH  15  16
ATOM     16  C   UNL A   1      30.454  25.569  26.155  1.00  0.00     0.244 C 
ATOM     17  N   UNL A   1      29.605  25.811  24.577  1.00  0.00    -0.325 N 
ATOM     18  H   UNL A   1      29.294  24.980  24.151  1.00  0.00     0.169 HD
ATOM     19  O   UNL A   1      29.806  24.766  26.835  1.00  0.00    -0.273 OA
BRANCH  17  20
ATOM     20  C   UNL A   1      29.181  27.507  23.530  1.00  0.00     0.041 A 
ATOM     21  C   UNL A   1      28.051  31.932  23.175  1.00  0.00     0.044 C 
ATOM     22  C   UNL A   1      28.363  30.471  23.264  1.00  0.00    -0.051 A 
ATOM     23  C   UNL A   1      29.666  30.131  23.478  1.00  0.00     0.005 A 
ATOM     24  C   UNL A   1      27.470  29.418  23.057  1.00  0.00     0.005 A 
ATOM     25  C   UNL A   1      30.035  28.780  23.536  1.00  0.00     0.026 A 
ATOM     26  C   UNL A   1      27.856  28.017  23.119  1.00  0.00     0.026 A 
ENDBRANCH  17  20
ENDBRANCH  15  16
ENDBRANCH  11  15
BRANCH  12  27
ATOM     27  C   UNL A   1      33.233  25.395  23.591  1.00  0.00    -0.002 A 
ATOM     28  C   UNL A   1      34.216  24.505  24.041  1.00  0.00     0.010 A 
ATOM     29  C   UNL A   1      32.130  24.855  22.907  1.00  0.00     0.010 A 
ATOM     30  C   UNL A   1      34.094  23.123  23.818  1.00  0.00     0.001 A 
ATOM     31  C   UNL A   1      31.983  23.477  22.721  1.00  0.00     0.001 A 
ATOM     32  C   UNL A   1      32.973  22.610  23.167  1.00  0.00     0.000 A 
ENDBRANCH  12  27
ENDBRANCH   9  10
ENDBRANCH   8   9
ENDBRANCH   6   8
ENDBRANCH   5   6
ENDBRANCH   4   5
ENDBRANCH   3   4
ENDBRANCH   2   3
ENDBRANCH   1   2
BRANCH   1  33
ATOM     33  C   UNL A   1      37.112  33.531  35.579  1.00  0.00     0.188 C 
BRANCH  33  34
ATOM     34  O   UNL A   1      36.683  33.255  36.871  1.00  0.00    -0.376 OA
BRANCH  34  35
ATOM     35  C   UNL A   1      37.417  32.302  37.520  1.00  0.00     0.202 C 
BRANCH  35  36
ATOM     36  C   UNL A   1      38.820  32.837  37.698  1.00  0.00     0.261 C 
BRANCH  36  37
ATOM     37  O   UNL A   1      40.031  32.146  36.972  1.00  0.00    -0.460 OA
BRANCH  37  38
ATOM     38  C   UNL A   1      40.904  31.821  35.941  1.00  0.00     0.338 C 
ATOM     39  O   UNL A   1      41.059  32.726  35.108  1.00  0.00    -0.246 OA
BRANCH  38  40
ATOM     40  C   UNL A   1      41.699  30.502  35.500  1.00  0.00     0.060 A 
ATOM     41  C   UNL A   1      41.217  29.435  33.902  1.00  0.00     0.016 A 
ATOM     42  C   UNL A   1      43.397  29.751  36.239  1.00  0.00     0.016 A 
ATOM     43  C   UNL A   1      42.208  27.831  33.353  1.00  0.00     0.010 A 
ATOM     44  C   UNL A   1      44.043  27.829  35.864  1.00  0.00     0.010 A 
ATOM     45  C   UNL A   1      43.692  26.800  34.131  1.00  0.00    -0.014 A 
BRANCH  45  46
ATOM     46  C   UNL A   1      44.446  25.251  33.956  1.00  0.00     0.031 A 
ATOM     47  C   UNL A   1      45.448  25.516  32.956  1.00  0.00     0.074 A 
ATOM     48  C   UNL A   1      44.832  23.962  34.462  1.00  0.00     0.049 A 
ATOM     49  N   UNL A   1      46.600  25.855  33.398  1.00  0.00    -0.248 NA
ATOM     50  C   UNL A   1      45.184  25.720  31.552  1.00  0.00     0.031 C 
ATOM     51  C   UNL A   1      44.335  23.218  35.624  1.00  0.00     0.029 A 
ATOM     52  N   UNL A   1      45.964  23.021  34.082  1.00  0.00    -0.354 N 
ATOM     53  C   UNL A   1      47.328  26.201  32.316  1.00  0.00     0.074 A 
ATOM     54  C   UNL A   1      46.373  26.233  31.221  1.00  0.00     0.031 C 
ATOM     55  C   UNL A   1      45.189  22.216  35.978  1.00  0.00     0.029 A 
ATOM     56  C   UNL A   1      46.423  22.142  35.119  1.00  0.00     0.049 A 
ATOM     57  H   UNL A   1      46.358  23.015  33.180  1.00  0.00     0.167 HD
ATOM     58  C   UNL A   1      48.660  26.315  32.495  1.00  0.00     0.034 A 
ATOM     59  C   UNL A   1      47.604  21.477  35.591  1.00  0.00     0.034 A 
ATOM     60  C   UNL A   1      49.114  26.432  33.935  1.00  0.00     0.049 A 
ATOM     61  C   UNL A   1      47.794  22.421  36.717  1.00  0.00     0.074 A 
ATOM     62  C   UNL A   1      50.137  27.140  34.535  1.00  0.00     0.029 A 
ATOM     63  N   UNL A   1      48.457  25.817  35.035  1.00  0.00    -0.354 N 
ATOM     64  N   UNL A   1      48.148  23.633  36.450  1.00  0.00    -0.248 NA
ATOM     65  C   UNL A   1      47.496  22.107  38.095  1.00  0.00     0.031 C 
ATOM     66  C   UNL A   1      50.087  26.935  35.953  1.00  0.00     0.029 A 
ATOM     67  C   UNL A   1      48.984  26.170  36.299  1.00  0.00     0.049 A 
ATOM     68  H   UNL A   1      47.701  25.197  34.925  1.00  0.00     0.167 HD
ATOM     69  C   UNL A   1      48.062  24.331  37.609  1.00  0.00     0.074 A 
ATOM     70  C   UNL A   1      47.513  23.359  38.560  1.00  0.00     0.031 C 
ATOM     71  C   UNL A   1      48.432  25.643  37.621  1.00  0.00     0.034 A 
BRANCH  58  72
ATOM     72  C   UNL A   1      49.567  26.089  31.294  1.00  0.00     0.023 A 
ATOM     73  C   UNL A   1      48.956  25.497  30.174  1.00  0.00     0.012 A 
ATOM     74  C   UNL A   1      50.897  26.559  31.099  1.00  0.00     0.148 A 
ATOM     75  C   UNL A   1      49.601  25.409  28.935  1.00  0.00     0.002 A 
ATOM     76  C   UNL A   1      51.509  26.551  29.843  1.00  0.00     0.091 A 
ATOM     77  F   UNL A   1      51.632  26.963  32.136  1.00  0.00    -0.205 F 
ATOM     78  C   UNL A   1      50.864  25.962  28.758  1.00  0.00     0.022 A 
BRANCH  76  79
ATOM     79  S   UNL A   1      53.100  27.352  29.531  1.00  0.00     0.127 S 
ATOM     80  O   UNL A   1      53.757  27.255  30.834  1.00  0.00    -0.237 OA
ATOM     81  O   UNL A   1      53.682  26.505  28.489  1.00  0.00    -0.237 OA
ATOM     82  O   UNL A   1      52.802  28.710  29.089  1.00  0.00    -0.744 OA
ENDBRANCH  76  79
ENDBRANCH  58  72
BRANCH  59  83
ATOM     83  C   UNL A   1      49.115  20.860  35.389  1.00  0.00     0.023 A 
ATOM     84  C   UNL A   1      49.618  19.935  36.341  1.00  0.00     0.012 A 
ATOM     85  C   UNL A   1      50.177  21.388  34.526  1.00  0.00     0.148 A 
ATOM     86  C   UNL A   1      50.976  19.473  36.348  1.00  0.00     0.002 A 
ATOM     87  C   UNL A   1      51.507  20.883  34.501  1.00  0.00     0.091 A 
ATOM     88  F   UNL A   1      49.966  22.492  33.807  1.00  0.00    -0.205 F 
ATOM     89  C   UNL A   1      51.904  19.908  35.407  1.00  0.00     0.022 A 
BRANCH  87  90
ATOM     90  S   UNL A   1      52.812  21.450  33.350  1.00  0.00     0.127 S 
ATOM     91  O   UNL A   1      53.942  20.582  33.696  1.00  0.00    -0.237 OA
ATOM     92  O   UNL A   1      52.211  21.151  32.051  1.00  0.00    -0.237 OA
ATOM     93  O   UNL A   1      53.032  22.858  33.636  1.00  0.00    -0.744 OA
ENDBRANCH  87  90
ENDBRANCH  59  83
BRANCH  71  94
ATOM     94  C   UNL A   1      48.222  26.475  38.909  1.00  0.00     0.023 A 
ATOM     95  C   UNL A   1      49.059  26.402  40.042  1.00  0.00     0.012 A 
ATOM     96  C   UNL A   1      47.149  27.341  39.115  1.00  0.00     0.148 A 
ATOM     97  C   UNL A   1      48.695  26.766  41.341  1.00  0.00     0.002 A 
ATOM     98  C   UNL A   1      46.775  27.761  40.411  1.00  0.00     0.091 A 
ATOM     99  F   UNL A   1      46.504  27.820  38.045  1.00  0.00    -0.205 F 
ATOM    100  C   UNL A   1      47.480  27.360  41.541  1.00  0.00     0.022 A 
BRANCH  98 101
ATOM    101  S   UNL A   1      45.494  28.975  40.731  1.00  0.00     0.127 S 
ATOM    102  O   UNL A   1      45.098  29.397  39.388  1.00  0.00    -0.237 OA
ATOM    103  O   UNL A   1      44.481  28.172  41.409  1.00  0.00    -0.237 OA
ATOM    104  O   UNL A   1      46.111  30.002  41.561  1.00  0.00    -0.744 OA
ENDBRANCH  98 101
ENDBRANCH  71  94
ENDBRANCH  45  46
ENDBRANCH  38  40
ENDBRANCH  37  38
ENDBRANCH  36  37
ENDBRANCH  35  36
ENDBRANCH  34  35
ENDBRANCH  33  34
ENDBRANCH   1  33
TORSDOF 26
ENDMDL
MODEL 2
REMARK VINA RESULT:     -11.7      1.382      2.946
REMARK SMILES Cc1ccc(NC(=O)Cn2c(CCC(=O)OCCOCCOCCOC(=O)c3ccc(-c4c5nc(c(-c6cccc(S(=O)(=O)[O-])c6F)c6ccc([nH]6)c(-c6cccc(S(=O)(=O)[O-])c6F)c6nc(c(-c7cccc(S(=O)(=O)[O-])c7F)c7ccc4[nH]7)C=C6)C=C5)cc3)ccc2-c2ccccc2)cc1
REMARK SMILES IDX 20 1 19 2 18 3 17 4 16 5 14 6 15 7 13 8 12 9 11 10 10 11
REMARK SMILES IDX 93 12 91 13 92 14 9 15 7 16 6 17 8 19 5 20 1 21 2 22 3 23
REMARK SMILES IDX 101 24 4 25 100 26 94 27 95 28 99 29 96 30 98 31 97 32 21 33
REMARK SMILES IDX 22 34 23 35 24 36 25 37 26 38 27 39 28 40 29 41 90 42 30 43
REMARK SMILES IDX 89 44 31 45 32 46 33 47 83 48 34 49 88 50 82 51 84 52 35 53
REMARK SMILES IDX 87 54 81 55 80 56 36 58 68 59 48 60 67 61 49 62 52 63 66 64
REMARK SMILES IDX 85 65 50 66 51 67 65 69 86 70 53 71 37 72 38 73 46 74 39 75
REMARK SMILES IDX 41 76 47 77 40 78 42 79 43 80 44 81 45 82 69 83 70 84 78 85
REMARK SMILES IDX 71 86 73 87 79 88 72 89 74 90 75 91 76 92 77 93 54 94 55 95
REMARK SMILES IDX 63 96 56 97 58 98 64 99 57 100 59 101 60 102 61 103 62 104
REMARK H PARENT 6 18 84 57 52 68
REMARK Flexibility Score: inf
ROOT
ATOM      1  C   UNL A   1      36.838  33.281  34.161  1.00  0.00     0.188 C 
ENDROOT
BRANCH   1   2
ATOM      2  O   UNL A   1      35.572  32.649  33.994  1.00  0.00    -0.376 OA
BRANCH   2   3
ATOM      3  C   UNL A   1      34.675  33.174  33.009  1.00  0.00     0.202 C 
BRANCH   3   4
ATOM      4  C   UNL A   1      35.003  33.164  31.411  1.00  0.00     0.261 C 
BRANCH   4   5
ATOM      5  O   UNL A   1      34.209  32.677  30.156  1.00  0.00    -0.463 OA
BRANCH   5   6
ATOM      6  C   UNL A   1      34.249  32.783  28.771  1.00  0.00     0.306 C 
ATOM      7  O   UNL A   1      34.680  33.786  28.198  1.00  0.00    -0.252 OA
BRANCH   6   8
ATOM      8  C   UNL A   1      34.098  31.221  27.730  1.00  0.00     0.129 C 
BRANCH   8   9
ATOM      9  C   UNL A   1      32.448  29.899  26.751  1.00  0.00     0.066 C 
BRANCH   9  10
ATOM     10  C   UNL A   1      32.891  28.905  25.090  1.00  0.00     0.019 A 
ATOM     11  N   UNL A   1      32.813  27.304  25.041  1.00  0.00    -0.335 N 
ATOM     12  C   UNL A   1      33.167  26.854  23.788  1.00  0.00     0.049 A 
ATOM     13  C   UNL A   1      33.317  29.225  23.812  1.00  0.00     0.024 A 
ATOM     14  C   UNL A   1      33.480  27.996  23.052  1.00  0.00     0.029 A 
BRANCH  11  15
ATOM     15  C   UNL A   1      32.515  26.266  26.467  1.00  0.00     0.222 C 
BRANCH  15  16
ATOM     16  C   UNL A   1      31.110  24.857  26.336  1.00  0.00     0.244 C 
ATOM     17  N   UNL A   1      31.572  23.247  27.018  1.00  0.00    -0.325 N 
ATOM     18  H   UNL A   1      30.880  22.831  27.581  1.00  0.00     0.169 HD
ATOM     19  O   UNL A   1      29.958  24.786  25.895  1.00  0.00    -0.273 OA
BRANCH  17  20
ATOM     20  C   UNL A   1      33.275  22.147  26.822  1.00  0.00     0.041 A 
ATOM     21  C   UNL A   1      37.162  20.948  24.713  1.00  0.00     0.044 C 
ATOM     22  C   UNL A   1      35.868  21.281  25.388  1.00  0.00    -0.051 A 
ATOM     23  C   UNL A   1      35.867  22.361  26.220  1.00  0.00     0.005 A 
ATOM     24  C   UNL A   1      34.685  20.542  25.324  1.00  0.00     0.005 A 
ATOM     25  C   UNL A   1      34.699  22.708  26.913  1.00  0.00     0.026 A 
ATOM     26  C   UNL A   1      33.475  20.906  26.044  1.00  0.00     0.026 A 
ENDBRANCH  17  20
ENDBRANCH  15  16
ENDBRANCH  11  15
BRANCH  12  27
ATOM     27  C   UNL A   1      33.159  25.424  23.416  1.00  0.00    -0.002 A 
ATOM     28  C   UNL A   1      34.340  24.673  23.359  1.00  0.00     0.010 A 
ATOM     29  C   UNL A   1      31.953  24.767  23.119  1.00  0.00     0.010 A 
ATOM     30  C   UNL A   1      34.310  23.309  23.023  1.00  0.00     0.001 A 
ATOM     31  C   UNL A   1      31.914  23.399  22.826  1.00  0.00     0.001 A 
ATOM     32  C   UNL A   1      33.096  22.672  22.766  1.00  0.00     0.000 A 
ENDBRANCH  12  27
ENDBRANCH   9  10
ENDBRANCH   8   9
ENDBRANCH   6   8
ENDBRANCH   5   6
ENDBRANCH   4   5
ENDBRANCH   3   4
ENDBRANCH   2   3
ENDBRANCH   1   2
BRANCH   1  33
ATOM     33  C   UNL A   1      37.085  33.622  35.610  1.00  0.00     0.188 C 
BRANCH  33  34
ATOM     34  O   UNL A   1      36.674  33.332  36.905  1.00  0.00    -0.376 OA
BRANCH  34  35
ATOM     35  C   UNL A   1      37.495  32.474  37.581  1.00  0.00     0.202 C 
BRANCH  35  36
ATOM     36  C   UNL A   1      38.889  33.060  37.572  1.00  0.00     0.261 C 
BRANCH  36  37
ATOM     37  O   UNL A   1      40.041  32.359  36.765  1.00  0.00    -0.460 OA
BRANCH  37  38
ATOM     38  C   UNL A   1      40.804  31.982  35.667  1.00  0.00     0.338 C 
ATOM     39  O   UNL A   1      40.843  32.833  34.765  1.00  0.00    -0.246 OA
BRANCH  38  40
ATOM     40  C   UNL A   1      41.581  30.653  35.227  1.00  0.00     0.060 A 
ATOM     41  C   UNL A   1      40.996  29.510  33.717  1.00  0.00     0.016 A 
ATOM     42  C   UNL A   1      43.338  29.951  35.869  1.00  0.00     0.016 A 
ATOM     43  C   UNL A   1      41.963  27.893  33.167  1.00  0.00     0.010 A 
ATOM     44  C   UNL A   1      43.978  28.020  35.532  1.00  0.00     0.010 A 
ATOM     45  C   UNL A   1      43.513  26.911  33.876  1.00  0.00    -0.014 A 
BRANCH  45  46
ATOM     46  C   UNL A   1      44.272  25.363  33.714  1.00  0.00     0.031 A 
ATOM     47  C   UNL A   1      45.278  25.625  32.717  1.00  0.00     0.074 A 
ATOM     48  C   UNL A   1      44.658  24.078  34.230  1.00  0.00     0.049 A 
ATOM     49  N   UNL A   1      46.427  25.969  33.163  1.00  0.00    -0.248 NA
ATOM     50  C   UNL A   1      45.020  25.820  31.312  1.00  0.00     0.031 C 
ATOM     51  C   UNL A   1      44.157  23.339  35.393  1.00  0.00     0.029 A 
ATOM     52  N   UNL A   1      45.794  23.137  33.860  1.00  0.00    -0.354 N 
ATOM     53  C   UNL A   1      47.159  26.310  32.083  1.00  0.00     0.074 A 
ATOM     54  C   UNL A   1      46.210  26.334  30.983  1.00  0.00     0.031 C 
ATOM     55  C   UNL A   1      45.012  22.341  35.757  1.00  0.00     0.029 A 
ATOM     56  C   UNL A   1      46.249  22.265  34.904  1.00  0.00     0.049 A 
ATOM     57  H   UNL A   1      46.192  23.127  32.961  1.00  0.00     0.167 HD
ATOM     58  C   UNL A   1      48.491  26.429  32.268  1.00  0.00     0.034 A 
ATOM     59  C   UNL A   1      47.430  21.606  35.386  1.00  0.00     0.034 A 
ATOM     60  C   UNL A   1      48.937  26.555  33.709  1.00  0.00     0.049 A 
ATOM     61  C   UNL A   1      47.612  22.556  36.508  1.00  0.00     0.074 A 
ATOM     62  C   UNL A   1      49.955  27.268  34.311  1.00  0.00     0.029 A 
ATOM     63  N   UNL A   1      48.276  25.945  34.809  1.00  0.00    -0.354 N 
ATOM     64  N   UNL A   1      47.965  23.768  36.235  1.00  0.00    -0.248 NA
ATOM     65  C   UNL A   1      47.308  22.250  37.886  1.00  0.00     0.031 C 
ATOM     66  C   UNL A   1      49.899  27.072  35.729  1.00  0.00     0.029 A 
ATOM     67  C   UNL A   1      48.796  26.305  36.074  1.00  0.00     0.049 A 
ATOM     68  H   UNL A   1      47.521  25.322  34.700  1.00  0.00     0.167 HD
ATOM     69  C   UNL A   1      47.872  24.472  37.390  1.00  0.00     0.074 A 
ATOM     70  C   UNL A   1      47.320  23.505  38.344  1.00  0.00     0.031 C 
ATOM     71  C   UNL A   1      48.239  25.785  37.396  1.00  0.00     0.034 A 
BRANCH  58  72
ATOM     72  C   UNL A   1      49.403  26.198  31.073  1.00  0.00     0.023 A 
ATOM     73  C   UNL A   1      48.818  25.534  29.980  1.00  0.00     0.012 A 
ATOM     74  C   UNL A   1      50.710  26.721  30.853  1.00  0.00     0.148 A 
ATOM     75  C   UNL A   1      49.463  25.427  28.743  1.00  0.00     0.002 A 
ATOM     76  C   UNL A   1      51.318  26.692  29.596  1.00  0.00     0.091 A 
ATOM     77  F   UNL A   1      51.427  27.200  31.870  1.00  0.00    -0.205 F 
ATOM     78  C   UNL A   1      50.698  26.031  28.538  1.00  0.00     0.022 A 
BRANCH  76  79
ATOM     79  S   UNL A   1      52.869  27.554  29.245  1.00  0.00     0.127 S 
ATOM     80  O   UNL A   1      53.035  27.322  27.811  1.00  0.00    -0.237 OA
ATOM     81  O   UNL A   1      52.551  28.936  29.607  1.00  0.00    -0.237 OA
ATOM     82  O   UNL A   1      53.886  26.941  30.093  1.00  0.00    -0.744 OA
ENDBRANCH  76  79
ENDBRANCH  58  72
BRANCH  59  83
ATOM     83  C   UNL A   1      48.943  20.991  35.195  1.00  0.00     0.023 A 
ATOM     84  C   UNL A   1      49.423  20.031  36.125  1.00  0.00     0.012 A 
ATOM     85  C   UNL A   1      50.026  21.545  34.375  1.00  0.00     0.148 A 
ATOM     86  C   UNL A   1      50.779  19.565  36.144  1.00  0.00     0.002 A 
ATOM     87  C   UNL A   1      51.355  21.037  34.360  1.00  0.00     0.091 A 
ATOM     88  F   UNL A   1      49.833  22.675  33.691  1.00  0.00    -0.205 F 
ATOM     89  C   UNL A   1      51.729  20.030  35.240  1.00  0.00     0.022 A 
BRANCH  87  90
ATOM     90  S   UNL A   1      52.685  21.640  33.259  1.00  0.00     0.127 S 
ATOM     91  O   UNL A   1      53.866  20.938  33.772  1.00  0.00    -0.237 OA
ATOM     92  O   UNL A   1      52.231  21.161  31.955  1.00  0.00    -0.237 OA
ATOM     93  O   UNL A   1      52.733  23.084  33.420  1.00  0.00    -0.744 OA
ENDBRANCH  87  90
ENDBRANCH  59  83
BRANCH  71  94
ATOM     94  C   UNL A   1      48.020  26.624  38.679  1.00  0.00     0.023 A 
ATOM     95  C   UNL A   1      48.736  26.434  39.878  1.00  0.00     0.012 A 
ATOM     96  C   UNL A   1      47.051  27.618  38.809  1.00  0.00     0.148 A 
ATOM     97  C   UNL A   1      48.306  26.827  41.148  1.00  0.00     0.002 A 
ATOM     98  C   UNL A   1      46.618  28.068  40.076  1.00  0.00     0.091 A 
ATOM     99  F   UNL A   1      46.570  28.186  37.697  1.00  0.00    -0.205 F 
ATOM    100  C   UNL A   1      47.163  27.569  41.254  1.00  0.00     0.022 A 
BRANCH  98 101
ATOM    101  S   UNL A   1      45.477  29.433  40.308  1.00  0.00     0.127 S 
ATOM    102  O   UNL A   1      46.366  30.579  40.483  1.00  0.00    -0.237 OA
ATOM    103  O   UNL A   1      44.760  29.444  39.036  1.00  0.00    -0.237 OA
ATOM    104  O   UNL A   1      44.660  29.082  41.463  1.00  0.00    -0.744 OA
ENDBRANCH  98 101
ENDBRANCH  71  94
ENDBRANCH  45  46
ENDBRANCH  38  40
ENDBRANCH  37  38
ENDBRANCH  36  37
ENDBRANCH  35  36
ENDBRANCH  34  35
ENDBRANCH  33  34
ENDBRANCH   1  33
TORSDOF 26
ENDMDL
MODEL 3
REMARK VINA RESULT:     -10.8      5.538     12.593
REMARK SMILES Cc1ccc(NC(=O)Cn2c(CCC(=O)OCCOCCOCCOC(=O)c3ccc(-c4c5nc(c(-c6cccc(S(=O)(=O)[O-])c6F)c6ccc([nH]6)c(-c6cccc(S(=O)(=O)[O-])c6F)c6nc(c(-c7cccc(S(=O)(=O)[O-])c7F)c7ccc4[nH]7)C=C6)C=C5)cc3)ccc2-c2ccccc2)cc1
REMARK SMILES IDX 20 1 19 2 18 3 17 4 16 5 14 6 15 7 13 8 12 9 11 10 10 11
REMARK SMILES IDX 93 12 91 13 92 14 9 15 7 16 6 17 8 19 5 20 1 21 2 22 3 23
REMARK SMILES IDX 101 24 4 25 100 26 94 27 95 28 99 29 96 30 98 31 97 32 21 33
REMARK SMILES IDX 22 34 23 35 24 36 25 37 26 38 27 39 28 40 29 41 90 42 30 43
REMARK SMILES IDX 89 44 31 45 32 46 33 47 83 48 34 49 88 50 82 51 84 52 35 53
REMARK SMILES IDX 87 54 81 55 80 56 36 58 68 59 48 60 67 61 49 62 52 63 66 64
REMARK SMILES IDX 85 65 50 66 51 67 65 69 86 70 53 71 37 72 38 73 46 74 39 75
REMARK SMILES IDX 41 76 47 77 40 78 42 79 43 80 44 81 45 82 69 83 70 84 78 85
REMARK SMILES IDX 71 86 73 87 79 88 72 89 74 90 75 91 76 92 77 93 54 94 55 95
REMARK SMILES IDX 63 96 56 97 58 98 64 99 57 100 59 101 60 102 61 103 62 104
REMARK H PARENT 6 18 84 57 52 68
REMARK Flexibility Score: inf
ROOT
ATOM      1  C   UNL A   1      33.921  27.914  25.964  1.00  0.00     0.188 C 
ENDROOT
BRANCH   1   2
ATOM      2  O   UNL A   1      33.790  26.500  26.079  1.00  0.00    -0.376 OA
BRANCH   2   3
ATOM      3  C   UNL A   1      34.088  25.694  24.933  1.00  0.00     0.202 C 
BRANCH   3   4
ATOM      4  C   UNL A   1      34.879  24.271  25.026  1.00  0.00     0.261 C 
BRANCH   4   5
ATOM      5  O   UNL A   1      36.370  23.857  24.808  1.00  0.00    -0.463 OA
BRANCH   5   6
ATOM      6  C   UNL A   1      37.433  23.311  25.520  1.00  0.00     0.306 C 
ATOM      7  O   UNL A   1      37.971  22.252  25.192  1.00  0.00    -0.252 OA
BRANCH   6   8
ATOM      8  C   UNL A   1      38.391  24.407  26.713  1.00  0.00     0.129 C 
BRANCH   8   9
ATOM      9  C   UNL A   1      40.498  25.383  26.918  1.00  0.00     0.066 C 
BRANCH   9  10
ATOM     10  C   UNL A   1      41.831  24.519  28.108  1.00  0.00     0.019 A 
ATOM     11  N   UNL A   1      42.873  25.396  28.955  1.00  0.00    -0.335 N 
ATOM     12  C   UNL A   1      43.689  24.571  29.696  1.00  0.00     0.049 A 
ATOM     13  C   UNL A   1      42.181  23.223  28.449  1.00  0.00     0.024 A 
ATOM     14  C   UNL A   1      43.289  23.271  29.390  1.00  0.00     0.029 A 
BRANCH  11  15
ATOM     15  C   UNL A   1      43.069  27.167  28.786  1.00  0.00     0.222 C 
BRANCH  15  16
ATOM     16  C   UNL A   1      44.730  27.857  27.922  1.00  0.00     0.244 C 
ATOM     17  N   UNL A   1      45.122  27.121  26.318  1.00  0.00    -0.325 N 
ATOM     18  H   UNL A   1      45.388  27.771  25.627  1.00  0.00     0.169 HD
ATOM     19  O   UNL A   1      45.599  28.689  28.201  1.00  0.00    -0.273 OA
BRANCH  17  20
ATOM     20  C   UNL A   1      45.112  25.182  25.694  1.00  0.00     0.041 A 
ATOM     21  C   UNL A   1      43.531  20.882  25.699  1.00  0.00     0.044 C 
ATOM     22  C   UNL A   1      44.103  22.264  25.723  1.00  0.00    -0.051 A 
ATOM     23  C   UNL A   1      43.467  23.208  24.970  1.00  0.00     0.005 A 
ATOM     24  C   UNL A   1      45.278  22.666  26.363  1.00  0.00     0.005 A 
ATOM     25  C   UNL A   1      43.971  24.515  24.918  1.00  0.00     0.026 A 
ATOM     26  C   UNL A   1      45.796  24.023  26.306  1.00  0.00     0.026 A 
ENDBRANCH  17  20
ENDBRANCH  15  16
ENDBRANCH  11  15
BRANCH  12  27
ATOM     27  C   UNL A   1      44.732  25.083  30.609  1.00  0.00    -0.002 A 
ATOM     28  C   UNL A   1      44.524  25.161  31.992  1.00  0.00     0.010 A 
ATOM     29  C   UNL A   1      45.980  25.496  30.113  1.00  0.00     0.010 A 
ATOM     30  C   UNL A   1      45.536  25.631  32.847  1.00  0.00     0.001 A 
ATOM     31  C   UNL A   1      47.004  25.925  30.964  1.00  0.00     0.001 A 
ATOM     32  C   UNL A   1      46.778  26.004  32.332  1.00  0.00     0.000 A 
ENDBRANCH  12  27
ENDBRANCH   9  10
ENDBRANCH   8   9
ENDBRANCH   6   8
ENDBRANCH   5   6
ENDBRANCH   4   5
ENDBRANCH   3   4
ENDBRANCH   2   3
ENDBRANCH   1   2
BRANCH   1  33
ATOM     33  C   UNL A   1      33.102  28.621  27.016  1.00  0.00     0.188 C 
BRANCH  33  34
ATOM     34  O   UNL A   1      32.755  29.879  27.493  1.00  0.00    -0.376 OA
BRANCH  34  35
ATOM     35  C   UNL A   1      33.808  30.732  27.659  1.00  0.00     0.202 C 
BRANCH  35  36
ATOM     36  C   UNL A   1      33.353  32.117  27.255  1.00  0.00     0.261 C 
BRANCH  36  37
ATOM     37  O   UNL A   1      33.430  33.308  28.277  1.00  0.00    -0.460 OA
BRANCH  37  38
ATOM     38  C   UNL A   1      33.981  34.169  29.218  1.00  0.00     0.338 C 
ATOM     39  O   UNL A   1      33.561  35.334  29.141  1.00  0.00    -0.246 OA
BRANCH  38  40
ATOM     40  C   UNL A   1      35.122  34.050  30.336  1.00  0.00     0.060 A 
ATOM     41  C   UNL A   1      34.735  34.066  32.279  1.00  0.00     0.016 A 
ATOM     42  C   UNL A   1      37.068  33.655  30.111  1.00  0.00     0.016 A 
ATOM     43  C   UNL A   1      36.134  33.899  33.646  1.00  0.00     0.010 A 
ATOM     44  C   UNL A   1      38.467  33.975  31.591  1.00  0.00     0.010 A 
ATOM     45  C   UNL A   1      38.099  33.810  33.597  1.00  0.00    -0.014 A 
BRANCH  45  46
ATOM     46  C   UNL A   1      39.446  33.976  34.672  1.00  0.00     0.031 A 
ATOM     47  C   UNL A   1      39.786  32.602  34.941  1.00  0.00     0.074 A 
ATOM     48  C   UNL A   1      40.582  34.693  35.182  1.00  0.00     0.049 A 
ATOM     49  N   UNL A   1      40.664  32.083  34.168  1.00  0.00    -0.248 NA
ATOM     50  C   UNL A   1      39.024  31.710  35.782  1.00  0.00     0.031 C 
ATOM     51  C   UNL A   1      40.944  36.107  35.046  1.00  0.00     0.029 A 
ATOM     52  N   UNL A   1      41.849  34.221  35.880  1.00  0.00    -0.354 N 
ATOM     53  C   UNL A   1      40.718  30.774  34.490  1.00  0.00     0.074 A 
ATOM     54  C   UNL A   1      39.596  30.567  35.390  1.00  0.00     0.031 C 
ATOM     55  C   UNL A   1      42.255  36.320  35.356  1.00  0.00     0.029 A 
ATOM     56  C   UNL A   1      42.999  35.066  35.728  1.00  0.00     0.049 A 
ATOM     57  H   UNL A   1      41.878  33.388  36.403  1.00  0.00     0.167 HD
ATOM     58  C   UNL A   1      41.772  30.079  34.016  1.00  0.00     0.034 A 
ATOM     59  C   UNL A   1      44.431  35.015  35.650  1.00  0.00     0.034 A 
ATOM     60  C   UNL A   1      42.528  30.738  32.882  1.00  0.00     0.049 A 
ATOM     61  C   UNL A   1      44.449  35.231  34.185  1.00  0.00     0.074 A 
ATOM     62  C   UNL A   1      43.163  30.230  31.765  1.00  0.00     0.029 A 
ATOM     63  N   UNL A   1      42.676  32.143  32.727  1.00  0.00    -0.354 N 
ATOM     64  N   UNL A   1      44.015  34.287  33.419  1.00  0.00    -0.248 NA
ATOM     65  C   UNL A   1      44.813  36.479  33.555  1.00  0.00     0.031 C 
ATOM     66  C   UNL A   1      43.680  31.312  30.980  1.00  0.00     0.029 A 
ATOM     67  C   UNL A   1      43.312  32.533  31.526  1.00  0.00     0.049 A 
ATOM     68  H   UNL A   1      42.363  32.789  33.400  1.00  0.00     0.167 HD
ATOM     69  C   UNL A   1      43.952  34.797  32.165  1.00  0.00     0.074 A 
ATOM     70  C   UNL A   1      44.324  36.204  32.343  1.00  0.00     0.031 C 
ATOM     71  C   UNL A   1      43.567  33.986  31.138  1.00  0.00     0.034 A 
BRANCH  58  72
ATOM     72  C   UNL A   1      42.227  28.851  34.791  1.00  0.00     0.023 A 
ATOM     73  C   UNL A   1      41.869  27.611  34.233  1.00  0.00     0.012 A 
ATOM     74  C   UNL A   1      43.114  28.797  35.905  1.00  0.00     0.148 A 
ATOM     75  C   UNL A   1      42.381  26.402  34.716  1.00  0.00     0.002 A 
ATOM     76  C   UNL A   1      43.694  27.600  36.333  1.00  0.00     0.091 A 
ATOM     77  F   UNL A   1      43.367  29.891  36.623  1.00  0.00    -0.205 F 
ATOM     78  C   UNL A   1      43.317  26.395  35.744  1.00  0.00     0.022 A 
BRANCH  76  79
ATOM     79  S   UNL A   1      44.995  27.543  37.588  1.00  0.00     0.127 S 
ATOM     80  O   UNL A   1      46.174  27.959  36.831  1.00  0.00    -0.237 OA
ATOM     81  O   UNL A   1      44.526  28.519  38.573  1.00  0.00    -0.237 OA
ATOM     82  O   UNL A   1      45.032  26.172  38.086  1.00  0.00    -0.744 OA
ENDBRANCH  76  79
ENDBRANCH  58  72
BRANCH  59  83
ATOM     83  C   UNL A   1      45.886  34.297  35.919  1.00  0.00     0.023 A 
ATOM     84  C   UNL A   1      46.809  34.178  34.846  1.00  0.00     0.012 A 
ATOM     85  C   UNL A   1      46.254  33.440  37.052  1.00  0.00     0.148 A 
ATOM     86  C   UNL A   1      48.025  33.423  34.934  1.00  0.00     0.002 A 
ATOM     87  C   UNL A   1      47.488  32.741  37.154  1.00  0.00     0.091 A 
ATOM     88  F   UNL A   1      45.355  33.165  37.998  1.00  0.00    -0.205 F 
ATOM     89  C   UNL A   1      48.386  32.746  36.094  1.00  0.00     0.022 A 
BRANCH  87  90
ATOM     90  S   UNL A   1      48.012  31.764  38.609  1.00  0.00     0.127 S 
ATOM     91  O   UNL A   1      47.098  30.618  38.570  1.00  0.00    -0.237 OA
ATOM     92  O   UNL A   1      49.393  31.433  38.263  1.00  0.00    -0.237 OA
ATOM     93  O   UNL A   1      47.840  32.624  39.768  1.00  0.00    -0.744 OA
ENDBRANCH  87  90
ENDBRANCH  59  83
BRANCH  71  94
ATOM     94  C   UNL A   1      43.378  34.594  29.727  1.00  0.00     0.023 A 
ATOM     95  C   UNL A   1      42.485  35.645  29.433  1.00  0.00     0.012 A 
ATOM     96  C   UNL A   1      44.023  34.130  28.582  1.00  0.00     0.148 A 
ATOM     97  C   UNL A   1      41.955  35.927  28.171  1.00  0.00     0.002 A 
ATOM     98  C   UNL A   1      43.539  34.427  27.288  1.00  0.00     0.091 A 
ATOM     99  F   UNL A   1      45.157  33.435  28.729  1.00  0.00    -0.205 F 
ATOM    100  C   UNL A   1      42.418  35.226  27.093  1.00  0.00     0.022 A 
BRANCH  98 101
ATOM    101  S   UNL A   1      44.397  33.974  25.780  1.00  0.00     0.127 S 
ATOM    102  O   UNL A   1      43.463  34.385  24.733  1.00  0.00    -0.237 OA
ATOM    103  O   UNL A   1      45.592  34.811  25.851  1.00  0.00    -0.237 OA
ATOM    104  O   UNL A   1      44.652  32.542  25.876  1.00  0.00    -0.744 OA
ENDBRANCH  98 101
ENDBRANCH  71  94
ENDBRANCH  45  46
ENDBRANCH  38  40
ENDBRANCH  37  38
ENDBRANCH  36  37
ENDBRANCH  35  36
ENDBRANCH  34  35
ENDBRANCH  33  34
ENDBRANCH   1  33
TORSDOF 26
ENDMDL
