MODEL 1
REMARK VINA RESULT:     -10.4      0.000      0.000
REMARK SMILES Cc1nn([C@H]2CCS(=O)(=O)C2)c(C)c1/C=C(\CC(=O)OCCOCCOCCOC(=O)c1ccc(-c2c3nc(c(-c4cccc(S(=O)(=O)[O-])c4F)c4ccc([nH]4)c(-c4cccc(S(=O)(=O)[O-])c4F)c4nc(c(-c5cccc(S(=O)(=O)[O-])c5F)c5ccc2[nH]5)C=C4)C=C3)cc1)c1nc2ccccc2s1
REMARK SMILES IDX 24 1 23 2 22 3 21 4 20 5 18 6 19 7 17 8 16 9 15 10 14 11
REMARK SMILES IDX 1 12 2 13 3 14 4 15 12 16 13 17 5 18 6 19 11 20 7 21 8 22
REMARK SMILES IDX 9 23 10 24 95 25 96 26 103 27 97 28 102 29 98 30 101 31
REMARK SMILES IDX 99 32 100 33 25 34 26 35 27 36 28 37 29 38 30 39 31 40 32 41
REMARK SMILES IDX 33 42 94 43 34 44 93 45 35 46 36 47 37 48 87 49 38 50 92 51
REMARK SMILES IDX 86 52 88 53 39 54 91 55 85 56 84 57 40 59 72 60 52 61 71 62
REMARK SMILES IDX 53 63 56 64 70 65 89 66 54 67 55 68 69 70 90 71 57 72 41 73
REMARK SMILES IDX 42 74 50 75 43 76 45 77 51 78 44 79 46 80 47 81 48 82 49 83
REMARK SMILES IDX 73 84 74 85 82 86 75 87 77 88 83 89 76 90 78 91 79 92 80 93
REMARK SMILES IDX 81 94 58 95 59 96 67 97 60 98 62 99 68 100 61 101 63 102
REMARK SMILES IDX 64 103 65 104 66 105
REMARK H PARENT 88 58 56 69
REMARK Flexibility Score: inf
ROOT
ATOM      1  C   UNL A   1      40.333  20.532  26.194  1.00  0.00     0.188 C 
ENDROOT
BRANCH   1   2
ATOM      2  O   UNL A   1      39.269  21.435  26.457  1.00  0.00    -0.376 OA
BRANCH   2   3
ATOM      3  C   UNL A   1      38.124  21.460  25.620  1.00  0.00     0.202 C 
BRANCH   3   4
ATOM      4  C   UNL A   1      37.493  22.829  25.301  1.00  0.00     0.261 C 
BRANCH   4   5
ATOM      5  O   UNL A   1      36.042  22.855  25.233  1.00  0.00    -0.463 OA
BRANCH   5   6
ATOM      6  C   UNL A   1      35.537  23.853  24.489  1.00  0.00     0.310 C 
ATOM      7  O   UNL A   1      35.644  23.900  23.260  1.00  0.00    -0.252 OA
BRANCH   6   8
ATOM      8  C   UNL A   1      34.801  25.005  25.191  1.00  0.00     0.161 C 
BRANCH   8   9
ATOM      9  C   UNL A   1      33.710  26.072  24.960  1.00  0.00    -0.000 C 
ATOM     10  C   UNL A   1      32.537  25.694  24.366  1.00  0.00     0.019 C 
BRANCH  10  11
ATOM     11  C   UNL A   1      32.288  24.429  23.746  1.00  0.00     0.019 A 
ATOM     12  C   UNL A   1      32.733  24.966  21.238  1.00  0.00     0.069 C 
ATOM     13  C   UNL A   1      32.499  24.068  22.397  1.00  0.00     0.067 A 
ATOM     14  N   UNL A   1      32.499  22.732  22.257  1.00  0.00    -0.177 NA
ATOM     15  N   UNL A   1      32.223  22.278  23.498  1.00  0.00    -0.265 N 
ATOM     16  C   UNL A   1      31.807  23.277  24.347  1.00  0.00     0.043 A 
ATOM     17  C   UNL A   1      31.182  23.027  25.682  1.00  0.00     0.067 C 
BRANCH  15  18
ATOM     18  C   UNL A   1      32.303  20.870  23.823  1.00  0.00     0.123 C 
ATOM     19  C   UNL A   1      32.205  19.872  22.657  1.00  0.00     0.044 C 
ATOM     20  C   UNL A   1      33.603  20.452  24.522  1.00  0.00     0.164 C 
ATOM     21  C   UNL A   1      32.294  18.492  23.309  1.00  0.00     0.139 C 
ATOM     22  S   UNL A   1      33.338  18.706  24.745  1.00  0.00     0.152 S 
ATOM     23  O   UNL A   1      32.533  18.519  25.920  1.00  0.00    -0.229 OA
ATOM     24  O   UNL A   1      34.590  17.990  24.532  1.00  0.00    -0.229 OA
ENDBRANCH  15  18
ENDBRANCH  10  11
BRANCH   9  25
ATOM     25  C   UNL A   1      33.653  27.361  25.649  1.00  0.00     0.121 A 
ATOM     26  N   UNL A   1      34.587  27.849  26.447  1.00  0.00    -0.236 NA
ATOM     27  S   UNL A   1      32.258  28.402  25.519  1.00  0.00    -0.114 S 
ATOM     28  C   UNL A   1      34.230  29.105  26.950  1.00  0.00     0.082 A 
ATOM     29  C   UNL A   1      32.985  29.577  26.543  1.00  0.00     0.055 A 
ATOM     30  C   UNL A   1      35.006  29.929  27.795  1.00  0.00     0.030 A 
ATOM     31  C   UNL A   1      32.497  30.837  26.949  1.00  0.00     0.021 A 
ATOM     32  C   UNL A   1      34.583  31.225  28.113  1.00  0.00     0.002 A 
ATOM     33  C   UNL A   1      33.336  31.670  27.699  1.00  0.00     0.002 A 
ENDBRANCH   9  25
ENDBRANCH   8   9
ENDBRANCH   6   8
ENDBRANCH   5   6
ENDBRANCH   4   5
ENDBRANCH   3   4
ENDBRANCH   2   3
ENDBRANCH   1   2
BRANCH   1  34
ATOM     34  C   UNL A   1      41.355  20.138  27.281  1.00  0.00     0.188 C 
BRANCH  34  35
ATOM     35  O   UNL A   1      42.460  19.352  26.874  1.00  0.00    -0.376 OA
BRANCH  35  36
ATOM     36  C   UNL A   1      43.012  19.620  25.596  1.00  0.00     0.202 C 
BRANCH  36  37
ATOM     37  C   UNL A   1      43.905  20.866  25.562  1.00  0.00     0.261 C 
BRANCH  37  38
ATOM     38  O   UNL A   1      43.219  22.036  25.132  1.00  0.00    -0.460 OA
BRANCH  38  39
ATOM     39  C   UNL A   1      43.660  23.143  25.753  1.00  0.00     0.338 C 
ATOM     40  O   UNL A   1      44.796  23.383  26.127  1.00  0.00    -0.246 OA
BRANCH  39  41
ATOM     41  C   UNL A   1      42.542  24.091  25.859  1.00  0.00     0.060 A 
ATOM     42  C   UNL A   1      42.869  25.378  25.419  1.00  0.00     0.016 A 
ATOM     43  C   UNL A   1      41.843  23.862  27.037  1.00  0.00     0.016 A 
ATOM     44  C   UNL A   1      42.971  26.358  26.371  1.00  0.00     0.010 A 
ATOM     45  C   UNL A   1      41.935  24.840  27.989  1.00  0.00     0.010 A 
ATOM     46  C   UNL A   1      42.629  26.018  27.676  1.00  0.00    -0.014 A 
BRANCH  46  47
ATOM     47  C   UNL A   1      42.880  26.985  28.728  1.00  0.00     0.031 A 
ATOM     48  C   UNL A   1      41.842  28.049  28.771  1.00  0.00     0.074 A 
ATOM     49  C   UNL A   1      43.844  26.708  29.633  1.00  0.00     0.049 A 
ATOM     50  N   UNL A   1      41.981  29.318  28.978  1.00  0.00    -0.248 NA
ATOM     51  C   UNL A   1      40.475  27.663  28.356  1.00  0.00     0.031 C 
ATOM     52  C   UNL A   1      44.725  25.527  29.635  1.00  0.00     0.029 A 
ATOM     53  N   UNL A   1      44.074  27.262  30.859  1.00  0.00    -0.354 N 
ATOM     54  C   UNL A   1      40.678  29.819  28.973  1.00  0.00     0.074 A 
ATOM     55  C   UNL A   1      39.853  28.836  28.340  1.00  0.00     0.031 C 
ATOM     56  C   UNL A   1      45.118  25.279  30.901  1.00  0.00     0.029 A 
ATOM     57  C   UNL A   1      44.586  26.319  31.760  1.00  0.00     0.049 A 
ATOM     58  H   UNL A   1      43.902  28.206  31.083  1.00  0.00     0.167 HD
ATOM     59  C   UNL A   1      40.313  30.820  29.814  1.00  0.00     0.034 A 
ATOM     60  C   UNL A   1      44.430  26.308  33.108  1.00  0.00     0.034 A 
ATOM     61  C   UNL A   1      41.447  31.630  30.176  1.00  0.00     0.049 A 
ATOM     62  C   UNL A   1      43.950  27.648  33.513  1.00  0.00     0.074 A 
ATOM     63  C   UNL A   1      42.387  32.353  29.471  1.00  0.00     0.029 A 
ATOM     64  N   UNL A   1      41.947  31.479  31.445  1.00  0.00    -0.354 N 
ATOM     65  N   UNL A   1      44.665  28.733  33.445  1.00  0.00    -0.248 NA
ATOM     66  C   UNL A   1      42.513  27.850  33.623  1.00  0.00     0.031 C 
ATOM     67  C   UNL A   1      43.587  32.241  30.225  1.00  0.00     0.029 A 
ATOM     68  C   UNL A   1      43.311  31.492  31.370  1.00  0.00     0.049 A 
ATOM     69  H   UNL A   1      41.415  31.378  32.267  1.00  0.00     0.167 HD
ATOM     70  C   UNL A   1      43.765  29.714  33.051  1.00  0.00     0.074 A 
ATOM     71  C   UNL A   1      42.445  29.144  33.303  1.00  0.00     0.031 C 
ATOM     72  C   UNL A   1      44.170  30.760  32.273  1.00  0.00     0.034 A 
BRANCH  59  73
ATOM     73  C   UNL A   1      39.047  30.778  30.655  1.00  0.00     0.023 A 
ATOM     74  C   UNL A   1      38.603  29.501  31.060  1.00  0.00     0.012 A 
ATOM     75  C   UNL A   1      38.124  31.845  30.809  1.00  0.00     0.148 A 
ATOM     76  C   UNL A   1      37.289  29.279  31.486  1.00  0.00     0.002 A 
ATOM     77  C   UNL A   1      36.841  31.632  31.296  1.00  0.00     0.091 A 
ATOM     78  F   UNL A   1      38.417  33.072  30.380  1.00  0.00    -0.205 F 
ATOM     79  C   UNL A   1      36.405  30.343  31.599  1.00  0.00     0.022 A 
BRANCH  77  80
ATOM     80  S   UNL A   1      35.673  32.988  31.489  1.00  0.00     0.127 S 
ATOM     81  O   UNL A   1      35.795  33.660  30.198  1.00  0.00    -0.237 OA
ATOM     82  O   UNL A   1      34.416  32.271  31.701  1.00  0.00    -0.237 OA
ATOM     83  O   UNL A   1      36.129  33.744  32.650  1.00  0.00    -0.744 OA
ENDBRANCH  77  80
ENDBRANCH  59  73
BRANCH  60  84
ATOM     84  C   UNL A   1      44.380  25.155  34.043  1.00  0.00     0.023 A 
ATOM     85  C   UNL A   1      43.164  24.462  34.214  1.00  0.00     0.012 A 
ATOM     86  C   UNL A   1      45.550  24.578  34.588  1.00  0.00     0.148 A 
ATOM     87  C   UNL A   1      43.118  23.233  34.885  1.00  0.00     0.002 A 
ATOM     88  C   UNL A   1      45.496  23.370  35.279  1.00  0.00     0.091 A 
ATOM     89  F   UNL A   1      46.734  25.157  34.348  1.00  0.00    -0.205 F 
ATOM     90  C   UNL A   1      44.283  22.687  35.419  1.00  0.00     0.022 A 
BRANCH  88  91
ATOM     91  S   UNL A   1      46.961  22.617  36.002  1.00  0.00     0.127 S 
ATOM     92  O   UNL A   1      47.645  22.083  34.822  1.00  0.00    -0.237 OA
ATOM     93  O   UNL A   1      47.617  23.764  36.622  1.00  0.00    -0.237 OA
ATOM     94  O   UNL A   1      46.469  21.594  36.918  1.00  0.00    -0.744 OA
ENDBRANCH  88  91
ENDBRANCH  60  84
BRANCH  72  95
ATOM     95  C   UNL A   1      45.649  31.001  32.115  1.00  0.00     0.023 A 
ATOM     96  C   UNL A   1      46.412  30.369  31.112  1.00  0.00     0.012 A 
ATOM     97  C   UNL A   1      46.235  32.031  32.871  1.00  0.00     0.148 A 
ATOM     98  C   UNL A   1      47.739  30.744  30.882  1.00  0.00     0.002 A 
ATOM     99  C   UNL A   1      47.534  32.437  32.602  1.00  0.00     0.091 A 
ATOM    100  F   UNL A   1      45.493  32.621  33.820  1.00  0.00    -0.205 F 
ATOM    101  C   UNL A   1      48.293  31.789  31.615  1.00  0.00     0.022 A 
BRANCH  99 102
ATOM    102  S   UNL A   1      48.250  33.868  33.413  1.00  0.00     0.127 S 
ATOM    103  O   UNL A   1      48.237  33.462  34.817  1.00  0.00    -0.237 OA
ATOM    104  O   UNL A   1      49.581  33.941  32.808  1.00  0.00    -0.237 OA
ATOM    105  O   UNL A   1      47.384  34.991  33.073  1.00  0.00    -0.744 OA
ENDBRANCH  99 102
ENDBRANCH  72  95
ENDBRANCH  46  47
ENDBRANCH  39  41
ENDBRANCH  38  39
ENDBRANCH  37  38
ENDBRANCH  36  37
ENDBRANCH  35  36
ENDBRANCH  34  35
ENDBRANCH   1  34
TORSDOF 24
ENDMDL
MODEL 2
REMARK VINA RESULT:     -10.2      2.107      2.733
REMARK SMILES Cc1nn([C@H]2CCS(=O)(=O)C2)c(C)c1/C=C(\CC(=O)OCCOCCOCCOC(=O)c1ccc(-c2c3nc(c(-c4cccc(S(=O)(=O)[O-])c4F)c4ccc([nH]4)c(-c4cccc(S(=O)(=O)[O-])c4F)c4nc(c(-c5cccc(S(=O)(=O)[O-])c5F)c5ccc2[nH]5)C=C4)C=C3)cc1)c1nc2ccccc2s1
REMARK SMILES IDX 24 1 23 2 22 3 21 4 20 5 18 6 19 7 17 8 16 9 15 10 14 11
REMARK SMILES IDX 1 12 2 13 3 14 4 15 12 16 13 17 5 18 6 19 11 20 7 21 8 22
REMARK SMILES IDX 9 23 10 24 95 25 96 26 103 27 97 28 102 29 98 30 101 31
REMARK SMILES IDX 99 32 100 33 25 34 26 35 27 36 28 37 29 38 30 39 31 40 32 41
REMARK SMILES IDX 33 42 94 43 34 44 93 45 35 46 36 47 37 48 87 49 38 50 92 51
REMARK SMILES IDX 86 52 88 53 39 54 91 55 85 56 84 57 40 59 72 60 52 61 71 62
REMARK SMILES IDX 53 63 56 64 70 65 89 66 54 67 55 68 69 70 90 71 57 72 41 73
REMARK SMILES IDX 42 74 50 75 43 76 45 77 51 78 44 79 46 80 47 81 48 82 49 83
REMARK SMILES IDX 73 84 74 85 82 86 75 87 77 88 83 89 76 90 78 91 79 92 80 93
REMARK SMILES IDX 81 94 58 95 59 96 67 97 60 98 62 99 68 100 61 101 63 102
REMARK SMILES IDX 64 103 65 104 66 105
REMARK H PARENT 88 58 56 69
REMARK Flexibility Score: inf
ROOT
ATOM      1  C   UNL A   1      39.804  20.767  26.096  1.00  0.00     0.188 C 
ENDROOT
BRANCH   1   2
ATOM      2  O   UNL A   1      38.827  21.797  26.079  1.00  0.00    -0.376 OA
BRANCH   2   3
ATOM      3  C   UNL A   1      37.589  21.601  25.413  1.00  0.00     0.202 C 
BRANCH   3   4
ATOM      4  C   UNL A   1      37.131  22.677  24.409  1.00  0.00     0.261 C 
BRANCH   4   5
ATOM      5  O   UNL A   1      35.874  23.334  24.719  1.00  0.00    -0.463 OA
BRANCH   5   6
ATOM      6  C   UNL A   1      35.125  23.639  23.645  1.00  0.00     0.310 C 
ATOM      7  O   UNL A   1      35.404  23.270  22.501  1.00  0.00    -0.252 OA
BRANCH   6   8
ATOM      8  C   UNL A   1      33.869  24.502  23.835  1.00  0.00     0.161 C 
BRANCH   8   9
ATOM      9  C   UNL A   1      32.327  24.421  23.850  1.00  0.00    -0.000 C 
ATOM     10  C   UNL A   1      31.732  23.324  24.411  1.00  0.00     0.019 C 
BRANCH  10  11
ATOM     11  C   UNL A   1      32.406  22.129  24.818  1.00  0.00     0.019 A 
ATOM     12  C   UNL A   1      33.253  22.773  27.193  1.00  0.00     0.069 C 
ATOM     13  C   UNL A   1      32.959  21.833  26.083  1.00  0.00     0.067 A 
ATOM     14  N   UNL A   1      33.183  20.514  26.207  1.00  0.00    -0.177 NA
ATOM     15  N   UNL A   1      32.833  20.013  25.003  1.00  0.00    -0.265 N 
ATOM     16  C   UNL A   1      32.639  20.993  24.058  1.00  0.00     0.043 A 
ATOM     17  C   UNL A   1      32.514  20.723  22.593  1.00  0.00     0.067 C 
BRANCH  15  18
ATOM     18  C   UNL A   1      32.759  18.587  24.769  1.00  0.00     0.123 C 
ATOM     19  C   UNL A   1      33.388  18.053  23.471  1.00  0.00     0.044 C 
ATOM     20  C   UNL A   1      33.428  17.729  25.851  1.00  0.00     0.164 C 
ATOM     21  C   UNL A   1      33.132  16.546  23.497  1.00  0.00     0.139 C 
ATOM     22  S   UNL A   1      33.144  16.087  25.226  1.00  0.00     0.152 S 
ATOM     23  O   UNL A   1      31.815  15.689  25.597  1.00  0.00    -0.229 OA
ATOM     24  O   UNL A   1      34.312  15.255  25.487  1.00  0.00    -0.229 OA
ENDBRANCH  15  18
ENDBRANCH  10  11
BRANCH   9  25
ATOM     25  C   UNL A   1      31.435  25.565  23.664  1.00  0.00     0.121 A 
ATOM     26  N   UNL A   1      31.817  26.801  23.390  1.00  0.00    -0.236 NA
ATOM     27  S   UNL A   1      29.706  25.411  23.847  1.00  0.00    -0.114 S 
ATOM     28  C   UNL A   1      30.721  27.663  23.274  1.00  0.00     0.082 A 
ATOM     29  C   UNL A   1      29.476  27.077  23.485  1.00  0.00     0.055 A 
ATOM     30  C   UNL A   1      30.758  29.038  22.950  1.00  0.00     0.030 A 
ATOM     31  C   UNL A   1      28.278  27.814  23.379  1.00  0.00     0.021 A 
ATOM     32  C   UNL A   1      29.573  29.752  22.732  1.00  0.00     0.002 A 
ATOM     33  C   UNL A   1      28.346  29.146  22.953  1.00  0.00     0.002 A 
ENDBRANCH   9  25
ENDBRANCH   8   9
ENDBRANCH   6   8
ENDBRANCH   5   6
ENDBRANCH   4   5
ENDBRANCH   3   4
ENDBRANCH   2   3
ENDBRANCH   1   2
BRANCH   1  34
ATOM     34  C   UNL A   1      40.841  20.648  27.233  1.00  0.00     0.188 C 
BRANCH  34  35
ATOM     35  O   UNL A   1      41.892  19.715  27.053  1.00  0.00    -0.376 OA
BRANCH  35  36
ATOM     36  C   UNL A   1      42.563  19.726  25.804  1.00  0.00     0.202 C 
BRANCH  36  37
ATOM     37  C   UNL A   1      43.556  20.883  25.652  1.00  0.00     0.261 C 
BRANCH  37  38
ATOM     38  O   UNL A   1      42.964  22.067  25.127  1.00  0.00    -0.460 OA
BRANCH  38  39
ATOM     39  C   UNL A   1      43.490  23.181  25.663  1.00  0.00     0.338 C 
ATOM     40  O   UNL A   1      44.651  23.375  25.985  1.00  0.00    -0.246 OA
BRANCH  39  41
ATOM     41  C   UNL A   1      42.433  24.199  25.745  1.00  0.00     0.060 A 
ATOM     42  C   UNL A   1      42.863  25.470  25.349  1.00  0.00     0.016 A 
ATOM     43  C   UNL A   1      41.670  23.993  26.887  1.00  0.00     0.016 A 
ATOM     44  C   UNL A   1      42.988  26.421  26.327  1.00  0.00     0.010 A 
ATOM     45  C   UNL A   1      41.785  24.942  27.864  1.00  0.00     0.010 A 
ATOM     46  C   UNL A   1      42.568  26.078  27.609  1.00  0.00    -0.014 A 
BRANCH  46  47
ATOM     47  C   UNL A   1      42.836  27.004  28.692  1.00  0.00     0.031 A 
ATOM     48  C   UNL A   1      41.823  28.090  28.765  1.00  0.00     0.074 A 
ATOM     49  C   UNL A   1      43.788  26.675  29.592  1.00  0.00     0.049 A 
ATOM     50  N   UNL A   1      41.991  29.348  29.014  1.00  0.00    -0.248 NA
ATOM     51  C   UNL A   1      40.449  27.750  28.332  1.00  0.00     0.031 C 
ATOM     52  C   UNL A   1      44.641  25.474  29.560  1.00  0.00     0.029 A 
ATOM     53  N   UNL A   1      44.025  27.183  30.837  1.00  0.00    -0.354 N 
ATOM     54  C   UNL A   1      40.700  29.880  29.019  1.00  0.00     0.074 A 
ATOM     55  C   UNL A   1      39.856  28.937  28.351  1.00  0.00     0.031 C 
ATOM     56  C   UNL A   1      45.021  25.175  30.819  1.00  0.00     0.029 A 
ATOM     57  C   UNL A   1      44.509  26.200  31.708  1.00  0.00     0.049 A 
ATOM     58  H   UNL A   1      43.874  28.123  31.091  1.00  0.00     0.167 HD
ATOM     59  C   UNL A   1      40.355  30.862  29.891  1.00  0.00     0.034 A 
ATOM     60  C   UNL A   1      44.346  26.148  33.055  1.00  0.00     0.034 A 
ATOM     61  C   UNL A   1      41.505  31.632  30.284  1.00  0.00     0.049 A 
ATOM     62  C   UNL A   1      43.895  27.485  33.501  1.00  0.00     0.074 A 
ATOM     63  C   UNL A   1      42.466  32.355  29.607  1.00  0.00     0.029 A 
ATOM     64  N   UNL A   1      41.995  31.428  31.550  1.00  0.00    -0.354 N 
ATOM     65  N   UNL A   1      44.637  28.555  33.472  1.00  0.00    -0.248 NA
ATOM     66  C   UNL A   1      42.463  27.718  33.612  1.00  0.00     0.031 C 
ATOM     67  C   UNL A   1      43.659  32.190  30.363  1.00  0.00     0.029 A 
ATOM     68  C   UNL A   1      43.360  31.411  31.481  1.00  0.00     0.049 A 
ATOM     69  H   UNL A   1      41.456  31.313  32.366  1.00  0.00     0.167 HD
ATOM     70  C   UNL A   1      43.762  29.569  33.105  1.00  0.00     0.074 A 
ATOM     71  C   UNL A   1      42.428  29.023  33.334  1.00  0.00     0.031 C 
ATOM     72  C   UNL A   1      44.196  30.630  32.364  1.00  0.00     0.034 A 
BRANCH  59  73
ATOM     73  C   UNL A   1      39.083  30.822  30.724  1.00  0.00     0.023 A 
ATOM     74  C   UNL A   1      38.742  29.576  31.292  1.00  0.00     0.012 A 
ATOM     75  C   UNL A   1      38.072  31.818  30.731  1.00  0.00     0.148 A 
ATOM     76  C   UNL A   1      37.445  29.301  31.738  1.00  0.00     0.002 A 
ATOM     77  C   UNL A   1      36.804  31.562  31.236  1.00  0.00     0.091 A 
ATOM     78  F   UNL A   1      38.268  32.998  30.145  1.00  0.00    -0.205 F 
ATOM     79  C   UNL A   1      36.473  30.292  31.705  1.00  0.00     0.022 A 
BRANCH  77  80
ATOM     80  S   UNL A   1      35.523  32.827  31.243  1.00  0.00     0.127 S 
ATOM     81  O   UNL A   1      34.451  32.148  31.965  1.00  0.00    -0.237 OA
ATOM     82  O   UNL A   1      36.178  33.910  31.976  1.00  0.00    -0.237 OA
ATOM     83  O   UNL A   1      35.258  33.132  29.842  1.00  0.00    -0.744 OA
ENDBRANCH  77  80
ENDBRANCH  59  73
BRANCH  60  84
ATOM     84  C   UNL A   1      44.264  24.967  33.952  1.00  0.00     0.023 A 
ATOM     85  C   UNL A   1      43.751  23.755  33.446  1.00  0.00     0.012 A 
ATOM     86  C   UNL A   1      44.893  24.939  35.218  1.00  0.00     0.148 A 
ATOM     87  C   UNL A   1      43.876  22.559  34.164  1.00  0.00     0.002 A 
ATOM     88  C   UNL A   1      44.990  23.753  35.941  1.00  0.00     0.091 A 
ATOM     89  F   UNL A   1      45.484  26.051  35.676  1.00  0.00    -0.205 F 
ATOM     90  C   UNL A   1      44.495  22.557  35.412  1.00  0.00     0.022 A 
BRANCH  88  91
ATOM     91  S   UNL A   1      45.766  23.685  37.563  1.00  0.00     0.127 S 
ATOM     92  O   UNL A   1      45.687  22.258  37.881  1.00  0.00    -0.237 OA
ATOM     93  O   UNL A   1      47.110  24.176  37.278  1.00  0.00    -0.237 OA
ATOM     94  O   UNL A   1      44.950  24.532  38.426  1.00  0.00    -0.744 OA
ENDBRANCH  88  91
ENDBRANCH  60  84
BRANCH  72  95
ATOM     95  C   UNL A   1      45.681  30.841  32.221  1.00  0.00     0.023 A 
ATOM     96  C   UNL A   1      46.435  31.555  33.176  1.00  0.00     0.012 A 
ATOM     97  C   UNL A   1      46.354  30.140  31.207  1.00  0.00     0.148 A 
ATOM     98  C   UNL A   1      47.831  31.584  33.106  1.00  0.00     0.002 A 
ATOM     99  C   UNL A   1      47.741  30.127  31.173  1.00  0.00     0.091 A 
ATOM    100  F   UNL A   1      45.620  29.465  30.309  1.00  0.00    -0.205 F 
ATOM    101  C   UNL A   1      48.483  30.856  32.115  1.00  0.00     0.022 A 
BRANCH  99 102
ATOM    102  S   UNL A   1      48.635  29.094  30.011  1.00  0.00     0.127 S 
ATOM    103  O   UNL A   1      47.919  27.825  30.116  1.00  0.00    -0.237 OA
ATOM    104  O   UNL A   1      48.441  29.803  28.745  1.00  0.00    -0.237 OA
ATOM    105  O   UNL A   1      50.018  29.079  30.474  1.00  0.00    -0.744 OA
ENDBRANCH  99 102
ENDBRANCH  72  95
ENDBRANCH  46  47
ENDBRANCH  39  41
ENDBRANCH  38  39
ENDBRANCH  37  38
ENDBRANCH  36  37
ENDBRANCH  35  36
ENDBRANCH  34  35
ENDBRANCH   1  34
TORSDOF 24
ENDMDL
MODEL 3
REMARK VINA RESULT:      -9.4     10.079     16.132
REMARK SMILES Cc1nn([C@H]2CCS(=O)(=O)C2)c(C)c1/C=C(\CC(=O)OCCOCCOCCOC(=O)c1ccc(-c2c3nc(c(-c4cccc(S(=O)(=O)[O-])c4F)c4ccc([nH]4)c(-c4cccc(S(=O)(=O)[O-])c4F)c4nc(c(-c5cccc(S(=O)(=O)[O-])c5F)c5ccc2[nH]5)C=C4)C=C3)cc1)c1nc2ccccc2s1
REMARK SMILES IDX 24 1 23 2 22 3 21 4 20 5 18 6 19 7 17 8 16 9 15 10 14 11
REMARK SMILES IDX 1 12 2 13 3 14 4 15 12 16 13 17 5 18 6 19 11 20 7 21 8 22
REMARK SMILES IDX 9 23 10 24 95 25 96 26 103 27 97 28 102 29 98 30 101 31
REMARK SMILES IDX 99 32 100 33 25 34 26 35 27 36 28 37 29 38 30 39 31 40 32 41
REMARK SMILES IDX 33 42 94 43 34 44 93 45 35 46 36 47 37 48 87 49 38 50 92 51
REMARK SMILES IDX 86 52 88 53 39 54 91 55 85 56 84 57 40 59 72 60 52 61 71 62
REMARK SMILES IDX 53 63 56 64 70 65 89 66 54 67 55 68 69 70 90 71 57 72 41 73
REMARK SMILES IDX 42 74 50 75 43 76 45 77 51 78 44 79 46 80 47 81 48 82 49 83
REMARK SMILES IDX 73 84 74 85 82 86 75 87 77 88 83 89 76 90 78 91 79 92 80 93
REMARK SMILES IDX 81 94 58 95 59 96 67 97 60 98 62 99 68 100 61 101 63 102
REMARK SMILES IDX 64 103 65 104 66 105
REMARK H PARENT 88 58 56 69
REMARK Flexibility Score: inf
ROOT
ATOM      1  C   UNL A   1      42.229  41.796  24.360  1.00  0.00     0.188 C 
ENDROOT
BRANCH   1   2
ATOM      2  O   UNL A   1      41.676  42.265  23.139  1.00  0.00    -0.376 OA
BRANCH   2   3
ATOM      3  C   UNL A   1      42.089  43.508  22.595  1.00  0.00     0.202 C 
BRANCH   3   4
ATOM      4  C   UNL A   1      43.286  43.511  21.625  1.00  0.00     0.261 C 
BRANCH   4   5
ATOM      5  O   UNL A   1      44.597  43.604  22.241  1.00  0.00    -0.463 OA
BRANCH   5   6
ATOM      6  C   UNL A   1      45.029  44.859  22.447  1.00  0.00     0.310 C 
ATOM      7  O   UNL A   1      44.713  45.528  23.435  1.00  0.00    -0.252 OA
BRANCH   6   8
ATOM      8  C   UNL A   1      45.946  45.512  21.402  1.00  0.00     0.161 C 
BRANCH   8   9
ATOM      9  C   UNL A   1      46.100  45.727  19.881  1.00  0.00    -0.000 C 
ATOM     10  C   UNL A   1      47.124  45.098  19.228  1.00  0.00     0.019 C 
BRANCH  10  11
ATOM     11  C   UNL A   1      48.208  44.403  19.855  1.00  0.00     0.019 A 
ATOM     12  C   UNL A   1      47.077  42.165  20.552  1.00  0.00     0.069 C 
ATOM     13  C   UNL A   1      48.230  43.070  20.318  1.00  0.00     0.067 A 
ATOM     14  N   UNL A   1      49.494  42.656  20.512  1.00  0.00    -0.177 NA
ATOM     15  N   UNL A   1      50.237  43.748  20.236  1.00  0.00    -0.265 N 
ATOM     16  C   UNL A   1      49.478  44.889  20.120  1.00  0.00     0.043 A 
ATOM     17  C   UNL A   1      50.051  46.270  20.088  1.00  0.00     0.067 C 
BRANCH  15  18
ATOM     18  C   UNL A   1      51.680  43.680  20.154  1.00  0.00     0.123 C 
ATOM     19  C   UNL A   1      52.453  43.539  21.477  1.00  0.00     0.044 C 
ATOM     20  C   UNL A   1      52.216  42.510  19.319  1.00  0.00     0.164 C 
ATOM     21  C   UNL A   1      53.928  43.520  21.074  1.00  0.00     0.139 C 
ATOM     22  S   UNL A   1      53.974  42.753  19.459  1.00  0.00     0.152 S 
ATOM     23  O   UNL A   1      54.369  43.745  18.499  1.00  0.00    -0.229 OA
ATOM     24  O   UNL A   1      54.639  41.460  19.567  1.00  0.00    -0.229 OA
ENDBRANCH  15  18
ENDBRANCH  10  11
BRANCH   9  25
ATOM     25  C   UNL A   1      45.043  46.232  19.004  1.00  0.00     0.121 A 
ATOM     26  N   UNL A   1      44.171  45.489  18.343  1.00  0.00    -0.236 NA
ATOM     27  S   UNL A   1      44.858  47.939  18.691  1.00  0.00    -0.114 S 
ATOM     28  C   UNL A   1      43.291  46.276  17.592  1.00  0.00     0.082 A 
ATOM     29  C   UNL A   1      43.509  47.649  17.664  1.00  0.00     0.055 A 
ATOM     30  C   UNL A   1      42.213  45.817  16.802  1.00  0.00     0.030 A 
ATOM     31  C   UNL A   1      42.688  48.570  16.980  1.00  0.00     0.021 A 
ATOM     32  C   UNL A   1      41.326  46.724  16.211  1.00  0.00     0.002 A 
ATOM     33  C   UNL A   1      41.567  48.087  16.293  1.00  0.00     0.002 A 
ENDBRANCH   9  25
ENDBRANCH   8   9
ENDBRANCH   6   8
ENDBRANCH   5   6
ENDBRANCH   4   5
ENDBRANCH   3   4
ENDBRANCH   2   3
ENDBRANCH   1   2
BRANCH   1  34
ATOM     34  C   UNL A   1      41.344  41.221  25.487  1.00  0.00     0.188 C 
BRANCH  34  35
ATOM     35  O   UNL A   1      42.001  40.781  26.663  1.00  0.00    -0.376 OA
BRANCH  35  36
ATOM     36  C   UNL A   1      42.968  39.754  26.521  1.00  0.00     0.202 C 
BRANCH  36  37
ATOM     37  C   UNL A   1      42.425  38.355  26.830  1.00  0.00     0.261 C 
BRANCH  37  38
ATOM     38  O   UNL A   1      43.446  37.368  26.934  1.00  0.00    -0.460 OA
BRANCH  38  39
ATOM     39  C   UNL A   1      43.817  37.150  28.206  1.00  0.00     0.338 C 
ATOM     40  O   UNL A   1      43.535  37.818  29.188  1.00  0.00    -0.246 OA
BRANCH  39  41
ATOM     41  C   UNL A   1      44.589  35.901  28.257  1.00  0.00     0.060 A 
ATOM     42  C   UNL A   1      44.078  34.904  27.419  1.00  0.00     0.016 A 
ATOM     43  C   UNL A   1      44.983  35.646  29.564  1.00  0.00     0.016 A 
ATOM     44  C   UNL A   1      43.482  33.827  28.021  1.00  0.00     0.010 A 
ATOM     45  C   UNL A   1      44.398  34.567  30.167  1.00  0.00     0.010 A 
ATOM     46  C   UNL A   1      43.537  33.758  29.409  1.00  0.00    -0.014 A 
BRANCH  46  47
ATOM     47  C   UNL A   1      42.780  32.719  30.079  1.00  0.00     0.031 A 
ATOM     48  C   UNL A   1      41.507  33.232  30.650  1.00  0.00     0.074 A 
ATOM     49  C   UNL A   1      43.183  31.438  29.929  1.00  0.00     0.049 A 
ATOM     50  N   UNL A   1      40.944  32.946  31.778  1.00  0.00    -0.248 NA
ATOM     51  C   UNL A   1      40.857  34.350  29.930  1.00  0.00     0.031 C 
ATOM     52  C   UNL A   1      44.369  30.978  29.185  1.00  0.00     0.029 A 
ATOM     53  N   UNL A   1      42.509  30.277  30.174  1.00  0.00    -0.354 N 
ATOM     54  C   UNL A   1      39.746  33.663  31.764  1.00  0.00     0.074 A 
ATOM     55  C   UNL A   1      39.876  34.677  30.763  1.00  0.00     0.031 C 
ATOM     56  C   UNL A   1      44.155  29.717  28.760  1.00  0.00     0.029 A 
ATOM     57  C   UNL A   1      42.872  29.272  29.269  1.00  0.00     0.049 A 
ATOM     58  H   UNL A   1      41.850  30.160  30.897  1.00  0.00     0.167 HD
ATOM     59  C   UNL A   1      38.614  33.140  32.303  1.00  0.00     0.034 A 
ATOM     60  C   UNL A   1      42.101  28.241  28.839  1.00  0.00     0.034 A 
ATOM     61  C   UNL A   1      38.926  32.184  33.333  1.00  0.00     0.049 A 
ATOM     62  C   UNL A   1      40.945  28.135  29.757  1.00  0.00     0.074 A 
ATOM     63  C   UNL A   1      39.653  32.223  34.505  1.00  0.00     0.029 A 
ATOM     64  N   UNL A   1      38.747  30.857  33.032  1.00  0.00    -0.354 N 
ATOM     65  N   UNL A   1      41.031  27.760  31.001  1.00  0.00    -0.248 NA
ATOM     66  C   UNL A   1      39.724  28.840  29.397  1.00  0.00     0.031 C 
ATOM     67  C   UNL A   1      40.234  30.931  34.627  1.00  0.00     0.029 A 
ATOM     68  C   UNL A   1      39.801  30.157  33.549  1.00  0.00     0.049 A 
ATOM     69  H   UNL A   1      37.991  30.475  32.530  1.00  0.00     0.167 HD
ATOM     70  C   UNL A   1      40.112  28.562  31.665  1.00  0.00     0.074 A 
ATOM     71  C   UNL A   1      39.253  29.105  30.617  1.00  0.00     0.031 C 
ATOM     72  C   UNL A   1      40.329  28.950  32.955  1.00  0.00     0.034 A 
BRANCH  59  73
ATOM     73  C   UNL A   1      37.272  33.151  31.587  1.00  0.00     0.023 A 
ATOM     74  C   UNL A   1      36.133  33.369  32.391  1.00  0.00     0.012 A 
ATOM     75  C   UNL A   1      37.036  32.671  30.273  1.00  0.00     0.148 A 
ATOM     76  C   UNL A   1      34.848  33.026  31.955  1.00  0.00     0.002 A 
ATOM     77  C   UNL A   1      35.753  32.395  29.820  1.00  0.00     0.091 A 
ATOM     78  F   UNL A   1      38.048  32.355  29.466  1.00  0.00    -0.205 F 
ATOM     79  C   UNL A   1      34.658  32.534  30.671  1.00  0.00     0.022 A 
BRANCH  77  80
ATOM     80  S   UNL A   1      35.457  31.786  28.152  1.00  0.00     0.127 S 
ATOM     81  O   UNL A   1      34.040  31.441  28.218  1.00  0.00    -0.237 OA
ATOM     82  O   UNL A   1      35.774  32.964  27.344  1.00  0.00    -0.237 OA
ATOM     83  O   UNL A   1      36.379  30.672  27.966  1.00  0.00    -0.744 OA
ENDBRANCH  77  80
ENDBRANCH  59  73
BRANCH  60  84
ATOM     84  C   UNL A   1      42.120  27.527  27.536  1.00  0.00     0.023 A 
ATOM     85  C   UNL A   1      42.083  28.276  26.342  1.00  0.00     0.012 A 
ATOM     86  C   UNL A   1      42.410  26.146  27.440  1.00  0.00     0.148 A 
ATOM     87  C   UNL A   1      42.343  27.677  25.103  1.00  0.00     0.002 A 
ATOM     88  C   UNL A   1      42.640  25.550  26.203  1.00  0.00     0.091 A 
ATOM     89  F   UNL A   1      42.559  25.433  28.564  1.00  0.00    -0.205 F 
ATOM     90  C   UNL A   1      42.621  26.314  25.032  1.00  0.00     0.022 A 
BRANCH  88  91
ATOM     91  S   UNL A   1      42.993  23.792  26.043  1.00  0.00     0.127 S 
ATOM     92  O   UNL A   1      41.731  23.186  26.472  1.00  0.00    -0.237 OA
ATOM     93  O   UNL A   1      43.277  23.669  24.616  1.00  0.00    -0.237 OA
ATOM     94  O   UNL A   1      44.113  23.531  26.939  1.00  0.00    -0.744 OA
ENDBRANCH  88  91
ENDBRANCH  60  84
BRANCH  72  95
ATOM     95  C   UNL A   1      41.407  28.248  33.740  1.00  0.00     0.023 A 
ATOM     96  C   UNL A   1      41.162  27.059  34.457  1.00  0.00     0.012 A 
ATOM     97  C   UNL A   1      42.731  28.693  33.588  1.00  0.00     0.148 A 
ATOM     98  C   UNL A   1      42.216  26.340  35.028  1.00  0.00     0.002 A 
ATOM     99  C   UNL A   1      43.779  27.948  34.110  1.00  0.00     0.091 A 
ATOM    100  F   UNL A   1      42.944  29.825  32.901  1.00  0.00    -0.205 F 
ATOM    101  C   UNL A   1      43.525  26.776  34.840  1.00  0.00     0.022 A 
BRANCH  99 102
ATOM    102  S   UNL A   1      45.487  28.381  33.776  1.00  0.00     0.127 S 
ATOM    103  O   UNL A   1      45.779  29.326  34.851  1.00  0.00    -0.237 OA
ATOM    104  O   UNL A   1      46.169  27.090  33.893  1.00  0.00    -0.237 OA
ATOM    105  O   UNL A   1      45.500  28.935  32.428  1.00  0.00    -0.744 OA
ENDBRANCH  99 102
ENDBRANCH  72  95
ENDBRANCH  46  47
ENDBRANCH  39  41
ENDBRANCH  38  39
ENDBRANCH  37  38
ENDBRANCH  36  37
ENDBRANCH  35  36
ENDBRANCH  34  35
ENDBRANCH   1  34
TORSDOF 24
ENDMDL
