MODEL 1
REMARK VINA RESULT:     -10.1      0.000      0.000
REMARK SMILES CN1C(=O)C[C@@H](C(=O)OCCOCCOCCOC(=O)c2ccc(-c3c4nc(c(-c5cccc(S(=O)(=O)[O-])c5F)c5ccc([nH]5)c(-c5cccc(S(=O)(=O)[O-])c5F)c5nc(c(-c6cccc(S(=O)(=O)[O-])c6F)c6ccc3[nH]6)C=C5)C=C4)cc2)C12CCN(c1ccc(Cl)cn1)CC2
REMARK SMILES IDX 14 1 13 2 12 3 11 4 10 5 9 6 7 7 8 8 6 9 1 10 2 11 3 12
REMARK SMILES IDX 84 13 4 14 5 15 85 16 96 17 86 18 95 19 87 20 88 21 89 22
REMARK SMILES IDX 94 23 90 24 93 25 91 26 92 27 15 28 16 29 17 30 18 31 19 32
REMARK SMILES IDX 20 33 21 34 22 35 83 36 23 37 82 38 24 39 25 40 26 41 76 42
REMARK SMILES IDX 27 43 81 44 75 45 77 46 28 47 80 48 74 49 73 50 29 52 61 53
REMARK SMILES IDX 41 54 60 55 42 56 45 57 59 58 78 59 43 60 44 61 58 63 79 64
REMARK SMILES IDX 46 65 30 66 31 67 39 68 32 69 34 70 40 71 33 72 35 73 36 74
REMARK SMILES IDX 37 75 38 76 62 77 63 78 71 79 64 80 66 81 72 82 65 83 67 84
REMARK SMILES IDX 68 85 69 86 70 87 47 88 48 89 56 90 49 91 51 92 57 93 50 94
REMARK SMILES IDX 52 95 53 96 54 97 55 98
REMARK H PARENT 77 51 45 62
REMARK Flexibility Score: inf
ROOT
ATOM      1  C   UNL A   1      40.020  22.014  26.111  1.00  0.00     0.188 C 
ENDROOT
BRANCH   1   2
ATOM      2  C   UNL A   1      38.684  21.366  25.769  1.00  0.00     0.188 C 
BRANCH   2   3
ATOM      3  O   UNL A   1      37.603  22.201  25.386  1.00  0.00    -0.376 OA
BRANCH   3   4
ATOM      4  C   UNL A   1      36.962  21.993  24.138  1.00  0.00     0.202 C 
BRANCH   4   5
ATOM      5  C   UNL A   1      36.169  23.173  23.550  1.00  0.00     0.261 C 
BRANCH   5   6
ATOM      6  O   UNL A   1      34.729  23.204  23.777  1.00  0.00    -0.463 OA
BRANCH   6   7
ATOM      7  C   UNL A   1      34.139  24.397  23.525  1.00  0.00     0.311 C 
ATOM      8  O   UNL A   1      34.227  24.966  22.437  1.00  0.00    -0.252 OA
BRANCH   7   9
ATOM      9  C   UNL A   1      33.471  25.133  24.685  1.00  0.00     0.134 C 
ATOM     10  C   UNL A   1      30.400  23.936  26.536  1.00  0.00     0.147 C 
ATOM     11  N   UNL A   1      31.690  24.216  25.929  1.00  0.00    -0.339 N 
ATOM     12  C   UNL A   1      32.842  23.672  26.484  1.00  0.00     0.223 C 
ATOM     13  C   UNL A   1      31.961  25.352  25.028  1.00  0.00     0.060 C 
ATOM     14  O   UNL A   1      32.893  22.802  27.322  1.00  0.00    -0.275 OA
ATOM     15  C   UNL A   1      34.023  24.428  25.939  1.00  0.00     0.118 C 
ATOM     16  C   UNL A   1      30.943  25.364  23.875  1.00  0.00     0.051 C 
ATOM     17  C   UNL A   1      31.823  26.700  25.836  1.00  0.00     0.051 C 
ATOM     18  C   UNL A   1      30.977  26.648  23.078  1.00  0.00     0.120 C 
ATOM     19  C   UNL A   1      31.755  27.974  24.971  1.00  0.00     0.120 C 
ATOM     20  N   UNL A   1      30.726  27.784  23.955  1.00  0.00    -0.356 N 
BRANCH  20  21
ATOM     21  C   UNL A   1      30.205  28.922  23.332  1.00  0.00     0.128 A 
ATOM     22  C   UNL A   1      29.821  30.021  24.109  1.00  0.00     0.048 A 
ATOM     23  N   UNL A   1      30.031  28.938  21.993  1.00  0.00    -0.238 NA
ATOM     24  C   UNL A   1      29.191  31.121  23.524  1.00  0.00     0.026 A 
ATOM     25  C   UNL A   1      29.413  30.022  21.439  1.00  0.00     0.134 A 
ATOM     26  C   UNL A   1      28.969  31.116  22.161  1.00  0.00     0.059 A 
ATOM     27  Cl  UNL A   1      28.166  32.433  21.409  1.00  0.00    -0.083 Cl
ENDBRANCH  20  21
ENDBRANCH   7   9
ENDBRANCH   6   7
ENDBRANCH   5   6
ENDBRANCH   4   5
ENDBRANCH   3   4
ENDBRANCH   2   3
ENDBRANCH   1   2
BRANCH   1  28
ATOM     28  O   UNL A   1      41.150  21.238  25.753  1.00  0.00    -0.376 OA
BRANCH  28  29
ATOM     29  C   UNL A   1      42.340  21.615  26.436  1.00  0.00     0.202 C 
BRANCH  29  30
ATOM     30  C   UNL A   1      43.436  21.910  25.408  1.00  0.00     0.261 C 
BRANCH  30  31
ATOM     31  O   UNL A   1      43.258  23.157  24.702  1.00  0.00    -0.460 OA
BRANCH  31  32
ATOM     32  C   UNL A   1      44.303  24.017  24.761  1.00  0.00     0.338 C 
ATOM     33  O   UNL A   1      45.331  23.945  24.110  1.00  0.00    -0.246 OA
BRANCH  32  34
ATOM     34  C   UNL A   1      43.934  25.179  25.595  1.00  0.00     0.060 A 
ATOM     35  C   UNL A   1      43.323  26.273  24.983  1.00  0.00     0.016 A 
ATOM     36  C   UNL A   1      44.272  25.245  26.942  1.00  0.00     0.016 A 
ATOM     37  C   UNL A   1      43.104  27.460  25.674  1.00  0.00     0.010 A 
ATOM     38  C   UNL A   1      44.032  26.433  27.649  1.00  0.00     0.010 A 
ATOM     39  C   UNL A   1      43.488  27.566  27.009  1.00  0.00    -0.014 A 
BRANCH  39  40
ATOM     40  C   UNL A   1      43.453  28.892  27.679  1.00  0.00     0.031 A 
ATOM     41  C   UNL A   1      44.685  29.759  27.657  1.00  0.00     0.074 A 
ATOM     42  C   UNL A   1      42.327  29.351  28.260  1.00  0.00     0.049 A 
ATOM     43  N   UNL A   1      44.906  30.903  28.249  1.00  0.00    -0.248 NA
ATOM     44  C   UNL A   1      45.815  29.276  26.847  1.00  0.00     0.031 C 
ATOM     45  C   UNL A   1      41.041  28.656  28.287  1.00  0.00     0.029 A 
ATOM     46  N   UNL A   1      42.095  30.508  28.964  1.00  0.00    -0.354 N 
ATOM     47  C   UNL A   1      46.212  31.252  27.924  1.00  0.00     0.074 A 
ATOM     48  C   UNL A   1      46.731  30.206  27.072  1.00  0.00     0.031 C 
ATOM     49  C   UNL A   1      40.163  29.385  28.995  1.00  0.00     0.029 A 
ATOM     50  C   UNL A   1      40.841  30.564  29.525  1.00  0.00     0.049 A 
ATOM     51  H   UNL A   1      42.762  31.227  29.057  1.00  0.00     0.167 HD
ATOM     52  C   UNL A   1      46.920  32.342  28.301  1.00  0.00     0.034 A 
ATOM     53  C   UNL A   1      40.315  31.433  30.411  1.00  0.00     0.034 A 
ATOM     54  C   UNL A   1      46.408  33.381  29.151  1.00  0.00     0.049 A 
ATOM     55  C   UNL A   1      41.154  32.586  30.896  1.00  0.00     0.074 A 
ATOM     56  C   UNL A   1      47.051  34.521  29.598  1.00  0.00     0.029 A 
ATOM     57  N   UNL A   1      45.136  33.396  29.701  1.00  0.00    -0.354 N 
ATOM     58  N   UNL A   1      42.368  32.932  30.540  1.00  0.00    -0.248 NA
ATOM     59  C   UNL A   1      40.545  33.479  31.894  1.00  0.00     0.031 C 
ATOM     60  C   UNL A   1      46.181  35.205  30.452  1.00  0.00     0.029 A 
ATOM     61  C   UNL A   1      44.980  34.514  30.501  1.00  0.00     0.049 A 
ATOM     62  H   UNL A   1      44.444  32.713  29.544  1.00  0.00     0.167 HD
ATOM     63  C   UNL A   1      42.652  34.100  31.240  1.00  0.00     0.074 A 
ATOM     64  C   UNL A   1      41.478  34.411  32.028  1.00  0.00     0.031 C 
ATOM     65  C   UNL A   1      43.787  34.841  31.239  1.00  0.00     0.034 A 
BRANCH  52  66
ATOM     66  C   UNL A   1      48.339  32.451  27.813  1.00  0.00     0.023 A 
ATOM     67  C   UNL A   1      48.624  33.148  26.622  1.00  0.00     0.012 A 
ATOM     68  C   UNL A   1      49.395  31.889  28.556  1.00  0.00     0.148 A 
ATOM     69  C   UNL A   1      49.936  33.259  26.163  1.00  0.00     0.002 A 
ATOM     70  C   UNL A   1      50.703  32.037  28.114  1.00  0.00     0.091 A 
ATOM     71  F   UNL A   1      49.097  31.207  29.671  1.00  0.00    -0.205 F 
ATOM     72  C   UNL A   1      50.975  32.713  26.914  1.00  0.00     0.022 A 
BRANCH  70  73
ATOM     73  S   UNL A   1      52.112  31.425  29.043  1.00  0.00     0.127 S 
ATOM     74  O   UNL A   1      52.037  29.989  28.781  1.00  0.00    -0.237 OA
ATOM     75  O   UNL A   1      53.230  32.107  28.389  1.00  0.00    -0.237 OA
ATOM     76  O   UNL A   1      51.886  31.819  30.427  1.00  0.00    -0.744 OA
ENDBRANCH  70  73
ENDBRANCH  52  66
BRANCH  53  77
ATOM     77  C   UNL A   1      38.925  31.236  30.917  1.00  0.00     0.023 A 
ATOM     78  C   UNL A   1      38.694  30.391  32.017  1.00  0.00     0.012 A 
ATOM     79  C   UNL A   1      37.833  31.893  30.314  1.00  0.00     0.148 A 
ATOM     80  C   UNL A   1      37.397  30.182  32.493  1.00  0.00     0.002 A 
ATOM     81  C   UNL A   1      36.554  31.728  30.829  1.00  0.00     0.091 A 
ATOM     82  F   UNL A   1      38.069  32.673  29.250  1.00  0.00    -0.205 F 
ATOM     83  C   UNL A   1      36.331  30.859  31.908  1.00  0.00     0.022 A 
BRANCH  81  84
ATOM     84  S   UNL A   1      35.144  32.660  30.219  1.00  0.00     0.127 S 
ATOM     85  O   UNL A   1      34.696  31.829  29.104  1.00  0.00    -0.237 OA
ATOM     86  O   UNL A   1      34.257  32.659  31.383  1.00  0.00    -0.237 OA
ATOM     87  O   UNL A   1      35.665  33.972  29.863  1.00  0.00    -0.744 OA
ENDBRANCH  81  84
ENDBRANCH  53  77
BRANCH  65  88
ATOM     88  C   UNL A   1      43.809  36.096  32.072  1.00  0.00     0.023 A 
ATOM     89  C   UNL A   1      43.972  36.014  33.469  1.00  0.00     0.012 A 
ATOM     90  C   UNL A   1      43.749  37.362  31.456  1.00  0.00     0.148 A 
ATOM     91  C   UNL A   1      44.043  37.172  34.242  1.00  0.00     0.002 A 
ATOM     92  C   UNL A   1      43.874  38.511  32.226  1.00  0.00     0.091 A 
ATOM     93  F   UNL A   1      43.574  37.418  30.127  1.00  0.00    -0.205 F 
ATOM     94  C   UNL A   1      44.008  38.418  33.621  1.00  0.00     0.022 A 
BRANCH  92  95
ATOM     95  S   UNL A   1      43.942  40.152  31.499  1.00  0.00     0.127 S 
ATOM     96  O   UNL A   1      44.232  40.984  32.666  1.00  0.00    -0.237 OA
ATOM     97  O   UNL A   1      45.050  40.024  30.550  1.00  0.00    -0.237 OA
ATOM     98  O   UNL A   1      42.641  40.372  30.882  1.00  0.00    -0.744 OA
ENDBRANCH  92  95
ENDBRANCH  65  88
ENDBRANCH  39  40
ENDBRANCH  32  34
ENDBRANCH  31  32
ENDBRANCH  30  31
ENDBRANCH  29  30
ENDBRANCH  28  29
ENDBRANCH   1  28
TORSDOF 21
ENDMDL
MODEL 2
REMARK VINA RESULT:      -9.8      5.549     11.222
REMARK SMILES CN1C(=O)C[C@@H](C(=O)OCCOCCOCCOC(=O)c2ccc(-c3c4nc(c(-c5cccc(S(=O)(=O)[O-])c5F)c5ccc([nH]5)c(-c5cccc(S(=O)(=O)[O-])c5F)c5nc(c(-c6cccc(S(=O)(=O)[O-])c6F)c6ccc3[nH]6)C=C5)C=C4)cc2)C12CCN(c1ccc(Cl)cn1)CC2
REMARK SMILES IDX 14 1 13 2 12 3 11 4 10 5 9 6 7 7 8 8 6 9 1 10 2 11 3 12
REMARK SMILES IDX 84 13 4 14 5 15 85 16 96 17 86 18 95 19 87 20 88 21 89 22
REMARK SMILES IDX 94 23 90 24 93 25 91 26 92 27 15 28 16 29 17 30 18 31 19 32
REMARK SMILES IDX 20 33 21 34 22 35 83 36 23 37 82 38 24 39 25 40 26 41 76 42
REMARK SMILES IDX 27 43 81 44 75 45 77 46 28 47 80 48 74 49 73 50 29 52 61 53
REMARK SMILES IDX 41 54 60 55 42 56 45 57 59 58 78 59 43 60 44 61 58 63 79 64
REMARK SMILES IDX 46 65 30 66 31 67 39 68 32 69 34 70 40 71 33 72 35 73 36 74
REMARK SMILES IDX 37 75 38 76 62 77 63 78 71 79 64 80 66 81 72 82 65 83 67 84
REMARK SMILES IDX 68 85 69 86 70 87 47 88 48 89 56 90 49 91 51 92 57 93 50 94
REMARK SMILES IDX 52 95 53 96 54 97 55 98
REMARK H PARENT 77 51 45 62
REMARK Flexibility Score: inf
ROOT
ATOM      1  C   UNL A   1      38.880  32.584  37.677  1.00  0.00     0.188 C 
ENDROOT
BRANCH   1   2
ATOM      2  C   UNL A   1      37.604  32.854  36.890  1.00  0.00     0.188 C 
BRANCH   2   3
ATOM      3  O   UNL A   1      37.407  32.172  35.661  1.00  0.00    -0.376 OA
BRANCH   3   4
ATOM      4  C   UNL A   1      37.556  32.872  34.437  1.00  0.00     0.202 C 
BRANCH   4   5
ATOM      5  C   UNL A   1      38.629  32.360  33.460  1.00  0.00     0.261 C 
BRANCH   5   6
ATOM      6  O   UNL A   1      38.177  31.737  32.221  1.00  0.00    -0.463 OA
BRANCH   6   7
ATOM      7  C   UNL A   1      39.152  31.132  31.501  1.00  0.00     0.311 C 
ATOM      8  O   UNL A   1      40.246  30.836  31.981  1.00  0.00    -0.252 OA
BRANCH   7   9
ATOM      9  C   UNL A   1      38.935  30.952  30.000  1.00  0.00     0.134 C 
ATOM     10  C   UNL A   1      35.598  30.296  28.348  1.00  0.00     0.147 C 
ATOM     11  N   UNL A   1      36.796  30.763  29.026  1.00  0.00    -0.339 N 
ATOM     12  C   UNL A   1      37.009  32.127  29.182  1.00  0.00     0.223 C 
ATOM     13  C   UNL A   1      38.020  29.961  29.207  1.00  0.00     0.060 C 
ATOM     14  O   UNL A   1      36.199  33.006  28.994  1.00  0.00    -0.275 OA
ATOM     15  C   UNL A   1      38.459  32.337  29.525  1.00  0.00     0.118 C 
ATOM     16  C   UNL A   1      37.674  28.609  29.852  1.00  0.00     0.051 C 
ATOM     17  C   UNL A   1      38.679  29.694  27.798  1.00  0.00     0.051 C 
ATOM     18  C   UNL A   1      38.823  27.627  29.805  1.00  0.00     0.120 C 
ATOM     19  C   UNL A   1      39.773  28.608  27.785  1.00  0.00     0.120 C 
ATOM     20  N   UNL A   1      39.238  27.412  28.426  1.00  0.00    -0.356 N 
BRANCH  20  21
ATOM     21  C   UNL A   1      39.877  26.194  28.172  1.00  0.00     0.128 A 
ATOM     22  C   UNL A   1      39.158  25.145  27.587  1.00  0.00     0.048 A 
ATOM     23  N   UNL A   1      41.166  26.020  28.535  1.00  0.00    -0.238 NA
ATOM     24  C   UNL A   1      39.738  23.885  27.431  1.00  0.00     0.026 A 
ATOM     25  C   UNL A   1      41.716  24.781  28.376  1.00  0.00     0.134 A 
ATOM     26  C   UNL A   1      41.041  23.693  27.848  1.00  0.00     0.059 A 
ATOM     27  Cl  UNL A   1      41.778  22.151  27.706  1.00  0.00    -0.083 Cl
ENDBRANCH  20  21
ENDBRANCH   7   9
ENDBRANCH   6   7
ENDBRANCH   5   6
ENDBRANCH   4   5
ENDBRANCH   3   4
ENDBRANCH   2   3
ENDBRANCH   1   2
BRANCH   1  28
ATOM     28  O   UNL A   1      38.677  32.399  39.067  1.00  0.00    -0.376 OA
BRANCH  28  29
ATOM     29  C   UNL A   1      38.369  33.600  39.763  1.00  0.00     0.202 C 
BRANCH  29  30
ATOM     30  C   UNL A   1      39.534  34.582  39.609  1.00  0.00     0.261 C 
BRANCH  30  31
ATOM     31  O   UNL A   1      39.245  35.706  38.749  1.00  0.00    -0.460 OA
BRANCH  31  32
ATOM     32  C   UNL A   1      40.311  36.465  38.399  1.00  0.00     0.338 C 
ATOM     33  O   UNL A   1      40.790  37.375  39.054  1.00  0.00    -0.246 OA
BRANCH  32  34
ATOM     34  C   UNL A   1      40.939  35.899  37.187  1.00  0.00     0.060 A 
ATOM     35  C   UNL A   1      40.131  35.616  36.087  1.00  0.00     0.016 A 
ATOM     36  C   UNL A   1      42.285  35.554  37.158  1.00  0.00     0.016 A 
ATOM     37  C   UNL A   1      40.625  34.932  34.982  1.00  0.00     0.010 A 
ATOM     38  C   UNL A   1      42.794  34.882  36.036  1.00  0.00     0.010 A 
ATOM     39  C   UNL A   1      41.958  34.526  34.959  1.00  0.00    -0.014 A 
BRANCH  39  40
ATOM     40  C   UNL A   1      42.427  33.613  33.884  1.00  0.00     0.031 A 
ATOM     41  C   UNL A   1      42.735  34.178  32.522  1.00  0.00     0.074 A 
ATOM     42  C   UNL A   1      42.630  32.302  34.120  1.00  0.00     0.049 A 
ATOM     43  N   UNL A   1      43.066  33.557  31.420  1.00  0.00    -0.248 NA
ATOM     44  C   UNL A   1      42.670  35.642  32.387  1.00  0.00     0.031 C 
ATOM     45  C   UNL A   1      42.452  31.634  35.409  1.00  0.00     0.029 A 
ATOM     46  N   UNL A   1      43.008  31.290  33.271  1.00  0.00    -0.354 N 
ATOM     47  C   UNL A   1      43.203  34.547  30.454  1.00  0.00     0.074 A 
ATOM     48  C   UNL A   1      42.931  35.811  31.099  1.00  0.00     0.031 C 
ATOM     49  C   UNL A   1      42.693  30.321  35.260  1.00  0.00     0.029 A 
ATOM     50  C   UNL A   1      42.978  30.046  33.855  1.00  0.00     0.049 A 
ATOM     51  H   UNL A   1      43.274  31.442  32.335  1.00  0.00     0.167 HD
ATOM     52  C   UNL A   1      43.523  34.420  29.145  1.00  0.00     0.034 A 
ATOM     53  C   UNL A   1      43.106  28.819  33.312  1.00  0.00     0.034 A 
ATOM     54  C   UNL A   1      43.790  33.164  28.499  1.00  0.00     0.049 A 
ATOM     55  C   UNL A   1      43.364  28.693  31.833  1.00  0.00     0.074 A 
ATOM     56  C   UNL A   1      44.113  32.930  27.175  1.00  0.00     0.029 A 
ATOM     57  N   UNL A   1      43.744  31.928  29.126  1.00  0.00    -0.354 N 
ATOM     58  N   UNL A   1      43.542  29.639  30.943  1.00  0.00    -0.248 NA
ATOM     59  C   UNL A   1      43.454  27.331  31.287  1.00  0.00     0.031 C 
ATOM     60  C   UNL A   1      44.221  31.548  26.991  1.00  0.00     0.029 A 
ATOM     61  C   UNL A   1      44.010  30.925  28.211  1.00  0.00     0.049 A 
ATOM     62  H   UNL A   1      43.551  31.786  30.081  1.00  0.00     0.167 HD
ATOM     63  C   UNL A   1      43.802  28.988  29.741  1.00  0.00     0.074 A 
ATOM     64  C   UNL A   1      43.774  27.567  30.022  1.00  0.00     0.031 C 
ATOM     65  C   UNL A   1      44.032  29.517  28.515  1.00  0.00     0.034 A 
BRANCH  52  66
ATOM     66  C   UNL A   1      43.576  35.675  28.317  1.00  0.00     0.023 A 
ATOM     67  C   UNL A   1      42.410  36.156  27.690  1.00  0.00     0.012 A 
ATOM     68  C   UNL A   1      44.779  36.395  28.189  1.00  0.00     0.148 A 
ATOM     69  C   UNL A   1      42.447  37.321  26.923  1.00  0.00     0.002 A 
ATOM     70  C   UNL A   1      44.801  37.576  27.458  1.00  0.00     0.091 A 
ATOM     71  F   UNL A   1      45.882  35.903  28.772  1.00  0.00    -0.205 F 
ATOM     72  C   UNL A   1      43.639  38.035  26.816  1.00  0.00     0.022 A 
BRANCH  70  73
ATOM     73  S   UNL A   1      46.269  38.598  27.315  1.00  0.00     0.127 S 
ATOM     74  O   UNL A   1      46.564  38.889  28.717  1.00  0.00    -0.237 OA
ATOM     75  O   UNL A   1      47.216  37.687  26.669  1.00  0.00    -0.237 OA
ATOM     76  O   UNL A   1      45.884  39.747  26.507  1.00  0.00    -0.744 OA
ENDBRANCH  70  73
ENDBRANCH  52  66
BRANCH  53  77
ATOM     77  C   UNL A   1      42.973  27.604  34.168  1.00  0.00     0.023 A 
ATOM     78  C   UNL A   1      41.696  27.113  34.493  1.00  0.00     0.012 A 
ATOM     79  C   UNL A   1      44.111  26.929  34.653  1.00  0.00     0.148 A 
ATOM     80  C   UNL A   1      41.552  25.988  35.307  1.00  0.00     0.002 A 
ATOM     81  C   UNL A   1      43.963  25.776  35.413  1.00  0.00     0.091 A 
ATOM     82  F   UNL A   1      45.320  27.427  34.356  1.00  0.00    -0.205 F 
ATOM     83  C   UNL A   1      42.684  25.313  35.756  1.00  0.00     0.022 A 
BRANCH  81  84
ATOM     84  S   UNL A   1      45.364  24.773  35.923  1.00  0.00     0.127 S 
ATOM     85  O   UNL A   1      45.879  24.304  34.639  1.00  0.00    -0.237 OA
ATOM     86  O   UNL A   1      46.207  25.757  36.602  1.00  0.00    -0.237 OA
ATOM     87  O   UNL A   1      44.814  23.747  36.798  1.00  0.00    -0.744 OA
ENDBRANCH  81  84
ENDBRANCH  53  77
BRANCH  65  88
ATOM     88  C   UNL A   1      44.326  28.568  27.382  1.00  0.00     0.023 A 
ATOM     89  C   UNL A   1      43.279  28.088  26.572  1.00  0.00     0.012 A 
ATOM     90  C   UNL A   1      45.656  28.218  27.074  1.00  0.00     0.148 A 
ATOM     91  C   UNL A   1      43.548  27.249  25.491  1.00  0.00     0.002 A 
ATOM     92  C   UNL A   1      45.920  27.425  25.964  1.00  0.00     0.091 A 
ATOM     93  F   UNL A   1      46.637  28.669  27.869  1.00  0.00    -0.205 F 
ATOM     94  C   UNL A   1      44.867  26.929  25.180  1.00  0.00     0.022 A 
BRANCH  92  95
ATOM     95  S   UNL A   1      47.594  27.048  25.431  1.00  0.00     0.127 S 
ATOM     96  O   UNL A   1      48.099  26.269  26.561  1.00  0.00    -0.237 OA
ATOM     97  O   UNL A   1      47.363  26.273  24.210  1.00  0.00    -0.237 OA
ATOM     98  O   UNL A   1      48.246  28.332  25.216  1.00  0.00    -0.744 OA
ENDBRANCH  92  95
ENDBRANCH  65  88
ENDBRANCH  39  40
ENDBRANCH  32  34
ENDBRANCH  31  32
ENDBRANCH  30  31
ENDBRANCH  29  30
ENDBRANCH  28  29
ENDBRANCH   1  28
TORSDOF 21
ENDMDL
MODEL 3
REMARK VINA RESULT:      -9.8      5.503     10.799
REMARK SMILES CN1C(=O)C[C@@H](C(=O)OCCOCCOCCOC(=O)c2ccc(-c3c4nc(c(-c5cccc(S(=O)(=O)[O-])c5F)c5ccc([nH]5)c(-c5cccc(S(=O)(=O)[O-])c5F)c5nc(c(-c6cccc(S(=O)(=O)[O-])c6F)c6ccc3[nH]6)C=C5)C=C4)cc2)C12CCN(c1ccc(Cl)cn1)CC2
REMARK SMILES IDX 14 1 13 2 12 3 11 4 10 5 9 6 7 7 8 8 6 9 1 10 2 11 3 12
REMARK SMILES IDX 84 13 4 14 5 15 85 16 96 17 86 18 95 19 87 20 88 21 89 22
REMARK SMILES IDX 94 23 90 24 93 25 91 26 92 27 15 28 16 29 17 30 18 31 19 32
REMARK SMILES IDX 20 33 21 34 22 35 83 36 23 37 82 38 24 39 25 40 26 41 76 42
REMARK SMILES IDX 27 43 81 44 75 45 77 46 28 47 80 48 74 49 73 50 29 52 61 53
REMARK SMILES IDX 41 54 60 55 42 56 45 57 59 58 78 59 43 60 44 61 58 63 79 64
REMARK SMILES IDX 46 65 30 66 31 67 39 68 32 69 34 70 40 71 33 72 35 73 36 74
REMARK SMILES IDX 37 75 38 76 62 77 63 78 71 79 64 80 66 81 72 82 65 83 67 84
REMARK SMILES IDX 68 85 69 86 70 87 47 88 48 89 56 90 49 91 51 92 57 93 50 94
REMARK SMILES IDX 52 95 53 96 54 97 55 98
REMARK H PARENT 77 51 45 62
REMARK Flexibility Score: inf
ROOT
ATOM      1  C   UNL A   1      39.046  32.430  37.699  1.00  0.00     0.188 C 
ENDROOT
BRANCH   1   2
ATOM      2  C   UNL A   1      37.823  32.399  36.791  1.00  0.00     0.188 C 
BRANCH   2   3
ATOM      3  O   UNL A   1      37.647  31.286  35.928  1.00  0.00    -0.376 OA
BRANCH   3   4
ATOM      4  C   UNL A   1      37.782  31.456  34.526  1.00  0.00     0.202 C 
BRANCH   4   5
ATOM      5  C   UNL A   1      38.715  30.481  33.787  1.00  0.00     0.261 C 
BRANCH   5   6
ATOM      6  O   UNL A   1      38.118  29.297  33.181  1.00  0.00    -0.463 OA
BRANCH   6   7
ATOM      7  C   UNL A   1      38.881  28.697  32.236  1.00  0.00     0.311 C 
ATOM      8  O   UNL A   1      40.054  28.382  32.430  1.00  0.00    -0.252 OA
BRANCH   7   9
ATOM      9  C   UNL A   1      38.303  28.548  30.829  1.00  0.00     0.134 C 
ATOM     10  C   UNL A   1      40.209  29.156  27.621  1.00  0.00     0.147 C 
ATOM     11  N   UNL A   1      39.614  28.734  28.878  1.00  0.00    -0.339 N 
ATOM     12  C   UNL A   1      39.793  27.427  29.317  1.00  0.00     0.223 C 
ATOM     13  C   UNL A   1      38.493  29.421  29.545  1.00  0.00     0.060 C 
ATOM     14  O   UNL A   1      40.574  26.620  28.869  1.00  0.00    -0.275 OA
ATOM     15  C   UNL A   1      38.768  27.149  30.383  1.00  0.00     0.118 C 
ATOM     16  C   UNL A   1      38.816  30.914  29.716  1.00  0.00     0.051 C 
ATOM     17  C   UNL A   1      37.197  29.285  28.654  1.00  0.00     0.051 C 
ATOM     18  C   UNL A   1      37.611  31.731  30.125  1.00  0.00     0.120 C 
ATOM     19  C   UNL A   1      36.034  30.216  29.049  1.00  0.00     0.120 C 
ATOM     20  N   UNL A   1      36.548  31.577  29.142  1.00  0.00    -0.356 N 
BRANCH  20  21
ATOM     21  C   UNL A   1      35.629  32.629  29.080  1.00  0.00     0.128 A 
ATOM     22  C   UNL A   1      35.486  33.353  27.891  1.00  0.00     0.048 A 
ATOM     23  N   UNL A   1      34.919  32.970  30.177  1.00  0.00    -0.238 NA
ATOM     24  C   UNL A   1      34.663  34.479  27.838  1.00  0.00     0.026 A 
ATOM     25  C   UNL A   1      34.120  34.074  30.107  1.00  0.00     0.134 A 
ATOM     26  C   UNL A   1      33.975  34.858  28.975  1.00  0.00     0.059 A 
ATOM     27  Cl  UNL A   1      32.980  36.255  28.961  1.00  0.00    -0.083 Cl
ENDBRANCH  20  21
ENDBRANCH   7   9
ENDBRANCH   6   7
ENDBRANCH   5   6
ENDBRANCH   4   5
ENDBRANCH   3   4
ENDBRANCH   2   3
ENDBRANCH   1   2
BRANCH   1  28
ATOM     28  O   UNL A   1      38.746  32.340  39.081  1.00  0.00    -0.376 OA
BRANCH  28  29
ATOM     29  C   UNL A   1      38.337  33.574  39.657  1.00  0.00     0.202 C 
BRANCH  29  30
ATOM     30  C   UNL A   1      39.527  34.539  39.671  1.00  0.00     0.261 C 
BRANCH  30  31
ATOM     31  O   UNL A   1      39.420  35.618  38.717  1.00  0.00    -0.460 OA
BRANCH  31  32
ATOM     32  C   UNL A   1      40.576  36.262  38.430  1.00  0.00     0.338 C 
ATOM     33  O   UNL A   1      41.135  37.084  39.136  1.00  0.00    -0.246 OA
BRANCH  32  34
ATOM     34  C   UNL A   1      41.173  35.678  37.211  1.00  0.00     0.060 A 
ATOM     35  C   UNL A   1      40.335  35.362  36.142  1.00  0.00     0.016 A 
ATOM     36  C   UNL A   1      42.522  35.348  37.148  1.00  0.00     0.016 A 
ATOM     37  C   UNL A   1      40.804  34.660  35.038  1.00  0.00     0.010 A 
ATOM     38  C   UNL A   1      43.005  34.659  36.025  1.00  0.00     0.010 A 
ATOM     39  C   UNL A   1      42.140  34.269  34.982  1.00  0.00    -0.014 A 
BRANCH  39  40
ATOM     40  C   UNL A   1      42.587  33.338  33.913  1.00  0.00     0.031 A 
ATOM     41  C   UNL A   1      42.847  33.878  32.530  1.00  0.00     0.074 A 
ATOM     42  C   UNL A   1      42.811  32.035  34.170  1.00  0.00     0.049 A 
ATOM     43  N   UNL A   1      43.152  33.238  31.432  1.00  0.00    -0.248 NA
ATOM     44  C   UNL A   1      42.761  35.338  32.366  1.00  0.00     0.031 C 
ATOM     45  C   UNL A   1      42.680  31.393  35.477  1.00  0.00     0.029 A 
ATOM     46  N   UNL A   1      43.175  31.010  33.330  1.00  0.00    -0.354 N 
ATOM     47  C   UNL A   1      43.248  34.208  30.442  1.00  0.00     0.074 A 
ATOM     48  C   UNL A   1      42.981  35.483  31.069  1.00  0.00     0.031 C 
ATOM     49  C   UNL A   1      42.931  30.080  35.348  1.00  0.00     0.029 A 
ATOM     50  C   UNL A   1      43.176  29.778  33.941  1.00  0.00     0.049 A 
ATOM     51  H   UNL A   1      43.412  31.145  32.384  1.00  0.00     0.167 HD
ATOM     52  C   UNL A   1      43.530  34.057  29.127  1.00  0.00     0.034 A 
ATOM     53  C   UNL A   1      43.302  28.541  33.420  1.00  0.00     0.034 A 
ATOM     54  C   UNL A   1      43.792  32.791  28.499  1.00  0.00     0.049 A 
ATOM     55  C   UNL A   1      43.517  28.387  31.937  1.00  0.00     0.074 A 
ATOM     56  C   UNL A   1      44.078  32.532  27.171  1.00  0.00     0.029 A 
ATOM     57  N   UNL A   1      43.779  31.568  29.153  1.00  0.00    -0.354 N 
ATOM     58  N   UNL A   1      43.658  29.316  31.022  1.00  0.00    -0.248 NA
ATOM     59  C   UNL A   1      43.606  27.014  31.417  1.00  0.00     0.031 C 
ATOM     60  C   UNL A   1      44.196  31.148  27.013  1.00  0.00     0.029 A 
ATOM     61  C   UNL A   1      44.029  30.548  28.252  1.00  0.00     0.049 A 
ATOM     62  H   UNL A   1      43.617  31.444  30.116  1.00  0.00     0.167 HD
ATOM     63  C   UNL A   1      43.889  28.642  29.827  1.00  0.00     0.074 A 
ATOM     64  C   UNL A   1      43.885  27.227  30.138  1.00  0.00     0.031 C 
ATOM     65  C   UNL A   1      44.076  29.147  28.583  1.00  0.00     0.034 A 
BRANCH  52  66
ATOM     66  C   UNL A   1      43.545  35.294  28.272  1.00  0.00     0.023 A 
ATOM     67  C   UNL A   1      42.351  35.761  27.685  1.00  0.00     0.012 A 
ATOM     68  C   UNL A   1      44.739  36.014  28.077  1.00  0.00     0.148 A 
ATOM     69  C   UNL A   1      42.352  36.909  26.894  1.00  0.00     0.002 A 
ATOM     70  C   UNL A   1      44.726  37.180  27.321  1.00  0.00     0.091 A 
ATOM     71  F   UNL A   1      45.867  35.536  28.622  1.00  0.00    -0.205 F 
ATOM     72  C   UNL A   1      43.536  37.623  26.721  1.00  0.00     0.022 A 
BRANCH  70  73
ATOM     73  S   UNL A   1      46.184  38.201  27.094  1.00  0.00     0.127 S 
ATOM     74  O   UNL A   1      46.348  38.781  28.427  1.00  0.00    -0.237 OA
ATOM     75  O   UNL A   1      47.199  37.212  26.731  1.00  0.00    -0.237 OA
ATOM     76  O   UNL A   1      45.853  39.149  26.039  1.00  0.00    -0.744 OA
ENDBRANCH  70  73
ENDBRANCH  52  66
BRANCH  53  77
ATOM     77  C   UNL A   1      43.209  27.344  34.304  1.00  0.00     0.023 A 
ATOM     78  C   UNL A   1      41.950  26.795  34.610  1.00  0.00     0.012 A 
ATOM     79  C   UNL A   1      44.367  26.741  34.837  1.00  0.00     0.148 A 
ATOM     80  C   UNL A   1      41.842  25.685  35.450  1.00  0.00     0.002 A 
ATOM     81  C   UNL A   1      44.258  25.602  35.624  1.00  0.00     0.091 A 
ATOM     82  F   UNL A   1      45.556  27.294  34.558  1.00  0.00    -0.205 F 
ATOM     83  C   UNL A   1      42.995  25.082  35.946  1.00  0.00     0.022 A 
BRANCH  81  84
ATOM     84  S   UNL A   1      45.694  24.687  36.196  1.00  0.00     0.127 S 
ATOM     85  O   UNL A   1      46.446  24.505  34.958  1.00  0.00    -0.237 OA
ATOM     86  O   UNL A   1      46.290  25.626  37.147  1.00  0.00    -0.237 OA
ATOM     87  O   UNL A   1      45.169  23.472  36.803  1.00  0.00    -0.744 OA
ENDBRANCH  81  84
ENDBRANCH  53  77
BRANCH  65  88
ATOM     88  C   UNL A   1      44.347  28.178  27.463  1.00  0.00     0.023 A 
ATOM     89  C   UNL A   1      43.275  27.593  26.760  1.00  0.00     0.012 A 
ATOM     90  C   UNL A   1      45.669  27.911  27.055  1.00  0.00     0.148 A 
ATOM     91  C   UNL A   1      43.517  26.733  25.689  1.00  0.00     0.002 A 
ATOM     92  C   UNL A   1      45.901  27.096  25.955  1.00  0.00     0.091 A 
ATOM     93  F   UNL A   1      46.675  28.463  27.750  1.00  0.00    -0.205 F 
ATOM     94  C   UNL A   1      44.827  26.496  25.279  1.00  0.00     0.022 A 
BRANCH  92  95
ATOM     95  S   UNL A   1      47.548  26.819  25.295  1.00  0.00     0.127 S 
ATOM     96  O   UNL A   1      47.268  25.974  24.136  1.00  0.00    -0.237 OA
ATOM     97  O   UNL A   1      47.984  28.179  24.968  1.00  0.00    -0.237 OA
ATOM     98  O   UNL A   1      48.307  26.183  26.364  1.00  0.00    -0.744 OA
ENDBRANCH  92  95
ENDBRANCH  65  88
ENDBRANCH  39  40
ENDBRANCH  32  34
ENDBRANCH  31  32
ENDBRANCH  30  31
ENDBRANCH  29  30
ENDBRANCH  28  29
ENDBRANCH   1  28
TORSDOF 21
ENDMDL
