MODEL 1
REMARK VINA RESULT:     -10.3      0.000      0.000
REMARK SMILES C[C@H](Nc1ccc2c(c1)Cc1ccccc1-2)[C@@H](C)C(=O)OCCOCCOCCOC(=O)c1ccc(-c2c3nc(c(-c4cccc(S(=O)(=O)[O-])c4F)c4ccc([nH]4)c(-c4cccc(S(=O)(=O)[O-])c4F)c4nc(c(-c5cccc(S(=O)(=O)[O-])c5F)c5ccc2[nH]5)C=C4)C=C3)cc1
REMARK SMILES IDX 25 1 24 2 23 3 22 4 21 5 19 6 20 7 17 8 18 9 2 10 1 11 3 12
REMARK SMILES IDX 4 14 5 15 9 16 6 17 8 18 7 19 10 20 16 21 11 22 15 23 12 24
REMARK SMILES IDX 14 25 13 26 26 27 27 28 28 29 29 30 30 31 31 32 32 33 33 34
REMARK SMILES IDX 34 35 95 36 35 37 94 38 36 39 37 40 38 41 88 42 39 43 93 44
REMARK SMILES IDX 87 45 89 46 40 47 92 48 86 49 85 50 41 52 73 53 53 54 72 55
REMARK SMILES IDX 54 56 57 57 71 58 90 59 55 60 56 61 70 63 91 64 58 65 42 66
REMARK SMILES IDX 43 67 51 68 44 69 46 70 52 71 45 72 47 73 48 74 49 75 50 76
REMARK SMILES IDX 74 77 75 78 83 79 76 80 78 81 84 82 77 83 79 84 80 85 81 86
REMARK SMILES IDX 82 87 59 88 60 89 68 90 61 91 63 92 69 93 62 94 64 95 65 96
REMARK SMILES IDX 66 97 67 98
REMARK H PARENT 3 13 89 51 57 62
REMARK Flexibility Score: inf
ROOT
ATOM      1  C   UNL A   1      35.319  24.557  24.539  1.00  0.00     0.188 C 
ENDROOT
BRANCH   1   2
ATOM      2  O   UNL A   1      33.995  25.025  24.307  1.00  0.00    -0.376 OA
BRANCH   2   3
ATOM      3  C   UNL A   1      33.645  25.447  23.000  1.00  0.00     0.202 C 
BRANCH   3   4
ATOM      4  C   UNL A   1      32.658  26.621  22.901  1.00  0.00     0.261 C 
BRANCH   4   5
ATOM      5  O   UNL A   1      31.303  26.415  23.386  1.00  0.00    -0.463 OA
BRANCH   5   6
ATOM      6  C   UNL A   1      30.947  27.173  24.460  1.00  0.00     0.310 C 
ATOM      7  O   UNL A   1      30.951  28.400  24.449  1.00  0.00    -0.252 OA
BRANCH   6   8
ATOM      8  C   UNL A   1      30.715  26.402  25.765  1.00  0.00     0.118 C 
ATOM      9  C   UNL A   1      31.769  26.923  26.749  1.00  0.00     0.022 C 
BRANCH   8  10
ATOM     10  C   UNL A   1      30.613  24.846  25.742  1.00  0.00     0.090 C 
ATOM     11  C   UNL A   1      29.506  24.349  26.675  1.00  0.00     0.031 C 
BRANCH  10  12
ATOM     12  N   UNL A   1      31.940  24.253  26.079  1.00  0.00    -0.382 N 
ATOM     13  H   UNL A   1      32.595  24.852  26.505  1.00  0.00     0.160 HD
BRANCH  12  14
ATOM     14  C   UNL A   1      32.344  22.943  25.853  1.00  0.00     0.035 A 
ATOM     15  C   UNL A   1      33.292  22.290  26.668  1.00  0.00     0.026 A 
ATOM     16  C   UNL A   1      31.872  22.276  24.711  1.00  0.00     0.030 A 
ATOM     17  C   UNL A   1      33.802  21.020  26.347  1.00  0.00     0.011 A 
ATOM     18  C   UNL A   1      32.373  21.017  24.400  1.00  0.00    -0.034 A 
ATOM     19  C   UNL A   1      33.348  20.393  25.200  1.00  0.00    -0.014 A 
ATOM     20  C   UNL A   1      32.024  20.141  23.212  1.00  0.00     0.072 C 
ATOM     21  C   UNL A   1      33.697  19.118  24.601  1.00  0.00    -0.015 A 
ATOM     22  C   UNL A   1      32.909  18.934  23.442  1.00  0.00    -0.036 A 
ATOM     23  C   UNL A   1      34.626  18.160  24.969  1.00  0.00     0.009 A 
ATOM     24  C   UNL A   1      33.010  17.789  22.667  1.00  0.00     0.005 A 
ATOM     25  C   UNL A   1      34.741  17.004  24.186  1.00  0.00     0.001 A 
ATOM     26  C   UNL A   1      33.933  16.816  23.051  1.00  0.00     0.000 A 
ENDBRANCH  12  14
ENDBRANCH  10  12
ENDBRANCH   8  10
ENDBRANCH   6   8
ENDBRANCH   5   6
ENDBRANCH   4   5
ENDBRANCH   3   4
ENDBRANCH   2   3
ENDBRANCH   1   2
BRANCH   1  27
ATOM     27  C   UNL A   1      35.847  23.425  23.663  1.00  0.00     0.188 C 
BRANCH  27  28
ATOM     28  O   UNL A   1      37.033  22.844  24.193  1.00  0.00    -0.376 OA
BRANCH  28  29
ATOM     29  C   UNL A   1      37.119  21.446  23.944  1.00  0.00     0.202 C 
BRANCH  29  30
ATOM     30  C   UNL A   1      37.567  20.752  25.233  1.00  0.00     0.261 C 
BRANCH  30  31
ATOM     31  O   UNL A   1      38.108  21.646  26.227  1.00  0.00    -0.460 OA
BRANCH  31  32
ATOM     32  C   UNL A   1      39.448  21.617  26.393  1.00  0.00     0.338 C 
ATOM     33  O   UNL A   1      40.207  20.746  25.974  1.00  0.00    -0.246 OA
BRANCH  32  34
ATOM     34  C   UNL A   1      39.907  22.889  26.994  1.00  0.00     0.060 A 
ATOM     35  C   UNL A   1      39.287  24.078  26.594  1.00  0.00     0.016 A 
ATOM     36  C   UNL A   1      40.971  22.928  27.899  1.00  0.00     0.016 A 
ATOM     37  C   UNL A   1      39.759  25.311  27.046  1.00  0.00     0.010 A 
ATOM     38  C   UNL A   1      41.456  24.165  28.340  1.00  0.00     0.010 A 
ATOM     39  C   UNL A   1      40.883  25.365  27.878  1.00  0.00    -0.014 A 
BRANCH  39  40
ATOM     40  C   UNL A   1      41.577  26.664  28.087  1.00  0.00     0.031 A 
ATOM     41  C   UNL A   1      42.970  26.831  27.535  1.00  0.00     0.074 A 
ATOM     42  C   UNL A   1      40.981  27.689  28.722  1.00  0.00     0.049 A 
ATOM     43  N   UNL A   1      43.779  27.856  27.615  1.00  0.00    -0.248 NA
ATOM     44  C   UNL A   1      43.526  25.685  26.797  1.00  0.00     0.031 C 
ATOM     45  C   UNL A   1      39.632  27.670  29.284  1.00  0.00     0.029 A 
ATOM     46  N   UNL A   1      41.449  28.949  29.013  1.00  0.00    -0.354 N 
ATOM     47  C   UNL A   1      44.948  27.468  26.971  1.00  0.00     0.074 A 
ATOM     48  C   UNL A   1      44.749  26.108  26.518  1.00  0.00     0.031 C 
ATOM     49  C   UNL A   1      39.387  28.854  29.872  1.00  0.00     0.029 A 
ATOM     50  C   UNL A   1      40.571  29.706  29.752  1.00  0.00     0.049 A 
ATOM     51  H   UNL A   1      42.330  29.277  28.721  1.00  0.00     0.167 HD
ATOM     52  C   UNL A   1      46.082  28.178  26.759  1.00  0.00     0.034 A 
ATOM     53  C   UNL A   1      40.713  30.935  30.287  1.00  0.00     0.034 A 
ATOM     54  C   UNL A   1      46.272  29.539  27.183  1.00  0.00     0.049 A 
ATOM     55  C   UNL A   1      41.992  31.700  30.054  1.00  0.00     0.074 A 
ATOM     56  C   UNL A   1      47.372  30.355  26.984  1.00  0.00     0.029 A 
ATOM     57  N   UNL A   1      45.346  30.283  27.896  1.00  0.00    -0.354 N 
ATOM     58  N   UNL A   1      43.052  31.353  29.364  1.00  0.00    -0.248 NA
ATOM     59  C   UNL A   1      42.080  33.044  30.645  1.00  0.00     0.031 C 
ATOM     60  C   UNL A   1      47.122  31.584  27.605  1.00  0.00     0.029 A 
ATOM     61  C   UNL A   1      45.851  31.547  28.154  1.00  0.00     0.049 A 
ATOM     62  H   UNL A   1      44.458  29.960  28.177  1.00  0.00     0.167 HD
ATOM     63  C   UNL A   1      43.912  32.447  29.406  1.00  0.00     0.074 A 
ATOM     64  C   UNL A   1      43.240  33.476  30.170  1.00  0.00     0.031 C 
ATOM     65  C   UNL A   1      45.151  32.583  28.870  1.00  0.00     0.034 A 
BRANCH  52  66
ATOM     66  C   UNL A   1      47.206  27.494  26.026  1.00  0.00     0.023 A 
ATOM     67  C   UNL A   1      47.234  27.501  24.616  1.00  0.00     0.012 A 
ATOM     68  C   UNL A   1      48.258  26.881  26.733  1.00  0.00     0.148 A 
ATOM     69  C   UNL A   1      48.270  26.876  23.923  1.00  0.00     0.002 A 
ATOM     70  C   UNL A   1      49.312  26.302  26.036  1.00  0.00     0.091 A 
ATOM     71  F   UNL A   1      48.204  26.866  28.073  1.00  0.00    -0.205 F 
ATOM     72  C   UNL A   1      49.312  26.287  24.632  1.00  0.00     0.022 A 
BRANCH  70  73
ATOM     73  S   UNL A   1      50.741  25.588  26.858  1.00  0.00     0.127 S 
ATOM     74  O   UNL A   1      50.159  24.398  27.479  1.00  0.00    -0.237 OA
ATOM     75  O   UNL A   1      51.635  25.312  25.733  1.00  0.00    -0.237 OA
ATOM     76  O   UNL A   1      51.224  26.603  27.784  1.00  0.00    -0.744 OA
ENDBRANCH  70  73
ENDBRANCH  52  66
BRANCH  53  77
ATOM     77  C   UNL A   1      39.604  31.541  31.079  1.00  0.00     0.023 A 
ATOM     78  C   UNL A   1      38.574  32.240  30.419  1.00  0.00     0.012 A 
ATOM     79  C   UNL A   1      39.568  31.433  32.483  1.00  0.00     0.148 A 
ATOM     80  C   UNL A   1      37.548  32.848  31.144  1.00  0.00     0.002 A 
ATOM     81  C   UNL A   1      38.513  31.992  33.194  1.00  0.00     0.091 A 
ATOM     82  F   UNL A   1      40.568  30.783  33.095  1.00  0.00    -0.205 F 
ATOM     83  C   UNL A   1      37.512  32.716  32.529  1.00  0.00     0.022 A 
BRANCH  81  84
ATOM     84  S   UNL A   1      38.320  31.772  34.967  1.00  0.00     0.127 S 
ATOM     85  O   UNL A   1      37.014  32.383  35.203  1.00  0.00    -0.237 OA
ATOM     86  O   UNL A   1      38.351  30.315  35.093  1.00  0.00    -0.237 OA
ATOM     87  O   UNL A   1      39.454  32.454  35.575  1.00  0.00    -0.744 OA
ENDBRANCH  81  84
ENDBRANCH  53  77
BRANCH  65  88
ATOM     88  C   UNL A   1      45.849  33.910  29.042  1.00  0.00     0.023 A 
ATOM     89  C   UNL A   1      46.738  34.108  30.116  1.00  0.00     0.012 A 
ATOM     90  C   UNL A   1      45.663  34.942  28.100  1.00  0.00     0.148 A 
ATOM     91  C   UNL A   1      47.397  35.328  30.277  1.00  0.00     0.002 A 
ATOM     92  C   UNL A   1      46.365  36.136  28.237  1.00  0.00     0.091 A 
ATOM     93  F   UNL A   1      44.802  34.744  27.093  1.00  0.00    -0.205 F 
ATOM     94  C   UNL A   1      47.219  36.336  29.332  1.00  0.00     0.022 A 
BRANCH  92  95
ATOM     95  S   UNL A   1      46.272  37.448  27.014  1.00  0.00     0.127 S 
ATOM     96  O   UNL A   1      46.903  36.821  25.854  1.00  0.00    -0.237 OA
ATOM     97  O   UNL A   1      44.829  37.654  26.886  1.00  0.00    -0.237 OA
ATOM     98  O   UNL A   1      46.993  38.579  27.584  1.00  0.00    -0.744 OA
ENDBRANCH  92  95
ENDBRANCH  65  88
ENDBRANCH  39  40
ENDBRANCH  32  34
ENDBRANCH  31  32
ENDBRANCH  30  31
ENDBRANCH  29  30
ENDBRANCH  28  29
ENDBRANCH  27  28
ENDBRANCH   1  27
TORSDOF 23
ENDMDL
MODEL 2
REMARK VINA RESULT:     -10.2      2.341      7.707
REMARK SMILES C[C@H](Nc1ccc2c(c1)Cc1ccccc1-2)[C@@H](C)C(=O)OCCOCCOCCOC(=O)c1ccc(-c2c3nc(c(-c4cccc(S(=O)(=O)[O-])c4F)c4ccc([nH]4)c(-c4cccc(S(=O)(=O)[O-])c4F)c4nc(c(-c5cccc(S(=O)(=O)[O-])c5F)c5ccc2[nH]5)C=C4)C=C3)cc1
REMARK SMILES IDX 25 1 24 2 23 3 22 4 21 5 19 6 20 7 17 8 18 9 2 10 1 11 3 12
REMARK SMILES IDX 4 14 5 15 9 16 6 17 8 18 7 19 10 20 16 21 11 22 15 23 12 24
REMARK SMILES IDX 14 25 13 26 26 27 27 28 28 29 29 30 30 31 31 32 32 33 33 34
REMARK SMILES IDX 34 35 95 36 35 37 94 38 36 39 37 40 38 41 88 42 39 43 93 44
REMARK SMILES IDX 87 45 89 46 40 47 92 48 86 49 85 50 41 52 73 53 53 54 72 55
REMARK SMILES IDX 54 56 57 57 71 58 90 59 55 60 56 61 70 63 91 64 58 65 42 66
REMARK SMILES IDX 43 67 51 68 44 69 46 70 52 71 45 72 47 73 48 74 49 75 50 76
REMARK SMILES IDX 74 77 75 78 83 79 76 80 78 81 84 82 77 83 79 84 80 85 81 86
REMARK SMILES IDX 82 87 59 88 60 89 68 90 61 91 63 92 69 93 62 94 64 95 65 96
REMARK SMILES IDX 66 97 67 98
REMARK H PARENT 3 13 89 51 57 62
REMARK Flexibility Score: inf
ROOT
ATOM      1  C   UNL A   1      36.667  23.123  25.538  1.00  0.00     0.188 C 
ENDROOT
BRANCH   1   2
ATOM      2  O   UNL A   1      35.423  22.912  24.881  1.00  0.00    -0.376 OA
BRANCH   2   3
ATOM      3  C   UNL A   1      35.344  23.150  23.486  1.00  0.00     0.202 C 
BRANCH   3   4
ATOM      4  C   UNL A   1      34.372  24.252  23.033  1.00  0.00     0.261 C 
BRANCH   4   5
ATOM      5  O   UNL A   1      34.063  25.317  23.975  1.00  0.00    -0.463 OA
BRANCH   5   6
ATOM      6  C   UNL A   1      33.154  26.234  23.540  1.00  0.00     0.310 C 
ATOM      7  O   UNL A   1      33.373  27.013  22.618  1.00  0.00    -0.252 OA
BRANCH   6   8
ATOM      8  C   UNL A   1      31.893  26.372  24.401  1.00  0.00     0.118 C 
ATOM      9  C   UNL A   1      32.369  26.291  25.855  1.00  0.00     0.022 C 
BRANCH   8  10
ATOM     10  C   UNL A   1      30.651  25.474  24.111  1.00  0.00     0.090 C 
ATOM     11  C   UNL A   1      29.346  26.220  24.404  1.00  0.00     0.031 C 
BRANCH  10  12
ATOM     12  N   UNL A   1      30.760  24.206  24.888  1.00  0.00    -0.382 N 
ATOM     13  H   UNL A   1      30.380  24.210  25.796  1.00  0.00     0.160 HD
BRANCH  12  14
ATOM     14  C   UNL A   1      31.342  23.018  24.460  1.00  0.00     0.035 A 
ATOM     15  C   UNL A   1      31.371  22.634  23.104  1.00  0.00     0.026 A 
ATOM     16  C   UNL A   1      31.826  22.117  25.422  1.00  0.00     0.030 A 
ATOM     17  C   UNL A   1      31.830  21.368  22.697  1.00  0.00     0.011 A 
ATOM     18  C   UNL A   1      32.286  20.869  25.017  1.00  0.00    -0.034 A 
ATOM     19  C   UNL A   1      32.273  20.482  23.663  1.00  0.00    -0.014 A 
ATOM     20  C   UNL A   1      32.823  19.745  25.883  1.00  0.00     0.072 C 
ATOM     21  C   UNL A   1      32.771  19.122  23.563  1.00  0.00    -0.015 A 
ATOM     22  C   UNL A   1      33.128  18.676  24.855  1.00  0.00    -0.036 A 
ATOM     23  C   UNL A   1      32.910  18.279  22.473  1.00  0.00     0.009 A 
ATOM     24  C   UNL A   1      33.656  17.412  25.070  1.00  0.00     0.005 A 
ATOM     25  C   UNL A   1      33.435  16.997  22.682  1.00  0.00     0.001 A 
ATOM     26  C   UNL A   1      33.814  16.572  23.967  1.00  0.00     0.000 A 
ENDBRANCH  12  14
ENDBRANCH  10  12
ENDBRANCH   8  10
ENDBRANCH   6   8
ENDBRANCH   5   6
ENDBRANCH   4   5
ENDBRANCH   3   4
ENDBRANCH   2   3
ENDBRANCH   1   2
BRANCH   1  27
ATOM     27  C   UNL A   1      37.656  21.962  25.600  1.00  0.00     0.188 C 
BRANCH  27  28
ATOM     28  O   UNL A   1      37.085  20.746  25.132  1.00  0.00    -0.376 OA
BRANCH  28  29
ATOM     29  C   UNL A   1      38.036  19.692  25.039  1.00  0.00     0.202 C 
BRANCH  29  30
ATOM     30  C   UNL A   1      39.383  20.211  25.547  1.00  0.00     0.261 C 
BRANCH  30  31
ATOM     31  O   UNL A   1      40.284  19.175  25.991  1.00  0.00    -0.460 OA
BRANCH  31  32
ATOM     32  C   UNL A   1      41.591  19.508  26.063  1.00  0.00     0.338 C 
ATOM     33  O   UNL A   1      42.532  18.821  25.672  1.00  0.00    -0.246 OA
BRANCH  32  34
ATOM     34  C   UNL A   1      41.727  20.910  26.514  1.00  0.00     0.060 A 
ATOM     35  C   UNL A   1      41.419  21.935  25.611  1.00  0.00     0.016 A 
ATOM     36  C   UNL A   1      42.206  21.226  27.789  1.00  0.00     0.016 A 
ATOM     37  C   UNL A   1      41.640  23.269  25.951  1.00  0.00     0.010 A 
ATOM     38  C   UNL A   1      42.444  22.564  28.124  1.00  0.00     0.010 A 
ATOM     39  C   UNL A   1      42.207  23.590  27.190  1.00  0.00    -0.014 A 
BRANCH  39  40
ATOM     40  C   UNL A   1      42.742  24.958  27.418  1.00  0.00     0.031 A 
ATOM     41  C   UNL A   1      41.853  25.974  28.089  1.00  0.00     0.074 A 
ATOM     42  C   UNL A   1      43.998  25.293  27.071  1.00  0.00     0.049 A 
ATOM     43  N   UNL A   1      42.089  27.230  28.369  1.00  0.00    -0.248 NA
ATOM     44  C   UNL A   1      40.517  25.511  28.497  1.00  0.00     0.031 C 
ATOM     45  C   UNL A   1      44.968  24.404  26.437  1.00  0.00     0.029 A 
ATOM     46  N   UNL A   1      44.666  26.488  27.194  1.00  0.00    -0.354 N 
ATOM     47  C   UNL A   1      40.922  27.715  28.950  1.00  0.00     0.074 A 
ATOM     48  C   UNL A   1      39.975  26.622  28.971  1.00  0.00     0.031 C 
ATOM     49  C   UNL A   1      46.102  25.089  26.205  1.00  0.00     0.029 A 
ATOM     50  C   UNL A   1      45.929  26.472  26.650  1.00  0.00     0.049 A 
ATOM     51  H   UNL A   1      44.278  27.281  27.629  1.00  0.00     0.167 HD
ATOM     52  C   UNL A   1      40.662  28.952  29.438  1.00  0.00     0.034 A 
ATOM     53  C   UNL A   1      46.832  27.463  26.509  1.00  0.00     0.034 A 
ATOM     54  C   UNL A   1      41.611  30.032  29.445  1.00  0.00     0.049 A 
ATOM     55  C   UNL A   1      46.513  28.837  27.042  1.00  0.00     0.074 A 
ATOM     56  C   UNL A   1      41.453  31.311  29.948  1.00  0.00     0.029 A 
ATOM     57  N   UNL A   1      42.891  29.965  28.918  1.00  0.00    -0.354 N 
ATOM     58  N   UNL A   1      45.440  29.254  27.672  1.00  0.00    -0.248 NA
ATOM     59  C   UNL A   1      47.547  29.870  26.877  1.00  0.00     0.031 C 
ATOM     60  C   UNL A   1      42.628  32.028  29.698  1.00  0.00     0.029 A 
ATOM     61  C   UNL A   1      43.532  31.183  29.075  1.00  0.00     0.049 A 
ATOM     62  H   UNL A   1      43.286  29.169  28.494  1.00  0.00     0.167 HD
ATOM     63  C   UNL A   1      45.687  30.581  28.011  1.00  0.00     0.074 A 
ATOM     64  C   UNL A   1      47.018  30.893  27.537  1.00  0.00     0.031 C 
ATOM     65  C   UNL A   1      44.879  31.466  28.647  1.00  0.00     0.034 A 
BRANCH  52  66
ATOM     66  C   UNL A   1      39.292  29.200  30.015  1.00  0.00     0.023 A 
ATOM     67  C   UNL A   1      38.985  28.750  31.316  1.00  0.00     0.012 A 
ATOM     68  C   UNL A   1      38.324  29.916  29.286  1.00  0.00     0.148 A 
ATOM     69  C   UNL A   1      37.723  28.975  31.865  1.00  0.00     0.002 A 
ATOM     70  C   UNL A   1      37.085  30.179  29.859  1.00  0.00     0.091 A 
ATOM     71  F   UNL A   1      38.627  30.317  28.043  1.00  0.00    -0.205 F 
ATOM     72  C   UNL A   1      36.779  29.697  31.142  1.00  0.00     0.022 A 
BRANCH  70  73
ATOM     73  S   UNL A   1      35.829  31.168  29.040  1.00  0.00     0.127 S 
ATOM     74  O   UNL A   1      36.645  32.176  28.362  1.00  0.00    -0.237 OA
ATOM     75  O   UNL A   1      35.202  30.192  28.149  1.00  0.00    -0.237 OA
ATOM     76  O   UNL A   1      34.963  31.674  30.096  1.00  0.00    -0.744 OA
ENDBRANCH  70  73
ENDBRANCH  52  66
BRANCH  53  77
ATOM     77  C   UNL A   1      48.145  27.193  25.853  1.00  0.00     0.023 A 
ATOM     78  C   UNL A   1      49.225  26.715  26.622  1.00  0.00     0.012 A 
ATOM     79  C   UNL A   1      48.330  27.412  24.474  1.00  0.00     0.148 A 
ATOM     80  C   UNL A   1      50.473  26.493  26.037  1.00  0.00     0.002 A 
ATOM     81  C   UNL A   1      49.558  27.136  23.887  1.00  0.00     0.091 A 
ATOM     82  F   UNL A   1      47.297  27.887  23.764  1.00  0.00    -0.205 F 
ATOM     83  C   UNL A   1      50.636  26.694  24.669  1.00  0.00     0.022 A 
BRANCH  81  84
ATOM     84  S   UNL A   1      49.829  27.250  22.115  1.00  0.00     0.127 S 
ATOM     85  O   UNL A   1      48.746  26.420  21.594  1.00  0.00    -0.237 OA
ATOM     86  O   UNL A   1      49.674  28.685  21.879  1.00  0.00    -0.237 OA
ATOM     87  O   UNL A   1      51.176  26.745  21.888  1.00  0.00    -0.744 OA
ENDBRANCH  81  84
ENDBRANCH  53  77
BRANCH  65  88
ATOM     88  C   UNL A   1      45.424  32.846  28.919  1.00  0.00     0.023 A 
ATOM     89  C   UNL A   1      46.351  33.049  29.961  1.00  0.00     0.012 A 
ATOM     90  C   UNL A   1      45.059  33.934  28.101  1.00  0.00     0.148 A 
ATOM     91  C   UNL A   1      46.869  34.319  30.214  1.00  0.00     0.002 A 
ATOM     92  C   UNL A   1      45.621  35.186  28.324  1.00  0.00     0.091 A 
ATOM     93  F   UNL A   1      44.164  33.729  27.124  1.00  0.00    -0.205 F 
ATOM     94  C   UNL A   1      46.514  35.384  29.389  1.00  0.00     0.022 A 
BRANCH  92  95
ATOM     95  S   UNL A   1      45.297  36.590  27.250  1.00  0.00     0.127 S 
ATOM     96  O   UNL A   1      45.379  37.708  28.187  1.00  0.00    -0.237 OA
ATOM     97  O   UNL A   1      46.402  36.513  26.295  1.00  0.00    -0.237 OA
ATOM     98  O   UNL A   1      43.981  36.354  26.670  1.00  0.00    -0.744 OA
ENDBRANCH  92  95
ENDBRANCH  65  88
ENDBRANCH  39  40
ENDBRANCH  32  34
ENDBRANCH  31  32
ENDBRANCH  30  31
ENDBRANCH  29  30
ENDBRANCH  28  29
ENDBRANCH  27  28
ENDBRANCH   1  27
TORSDOF 23
ENDMDL
MODEL 3
REMARK VINA RESULT:     -10.2      4.920      8.866
REMARK SMILES C[C@H](Nc1ccc2c(c1)Cc1ccccc1-2)[C@@H](C)C(=O)OCCOCCOCCOC(=O)c1ccc(-c2c3nc(c(-c4cccc(S(=O)(=O)[O-])c4F)c4ccc([nH]4)c(-c4cccc(S(=O)(=O)[O-])c4F)c4nc(c(-c5cccc(S(=O)(=O)[O-])c5F)c5ccc2[nH]5)C=C4)C=C3)cc1
REMARK SMILES IDX 25 1 24 2 23 3 22 4 21 5 19 6 20 7 17 8 18 9 2 10 1 11 3 12
REMARK SMILES IDX 4 14 5 15 9 16 6 17 8 18 7 19 10 20 16 21 11 22 15 23 12 24
REMARK SMILES IDX 14 25 13 26 26 27 27 28 28 29 29 30 30 31 31 32 32 33 33 34
REMARK SMILES IDX 34 35 95 36 35 37 94 38 36 39 37 40 38 41 88 42 39 43 93 44
REMARK SMILES IDX 87 45 89 46 40 47 92 48 86 49 85 50 41 52 73 53 53 54 72 55
REMARK SMILES IDX 54 56 57 57 71 58 90 59 55 60 56 61 70 63 91 64 58 65 42 66
REMARK SMILES IDX 43 67 51 68 44 69 46 70 52 71 45 72 47 73 48 74 49 75 50 76
REMARK SMILES IDX 74 77 75 78 83 79 76 80 78 81 84 82 77 83 79 84 80 85 81 86
REMARK SMILES IDX 82 87 59 88 60 89 68 90 61 91 63 92 69 93 62 94 64 95 65 96
REMARK SMILES IDX 66 97 67 98
REMARK H PARENT 3 13 89 51 57 62
REMARK Flexibility Score: inf
ROOT
ATOM      1  C   UNL A   1      34.076  28.681  26.582  1.00  0.00     0.188 C 
ENDROOT
BRANCH   1   2
ATOM      2  O   UNL A   1      32.922  27.855  26.694  1.00  0.00    -0.376 OA
BRANCH   2   3
ATOM      3  C   UNL A   1      32.899  26.625  25.991  1.00  0.00     0.202 C 
BRANCH   3   4
ATOM      4  C   UNL A   1      34.263  26.011  25.637  1.00  0.00     0.261 C 
BRANCH   4   5
ATOM      5  O   UNL A   1      34.307  24.596  25.302  1.00  0.00    -0.463 OA
BRANCH   5   6
ATOM      6  C   UNL A   1      33.789  23.758  26.243  1.00  0.00     0.310 C 
ATOM      7  O   UNL A   1      34.474  23.182  27.082  1.00  0.00    -0.252 OA
BRANCH   6   8
ATOM      8  C   UNL A   1      32.302  23.420  26.079  1.00  0.00     0.118 C 
ATOM      9  C   UNL A   1      31.838  22.906  27.446  1.00  0.00     0.022 C 
BRANCH   8  10
ATOM     10  C   UNL A   1      31.835  22.520  24.894  1.00  0.00     0.090 C 
ATOM     11  C   UNL A   1      32.514  21.149  24.938  1.00  0.00     0.031 C 
BRANCH  10  12
ATOM     12  N   UNL A   1      32.079  23.226  23.604  1.00  0.00    -0.382 N 
ATOM     13  H   UNL A   1      32.660  22.771  22.954  1.00  0.00     0.160 HD
BRANCH  12  14
ATOM     14  C   UNL A   1      31.567  24.462  23.225  1.00  0.00     0.035 A 
ATOM     15  C   UNL A   1      32.339  25.426  22.545  1.00  0.00     0.026 A 
ATOM     16  C   UNL A   1      30.267  24.808  23.627  1.00  0.00     0.030 A 
ATOM     17  C   UNL A   1      31.860  26.725  22.297  1.00  0.00     0.011 A 
ATOM     18  C   UNL A   1      29.793  26.091  23.374  1.00  0.00    -0.034 A 
ATOM     19  C   UNL A   1      30.588  27.057  22.729  1.00  0.00    -0.014 A 
ATOM     20  C   UNL A   1      28.443  26.677  23.741  1.00  0.00     0.072 C 
ATOM     21  C   UNL A   1      29.839  28.297  22.647  1.00  0.00    -0.015 A 
ATOM     22  C   UNL A   1      28.561  28.090  23.212  1.00  0.00    -0.036 A 
ATOM     23  C   UNL A   1      30.188  29.543  22.152  1.00  0.00     0.009 A 
ATOM     24  C   UNL A   1      27.612  29.101  23.257  1.00  0.00     0.005 A 
ATOM     25  C   UNL A   1      29.238  30.572  22.202  1.00  0.00     0.001 A 
ATOM     26  C   UNL A   1      27.959  30.349  22.741  1.00  0.00     0.000 A 
ENDBRANCH  12  14
ENDBRANCH  10  12
ENDBRANCH   8  10
ENDBRANCH   6   8
ENDBRANCH   5   6
ENDBRANCH   4   5
ENDBRANCH   3   4
ENDBRANCH   2   3
ENDBRANCH   1   2
BRANCH   1  27
ATOM     27  C   UNL A   1      33.956  30.146  26.994  1.00  0.00     0.188 C 
BRANCH  27  28
ATOM     28  O   UNL A   1      32.672  30.450  27.525  1.00  0.00    -0.376 OA
BRANCH  28  29
ATOM     29  C   UNL A   1      31.858  31.177  26.613  1.00  0.00     0.202 C 
BRANCH  29  30
ATOM     30  C   UNL A   1      31.968  32.666  26.946  1.00  0.00     0.261 C 
BRANCH  30  31
ATOM     31  O   UNL A   1      33.296  33.091  27.317  1.00  0.00    -0.460 OA
BRANCH  31  32
ATOM     32  C   UNL A   1      33.375  34.088  28.225  1.00  0.00     0.338 C 
ATOM     33  O   UNL A   1      32.649  35.078  28.272  1.00  0.00    -0.246 OA
BRANCH  32  34
ATOM     34  C   UNL A   1      34.347  33.729  29.281  1.00  0.00     0.060 A 
ATOM     35  C   UNL A   1      35.519  34.486  29.395  1.00  0.00     0.016 A 
ATOM     36  C   UNL A   1      34.145  32.628  30.117  1.00  0.00     0.016 A 
ATOM     37  C   UNL A   1      36.516  34.118  30.299  1.00  0.00     0.010 A 
ATOM     38  C   UNL A   1      35.152  32.248  31.012  1.00  0.00     0.010 A 
ATOM     39  C   UNL A   1      36.363  32.963  31.074  1.00  0.00    -0.014 A 
BRANCH  39  40
ATOM     40  C   UNL A   1      37.542  32.394  31.780  1.00  0.00     0.031 A 
ATOM     41  C   UNL A   1      38.338  31.313  31.093  1.00  0.00     0.074 A 
ATOM     42  C   UNL A   1      37.926  32.842  32.989  1.00  0.00     0.049 A 
ATOM     43  N   UNL A   1      39.383  30.652  31.518  1.00  0.00    -0.248 NA
ATOM     44  C   UNL A   1      37.892  30.925  29.745  1.00  0.00     0.031 C 
ATOM     45  C   UNL A   1      37.261  33.895  33.753  1.00  0.00     0.029 A 
ATOM     46  N   UNL A   1      38.969  32.450  33.793  1.00  0.00    -0.354 N 
ATOM     47  C   UNL A   1      39.696  29.747  30.510  1.00  0.00     0.074 A 
ATOM     48  C   UNL A   1      38.722  29.936  29.457  1.00  0.00     0.031 C 
ATOM     49  C   UNL A   1      37.899  34.052  34.926  1.00  0.00     0.029 A 
ATOM     50  C   UNL A   1      39.001  33.092  35.008  1.00  0.00     0.049 A 
ATOM     51  H   UNL A   1      39.631  31.772  33.525  1.00  0.00     0.167 HD
ATOM     52  C   UNL A   1      40.710  28.851  30.453  1.00  0.00     0.034 A 
ATOM     53  C   UNL A   1      39.811  32.913  36.070  1.00  0.00     0.034 A 
ATOM     54  C   UNL A   1      41.696  28.681  31.485  1.00  0.00     0.049 A 
ATOM     55  C   UNL A   1      40.921  31.895  35.991  1.00  0.00     0.074 A 
ATOM     56  C   UNL A   1      42.782  27.823  31.504  1.00  0.00     0.029 A 
ATOM     57  N   UNL A   1      41.715  29.376  32.684  1.00  0.00    -0.354 N 
ATOM     58  N   UNL A   1      41.259  31.112  34.994  1.00  0.00    -0.248 NA
ATOM     59  C   UNL A   1      41.785  31.760  37.174  1.00  0.00     0.031 C 
ATOM     60  C   UNL A   1      43.440  27.978  32.729  1.00  0.00     0.029 A 
ATOM     61  C   UNL A   1      42.788  28.961  33.455  1.00  0.00     0.049 A 
ATOM     62  H   UNL A   1      41.061  30.064  32.948  1.00  0.00     0.167 HD
ATOM     63  C   UNL A   1      42.395  30.425  35.414  1.00  0.00     0.074 A 
ATOM     64  C   UNL A   1      42.699  30.898  36.748  1.00  0.00     0.031 C 
ATOM     65  C   UNL A   1      43.113  29.478  34.761  1.00  0.00     0.034 A 
BRANCH  52  66
ATOM     66  C   UNL A   1      40.806  27.985  29.223  1.00  0.00     0.023 A 
ATOM     67  C   UNL A   1      39.972  26.856  29.089  1.00  0.00     0.012 A 
ATOM     68  C   UNL A   1      41.693  28.316  28.180  1.00  0.00     0.148 A 
ATOM     69  C   UNL A   1      40.048  26.048  27.955  1.00  0.00     0.002 A 
ATOM     70  C   UNL A   1      41.728  27.533  27.031  1.00  0.00     0.091 A 
ATOM     71  F   UNL A   1      42.493  29.380  28.334  1.00  0.00    -0.205 F 
ATOM     72  C   UNL A   1      40.917  26.392  26.925  1.00  0.00     0.022 A 
BRANCH  70  73
ATOM     73  S   UNL A   1      42.755  27.937  25.614  1.00  0.00     0.127 S 
ATOM     74  O   UNL A   1      42.813  26.653  24.917  1.00  0.00    -0.237 OA
ATOM     75  O   UNL A   1      41.956  28.961  24.940  1.00  0.00    -0.237 OA
ATOM     76  O   UNL A   1      44.021  28.411  26.155  1.00  0.00    -0.744 OA
ENDBRANCH  70  73
ENDBRANCH  52  66
BRANCH  53  77
ATOM     77  C   UNL A   1      39.626  33.734  37.302  1.00  0.00     0.023 A 
ATOM     78  C   UNL A   1      40.219  35.009  37.388  1.00  0.00     0.012 A 
ATOM     79  C   UNL A   1      38.869  33.256  38.390  1.00  0.00     0.148 A 
ATOM     80  C   UNL A   1      40.091  35.777  38.547  1.00  0.00     0.002 A 
ATOM     81  C   UNL A   1      38.698  34.049  39.518  1.00  0.00     0.091 A 
ATOM     82  F   UNL A   1      38.330  32.032  38.298  1.00  0.00    -0.205 F 
ATOM     83  C   UNL A   1      39.323  35.302  39.606  1.00  0.00     0.022 A 
BRANCH  81  84
ATOM     84  S   UNL A   1      37.631  33.572  40.881  1.00  0.00     0.127 S 
ATOM     85  O   UNL A   1      38.495  32.666  41.634  1.00  0.00    -0.237 OA
ATOM     86  O   UNL A   1      37.375  34.859  41.527  1.00  0.00    -0.237 OA
ATOM     87  O   UNL A   1      36.458  32.962  40.269  1.00  0.00    -0.744 OA
ENDBRANCH  81  84
ENDBRANCH  53  77
BRANCH  65  88
ATOM     88  C   UNL A   1      44.334  28.922  35.450  1.00  0.00     0.023 A 
ATOM     89  C   UNL A   1      45.601  29.492  35.216  1.00  0.00     0.012 A 
ATOM     90  C   UNL A   1      44.214  27.866  36.376  1.00  0.00     0.148 A 
ATOM     91  C   UNL A   1      46.735  28.991  35.857  1.00  0.00     0.002 A 
ATOM     92  C   UNL A   1      45.340  27.408  37.053  1.00  0.00     0.091 A 
ATOM     93  F   UNL A   1      43.004  27.323  36.576  1.00  0.00    -0.205 F 
ATOM     94  C   UNL A   1      46.603  27.959  36.783  1.00  0.00     0.022 A 
BRANCH  92  95
ATOM     95  S   UNL A   1      45.246  26.152  38.333  1.00  0.00     0.127 S 
ATOM     96  O   UNL A   1      44.284  26.742  39.261  1.00  0.00    -0.237 OA
ATOM     97  O   UNL A   1      44.747  24.991  37.594  1.00  0.00    -0.237 OA
ATOM     98  O   UNL A   1      46.601  26.001  38.846  1.00  0.00    -0.744 OA
ENDBRANCH  92  95
ENDBRANCH  65  88
ENDBRANCH  39  40
ENDBRANCH  32  34
ENDBRANCH  31  32
ENDBRANCH  30  31
ENDBRANCH  29  30
ENDBRANCH  28  29
ENDBRANCH  27  28
ENDBRANCH   1  27
TORSDOF 23
ENDMDL
