MODEL 1
REMARK VINA RESULT:      -7.9      0.000      0.000
REMARK SMILES CCOc1cncc(N(CC(=O)OCCOCCOCCOC(=O)c2ccc(-c3c4nc(c(-c5cccc(S(=O)(=O)[O-])c5F)c5ccc([nH]5)c(-c5cccc(S(=O)(=O)[O-])c5F)c5nc(c(-c6cccc(S(=O)(=O)[O-])c6F)c6ccc3[nH]6)C=C5)C=C4)cc2)C(C)(C)C)n1
REMARK SMILES IDX 17 1 16 2 15 3 14 4 13 5 11 6 12 7 10 8 9 9 8 10 4 11 5 12
REMARK SMILES IDX 92 13 6 14 7 15 3 16 2 17 1 18 88 19 89 20 90 21 91 22 18 23
REMARK SMILES IDX 19 24 20 25 21 26 22 27 23 28 24 29 25 30 26 31 87 32 27 33
REMARK SMILES IDX 86 34 28 35 29 36 30 37 80 38 31 39 85 40 79 41 81 42 32 43
REMARK SMILES IDX 84 44 78 45 77 46 33 48 65 49 45 50 64 51 46 52 49 53 63 54
REMARK SMILES IDX 82 55 47 56 48 57 62 59 83 60 50 61 34 62 35 63 43 64 36 65
REMARK SMILES IDX 38 66 44 67 37 68 39 69 40 70 41 71 42 72 66 73 67 74 75 75
REMARK SMILES IDX 68 76 70 77 76 78 69 79 71 80 72 81 73 82 74 83 51 84 52 85
REMARK SMILES IDX 60 86 53 87 55 88 61 89 54 90 56 91 57 92 58 93 59 94
REMARK H PARENT 81 47 49 58
REMARK Flexibility Score: inf
ROOT
ATOM      1  C   UNL A   1      43.239  42.573  24.141  1.00  0.00     0.188 C 
ENDROOT
BRANCH   1   2
ATOM      2  O   UNL A   1      42.431  41.777  23.272  1.00  0.00    -0.376 OA
BRANCH   2   3
ATOM      3  C   UNL A   1      41.475  42.466  22.469  1.00  0.00     0.202 C 
BRANCH   3   4
ATOM      4  C   UNL A   1      42.077  43.346  21.371  1.00  0.00     0.261 C 
BRANCH   4   5
ATOM      5  O   UNL A   1      42.491  42.557  20.240  1.00  0.00    -0.462 OA
BRANCH   5   6
ATOM      6  C   UNL A   1      42.520  43.229  19.060  1.00  0.00     0.325 C 
ATOM      7  O   UNL A   1      42.481  42.687  17.959  1.00  0.00    -0.250 OA
BRANCH   6   8
ATOM      8  C   UNL A   1      42.520  44.749  19.244  1.00  0.00     0.241 C 
BRANCH   8   9
ATOM      9  N   UNL A   1      43.813  45.434  18.981  1.00  0.00    -0.339 N 
BRANCH   9  10
ATOM     10  C   UNL A   1      44.969  44.946  19.611  1.00  0.00     0.152 A 
ATOM     11  C   UNL A   1      46.470  45.015  21.383  1.00  0.00     0.234 A 
ATOM     12  C   UNL A   1      47.247  44.023  20.825  1.00  0.00     0.179 A 
ATOM     13  N   UNL A   1      45.334  45.467  20.807  1.00  0.00    -0.193 NA
ATOM     14  N   UNL A   1      46.941  43.468  19.640  1.00  0.00    -0.255 NA
ATOM     15  C   UNL A   1      45.802  43.951  19.066  1.00  0.00     0.158 A 
BRANCH  11  16
ATOM     16  O   UNL A   1      46.811  45.532  22.605  1.00  0.00    -0.477 OA
BRANCH  16  17
ATOM     17  C   UNL A   1      46.700  44.531  23.622  1.00  0.00     0.228 C 
ATOM     18  C   UNL A   1      47.286  45.075  24.917  1.00  0.00     0.049 C 
ENDBRANCH  16  17
ENDBRANCH  11  16
ENDBRANCH   9  10
BRANCH   9  19
ATOM     19  C   UNL A   1      43.964  46.397  17.833  1.00  0.00     0.034 C 
ATOM     20  C   UNL A   1      42.834  46.207  16.790  1.00  0.00     0.034 C 
ATOM     21  C   UNL A   1      43.993  47.861  18.326  1.00  0.00     0.034 C 
ATOM     22  C   UNL A   1      45.300  46.205  17.085  1.00  0.00     0.034 C 
ENDBRANCH   9  19
ENDBRANCH   8   9
ENDBRANCH   6   8
ENDBRANCH   5   6
ENDBRANCH   4   5
ENDBRANCH   3   4
ENDBRANCH   2   3
ENDBRANCH   1   2
BRANCH   1  23
ATOM     23  C   UNL A   1      43.466  42.007  25.552  1.00  0.00     0.188 C 
BRANCH  23  24
ATOM     24  O   UNL A   1      42.895  40.729  25.821  1.00  0.00    -0.376 OA
BRANCH  24  25
ATOM     25  C   UNL A   1      41.807  40.713  26.740  1.00  0.00     0.202 C 
BRANCH  25  26
ATOM     26  C   UNL A   1      42.082  39.861  27.977  1.00  0.00     0.261 C 
BRANCH  26  27
ATOM     27  O   UNL A   1      41.612  38.519  27.758  1.00  0.00    -0.460 OA
BRANCH  27  28
ATOM     28  C   UNL A   1      42.595  37.634  27.480  1.00  0.00     0.338 C 
ATOM     29  O   UNL A   1      43.428  37.720  26.591  1.00  0.00    -0.246 OA
BRANCH  28  30
ATOM     30  C   UNL A   1      42.560  36.530  28.452  1.00  0.00     0.060 A 
ATOM     31  C   UNL A   1      43.709  36.212  29.175  1.00  0.00     0.016 A 
ATOM     32  C   UNL A   1      41.438  35.712  28.527  1.00  0.00     0.016 A 
ATOM     33  C   UNL A   1      43.774  35.025  29.911  1.00  0.00     0.010 A 
ATOM     34  C   UNL A   1      41.480  34.553  29.310  1.00  0.00     0.010 A 
ATOM     35  C   UNL A   1      42.666  34.167  29.964  1.00  0.00    -0.014 A 
BRANCH  35  36
ATOM     36  C   UNL A   1      42.776  32.812  30.580  1.00  0.00     0.031 A 
ATOM     37  C   UNL A   1      42.357  32.616  32.018  1.00  0.00     0.074 A 
ATOM     38  C   UNL A   1      43.233  31.755  29.881  1.00  0.00     0.049 A 
ATOM     39  N   UNL A   1      42.529  31.581  32.799  1.00  0.00    -0.248 NA
ATOM     40  C   UNL A   1      41.666  33.743  32.665  1.00  0.00     0.031 C 
ATOM     41  C   UNL A   1      43.641  31.780  28.477  1.00  0.00     0.029 A 
ATOM     42  N   UNL A   1      43.442  30.452  30.266  1.00  0.00    -0.354 N 
ATOM     43  C   UNL A   1      42.044  31.959  34.045  1.00  0.00     0.074 A 
ATOM     44  C   UNL A   1      41.555  33.314  33.914  1.00  0.00     0.031 C 
ATOM     45  C   UNL A   1      44.041  30.550  28.114  1.00  0.00     0.029 A 
ATOM     46  C   UNL A   1      43.980  29.663  29.274  1.00  0.00     0.049 A 
ATOM     47  H   UNL A   1      43.228  30.114  31.166  1.00  0.00     0.167 HD
ATOM     48  C   UNL A   1      41.999  31.244  35.195  1.00  0.00     0.034 A 
ATOM     49  C   UNL A   1      44.410  28.384  29.303  1.00  0.00     0.034 A 
ATOM     50  C   UNL A   1      42.400  29.869  35.313  1.00  0.00     0.049 A 
ATOM     51  C   UNL A   1      44.328  27.603  30.587  1.00  0.00     0.074 A 
ATOM     52  C   UNL A   1      42.361  29.054  36.431  1.00  0.00     0.029 A 
ATOM     53  N   UNL A   1      42.895  29.097  34.274  1.00  0.00    -0.354 N 
ATOM     54  N   UNL A   1      43.839  27.969  31.747  1.00  0.00    -0.248 NA
ATOM     55  C   UNL A   1      44.853  26.229  30.562  1.00  0.00     0.031 C 
ATOM     56  C   UNL A   1      42.832  27.787  36.065  1.00  0.00     0.029 A 
ATOM     57  C   UNL A   1      43.159  27.815  34.721  1.00  0.00     0.049 A 
ATOM     58  H   UNL A   1      43.037  29.415  33.353  1.00  0.00     0.167 HD
ATOM     59  C   UNL A   1      43.988  26.870  32.587  1.00  0.00     0.074 A 
ATOM     60  C   UNL A   1      44.577  25.811  31.792  1.00  0.00     0.031 C 
ATOM     61  C   UNL A   1      43.695  26.756  33.905  1.00  0.00     0.034 A 
BRANCH  48  62
ATOM     62  C   UNL A   1      41.470  31.936  36.423  1.00  0.00     0.023 A 
ATOM     63  C   UNL A   1      42.354  32.638  37.266  1.00  0.00     0.012 A 
ATOM     64  C   UNL A   1      40.092  31.927  36.717  1.00  0.00     0.148 A 
ATOM     65  C   UNL A   1      41.878  33.297  38.399  1.00  0.00     0.002 A 
ATOM     66  C   UNL A   1      39.621  32.617  37.829  1.00  0.00     0.091 A 
ATOM     67  F   UNL A   1      39.271  31.230  35.918  1.00  0.00    -0.205 F 
ATOM     68  C   UNL A   1      40.513  33.295  38.675  1.00  0.00     0.022 A 
BRANCH  66  69
ATOM     69  S   UNL A   1      37.871  32.724  38.219  1.00  0.00     0.127 S 
ATOM     70  O   UNL A   1      37.904  33.211  39.597  1.00  0.00    -0.237 OA
ATOM     71  O   UNL A   1      37.390  33.699  37.239  1.00  0.00    -0.237 OA
ATOM     72  O   UNL A   1      37.342  31.379  38.038  1.00  0.00    -0.744 OA
ENDBRANCH  66  69
ENDBRANCH  48  62
BRANCH  49  73
ATOM     73  C   UNL A   1      44.942  27.754  28.060  1.00  0.00     0.023 A 
ATOM     74  C   UNL A   1      46.269  28.017  27.666  1.00  0.00     0.012 A 
ATOM     75  C   UNL A   1      44.160  26.873  27.290  1.00  0.00     0.148 A 
ATOM     76  C   UNL A   1      46.800  27.423  26.520  1.00  0.00     0.002 A 
ATOM     77  C   UNL A   1      44.716  26.237  26.186  1.00  0.00     0.091 A 
ATOM     78  F   UNL A   1      42.888  26.661  27.658  1.00  0.00    -0.205 F 
ATOM     79  C   UNL A   1      46.030  26.522  25.790  1.00  0.00     0.022 A 
BRANCH  77  80
ATOM     80  S   UNL A   1      43.835  24.948  25.297  1.00  0.00     0.127 S 
ATOM     81  O   UNL A   1      44.850  24.485  24.355  1.00  0.00    -0.237 OA
ATOM     82  O   UNL A   1      43.508  24.003  26.366  1.00  0.00    -0.237 OA
ATOM     83  O   UNL A   1      42.674  25.611  24.717  1.00  0.00    -0.744 OA
ENDBRANCH  77  80
ENDBRANCH  49  73
BRANCH  61  84
ATOM     84  C   UNL A   1      43.999  25.441  34.575  1.00  0.00     0.023 A 
ATOM     85  C   UNL A   1      43.000  24.450  34.631  1.00  0.00     0.012 A 
ATOM     86  C   UNL A   1      45.280  25.162  35.088  1.00  0.00     0.148 A 
ATOM     87  C   UNL A   1      43.263  23.210  35.213  1.00  0.00     0.002 A 
ATOM     88  C   UNL A   1      45.546  23.910  35.632  1.00  0.00     0.091 A 
ATOM     89  F   UNL A   1      46.212  26.126  35.048  1.00  0.00    -0.205 F 
ATOM     90  C   UNL A   1      44.538  22.936  35.703  1.00  0.00     0.022 A 
BRANCH  88  91
ATOM     91  S   UNL A   1      47.187  23.457  36.209  1.00  0.00     0.127 S 
ATOM     92  O   UNL A   1      47.325  24.288  37.401  1.00  0.00    -0.237 OA
ATOM     93  O   UNL A   1      47.046  22.025  36.477  1.00  0.00    -0.237 OA
ATOM     94  O   UNL A   1      48.087  23.772  35.106  1.00  0.00    -0.744 OA
ENDBRANCH  88  91
ENDBRANCH  61  84
ENDBRANCH  35  36
ENDBRANCH  28  30
ENDBRANCH  27  28
ENDBRANCH  26  27
ENDBRANCH  25  26
ENDBRANCH  24  25
ENDBRANCH  23  24
ENDBRANCH   1  23
TORSDOF 25
ENDMDL
MODEL 2
REMARK VINA RESULT:      -7.7      6.401     14.768
REMARK SMILES CCOc1cncc(N(CC(=O)OCCOCCOCCOC(=O)c2ccc(-c3c4nc(c(-c5cccc(S(=O)(=O)[O-])c5F)c5ccc([nH]5)c(-c5cccc(S(=O)(=O)[O-])c5F)c5nc(c(-c6cccc(S(=O)(=O)[O-])c6F)c6ccc3[nH]6)C=C5)C=C4)cc2)C(C)(C)C)n1
REMARK SMILES IDX 17 1 16 2 15 3 14 4 13 5 11 6 12 7 10 8 9 9 8 10 4 11 5 12
REMARK SMILES IDX 92 13 6 14 7 15 3 16 2 17 1 18 88 19 89 20 90 21 91 22 18 23
REMARK SMILES IDX 19 24 20 25 21 26 22 27 23 28 24 29 25 30 26 31 87 32 27 33
REMARK SMILES IDX 86 34 28 35 29 36 30 37 80 38 31 39 85 40 79 41 81 42 32 43
REMARK SMILES IDX 84 44 78 45 77 46 33 48 65 49 45 50 64 51 46 52 49 53 63 54
REMARK SMILES IDX 82 55 47 56 48 57 62 59 83 60 50 61 34 62 35 63 43 64 36 65
REMARK SMILES IDX 38 66 44 67 37 68 39 69 40 70 41 71 42 72 66 73 67 74 75 75
REMARK SMILES IDX 68 76 70 77 76 78 69 79 71 80 72 81 73 82 74 83 51 84 52 85
REMARK SMILES IDX 60 86 53 87 55 88 61 89 54 90 56 91 57 92 58 93 59 94
REMARK H PARENT 81 47 49 58
REMARK Flexibility Score: inf
ROOT
ATOM      1  C   UNL A   1      44.426  22.036  25.631  1.00  0.00     0.188 C 
ENDROOT
BRANCH   1   2
ATOM      2  O   UNL A   1      44.966  22.249  26.936  1.00  0.00    -0.376 OA
BRANCH   2   3
ATOM      3  C   UNL A   1      44.220  23.090  27.814  1.00  0.00     0.202 C 
BRANCH   3   4
ATOM      4  C   UNL A   1      45.064  24.063  28.641  1.00  0.00     0.261 C 
BRANCH   4   5
ATOM      5  O   UNL A   1      44.615  25.420  28.465  1.00  0.00    -0.462 OA
BRANCH   5   6
ATOM      6  C   UNL A   1      43.775  25.869  29.432  1.00  0.00     0.325 C 
ATOM      7  O   UNL A   1      43.882  25.586  30.622  1.00  0.00    -0.250 OA
BRANCH   6   8
ATOM      8  C   UNL A   1      42.720  26.841  28.897  1.00  0.00     0.241 C 
BRANCH   8   9
ATOM      9  N   UNL A   1      42.155  26.514  27.561  1.00  0.00    -0.339 N 
BRANCH   9  10
ATOM     10  C   UNL A   1      41.205  25.484  27.470  1.00  0.00     0.152 A 
ATOM     11  C   UNL A   1      40.620  23.350  26.765  1.00  0.00     0.234 A 
ATOM     12  C   UNL A   1      39.339  23.488  27.255  1.00  0.00     0.179 A 
ATOM     13  N   UNL A   1      41.557  24.317  26.880  1.00  0.00    -0.193 NA
ATOM     14  N   UNL A   1      38.928  24.621  27.847  1.00  0.00    -0.255 NA
ATOM     15  C   UNL A   1      39.881  25.592  27.937  1.00  0.00     0.158 A 
BRANCH  11  16
ATOM     16  O   UNL A   1      40.998  22.164  26.190  1.00  0.00    -0.477 OA
BRANCH  16  17
ATOM     17  C   UNL A   1      39.852  21.353  25.913  1.00  0.00     0.228 C 
ATOM     18  C   UNL A   1      40.218  19.892  26.131  1.00  0.00     0.049 C 
ENDBRANCH  16  17
ENDBRANCH  11  16
ENDBRANCH   9  10
BRANCH   9  19
ATOM     19  C   UNL A   1      42.324  27.452  26.394  1.00  0.00     0.034 C 
ATOM     20  C   UNL A   1      42.619  26.674  25.087  1.00  0.00     0.034 C 
ATOM     21  C   UNL A   1      41.079  28.350  26.210  1.00  0.00     0.034 C 
ATOM     22  C   UNL A   1      43.493  28.436  26.604  1.00  0.00     0.034 C 
ENDBRANCH   9  19
ENDBRANCH   8   9
ENDBRANCH   6   8
ENDBRANCH   5   6
ENDBRANCH   4   5
ENDBRANCH   3   4
ENDBRANCH   2   3
ENDBRANCH   1   2
BRANCH   1  23
ATOM     23  C   UNL A   1      44.295  23.286  24.747  1.00  0.00     0.188 C 
BRANCH  23  24
ATOM     24  O   UNL A   1      45.509  23.831  24.237  1.00  0.00    -0.376 OA
BRANCH  24  25
ATOM     25  C   UNL A   1      46.142  24.813  25.052  1.00  0.00     0.202 C 
BRANCH  25  26
ATOM     26  C   UNL A   1      47.555  24.418  25.475  1.00  0.00     0.261 C 
BRANCH  26  27
ATOM     27  O   UNL A   1      47.675  24.497  26.906  1.00  0.00    -0.460 OA
BRANCH  27  28
ATOM     28  C   UNL A   1      48.835  25.050  27.328  1.00  0.00     0.338 C 
ATOM     29  O   UNL A   1      49.886  24.466  27.549  1.00  0.00    -0.246 OA
BRANCH  28  30
ATOM     30  C   UNL A   1      48.677  26.508  27.450  1.00  0.00     0.060 A 
ATOM     31  C   UNL A   1      48.808  27.112  28.700  1.00  0.00     0.016 A 
ATOM     32  C   UNL A   1      48.243  27.249  26.356  1.00  0.00     0.016 A 
ATOM     33  C   UNL A   1      48.422  28.443  28.883  1.00  0.00     0.010 A 
ATOM     34  C   UNL A   1      47.911  28.598  26.525  1.00  0.00     0.010 A 
ATOM     35  C   UNL A   1      47.941  29.193  27.801  1.00  0.00    -0.014 A 
BRANCH  35  36
ATOM     36  C   UNL A   1      47.346  30.546  28.011  1.00  0.00     0.031 A 
ATOM     37  C   UNL A   1      46.009  30.668  28.702  1.00  0.00     0.074 A 
ATOM     38  C   UNL A   1      47.979  31.665  27.605  1.00  0.00     0.049 A 
ATOM     39  N   UNL A   1      45.234  31.714  28.832  1.00  0.00    -0.248 NA
ATOM     40  C   UNL A   1      45.467  29.444  29.316  1.00  0.00     0.031 C 
ATOM     41  C   UNL A   1      49.288  31.710  26.957  1.00  0.00     0.029 A 
ATOM     42  N   UNL A   1      47.593  32.983  27.670  1.00  0.00    -0.354 N 
ATOM     43  C   UNL A   1      44.084  31.259  29.466  1.00  0.00     0.074 A 
ATOM     44  C   UNL A   1      44.268  29.845  29.710  1.00  0.00     0.031 C 
ATOM     45  C   UNL A   1      49.603  32.989  26.693  1.00  0.00     0.029 A 
ATOM     46  C   UNL A   1      48.492  33.850  27.093  1.00  0.00     0.049 A 
ATOM     47  H   UNL A   1      46.753  33.279  28.089  1.00  0.00     0.167 HD
ATOM     48  C   UNL A   1      42.977  31.953  29.823  1.00  0.00     0.034 A 
ATOM     49  C   UNL A   1      48.419  35.180  26.877  1.00  0.00     0.034 A 
ATOM     50  C   UNL A   1      42.821  33.372  29.665  1.00  0.00     0.049 A 
ATOM     51  C   UNL A   1      47.187  35.933  27.303  1.00  0.00     0.074 A 
ATOM     52  C   UNL A   1      41.746  34.167  30.026  1.00  0.00     0.029 A 
ATOM     53  N   UNL A   1      43.775  34.217  29.119  1.00  0.00    -0.354 N 
ATOM     54  N   UNL A   1      46.123  35.490  27.927  1.00  0.00    -0.248 NA
ATOM     55  C   UNL A   1      47.150  37.372  27.000  1.00  0.00     0.031 C 
ATOM     56  C   UNL A   1      42.052  35.493  29.698  1.00  0.00     0.029 A 
ATOM     57  C   UNL A   1      43.318  35.523  29.137  1.00  0.00     0.049 A 
ATOM     58  H   UNL A   1      44.649  33.929  28.769  1.00  0.00     0.167 HD
ATOM     59  C   UNL A   1      45.295  36.595  28.099  1.00  0.00     0.074 A 
ATOM     60  C   UNL A   1      45.998  37.736  27.549  1.00  0.00     0.031 C 
ATOM     61  C   UNL A   1      44.051  36.656  28.635  1.00  0.00     0.034 A 
BRANCH  48  62
ATOM     62  C   UNL A   1      41.845  31.182  30.448  1.00  0.00     0.023 A 
ATOM     63  C   UNL A   1      40.949  30.466  29.629  1.00  0.00     0.012 A 
ATOM     64  C   UNL A   1      41.695  31.131  31.847  1.00  0.00     0.148 A 
ATOM     65  C   UNL A   1      39.905  29.734  30.192  1.00  0.00     0.002 A 
ATOM     66  C   UNL A   1      40.673  30.368  32.403  1.00  0.00     0.091 A 
ATOM     67  F   UNL A   1      42.540  31.840  32.609  1.00  0.00    -0.205 F 
ATOM     68  C   UNL A   1      39.772  29.677  31.577  1.00  0.00     0.022 A 
BRANCH  66  69
ATOM     69  S   UNL A   1      40.472  30.185  34.179  1.00  0.00     0.127 S 
ATOM     70  O   UNL A   1      39.124  29.626  34.268  1.00  0.00    -0.237 OA
ATOM     71  O   UNL A   1      41.544  29.248  34.520  1.00  0.00    -0.237 OA
ATOM     72  O   UNL A   1      40.640  31.520  34.736  1.00  0.00    -0.744 OA
ENDBRANCH  66  69
ENDBRANCH  48  62
BRANCH  49  73
ATOM     73  C   UNL A   1      49.563  35.891  26.237  1.00  0.00     0.023 A 
ATOM     74  C   UNL A   1      49.708  35.846  24.836  1.00  0.00     0.012 A 
ATOM     75  C   UNL A   1      50.482  36.637  26.997  1.00  0.00     0.148 A 
ATOM     76  C   UNL A   1      50.757  36.520  24.209  1.00  0.00     0.002 A 
ATOM     77  C   UNL A   1      51.486  37.358  26.360  1.00  0.00     0.091 A 
ATOM     78  F   UNL A   1      50.351  36.642  28.332  1.00  0.00    -0.205 F 
ATOM     79  C   UNL A   1      51.635  37.289  24.968  1.00  0.00     0.022 A 
BRANCH  77  80
ATOM     80  S   UNL A   1      52.551  38.492  27.260  1.00  0.00     0.127 S 
ATOM     81  O   UNL A   1      53.168  37.608  28.244  1.00  0.00    -0.237 OA
ATOM     82  O   UNL A   1      53.451  38.969  26.209  1.00  0.00    -0.237 OA
ATOM     83  O   UNL A   1      51.657  39.516  27.786  1.00  0.00    -0.744 OA
ENDBRANCH  77  80
ENDBRANCH  49  73
BRANCH  61  84
ATOM     84  C   UNL A   1      43.369  37.999  28.660  1.00  0.00     0.023 A 
ATOM     85  C   UNL A   1      42.502  38.350  27.606  1.00  0.00     0.012 A 
ATOM     86  C   UNL A   1      43.531  38.880  29.745  1.00  0.00     0.148 A 
ATOM     87  C   UNL A   1      41.829  39.572  27.620  1.00  0.00     0.002 A 
ATOM     88  C   UNL A   1      42.827  40.079  29.770  1.00  0.00     0.091 A 
ATOM     89  F   UNL A   1      44.379  38.540  30.728  1.00  0.00    -0.205 F 
ATOM     90  C   UNL A   1      41.983  40.431  28.706  1.00  0.00     0.022 A 
BRANCH  88  91
ATOM     91  S   UNL A   1      42.912  41.199  31.174  1.00  0.00     0.127 S 
ATOM     92  O   UNL A   1      44.238  41.788  31.007  1.00  0.00    -0.237 OA
ATOM     93  O   UNL A   1      41.801  42.117  30.917  1.00  0.00    -0.237 OA
ATOM     94  O   UNL A   1      42.732  40.359  32.351  1.00  0.00    -0.744 OA
ENDBRANCH  88  91
ENDBRANCH  61  84
ENDBRANCH  35  36
ENDBRANCH  28  30
ENDBRANCH  27  28
ENDBRANCH  26  27
ENDBRANCH  25  26
ENDBRANCH  24  25
ENDBRANCH  23  24
ENDBRANCH   1  23
TORSDOF 25
ENDMDL
MODEL 3
REMARK VINA RESULT:      -7.6      8.202     13.382
REMARK SMILES CCOc1cncc(N(CC(=O)OCCOCCOCCOC(=O)c2ccc(-c3c4nc(c(-c5cccc(S(=O)(=O)[O-])c5F)c5ccc([nH]5)c(-c5cccc(S(=O)(=O)[O-])c5F)c5nc(c(-c6cccc(S(=O)(=O)[O-])c6F)c6ccc3[nH]6)C=C5)C=C4)cc2)C(C)(C)C)n1
REMARK SMILES IDX 17 1 16 2 15 3 14 4 13 5 11 6 12 7 10 8 9 9 8 10 4 11 5 12
REMARK SMILES IDX 92 13 6 14 7 15 3 16 2 17 1 18 88 19 89 20 90 21 91 22 18 23
REMARK SMILES IDX 19 24 20 25 21 26 22 27 23 28 24 29 25 30 26 31 87 32 27 33
REMARK SMILES IDX 86 34 28 35 29 36 30 37 80 38 31 39 85 40 79 41 81 42 32 43
REMARK SMILES IDX 84 44 78 45 77 46 33 48 65 49 45 50 64 51 46 52 49 53 63 54
REMARK SMILES IDX 82 55 47 56 48 57 62 59 83 60 50 61 34 62 35 63 43 64 36 65
REMARK SMILES IDX 38 66 44 67 37 68 39 69 40 70 41 71 42 72 66 73 67 74 75 75
REMARK SMILES IDX 68 76 70 77 76 78 69 79 71 80 72 81 73 82 74 83 51 84 52 85
REMARK SMILES IDX 60 86 53 87 55 88 61 89 54 90 56 91 57 92 58 93 59 94
REMARK H PARENT 81 47 49 58
REMARK Flexibility Score: inf
ROOT
ATOM      1  C   UNL A   1      33.056  36.310  30.376  1.00  0.00     0.188 C 
ENDROOT
BRANCH   1   2
ATOM      2  O   UNL A   1      33.870  36.203  31.546  1.00  0.00    -0.376 OA
BRANCH   2   3
ATOM      3  C   UNL A   1      33.715  35.025  32.335  1.00  0.00     0.202 C 
BRANCH   3   4
ATOM      4  C   UNL A   1      34.527  35.011  33.632  1.00  0.00     0.261 C 
BRANCH   4   5
ATOM      5  O   UNL A   1      35.196  33.748  33.812  1.00  0.00    -0.462 OA
BRANCH   5   6
ATOM      6  C   UNL A   1      36.529  33.842  34.052  1.00  0.00     0.325 C 
ATOM      7  O   UNL A   1      37.160  34.895  34.026  1.00  0.00    -0.250 OA
BRANCH   6   8
ATOM      8  C   UNL A   1      37.157  32.502  34.444  1.00  0.00     0.241 C 
BRANCH   8   9
ATOM      9  N   UNL A   1      38.402  32.581  35.252  1.00  0.00    -0.339 N 
BRANCH   9  10
ATOM     10  C   UNL A   1      38.289  32.775  36.638  1.00  0.00     0.152 A 
ATOM     11  C   UNL A   1      37.234  32.299  38.652  1.00  0.00     0.234 A 
ATOM     12  C   UNL A   1      38.040  33.182  39.337  1.00  0.00     0.179 A 
ATOM     13  N   UNL A   1      37.357  32.073  37.326  1.00  0.00    -0.193 NA
ATOM     14  N   UNL A   1      38.981  33.911  38.714  1.00  0.00    -0.255 NA
ATOM     15  C   UNL A   1      39.077  33.683  37.372  1.00  0.00     0.158 A 
BRANCH  11  16
ATOM     16  O   UNL A   1      36.305  31.561  39.339  1.00  0.00    -0.477 OA
BRANCH  16  17
ATOM     17  C   UNL A   1      36.879  31.017  40.532  1.00  0.00     0.228 C 
ATOM     18  C   UNL A   1      36.130  31.569  41.736  1.00  0.00     0.049 C 
ENDBRANCH  16  17
ENDBRANCH  11  16
ENDBRANCH   9  10
BRANCH   9  19
ATOM     19  C   UNL A   1      39.726  32.137  34.687  1.00  0.00     0.034 C 
ATOM     20  C   UNL A   1      40.593  33.352  34.271  1.00  0.00     0.034 C 
ATOM     21  C   UNL A   1      40.498  31.251  35.690  1.00  0.00     0.034 C 
ATOM     22  C   UNL A   1      39.556  31.256  33.431  1.00  0.00     0.034 C 
ENDBRANCH   9  19
ENDBRANCH   8   9
ENDBRANCH   6   8
ENDBRANCH   5   6
ENDBRANCH   4   5
ENDBRANCH   3   4
ENDBRANCH   2   3
ENDBRANCH   1   2
BRANCH   1  23
ATOM     23  C   UNL A   1      33.616  35.649  29.107  1.00  0.00     0.188 C 
BRANCH  23  24
ATOM     24  O   UNL A   1      32.697  34.882  28.334  1.00  0.00    -0.376 OA
BRANCH  24  25
ATOM     25  C   UNL A   1      33.105  33.555  28.015  1.00  0.00     0.202 C 
BRANCH  25  26
ATOM     26  C   UNL A   1      34.381  33.131  28.740  1.00  0.00     0.261 C 
BRANCH  26  27
ATOM     27  O   UNL A   1      35.268  32.472  27.819  1.00  0.00    -0.460 OA
BRANCH  27  28
ATOM     28  C   UNL A   1      35.140  31.126  27.805  1.00  0.00     0.338 C 
ATOM     29  O   UNL A   1      34.148  30.488  27.487  1.00  0.00    -0.246 OA
BRANCH  28  30
ATOM     30  C   UNL A   1      36.413  30.501  28.197  1.00  0.00     0.060 A 
ATOM     31  C   UNL A   1      36.852  30.602  29.517  1.00  0.00     0.016 A 
ATOM     32  C   UNL A   1      37.243  29.956  27.223  1.00  0.00     0.016 A 
ATOM     33  C   UNL A   1      38.159  30.238  29.855  1.00  0.00     0.010 A 
ATOM     34  C   UNL A   1      38.532  29.537  27.572  1.00  0.00     0.010 A 
ATOM     35  C   UNL A   1      39.024  29.726  28.878  1.00  0.00    -0.014 A 
BRANCH  35  36
ATOM     36  C   UNL A   1      40.471  29.513  29.172  1.00  0.00     0.031 A 
ATOM     37  C   UNL A   1      41.104  28.179  28.854  1.00  0.00     0.074 A 
ATOM     38  C   UNL A   1      41.232  30.487  29.709  1.00  0.00     0.049 A 
ATOM     39  N   UNL A   1      42.284  27.721  29.181  1.00  0.00    -0.248 NA
ATOM     40  C   UNL A   1      40.291  27.231  28.073  1.00  0.00     0.031 C 
ATOM     41  C   UNL A   1      40.774  31.836  30.038  1.00  0.00     0.029 A 
ATOM     42  N   UNL A   1      42.555  30.484  30.084  1.00  0.00    -0.354 N 
ATOM     43  C   UNL A   1      42.325  26.409  28.722  1.00  0.00     0.074 A 
ATOM     44  C   UNL A   1      41.056  26.150  28.077  1.00  0.00     0.031 C 
ATOM     45  C   UNL A   1      41.798  32.534  30.556  1.00  0.00     0.029 A 
ATOM     46  C   UNL A   1      42.969  31.665  30.656  1.00  0.00     0.049 A 
ATOM     47  H   UNL A   1      43.149  29.710  29.957  1.00  0.00     0.167 HD
ATOM     48  C   UNL A   1      43.327  25.504  28.818  1.00  0.00     0.034 A 
ATOM     49  C   UNL A   1      44.144  32.002  31.228  1.00  0.00     0.034 A 
ATOM     50  C   UNL A   1      44.621  25.780  29.377  1.00  0.00     0.049 A 
ATOM     51  C   UNL A   1      45.251  30.984  31.302  1.00  0.00     0.074 A 
ATOM     52  C   UNL A   1      45.710  24.932  29.489  1.00  0.00     0.029 A 
ATOM     53  N   UNL A   1      45.012  27.002  29.902  1.00  0.00    -0.354 N 
ATOM     54  N   UNL A   1      45.280  29.760  30.836  1.00  0.00    -0.248 NA
ATOM     55  C   UNL A   1      46.490  31.400  31.977  1.00  0.00     0.031 C 
ATOM     56  C   UNL A   1      46.760  25.644  30.081  1.00  0.00     0.029 A 
ATOM     57  C   UNL A   1      46.325  26.934  30.333  1.00  0.00     0.049 A 
ATOM     58  H   UNL A   1      44.439  27.800  29.959  1.00  0.00     0.167 HD
ATOM     59  C   UNL A   1      46.540  29.262  31.152  1.00  0.00     0.074 A 
ATOM     60  C   UNL A   1      47.259  30.330  31.815  1.00  0.00     0.031 C 
ATOM     61  C   UNL A   1      47.046  28.021  30.942  1.00  0.00     0.034 A 
BRANCH  48  62
ATOM     62  C   UNL A   1      43.068  24.122  28.278  1.00  0.00     0.023 A 
ATOM     63  C   UNL A   1      42.143  23.279  28.925  1.00  0.00     0.012 A 
ATOM     64  C   UNL A   1      43.710  23.675  27.107  1.00  0.00     0.148 A 
ATOM     65  C   UNL A   1      41.880  22.003  28.430  1.00  0.00     0.002 A 
ATOM     66  C   UNL A   1      43.415  22.415  26.598  1.00  0.00     0.091 A 
ATOM     67  F   UNL A   1      44.608  24.480  26.521  1.00  0.00    -0.205 F 
ATOM     68  C   UNL A   1      42.507  21.575  27.263  1.00  0.00     0.022 A 
BRANCH  66  69
ATOM     69  S   UNL A   1      44.127  21.810  25.063  1.00  0.00     0.127 S 
ATOM     70  O   UNL A   1      45.556  21.829  25.371  1.00  0.00    -0.237 OA
ATOM     71  O   UNL A   1      43.545  20.472  24.953  1.00  0.00    -0.237 OA
ATOM     72  O   UNL A   1      43.691  22.742  24.032  1.00  0.00    -0.744 OA
ENDBRANCH  66  69
ENDBRANCH  48  62
BRANCH  49  73
ATOM     73  C   UNL A   1      44.339  33.380  31.764  1.00  0.00     0.023 A 
ATOM     74  C   UNL A   1      43.892  33.687  33.064  1.00  0.00     0.012 A 
ATOM     75  C   UNL A   1      44.992  34.374  31.012  1.00  0.00     0.148 A 
ATOM     76  C   UNL A   1      44.082  34.962  33.598  1.00  0.00     0.002 A 
ATOM     77  C   UNL A   1      45.234  35.623  31.574  1.00  0.00     0.091 A 
ATOM     78  F   UNL A   1      45.380  34.078  29.763  1.00  0.00    -0.205 F 
ATOM     79  C   UNL A   1      44.766  35.924  32.861  1.00  0.00     0.022 A 
BRANCH  77  80
ATOM     80  S   UNL A   1      46.246  36.853  30.743  1.00  0.00     0.127 S 
ATOM     81  O   UNL A   1      46.138  37.993  31.648  1.00  0.00    -0.237 OA
ATOM     82  O   UNL A   1      47.559  36.206  30.717  1.00  0.00    -0.237 OA
ATOM     83  O   UNL A   1      45.640  37.017  29.427  1.00  0.00    -0.744 OA
ENDBRANCH  77  80
ENDBRANCH  49  73
BRANCH  61  84
ATOM     84  C   UNL A   1      48.446  27.750  31.427  1.00  0.00     0.023 A 
ATOM     85  C   UNL A   1      48.636  27.218  32.718  1.00  0.00     0.012 A 
ATOM     86  C   UNL A   1      49.560  27.958  30.593  1.00  0.00     0.148 A 
ATOM     87  C   UNL A   1      49.918  26.923  33.181  1.00  0.00     0.002 A 
ATOM     88  C   UNL A   1      50.832  27.625  31.047  1.00  0.00     0.091 A 
ATOM     89  F   UNL A   1      49.363  28.487  29.376  1.00  0.00    -0.205 F 
ATOM     90  C   UNL A   1      51.014  27.116  32.342  1.00  0.00     0.022 A 
BRANCH  88  91
ATOM     91  S   UNL A   1      52.282  27.769  29.995  1.00  0.00     0.127 S 
ATOM     92  O   UNL A   1      53.191  26.801  30.602  1.00  0.00    -0.237 OA
ATOM     93  O   UNL A   1      51.763  27.379  28.683  1.00  0.00    -0.237 OA
ATOM     94  O   UNL A   1      52.688  29.166  30.084  1.00  0.00    -0.744 OA
ENDBRANCH  88  91
ENDBRANCH  61  84
ENDBRANCH  35  36
ENDBRANCH  28  30
ENDBRANCH  27  28
ENDBRANCH  26  27
ENDBRANCH  25  26
ENDBRANCH  24  25
ENDBRANCH  23  24
ENDBRANCH   1  23
TORSDOF 25
ENDMDL
