MODEL 1
REMARK VINA RESULT:     -10.0      0.000      0.000
REMARK SMILES Cc1oc2c(c1C(=O)NCCCC(=O)OCCOCCOCCOC(=O)c1ccc(-c3c4nc(c(-c5cccc(S(=O)(=O)[O-])c5F)c5ccc([nH]5)c(-c5cccc(S(=O)(=O)[O-])c5F)c5nc(c(-c6cccc(S(=O)(=O)[O-])c6F)c6ccc3[nH]6)C=C5)C=C4)cc1)CCCC2
REMARK SMILES IDX 19 1 18 2 17 3 16 4 15 5 13 6 14 7 12 8 11 9 10 10 9 11 7 12
REMARK SMILES IDX 8 13 6 15 1 16 2 17 3 18 4 19 5 20 93 21 90 22 92 23 91 24
REMARK SMILES IDX 20 25 21 26 22 27 23 28 24 29 25 30 26 31 27 32 28 33 89 34
REMARK SMILES IDX 29 35 88 36 30 37 31 38 32 39 82 40 33 41 87 42 81 43 83 44
REMARK SMILES IDX 34 45 86 46 80 47 79 48 35 50 67 51 47 52 66 53 48 54 51 55
REMARK SMILES IDX 65 56 84 57 49 58 50 59 64 61 85 62 52 63 36 64 37 65 45 66
REMARK SMILES IDX 38 67 40 68 46 69 39 70 41 71 42 72 43 73 44 74 68 75 69 76
REMARK SMILES IDX 77 77 70 78 72 79 78 80 71 81 73 82 74 83 75 84 76 85 53 86
REMARK SMILES IDX 54 87 62 88 55 89 57 90 63 91 56 92 58 93 59 94 60 95 61 96
REMARK H PARENT 9 14 83 49 51 60
REMARK Flexibility Score: inf
ROOT
ATOM      1  C   UNL A   1      37.031  23.020  24.839  1.00  0.00     0.188 C 
ENDROOT
BRANCH   1   2
ATOM      2  O   UNL A   1      35.666  22.760  25.183  1.00  0.00    -0.376 OA
BRANCH   2   3
ATOM      3  C   UNL A   1      35.421  21.682  26.088  1.00  0.00     0.202 C 
BRANCH   3   4
ATOM      4  C   UNL A   1      33.957  21.502  26.515  1.00  0.00     0.261 C 
BRANCH   4   5
ATOM      5  O   UNL A   1      33.338  22.738  26.919  1.00  0.00    -0.463 OA
BRANCH   5   6
ATOM      6  C   UNL A   1      32.009  22.881  26.710  1.00  0.00     0.305 C 
ATOM      7  O   UNL A   1      31.262  23.573  27.392  1.00  0.00    -0.252 OA
BRANCH   6   8
ATOM      8  C   UNL A   1      31.512  22.120  25.491  1.00  0.00     0.124 C 
BRANCH   8   9
ATOM      9  C   UNL A   1      31.930  22.616  24.101  1.00  0.00     0.033 C 
BRANCH   9  10
ATOM     10  C   UNL A   1      31.078  23.757  23.547  1.00  0.00     0.117 C 
BRANCH  10  11
ATOM     11  N   UNL A   1      30.511  24.530  24.620  1.00  0.00    -0.352 N 
ATOM     12  C   UNL A   1      30.268  25.852  24.836  1.00  0.00     0.255 C 
ATOM     13  O   UNL A   1      29.716  26.071  25.922  1.00  0.00    -0.269 OA
ATOM     14  H   UNL A   1      30.230  23.969  25.379  1.00  0.00     0.163 HD
BRANCH  12  15
ATOM     15  C   UNL A   1      30.550  26.963  23.920  1.00  0.00     0.084 A 
ATOM     16  C   UNL A   1      33.173  27.357  23.459  1.00  0.00     0.088 C 
ATOM     17  C   UNL A   1      31.708  27.542  23.385  1.00  0.00     0.114 A 
ATOM     18  O   UNL A   1      31.391  28.612  22.585  1.00  0.00    -0.465 OA
ATOM     19  C   UNL A   1      30.063  28.767  22.636  1.00  0.00     0.108 A 
ATOM     20  C   UNL A   1      29.484  27.802  23.414  1.00  0.00     0.007 A 
ATOM     21  C   UNL A   1      29.412  29.888  21.928  1.00  0.00     0.076 C 
ATOM     22  C   UNL A   1      28.013  27.786  23.667  1.00  0.00     0.040 C 
ATOM     23  C   UNL A   1      28.006  30.089  22.525  1.00  0.00     0.008 C 
ATOM     24  C   UNL A   1      27.265  28.751  22.721  1.00  0.00     0.005 C 
ENDBRANCH  12  15
ENDBRANCH  10  11
ENDBRANCH   9  10
ENDBRANCH   8   9
ENDBRANCH   6   8
ENDBRANCH   5   6
ENDBRANCH   4   5
ENDBRANCH   3   4
ENDBRANCH   2   3
ENDBRANCH   1   2
BRANCH   1  25
ATOM     25  C   UNL A   1      37.924  23.460  26.006  1.00  0.00     0.188 C 
BRANCH  25  26
ATOM     26  O   UNL A   1      39.059  22.610  26.167  1.00  0.00    -0.376 OA
BRANCH  26  27
ATOM     27  C   UNL A   1      38.980  21.244  25.771  1.00  0.00     0.202 C 
BRANCH  27  28
ATOM     28  C   UNL A   1      40.091  20.280  26.189  1.00  0.00     0.261 C 
BRANCH  28  29
ATOM     29  O   UNL A   1      41.240  20.881  26.771  1.00  0.00    -0.460 OA
BRANCH  29  30
ATOM     30  C   UNL A   1      42.402  20.917  26.093  1.00  0.00     0.338 C 
ATOM     31  O   UNL A   1      42.900  20.031  25.419  1.00  0.00    -0.246 OA
BRANCH  30  32
ATOM     32  C   UNL A   1      42.946  22.275  26.259  1.00  0.00     0.060 A 
ATOM     33  C   UNL A   1      43.824  22.504  27.319  1.00  0.00     0.016 A 
ATOM     34  C   UNL A   1      42.494  23.325  25.438  1.00  0.00     0.016 A 
ATOM     35  C   UNL A   1      44.063  23.807  27.698  1.00  0.00     0.010 A 
ATOM     36  C   UNL A   1      42.723  24.620  25.819  1.00  0.00     0.010 A 
ATOM     37  C   UNL A   1      43.422  24.836  27.000  1.00  0.00    -0.014 A 
BRANCH  37  38
ATOM     38  C   UNL A   1      43.423  26.163  27.572  1.00  0.00     0.031 A 
ATOM     39  C   UNL A   1      44.614  26.959  27.243  1.00  0.00     0.074 A 
ATOM     40  C   UNL A   1      42.352  26.613  28.255  1.00  0.00     0.049 A 
ATOM     41  N   UNL A   1      45.582  27.278  28.035  1.00  0.00    -0.248 NA
ATOM     42  C   UNL A   1      44.843  27.304  25.832  1.00  0.00     0.031 C 
ATOM     43  C   UNL A   1      41.034  25.966  28.334  1.00  0.00     0.029 A 
ATOM     44  N   UNL A   1      42.159  27.795  28.905  1.00  0.00    -0.354 N 
ATOM     45  C   UNL A   1      46.388  28.118  27.274  1.00  0.00     0.074 A 
ATOM     46  C   UNL A   1      46.043  27.880  25.899  1.00  0.00     0.031 C 
ATOM     47  C   UNL A   1      40.127  26.861  28.782  1.00  0.00     0.029 A 
ATOM     48  C   UNL A   1      40.821  28.081  29.151  1.00  0.00     0.049 A 
ATOM     49  H   UNL A   1      42.896  28.389  29.173  1.00  0.00     0.167 HD
ATOM     50  C   UNL A   1      46.989  29.192  27.851  1.00  0.00     0.034 A 
ATOM     51  C   UNL A   1      40.310  29.259  29.577  1.00  0.00     0.034 A 
ATOM     52  C   UNL A   1      46.945  29.110  29.287  1.00  0.00     0.049 A 
ATOM     53  C   UNL A   1      41.399  30.020  30.225  1.00  0.00     0.074 A 
ATOM     54  C   UNL A   1      47.582  28.398  30.278  1.00  0.00     0.029 A 
ATOM     55  N   UNL A   1      45.823  29.673  29.836  1.00  0.00    -0.354 N 
ATOM     56  N   UNL A   1      41.952  29.657  31.348  1.00  0.00    -0.248 NA
ATOM     57  C   UNL A   1      42.118  31.043  29.474  1.00  0.00     0.031 C 
ATOM     58  C   UNL A   1      46.724  28.444  31.415  1.00  0.00     0.029 A 
ATOM     59  C   UNL A   1      45.591  29.188  31.094  1.00  0.00     0.049 A 
ATOM     60  H   UNL A   1      45.257  30.340  29.384  1.00  0.00     0.167 HD
ATOM     61  C   UNL A   1      43.269  30.054  31.211  1.00  0.00     0.074 A 
ATOM     62  C   UNL A   1      43.264  31.058  30.157  1.00  0.00     0.031 C 
ATOM     63  C   UNL A   1      44.282  29.291  31.706  1.00  0.00     0.034 A 
BRANCH  50  64
ATOM     64  C   UNL A   1      47.187  30.538  27.184  1.00  0.00     0.023 A 
ATOM     65  C   UNL A   1      48.485  31.095  27.253  1.00  0.00     0.012 A 
ATOM     66  C   UNL A   1      46.146  31.403  26.772  1.00  0.00     0.148 A 
ATOM     67  C   UNL A   1      48.723  32.444  26.973  1.00  0.00     0.002 A 
ATOM     68  C   UNL A   1      46.401  32.723  26.415  1.00  0.00     0.091 A 
ATOM     69  F   UNL A   1      44.871  31.014  26.858  1.00  0.00    -0.205 F 
ATOM     70  C   UNL A   1      47.683  33.258  26.543  1.00  0.00     0.022 A 
BRANCH  68  71
ATOM     71  S   UNL A   1      45.091  33.799  25.819  1.00  0.00     0.127 S 
ATOM     72  O   UNL A   1      44.571  33.030  24.693  1.00  0.00    -0.237 OA
ATOM     73  O   UNL A   1      44.210  33.872  26.984  1.00  0.00    -0.237 OA
ATOM     74  O   UNL A   1      45.745  35.059  25.489  1.00  0.00    -0.744 OA
ENDBRANCH  68  71
ENDBRANCH  50  64
BRANCH  51  75
ATOM     75  C   UNL A   1      38.978  29.856  29.346  1.00  0.00     0.023 A 
ATOM     76  C   UNL A   1      38.198  29.412  28.262  1.00  0.00     0.012 A 
ATOM     77  C   UNL A   1      38.362  30.651  30.338  1.00  0.00     0.148 A 
ATOM     78  C   UNL A   1      36.833  29.710  28.191  1.00  0.00     0.002 A 
ATOM     79  C   UNL A   1      37.006  30.947  30.261  1.00  0.00     0.091 A 
ATOM     80  F   UNL A   1      39.088  31.038  31.396  1.00  0.00    -0.205 F 
ATOM     81  C   UNL A   1      36.234  30.464  29.196  1.00  0.00     0.022 A 
BRANCH  79  82
ATOM     82  S   UNL A   1      36.153  31.887  31.535  1.00  0.00     0.127 S 
ATOM     83  O   UNL A   1      34.825  32.057  30.945  1.00  0.00    -0.237 OA
ATOM     84  O   UNL A   1      36.205  30.971  32.671  1.00  0.00    -0.237 OA
ATOM     85  O   UNL A   1      36.904  33.126  31.687  1.00  0.00    -0.744 OA
ENDBRANCH  79  82
ENDBRANCH  51  75
BRANCH  63  86
ATOM     86  C   UNL A   1      43.955  28.341  32.819  1.00  0.00     0.023 A 
ATOM     87  C   UNL A   1      43.682  26.977  32.598  1.00  0.00     0.012 A 
ATOM     88  C   UNL A   1      44.021  28.822  34.137  1.00  0.00     0.148 A 
ATOM     89  C   UNL A   1      43.458  26.114  33.673  1.00  0.00     0.002 A 
ATOM     90  C   UNL A   1      43.846  27.951  35.204  1.00  0.00     0.091 A 
ATOM     91  F   UNL A   1      44.271  30.127  34.324  1.00  0.00    -0.205 F 
ATOM     92  C   UNL A   1      43.553  26.598  34.977  1.00  0.00     0.022 A 
BRANCH  90  93
ATOM     93  S   UNL A   1      44.079  28.494  36.898  1.00  0.00     0.127 S 
ATOM     94  O   UNL A   1      43.013  29.480  37.054  1.00  0.00    -0.237 OA
ATOM     95  O   UNL A   1      43.883  27.256  37.654  1.00  0.00    -0.237 OA
ATOM     96  O   UNL A   1      45.438  29.018  36.963  1.00  0.00    -0.744 OA
ENDBRANCH  90  93
ENDBRANCH  63  86
ENDBRANCH  37  38
ENDBRANCH  30  32
ENDBRANCH  29  30
ENDBRANCH  28  29
ENDBRANCH  27  28
ENDBRANCH  26  27
ENDBRANCH  25  26
ENDBRANCH   1  25
TORSDOF 24
ENDMDL
MODEL 2
REMARK VINA RESULT:      -9.6      4.929      8.626
REMARK SMILES Cc1oc2c(c1C(=O)NCCCC(=O)OCCOCCOCCOC(=O)c1ccc(-c3c4nc(c(-c5cccc(S(=O)(=O)[O-])c5F)c5ccc([nH]5)c(-c5cccc(S(=O)(=O)[O-])c5F)c5nc(c(-c6cccc(S(=O)(=O)[O-])c6F)c6ccc3[nH]6)C=C5)C=C4)cc1)CCCC2
REMARK SMILES IDX 19 1 18 2 17 3 16 4 15 5 13 6 14 7 12 8 11 9 10 10 9 11 7 12
REMARK SMILES IDX 8 13 6 15 1 16 2 17 3 18 4 19 5 20 93 21 90 22 92 23 91 24
REMARK SMILES IDX 20 25 21 26 22 27 23 28 24 29 25 30 26 31 27 32 28 33 89 34
REMARK SMILES IDX 29 35 88 36 30 37 31 38 32 39 82 40 33 41 87 42 81 43 83 44
REMARK SMILES IDX 34 45 86 46 80 47 79 48 35 50 67 51 47 52 66 53 48 54 51 55
REMARK SMILES IDX 65 56 84 57 49 58 50 59 64 61 85 62 52 63 36 64 37 65 45 66
REMARK SMILES IDX 38 67 40 68 46 69 39 70 41 71 42 72 43 73 44 74 68 75 69 76
REMARK SMILES IDX 77 77 70 78 72 79 78 80 71 81 73 82 74 83 75 84 76 85 53 86
REMARK SMILES IDX 54 87 62 88 55 89 57 90 63 91 56 92 58 93 59 94 60 95 61 96
REMARK H PARENT 9 14 83 49 51 60
REMARK Flexibility Score: inf
ROOT
ATOM      1  C   UNL A   1      43.640  19.804  25.724  1.00  0.00     0.188 C 
ENDROOT
BRANCH   1   2
ATOM      2  O   UNL A   1      44.146  19.813  24.385  1.00  0.00    -0.376 OA
BRANCH   2   3
ATOM      3  C   UNL A   1      44.889  20.964  23.982  1.00  0.00     0.202 C 
BRANCH   3   4
ATOM      4  C   UNL A   1      46.194  21.207  24.757  1.00  0.00     0.261 C 
BRANCH   4   5
ATOM      5  O   UNL A   1      45.996  21.984  25.953  1.00  0.00    -0.463 OA
BRANCH   5   6
ATOM      6  C   UNL A   1      46.117  23.329  25.863  1.00  0.00     0.305 C 
ATOM      7  O   UNL A   1      46.817  23.918  25.047  1.00  0.00    -0.252 OA
BRANCH   6   8
ATOM      8  C   UNL A   1      45.249  24.074  26.865  1.00  0.00     0.124 C 
BRANCH   8   9
ATOM      9  C   UNL A   1      44.847  25.520  26.549  1.00  0.00     0.033 C 
BRANCH   9  10
ATOM     10  C   UNL A   1      44.849  25.873  25.062  1.00  0.00     0.117 C 
BRANCH  10  11
ATOM     11  N   UNL A   1      45.331  27.215  24.862  1.00  0.00    -0.352 N 
ATOM     12  C   UNL A   1      46.558  27.798  24.769  1.00  0.00     0.255 C 
ATOM     13  O   UNL A   1      46.500  29.015  24.554  1.00  0.00    -0.269 OA
ATOM     14  H   UNL A   1      44.599  27.867  24.771  1.00  0.00     0.163 HD
BRANCH  12  15
ATOM     15  C   UNL A   1      47.862  27.130  24.851  1.00  0.00     0.084 A 
ATOM     16  C   UNL A   1      49.012  26.686  22.457  1.00  0.00     0.088 C 
ATOM     17  C   UNL A   1      48.820  26.700  23.924  1.00  0.00     0.114 A 
ATOM     18  O   UNL A   1      49.870  26.086  24.559  1.00  0.00    -0.465 OA
ATOM     19  C   UNL A   1      49.586  26.063  25.867  1.00  0.00     0.108 A 
ATOM     20  C   UNL A   1      48.394  26.685  26.122  1.00  0.00     0.007 A 
ATOM     21  C   UNL A   1      50.498  25.399  26.821  1.00  0.00     0.076 C 
ATOM     22  C   UNL A   1      47.831  26.750  27.503  1.00  0.00     0.040 C 
ATOM     23  C   UNL A   1      49.721  25.122  28.122  1.00  0.00     0.008 C 
ATOM     24  C   UNL A   1      48.876  26.336  28.561  1.00  0.00     0.005 C 
ENDBRANCH  12  15
ENDBRANCH  10  11
ENDBRANCH   9  10
ENDBRANCH   8   9
ENDBRANCH   6   8
ENDBRANCH   5   6
ENDBRANCH   4   5
ENDBRANCH   3   4
ENDBRANCH   2   3
ENDBRANCH   1   2
BRANCH   1  25
ATOM     25  C   UNL A   1      42.479  18.832  25.974  1.00  0.00     0.188 C 
BRANCH  25  26
ATOM     26  O   UNL A   1      41.435  19.426  26.744  1.00  0.00    -0.376 OA
BRANCH  26  27
ATOM     27  C   UNL A   1      40.242  19.862  26.099  1.00  0.00     0.202 C 
BRANCH  27  28
ATOM     28  C   UNL A   1      39.873  21.346  26.135  1.00  0.00     0.261 C 
BRANCH  28  29
ATOM     29  O   UNL A   1      40.630  22.146  27.034  1.00  0.00    -0.460 OA
BRANCH  29  30
ATOM     30  C   UNL A   1      41.413  23.135  26.564  1.00  0.00     0.338 C 
ATOM     31  O   UNL A   1      42.160  23.100  25.601  1.00  0.00    -0.246 OA
BRANCH  30  32
ATOM     32  C   UNL A   1      41.149  24.316  27.403  1.00  0.00     0.060 A 
ATOM     33  C   UNL A   1      40.230  25.257  26.939  1.00  0.00     0.016 A 
ATOM     34  C   UNL A   1      41.896  24.532  28.576  1.00  0.00     0.016 A 
ATOM     35  C   UNL A   1      40.229  26.508  27.518  1.00  0.00     0.010 A 
ATOM     36  C   UNL A   1      41.903  25.777  29.146  1.00  0.00     0.010 A 
ATOM     37  C   UNL A   1      41.142  26.771  28.544  1.00  0.00    -0.014 A 
BRANCH  37  38
ATOM     38  C   UNL A   1      41.357  28.144  28.941  1.00  0.00     0.031 A 
ATOM     39  C   UNL A   1      42.564  28.755  28.366  1.00  0.00     0.074 A 
ATOM     40  C   UNL A   1      40.443  28.789  29.691  1.00  0.00     0.049 A 
ATOM     41  N   UNL A   1      43.661  29.044  28.983  1.00  0.00    -0.248 NA
ATOM     42  C   UNL A   1      42.628  28.912  26.906  1.00  0.00     0.031 C 
ATOM     43  C   UNL A   1      39.090  28.313  30.016  1.00  0.00     0.029 A 
ATOM     44  N   UNL A   1      40.462  30.051  30.207  1.00  0.00    -0.354 N 
ATOM     45  C   UNL A   1      44.433  29.695  28.027  1.00  0.00     0.074 A 
ATOM     46  C   UNL A   1      43.878  29.348  26.747  1.00  0.00     0.031 C 
ATOM     47  C   UNL A   1      38.349  29.352  30.460  1.00  0.00     0.029 A 
ATOM     48  C   UNL A   1      39.207  30.516  30.582  1.00  0.00     0.049 A 
ATOM     49  H   UNL A   1      41.286  30.581  30.303  1.00  0.00     0.167 HD
ATOM     50  C   UNL A   1      45.214  30.750  28.384  1.00  0.00     0.034 A 
ATOM     51  C   UNL A   1      38.882  31.786  30.918  1.00  0.00     0.034 A 
ATOM     52  C   UNL A   1      45.363  30.833  29.813  1.00  0.00     0.049 A 
ATOM     53  C   UNL A   1      40.121  32.481  31.322  1.00  0.00     0.074 A 
ATOM     54  C   UNL A   1      46.056  30.166  30.796  1.00  0.00     0.029 A 
ATOM     55  N   UNL A   1      44.391  31.581  30.424  1.00  0.00    -0.354 N 
ATOM     56  N   UNL A   1      40.786  32.184  32.403  1.00  0.00    -0.248 NA
ATOM     57  C   UNL A   1      40.827  33.324  30.363  1.00  0.00     0.031 C 
ATOM     58  C   UNL A   1      45.374  30.437  32.019  1.00  0.00     0.029 A 
ATOM     59  C   UNL A   1      44.288  31.268  31.752  1.00  0.00     0.049 A 
ATOM     60  H   UNL A   1      43.837  32.255  29.967  1.00  0.00     0.167 HD
ATOM     61  C   UNL A   1      42.104  32.407  32.051  1.00  0.00     0.074 A 
ATOM     62  C   UNL A   1      42.053  33.282  30.889  1.00  0.00     0.031 C 
ATOM     63  C   UNL A   1      43.094  31.590  32.506  1.00  0.00     0.034 A 
BRANCH  50  64
ATOM     64  C   UNL A   1      45.451  31.981  27.533  1.00  0.00     0.023 A 
ATOM     65  C   UNL A   1      46.753  32.146  27.007  1.00  0.00     0.012 A 
ATOM     66  C   UNL A   1      44.594  33.104  27.470  1.00  0.00     0.148 A 
ATOM     67  C   UNL A   1      47.189  33.371  26.491  1.00  0.00     0.002 A 
ATOM     68  C   UNL A   1      45.004  34.295  26.881  1.00  0.00     0.091 A 
ATOM     69  F   UNL A   1      43.419  33.093  28.106  1.00  0.00    -0.205 F 
ATOM     70  C   UNL A   1      46.311  34.445  26.418  1.00  0.00     0.022 A 
BRANCH  68  71
ATOM     71  S   UNL A   1      43.889  35.696  26.732  1.00  0.00     0.127 S 
ATOM     72  O   UNL A   1      43.002  35.252  25.662  1.00  0.00    -0.237 OA
ATOM     73  O   UNL A   1      43.285  35.742  28.064  1.00  0.00    -0.237 OA
ATOM     74  O   UNL A   1      44.741  36.839  26.428  1.00  0.00    -0.744 OA
ENDBRANCH  68  71
ENDBRANCH  50  64
BRANCH  51  75
ATOM     75  C   UNL A   1      37.597  32.504  30.783  1.00  0.00     0.023 A 
ATOM     76  C   UNL A   1      36.842  32.362  29.604  1.00  0.00     0.012 A 
ATOM     77  C   UNL A   1      36.984  33.100  31.908  1.00  0.00     0.148 A 
ATOM     78  C   UNL A   1      35.501  32.756  29.559  1.00  0.00     0.002 A 
ATOM     79  C   UNL A   1      35.651  33.493  31.856  1.00  0.00     0.091 A 
ATOM     80  F   UNL A   1      37.682  33.197  33.047  1.00  0.00    -0.205 F 
ATOM     81  C   UNL A   1      34.902  33.308  30.687  1.00  0.00     0.022 A 
BRANCH  79  82
ATOM     82  S   UNL A   1      34.796  34.184  33.279  1.00  0.00     0.127 S 
ATOM     83  O   UNL A   1      35.542  35.421  33.509  1.00  0.00    -0.237 OA
ATOM     84  O   UNL A   1      33.445  34.371  32.757  1.00  0.00    -0.237 OA
ATOM     85  O   UNL A   1      34.930  33.197  34.343  1.00  0.00    -0.744 OA
ENDBRANCH  79  82
ENDBRANCH  51  75
BRANCH  63  86
ATOM     86  C   UNL A   1      42.831  30.815  33.763  1.00  0.00     0.023 A 
ATOM     87  C   UNL A   1      42.173  29.569  33.762  1.00  0.00     0.012 A 
ATOM     88  C   UNL A   1      43.352  31.315  34.968  1.00  0.00     0.148 A 
ATOM     89  C   UNL A   1      42.019  28.847  34.948  1.00  0.00     0.002 A 
ATOM     90  C   UNL A   1      43.239  30.572  36.135  1.00  0.00     0.091 A 
ATOM     91  F   UNL A   1      43.966  32.508  34.947  1.00  0.00    -0.205 F 
ATOM     92  C   UNL A   1      42.564  29.342  36.132  1.00  0.00     0.022 A 
BRANCH  90  93
ATOM     93  S   UNL A   1      44.027  31.101  37.656  1.00  0.00     0.127 S 
ATOM     94  O   UNL A   1      45.286  31.662  37.172  1.00  0.00    -0.237 OA
ATOM     95  O   UNL A   1      43.077  32.086  38.176  1.00  0.00    -0.237 OA
ATOM     96  O   UNL A   1      44.145  29.903  38.479  1.00  0.00    -0.744 OA
ENDBRANCH  90  93
ENDBRANCH  63  86
ENDBRANCH  37  38
ENDBRANCH  30  32
ENDBRANCH  29  30
ENDBRANCH  28  29
ENDBRANCH  27  28
ENDBRANCH  26  27
ENDBRANCH  25  26
ENDBRANCH   1  25
TORSDOF 24
ENDMDL
MODEL 3
REMARK VINA RESULT:      -9.5      3.091      5.104
REMARK SMILES Cc1oc2c(c1C(=O)NCCCC(=O)OCCOCCOCCOC(=O)c1ccc(-c3c4nc(c(-c5cccc(S(=O)(=O)[O-])c5F)c5ccc([nH]5)c(-c5cccc(S(=O)(=O)[O-])c5F)c5nc(c(-c6cccc(S(=O)(=O)[O-])c6F)c6ccc3[nH]6)C=C5)C=C4)cc1)CCCC2
REMARK SMILES IDX 19 1 18 2 17 3 16 4 15 5 13 6 14 7 12 8 11 9 10 10 9 11 7 12
REMARK SMILES IDX 8 13 6 15 1 16 2 17 3 18 4 19 5 20 93 21 90 22 92 23 91 24
REMARK SMILES IDX 20 25 21 26 22 27 23 28 24 29 25 30 26 31 27 32 28 33 89 34
REMARK SMILES IDX 29 35 88 36 30 37 31 38 32 39 82 40 33 41 87 42 81 43 83 44
REMARK SMILES IDX 34 45 86 46 80 47 79 48 35 50 67 51 47 52 66 53 48 54 51 55
REMARK SMILES IDX 65 56 84 57 49 58 50 59 64 61 85 62 52 63 36 64 37 65 45 66
REMARK SMILES IDX 38 67 40 68 46 69 39 70 41 71 42 72 43 73 44 74 68 75 69 76
REMARK SMILES IDX 77 77 70 78 72 79 78 80 71 81 73 82 74 83 75 84 76 85 53 86
REMARK SMILES IDX 54 87 62 88 55 89 57 90 63 91 56 92 58 93 59 94 60 95 61 96
REMARK H PARENT 9 14 83 49 51 60
REMARK Flexibility Score: inf
ROOT
ATOM      1  C   UNL A   1      44.818  19.719  24.944  1.00  0.00     0.188 C 
ENDROOT
BRANCH   1   2
ATOM      2  O   UNL A   1      43.623  18.931  24.934  1.00  0.00    -0.376 OA
BRANCH   2   3
ATOM      3  C   UNL A   1      42.946  18.767  26.181  1.00  0.00     0.202 C 
BRANCH   3   4
ATOM      4  C   UNL A   1      41.426  18.989  26.137  1.00  0.00     0.261 C 
BRANCH   4   5
ATOM      5  O   UNL A   1      41.070  20.372  25.950  1.00  0.00    -0.463 OA
BRANCH   5   6
ATOM      6  C   UNL A   1      39.755  20.683  25.864  1.00  0.00     0.305 C 
ATOM      7  O   UNL A   1      39.302  21.821  25.862  1.00  0.00    -0.252 OA
BRANCH   6   8
ATOM      8  C   UNL A   1      38.862  19.461  25.720  1.00  0.00     0.124 C 
BRANCH   8   9
ATOM      9  C   UNL A   1      37.697  19.522  24.724  1.00  0.00     0.033 C 
BRANCH   9  10
ATOM     10  C   UNL A   1      36.566  20.470  25.120  1.00  0.00     0.117 C 
BRANCH  10  11
ATOM     11  N   UNL A   1      36.546  21.621  24.257  1.00  0.00    -0.352 N 
ATOM     12  C   UNL A   1      35.627  22.571  23.931  1.00  0.00     0.255 C 
ATOM     13  O   UNL A   1      36.067  23.421  23.147  1.00  0.00    -0.269 OA
ATOM     14  H   UNL A   1      37.403  21.755  23.791  1.00  0.00     0.163 HD
BRANCH  12  15
ATOM     15  C   UNL A   1      34.255  22.683  24.440  1.00  0.00     0.084 A 
ATOM     16  C   UNL A   1      32.799  20.436  24.158  1.00  0.00     0.088 C 
ATOM     17  C   UNL A   1      33.152  21.825  24.523  1.00  0.00     0.114 A 
ATOM     18  O   UNL A   1      32.074  22.472  25.075  1.00  0.00    -0.465 OA
ATOM     19  C   UNL A   1      32.442  23.739  25.299  1.00  0.00     0.108 A 
ATOM     20  C   UNL A   1      33.750  23.940  24.951  1.00  0.00     0.007 A 
ATOM     21  C   UNL A   1      31.472  24.719  25.830  1.00  0.00     0.076 C 
ATOM     22  C   UNL A   1      34.386  25.286  25.062  1.00  0.00     0.040 C 
ATOM     23  C   UNL A   1      32.009  26.135  25.548  1.00  0.00     0.008 C 
ATOM     24  C   UNL A   1      33.510  26.261  25.879  1.00  0.00     0.005 C 
ENDBRANCH  12  15
ENDBRANCH  10  11
ENDBRANCH   9  10
ENDBRANCH   8   9
ENDBRANCH   6   8
ENDBRANCH   5   6
ENDBRANCH   4   5
ENDBRANCH   3   4
ENDBRANCH   2   3
ENDBRANCH   1   2
BRANCH   1  25
ATOM     25  C   UNL A   1      44.838  20.882  23.944  1.00  0.00     0.188 C 
BRANCH  25  26
ATOM     26  O   UNL A   1      44.496  22.125  24.557  1.00  0.00    -0.376 OA
BRANCH  26  27
ATOM     27  C   UNL A   1      43.650  22.139  25.703  1.00  0.00     0.202 C 
BRANCH  27  28
ATOM     28  C   UNL A   1      42.949  23.440  26.098  1.00  0.00     0.261 C 
BRANCH  28  29
ATOM     29  O   UNL A   1      42.416  23.474  27.415  1.00  0.00    -0.460 OA
BRANCH  29  30
ATOM     30  C   UNL A   1      41.328  24.219  27.685  1.00  0.00     0.338 C 
ATOM     31  O   UNL A   1      40.192  23.831  27.898  1.00  0.00    -0.246 OA
BRANCH  30  32
ATOM     32  C   UNL A   1      41.780  25.619  27.744  1.00  0.00     0.060 A 
ATOM     33  C   UNL A   1      42.697  25.971  28.734  1.00  0.00     0.016 A 
ATOM     34  C   UNL A   1      41.206  26.585  26.895  1.00  0.00     0.016 A 
ATOM     35  C   UNL A   1      42.861  27.309  29.025  1.00  0.00     0.010 A 
ATOM     36  C   UNL A   1      41.361  27.913  27.189  1.00  0.00     0.010 A 
ATOM     37  C   UNL A   1      42.107  28.247  28.312  1.00  0.00    -0.014 A 
BRANCH  37  38
ATOM     38  C   UNL A   1      42.044  29.602  28.810  1.00  0.00     0.031 A 
ATOM     39  C   UNL A   1      43.222  30.419  28.484  1.00  0.00     0.074 A 
ATOM     40  C   UNL A   1      40.932  30.053  29.423  1.00  0.00     0.049 A 
ATOM     41  N   UNL A   1      44.146  30.811  29.296  1.00  0.00    -0.248 NA
ATOM     42  C   UNL A   1      43.500  30.694  27.067  1.00  0.00     0.031 C 
ATOM     43  C   UNL A   1      39.632  29.368  29.484  1.00  0.00     0.029 A 
ATOM     44  N   UNL A   1      40.675  31.262  29.997  1.00  0.00    -0.354 N 
ATOM     45  C   UNL A   1      44.957  31.635  28.522  1.00  0.00     0.074 A 
ATOM     46  C   UNL A   1      44.678  31.312  27.150  1.00  0.00     0.031 C 
ATOM     47  C   UNL A   1      38.680  30.255  29.845  1.00  0.00     0.029 A 
ATOM     48  C   UNL A   1      39.320  31.516  30.173  1.00  0.00     0.049 A 
ATOM     49  H   UNL A   1      41.382  31.893  30.262  1.00  0.00     0.167 HD
ATOM     50  C   UNL A   1      45.500  32.758  29.063  1.00  0.00     0.034 A 
ATOM     51  C   UNL A   1      38.756  32.698  30.512  1.00  0.00     0.034 A 
ATOM     52  C   UNL A   1      45.398  32.753  30.498  1.00  0.00     0.049 A 
ATOM     53  C   UNL A   1      39.792  33.528  31.161  1.00  0.00     0.074 A 
ATOM     54  C   UNL A   1      46.015  32.117  31.551  1.00  0.00     0.029 A 
ATOM     55  N   UNL A   1      44.238  33.308  30.970  1.00  0.00    -0.354 N 
ATOM     56  N   UNL A   1      40.309  33.245  32.323  1.00  0.00    -0.248 NA
ATOM     57  C   UNL A   1      40.510  34.532  30.383  1.00  0.00     0.031 C 
ATOM     58  C   UNL A   1      45.109  32.196  32.650  1.00  0.00     0.029 A 
ATOM     59  C   UNL A   1      43.968  32.883  32.242  1.00  0.00     0.049 A 
ATOM     60  H   UNL A   1      43.671  33.930  30.459  1.00  0.00     0.167 HD
ATOM     61  C   UNL A   1      41.617  33.678  32.217  1.00  0.00     0.074 A 
ATOM     62  C   UNL A   1      41.626  34.623  31.110  1.00  0.00     0.031 C 
ATOM     63  C   UNL A   1      42.632  32.976  32.794  1.00  0.00     0.034 A 
BRANCH  50  64
ATOM     64  C   UNL A   1      45.684  34.072  28.330  1.00  0.00     0.023 A 
ATOM     65  C   UNL A   1      47.015  34.502  28.126  1.00  0.00     0.012 A 
ATOM     66  C   UNL A   1      44.666  35.029  28.107  1.00  0.00     0.148 A 
ATOM     67  C   UNL A   1      47.316  35.819  27.764  1.00  0.00     0.002 A 
ATOM     68  C   UNL A   1      44.966  36.314  27.668  1.00  0.00     0.091 A 
ATOM     69  F   UNL A   1      43.404  34.765  28.454  1.00  0.00    -0.205 F 
ATOM     70  C   UNL A   1      46.291  36.725  27.525  1.00  0.00     0.022 A 
BRANCH  68  71
ATOM     71  S   UNL A   1      43.668  37.505  27.310  1.00  0.00     0.127 S 
ATOM     72  O   UNL A   1      43.132  37.762  28.643  1.00  0.00    -0.237 OA
ATOM     73  O   UNL A   1      44.428  38.608  26.721  1.00  0.00    -0.237 OA
ATOM     74  O   UNL A   1      42.774  36.834  26.375  1.00  0.00    -0.744 OA
ENDBRANCH  68  71
ENDBRANCH  50  64
BRANCH  51  75
ATOM     75  C   UNL A   1      37.417  33.237  30.195  1.00  0.00     0.023 A 
ATOM     76  C   UNL A   1      36.868  33.024  28.916  1.00  0.00     0.012 A 
ATOM     77  C   UNL A   1      36.569  33.712  31.221  1.00  0.00     0.148 A 
ATOM     78  C   UNL A   1      35.506  33.232  28.676  1.00  0.00     0.002 A 
ATOM     79  C   UNL A   1      35.217  33.920  30.975  1.00  0.00     0.091 A 
ATOM     80  F   UNL A   1      37.075  33.873  32.451  1.00  0.00    -0.205 F 
ATOM     81  C   UNL A   1      34.678  33.666  29.707  1.00  0.00     0.022 A 
BRANCH  79  82
ATOM     82  S   UNL A   1      34.076  34.448  32.261  1.00  0.00     0.127 S 
ATOM     83  O   UNL A   1      32.956  34.967  31.477  1.00  0.00    -0.237 OA
ATOM     84  O   UNL A   1      33.806  33.193  32.958  1.00  0.00    -0.237 OA
ATOM     85  O   UNL A   1      34.786  35.459  33.034  1.00  0.00    -0.744 OA
ENDBRANCH  79  82
ENDBRANCH  51  75
BRANCH  63  86
ATOM     86  C   UNL A   1      42.287  32.078  33.944  1.00  0.00     0.023 A 
ATOM     87  C   UNL A   1      42.027  32.569  35.239  1.00  0.00     0.012 A 
ATOM     88  C   UNL A   1      42.127  30.707  33.686  1.00  0.00     0.148 A 
ATOM     89  C   UNL A   1      41.635  31.702  36.261  1.00  0.00     0.002 A 
ATOM     90  C   UNL A   1      41.690  29.857  34.692  1.00  0.00     0.091 A 
ATOM     91  F   UNL A   1      42.390  30.260  32.449  1.00  0.00    -0.205 F 
ATOM     92  C   UNL A   1      41.453  30.348  35.985  1.00  0.00     0.022 A 
BRANCH  90  93
ATOM     93  S   UNL A   1      41.322  28.133  34.362  1.00  0.00     0.127 S 
ATOM     94  O   UNL A   1      42.559  27.668  33.740  1.00  0.00    -0.237 OA
ATOM     95  O   UNL A   1      41.073  27.602  35.703  1.00  0.00    -0.237 OA
ATOM     96  O   UNL A   1      40.146  28.137  33.500  1.00  0.00    -0.744 OA
ENDBRANCH  90  93
ENDBRANCH  63  86
ENDBRANCH  37  38
ENDBRANCH  30  32
ENDBRANCH  29  30
ENDBRANCH  28  29
ENDBRANCH  27  28
ENDBRANCH  26  27
ENDBRANCH  25  26
ENDBRANCH   1  25
TORSDOF 24
ENDMDL
