MODEL 1
REMARK VINA RESULT:     -11.0      0.000      0.000
REMARK SMILES O=C(OCCOCCOCCOC(=O)c1cccnc1-c1cccc(F)c1)c1ccc(-c2c3nc(c(-c4cccc(S(=O)(=O)[O-])c4F)c4ccc([nH]4)c(-c4cccc(S(=O)(=O)[O-])c4F)c4nc(c(-c5cccc(S(=O)(=O)[O-])c5F)c5ccc2[nH]5)C=C4)C=C3)cc1
REMARK SMILES IDX 7 1 6 2 5 3 4 4 3 5 2 6 1 7 28 8 29 9 90 10 30 11 89 12
REMARK SMILES IDX 31 13 32 14 33 15 83 16 34 17 88 18 82 19 84 20 35 21 87 22
REMARK SMILES IDX 81 23 80 24 36 26 68 27 48 28 67 29 49 30 52 31 66 32 85 33
REMARK SMILES IDX 50 34 51 35 65 37 86 38 53 39 37 40 38 41 46 42 39 43 41 44
REMARK SMILES IDX 47 45 40 46 42 47 43 48 44 49 45 50 69 51 70 52 78 53 71 54
REMARK SMILES IDX 73 55 79 56 72 57 74 58 75 59 76 60 77 61 54 62 55 63 63 64
REMARK SMILES IDX 56 65 58 66 64 67 57 68 59 69 60 70 61 71 62 72 8 73 9 74
REMARK SMILES IDX 10 75 11 76 12 77 13 78 14 79 15 80 16 81 20 82 17 83 19 84
REMARK SMILES IDX 18 85 21 86 22 87 27 88 23 89 25 90 24 91 26 92
REMARK H PARENT 84 25 52 36
REMARK Flexibility Score: inf
ROOT
ATOM      1  C   UNL A   1      31.742  27.787  26.615  1.00  0.00     0.188 C 
ENDROOT
BRANCH   1   2
ATOM      2  O   UNL A   1      32.919  28.373  26.063  1.00  0.00    -0.376 OA
BRANCH   2   3
ATOM      3  C   UNL A   1      32.753  29.580  25.335  1.00  0.00     0.202 C 
BRANCH   3   4
ATOM      4  C   UNL A   1      31.767  30.548  25.991  1.00  0.00     0.261 C 
BRANCH   4   5
ATOM      5  O   UNL A   1      32.235  30.971  27.283  1.00  0.00    -0.460 OA
BRANCH   5   6
ATOM      6  C   UNL A   1      33.263  31.799  27.588  1.00  0.00     0.338 C 
ATOM      7  O   UNL A   1      33.088  33.007  27.423  1.00  0.00    -0.246 OA
BRANCH   6   8
ATOM      8  C   UNL A   1      34.641  31.341  27.981  1.00  0.00     0.060 A 
ATOM      9  C   UNL A   1      35.041  30.030  28.237  1.00  0.00     0.016 A 
ATOM     10  C   UNL A   1      35.629  32.345  28.081  1.00  0.00     0.016 A 
ATOM     11  C   UNL A   1      36.343  29.733  28.638  1.00  0.00     0.010 A 
ATOM     12  C   UNL A   1      36.950  32.051  28.444  1.00  0.00     0.010 A 
ATOM     13  C   UNL A   1      37.297  30.742  28.774  1.00  0.00    -0.014 A 
BRANCH  13  14
ATOM     14  C   UNL A   1      38.572  30.390  29.434  1.00  0.00     0.031 A 
ATOM     15  C   UNL A   1      38.785  30.834  30.851  1.00  0.00     0.074 A 
ATOM     16  C   UNL A   1      39.424  29.532  28.846  1.00  0.00     0.049 A 
ATOM     17  N   UNL A   1      39.668  30.416  31.718  1.00  0.00    -0.248 NA
ATOM     18  C   UNL A   1      37.862  31.857  31.375  1.00  0.00     0.031 C 
ATOM     19  C   UNL A   1      39.284  29.012  27.486  1.00  0.00     0.029 A 
ATOM     20  N   UNL A   1      40.547  28.911  29.334  1.00  0.00    -0.354 N 
ATOM     21  C   UNL A   1      39.402  31.117  32.887  1.00  0.00     0.074 A 
ATOM     22  C   UNL A   1      38.298  32.007  32.616  1.00  0.00     0.031 C 
ATOM     23  C   UNL A   1      40.262  28.119  27.262  1.00  0.00     0.029 A 
ATOM     24  C   UNL A   1      41.108  28.020  28.450  1.00  0.00     0.049 A 
ATOM     25  H   UNL A   1      40.915  29.087  30.230  1.00  0.00     0.167 HD
ATOM     26  C   UNL A   1      40.008  31.010  34.090  1.00  0.00     0.034 A 
ATOM     27  C   UNL A   1      42.173  27.204  28.592  1.00  0.00     0.034 A 
ATOM     28  C   UNL A   1      41.106  30.128  34.356  1.00  0.00     0.049 A 
ATOM     29  C   UNL A   1      42.874  27.149  29.923  1.00  0.00     0.074 A 
ATOM     30  C   UNL A   1      41.799  29.953  35.537  1.00  0.00     0.029 A 
ATOM     31  N   UNL A   1      41.682  29.287  33.416  1.00  0.00    -0.354 N 
ATOM     32  N   UNL A   1      42.544  27.737  31.048  1.00  0.00    -0.248 NA
ATOM     33  C   UNL A   1      44.071  26.301  30.018  1.00  0.00     0.031 C 
ATOM     34  C   UNL A   1      42.815  29.022  35.304  1.00  0.00     0.029 A 
ATOM     35  C   UNL A   1      42.740  28.604  33.984  1.00  0.00     0.049 A 
ATOM     36  H   UNL A   1      41.382  29.190  32.483  1.00  0.00     0.167 HD
ATOM     37  C   UNL A   1      43.477  27.317  31.989  1.00  0.00     0.074 A 
ATOM     38  C   UNL A   1      44.376  26.408  31.306  1.00  0.00     0.031 C 
ATOM     39  C   UNL A   1      43.590  27.665  33.294  1.00  0.00     0.034 A 
BRANCH  26  40
ATOM     40  C   UNL A   1      39.474  31.864  35.203  1.00  0.00     0.023 A 
ATOM     41  C   UNL A   1      38.472  31.352  36.053  1.00  0.00     0.012 A 
ATOM     42  C   UNL A   1      39.959  33.169  35.407  1.00  0.00     0.148 A 
ATOM     43  C   UNL A   1      37.941  32.138  37.073  1.00  0.00     0.002 A 
ATOM     44  C   UNL A   1      39.448  33.934  36.446  1.00  0.00     0.091 A 
ATOM     45  F   UNL A   1      40.885  33.646  34.564  1.00  0.00    -0.205 F 
ATOM     46  C   UNL A   1      38.434  33.425  37.275  1.00  0.00     0.022 A 
BRANCH  44  47
ATOM     47  S   UNL A   1      40.054  35.585  36.810  1.00  0.00     0.127 S 
ATOM     48  O   UNL A   1      41.495  35.356  36.899  1.00  0.00    -0.237 OA
ATOM     49  O   UNL A   1      39.628  36.339  35.630  1.00  0.00    -0.237 OA
ATOM     50  O   UNL A   1      39.402  35.983  38.049  1.00  0.00    -0.744 OA
ENDBRANCH  44  47
ENDBRANCH  26  40
BRANCH  27  51
ATOM     51  C   UNL A   1      42.588  26.335  27.453  1.00  0.00     0.023 A 
ATOM     52  C   UNL A   1      43.543  26.794  26.526  1.00  0.00     0.012 A 
ATOM     53  C   UNL A   1      42.094  25.020  27.331  1.00  0.00     0.148 A 
ATOM     54  C   UNL A   1      43.993  25.965  25.497  1.00  0.00     0.002 A 
ATOM     55  C   UNL A   1      42.594  24.179  26.344  1.00  0.00     0.091 A 
ATOM     56  F   UNL A   1      41.172  24.604  28.209  1.00  0.00    -0.205 F 
ATOM     57  C   UNL A   1      43.532  24.653  25.415  1.00  0.00     0.022 A 
BRANCH  55  58
ATOM     58  S   UNL A   1      42.194  22.429  26.290  1.00  0.00     0.127 S 
ATOM     59  O   UNL A   1      40.741  22.452  26.159  1.00  0.00    -0.237 OA
ATOM     60  O   UNL A   1      42.923  21.998  25.096  1.00  0.00    -0.237 OA
ATOM     61  O   UNL A   1      42.717  21.872  27.531  1.00  0.00    -0.744 OA
ENDBRANCH  55  58
ENDBRANCH  27  51
BRANCH  39  62
ATOM     62  C   UNL A   1      44.719  27.076  34.096  1.00  0.00     0.023 A 
ATOM     63  C   UNL A   1      45.899  27.824  34.271  1.00  0.00     0.012 A 
ATOM     64  C   UNL A   1      44.541  25.877  34.811  1.00  0.00     0.148 A 
ATOM     65  C   UNL A   1      46.887  27.386  35.151  1.00  0.00     0.002 A 
ATOM     66  C   UNL A   1      45.509  25.470  35.721  1.00  0.00     0.091 A 
ATOM     67  F   UNL A   1      43.415  25.176  34.612  1.00  0.00    -0.205 F 
ATOM     68  C   UNL A   1      46.684  26.220  35.888  1.00  0.00     0.022 A 
BRANCH  66  69
ATOM     69  S   UNL A   1      45.283  24.047  36.795  1.00  0.00     0.127 S 
ATOM     70  O   UNL A   1      44.490  24.618  37.882  1.00  0.00    -0.237 OA
ATOM     71  O   UNL A   1      44.557  23.117  35.931  1.00  0.00    -0.237 OA
ATOM     72  O   UNL A   1      46.623  23.608  37.166  1.00  0.00    -0.744 OA
ENDBRANCH  66  69
ENDBRANCH  39  62
ENDBRANCH  13  14
ENDBRANCH   6   8
ENDBRANCH   5   6
ENDBRANCH   4   5
ENDBRANCH   3   4
ENDBRANCH   2   3
ENDBRANCH   1   2
BRANCH   1  73
ATOM     73  C   UNL A   1      31.294  26.443  26.027  1.00  0.00     0.188 C 
BRANCH  73  74
ATOM     74  O   UNL A   1      30.134  25.801  26.542  1.00  0.00    -0.376 OA
BRANCH  74  75
ATOM     75  C   UNL A   1      29.963  24.404  26.356  1.00  0.00     0.202 C 
BRANCH  75  76
ATOM     76  C   UNL A   1      31.120  23.497  26.771  1.00  0.00     0.261 C 
BRANCH  76  77
ATOM     77  O   UNL A   1      32.282  23.603  25.938  1.00  0.00    -0.460 OA
BRANCH  77  78
ATOM     78  C   UNL A   1      32.206  22.973  24.737  1.00  0.00     0.340 C 
ATOM     79  O   UNL A   1      31.995  21.789  24.546  1.00  0.00    -0.246 OA
BRANCH  78  80
ATOM     80  C   UNL A   1      32.509  23.934  23.668  1.00  0.00     0.086 A 
ATOM     81  C   UNL A   1      31.439  24.524  22.987  1.00  0.00     0.019 A 
ATOM     82  C   UNL A   1      33.811  24.330  23.358  1.00  0.00     0.085 A 
ATOM     83  C   UNL A   1      31.692  25.506  22.039  1.00  0.00     0.021 A 
ATOM     84  N   UNL A   1      34.063  25.275  22.407  1.00  0.00    -0.255 NA
ATOM     85  C   UNL A   1      33.005  25.851  21.786  1.00  0.00     0.112 A 
BRANCH  82  86
ATOM     86  C   UNL A   1      35.036  23.755  23.933  1.00  0.00     0.004 A 
ATOM     87  C   UNL A   1      35.754  22.782  23.211  1.00  0.00     0.010 A 
ATOM     88  C   UNL A   1      35.566  24.189  25.156  1.00  0.00     0.049 A 
ATOM     89  C   UNL A   1      36.944  22.238  23.703  1.00  0.00     0.004 A 
ATOM     90  C   UNL A   1      36.757  23.648  25.637  1.00  0.00     0.123 A 
ATOM     91  C   UNL A   1      37.447  22.673  24.925  1.00  0.00     0.039 A 
ATOM     92  F   UNL A   1      37.256  24.081  26.803  1.00  0.00    -0.207 F 
ENDBRANCH  82  86
ENDBRANCH  78  80
ENDBRANCH  77  78
ENDBRANCH  76  77
ENDBRANCH  75  76
ENDBRANCH  74  75
ENDBRANCH  73  74
ENDBRANCH   1  73
TORSDOF 21
ENDMDL
MODEL 2
REMARK VINA RESULT:     -10.4      5.066      9.872
REMARK SMILES O=C(OCCOCCOCCOC(=O)c1cccnc1-c1cccc(F)c1)c1ccc(-c2c3nc(c(-c4cccc(S(=O)(=O)[O-])c4F)c4ccc([nH]4)c(-c4cccc(S(=O)(=O)[O-])c4F)c4nc(c(-c5cccc(S(=O)(=O)[O-])c5F)c5ccc2[nH]5)C=C4)C=C3)cc1
REMARK SMILES IDX 7 1 6 2 5 3 4 4 3 5 2 6 1 7 28 8 29 9 90 10 30 11 89 12
REMARK SMILES IDX 31 13 32 14 33 15 83 16 34 17 88 18 82 19 84 20 35 21 87 22
REMARK SMILES IDX 81 23 80 24 36 26 68 27 48 28 67 29 49 30 52 31 66 32 85 33
REMARK SMILES IDX 50 34 51 35 65 37 86 38 53 39 37 40 38 41 46 42 39 43 41 44
REMARK SMILES IDX 47 45 40 46 42 47 43 48 44 49 45 50 69 51 70 52 78 53 71 54
REMARK SMILES IDX 73 55 79 56 72 57 74 58 75 59 76 60 77 61 54 62 55 63 63 64
REMARK SMILES IDX 56 65 58 66 64 67 57 68 59 69 60 70 61 71 62 72 8 73 9 74
REMARK SMILES IDX 10 75 11 76 12 77 13 78 14 79 15 80 16 81 20 82 17 83 19 84
REMARK SMILES IDX 18 85 21 86 22 87 27 88 23 89 25 90 24 91 26 92
REMARK H PARENT 84 25 52 36
REMARK Flexibility Score: inf
ROOT
ATOM      1  C   UNL A   1      34.138  23.174  25.960  1.00  0.00     0.188 C 
ENDROOT
BRANCH   1   2
ATOM      2  O   UNL A   1      34.307  22.227  24.907  1.00  0.00    -0.376 OA
BRANCH   2   3
ATOM      3  C   UNL A   1      35.093  21.081  25.196  1.00  0.00     0.202 C 
BRANCH   3   4
ATOM      4  C   UNL A   1      36.567  21.251  24.824  1.00  0.00     0.261 C 
BRANCH   4   5
ATOM      5  O   UNL A   1      37.343  21.682  25.955  1.00  0.00    -0.460 OA
BRANCH   5   6
ATOM      6  C   UNL A   1      38.686  21.656  26.126  1.00  0.00     0.338 C 
ATOM      7  O   UNL A   1      39.256  20.573  25.981  1.00  0.00    -0.246 OA
BRANCH   6   8
ATOM      8  C   UNL A   1      39.509  22.817  26.614  1.00  0.00     0.060 A 
ATOM      9  C   UNL A   1      40.468  22.790  27.626  1.00  0.00     0.016 A 
ATOM     10  C   UNL A   1      39.296  24.052  25.963  1.00  0.00     0.016 A 
ATOM     11  C   UNL A   1      41.139  23.947  28.022  1.00  0.00     0.010 A 
ATOM     12  C   UNL A   1      39.994  25.210  26.327  1.00  0.00     0.010 A 
ATOM     13  C   UNL A   1      40.885  25.169  27.398  1.00  0.00    -0.014 A 
BRANCH  13  14
ATOM     14  C   UNL A   1      41.443  26.385  28.028  1.00  0.00     0.031 A 
ATOM     15  C   UNL A   1      42.861  26.761  27.715  1.00  0.00     0.074 A 
ATOM     16  C   UNL A   1      40.639  27.228  28.700  1.00  0.00     0.049 A 
ATOM     17  N   UNL A   1      43.468  27.901  27.905  1.00  0.00    -0.248 NA
ATOM     18  C   UNL A   1      43.696  25.732  27.071  1.00  0.00     0.031 C 
ATOM     19  C   UNL A   1      39.236  26.970  29.022  1.00  0.00     0.029 A 
ATOM     20  N   UNL A   1      40.874  28.488  29.190  1.00  0.00    -0.354 N 
ATOM     21  C   UNL A   1      44.750  27.729  27.399  1.00  0.00     0.074 A 
ATOM     22  C   UNL A   1      44.846  26.371  26.918  1.00  0.00     0.031 C 
ATOM     23  C   UNL A   1      38.723  28.057  29.620  1.00  0.00     0.029 A 
ATOM     24  C   UNL A   1      39.763  29.077  29.745  1.00  0.00     0.049 A 
ATOM     25  H   UNL A   1      41.754  28.928  29.147  1.00  0.00     0.167 HD
ATOM     26  C   UNL A   1      45.752  28.632  27.316  1.00  0.00     0.034 A 
ATOM     27  C   UNL A   1      39.600  30.306  30.276  1.00  0.00     0.034 A 
ATOM     28  C   UNL A   1      45.655  29.979  27.796  1.00  0.00     0.049 A 
ATOM     29  C   UNL A   1      40.751  31.275  30.232  1.00  0.00     0.074 A 
ATOM     30  C   UNL A   1      46.616  30.970  27.772  1.00  0.00     0.029 A 
ATOM     31  N   UNL A   1      44.531  30.516  28.406  1.00  0.00    -0.354 N 
ATOM     32  N   UNL A   1      41.920  31.133  29.654  1.00  0.00    -0.248 NA
ATOM     33  C   UNL A   1      40.559  32.579  30.883  1.00  0.00     0.031 C 
ATOM     34  C   UNL A   1      46.081  32.102  28.393  1.00  0.00     0.029 A 
ATOM     35  C   UNL A   1      44.780  31.820  28.784  1.00  0.00     0.049 A 
ATOM     36  H   UNL A   1      43.681  30.038  28.548  1.00  0.00     0.167 HD
ATOM     37  C   UNL A   1      42.595  32.333  29.851  1.00  0.00     0.074 A 
ATOM     38  C   UNL A   1      41.696  33.199  30.587  1.00  0.00     0.031 C 
ATOM     39  C   UNL A   1      43.849  32.679  29.473  1.00  0.00     0.034 A 
BRANCH  26  40
ATOM     40  C   UNL A   1      47.028  28.180  26.667  1.00  0.00     0.023 A 
ATOM     41  C   UNL A   1      48.138  27.853  27.473  1.00  0.00     0.012 A 
ATOM     42  C   UNL A   1      47.131  28.081  25.268  1.00  0.00     0.148 A 
ATOM     43  C   UNL A   1      49.342  27.460  26.892  1.00  0.00     0.002 A 
ATOM     44  C   UNL A   1      48.323  27.658  24.698  1.00  0.00     0.091 A 
ATOM     45  F   UNL A   1      46.073  28.433  24.523  1.00  0.00    -0.205 F 
ATOM     46  C   UNL A   1      49.432  27.355  25.505  1.00  0.00     0.022 A 
BRANCH  44  47
ATOM     47  S   UNL A   1      48.517  27.449  22.924  1.00  0.00     0.127 S 
ATOM     48  O   UNL A   1      49.883  27.928  22.719  1.00  0.00    -0.237 OA
ATOM     49  O   UNL A   1      48.347  26.004  22.763  1.00  0.00    -0.237 OA
ATOM     50  O   UNL A   1      47.469  28.253  22.314  1.00  0.00    -0.744 OA
ENDBRANCH  44  47
ENDBRANCH  26  40
BRANCH  27  51
ATOM     51  C   UNL A   1      38.273  30.694  30.834  1.00  0.00     0.023 A 
ATOM     52  C   UNL A   1      37.992  30.486  32.198  1.00  0.00     0.012 A 
ATOM     53  C   UNL A   1      37.314  31.343  30.031  1.00  0.00     0.148 A 
ATOM     54  C   UNL A   1      36.781  30.910  32.749  1.00  0.00     0.002 A 
ATOM     55  C   UNL A   1      36.138  31.820  30.599  1.00  0.00     0.091 A 
ATOM     56  F   UNL A   1      37.588  31.517  28.731  1.00  0.00    -0.205 F 
ATOM     57  C   UNL A   1      35.861  31.590  31.954  1.00  0.00     0.022 A 
BRANCH  55  58
ATOM     58  S   UNL A   1      34.996  32.866  29.691  1.00  0.00     0.127 S 
ATOM     59  O   UNL A   1      34.041  33.246  30.727  1.00  0.00    -0.237 OA
ATOM     60  O   UNL A   1      35.881  33.938  29.232  1.00  0.00    -0.237 OA
ATOM     61  O   UNL A   1      34.475  32.032  28.615  1.00  0.00    -0.744 OA
ENDBRANCH  55  58
ENDBRANCH  27  51
BRANCH  39  62
ATOM     62  C   UNL A   1      44.352  34.050  29.837  1.00  0.00     0.023 A 
ATOM     63  C   UNL A   1      45.128  34.210  31.002  1.00  0.00     0.012 A 
ATOM     64  C   UNL A   1      44.207  35.127  28.943  1.00  0.00     0.148 A 
ATOM     65  C   UNL A   1      45.755  35.425  31.270  1.00  0.00     0.002 A 
ATOM     66  C   UNL A   1      44.873  36.321  29.192  1.00  0.00     0.091 A 
ATOM     67  F   UNL A   1      43.450  34.953  27.850  1.00  0.00    -0.205 F 
ATOM     68  C   UNL A   1      45.642  36.473  30.357  1.00  0.00     0.022 A 
BRANCH  66  69
ATOM     69  S   UNL A   1      44.881  37.683  28.020  1.00  0.00     0.127 S 
ATOM     70  O   UNL A   1      43.570  37.540  27.390  1.00  0.00    -0.237 OA
ATOM     71  O   UNL A   1      45.014  38.847  28.898  1.00  0.00    -0.237 OA
ATOM     72  O   UNL A   1      46.022  37.453  27.144  1.00  0.00    -0.744 OA
ENDBRANCH  66  69
ENDBRANCH  39  62
ENDBRANCH  13  14
ENDBRANCH   6   8
ENDBRANCH   5   6
ENDBRANCH   4   5
ENDBRANCH   3   4
ENDBRANCH   2   3
ENDBRANCH   1   2
BRANCH   1  73
ATOM     73  C   UNL A   1      33.543  22.649  27.274  1.00  0.00     0.188 C 
BRANCH  73  74
ATOM     74  O   UNL A   1      32.273  23.122  27.709  1.00  0.00    -0.376 OA
BRANCH  74  75
ATOM     75  C   UNL A   1      31.138  22.957  26.871  1.00  0.00     0.202 C 
BRANCH  75  76
ATOM     76  C   UNL A   1      30.527  24.221  26.266  1.00  0.00     0.261 C 
BRANCH  76  77
ATOM     77  O   UNL A   1      30.732  24.358  24.854  1.00  0.00    -0.460 OA
BRANCH  77  78
ATOM     78  C   UNL A   1      30.436  25.576  24.330  1.00  0.00     0.340 C 
ATOM     79  O   UNL A   1      29.413  26.214  24.501  1.00  0.00    -0.246 OA
BRANCH  78  80
ATOM     80  C   UNL A   1      31.521  25.992  23.431  1.00  0.00     0.086 A 
ATOM     81  C   UNL A   1      31.729  25.253  22.261  1.00  0.00     0.019 A 
ATOM     82  C   UNL A   1      32.296  27.129  23.663  1.00  0.00     0.085 A 
ATOM     83  C   UNL A   1      32.682  25.680  21.346  1.00  0.00     0.021 A 
ATOM     84  N   UNL A   1      33.253  27.533  22.779  1.00  0.00    -0.255 NA
ATOM     85  C   UNL A   1      33.411  26.816  21.640  1.00  0.00     0.112 A 
BRANCH  82  86
ATOM     86  C   UNL A   1      32.244  27.963  24.872  1.00  0.00     0.004 A 
ATOM     87  C   UNL A   1      32.761  27.466  26.085  1.00  0.00     0.010 A 
ATOM     88  C   UNL A   1      31.758  29.278  24.856  1.00  0.00     0.049 A 
ATOM     89  C   UNL A   1      32.767  28.241  27.248  1.00  0.00     0.004 A 
ATOM     90  C   UNL A   1      31.775  30.048  26.018  1.00  0.00     0.123 A 
ATOM     91  C   UNL A   1      32.269  29.539  27.214  1.00  0.00     0.039 A 
ATOM     92  F   UNL A   1      31.316  31.306  25.984  1.00  0.00    -0.207 F 
ENDBRANCH  82  86
ENDBRANCH  78  80
ENDBRANCH  77  78
ENDBRANCH  76  77
ENDBRANCH  75  76
ENDBRANCH  74  75
ENDBRANCH  73  74
ENDBRANCH   1  73
TORSDOF 21
ENDMDL
MODEL 3
REMARK VINA RESULT:     -10.2      1.683      2.323
REMARK SMILES O=C(OCCOCCOCCOC(=O)c1cccnc1-c1cccc(F)c1)c1ccc(-c2c3nc(c(-c4cccc(S(=O)(=O)[O-])c4F)c4ccc([nH]4)c(-c4cccc(S(=O)(=O)[O-])c4F)c4nc(c(-c5cccc(S(=O)(=O)[O-])c5F)c5ccc2[nH]5)C=C4)C=C3)cc1
REMARK SMILES IDX 7 1 6 2 5 3 4 4 3 5 2 6 1 7 28 8 29 9 90 10 30 11 89 12
REMARK SMILES IDX 31 13 32 14 33 15 83 16 34 17 88 18 82 19 84 20 35 21 87 22
REMARK SMILES IDX 81 23 80 24 36 26 68 27 48 28 67 29 49 30 52 31 66 32 85 33
REMARK SMILES IDX 50 34 51 35 65 37 86 38 53 39 37 40 38 41 46 42 39 43 41 44
REMARK SMILES IDX 47 45 40 46 42 47 43 48 44 49 45 50 69 51 70 52 78 53 71 54
REMARK SMILES IDX 73 55 79 56 72 57 74 58 75 59 76 60 77 61 54 62 55 63 63 64
REMARK SMILES IDX 56 65 58 66 64 67 57 68 59 69 60 70 61 71 62 72 8 73 9 74
REMARK SMILES IDX 10 75 11 76 12 77 13 78 14 79 15 80 16 81 20 82 17 83 19 84
REMARK SMILES IDX 18 85 21 86 22 87 27 88 23 89 25 90 24 91 26 92
REMARK H PARENT 84 25 52 36
REMARK Flexibility Score: inf
ROOT
ATOM      1  C   UNL A   1      32.191  29.420  25.705  1.00  0.00     0.188 C 
ENDROOT
BRANCH   1   2
ATOM      2  O   UNL A   1      31.299  30.479  25.361  1.00  0.00    -0.376 OA
BRANCH   2   3
ATOM      3  C   UNL A   1      31.269  31.599  26.233  1.00  0.00     0.202 C 
BRANCH   3   4
ATOM      4  C   UNL A   1      32.452  31.641  27.201  1.00  0.00     0.261 C 
BRANCH   4   5
ATOM      5  O   UNL A   1      32.773  32.992  27.572  1.00  0.00    -0.460 OA
BRANCH   5   6
ATOM      6  C   UNL A   1      33.725  33.438  28.427  1.00  0.00     0.338 C 
ATOM      7  O   UNL A   1      33.586  34.570  28.890  1.00  0.00    -0.246 OA
BRANCH   6   8
ATOM      8  C   UNL A   1      35.002  32.707  28.741  1.00  0.00     0.060 A 
ATOM      9  C   UNL A   1      35.119  31.475  29.385  1.00  0.00     0.016 A 
ATOM     10  C   UNL A   1      36.198  33.329  28.322  1.00  0.00     0.016 A 
ATOM     11  C   UNL A   1      36.365  30.916  29.661  1.00  0.00     0.010 A 
ATOM     12  C   UNL A   1      37.453  32.755  28.559  1.00  0.00     0.010 A 
ATOM     13  C   UNL A   1      37.540  31.564  29.279  1.00  0.00    -0.014 A 
BRANCH  13  14
ATOM     14  C   UNL A   1      38.814  31.041  29.818  1.00  0.00     0.031 A 
ATOM     15  C   UNL A   1      39.212  31.434  31.210  1.00  0.00     0.074 A 
ATOM     16  C   UNL A   1      39.490  30.089  29.151  1.00  0.00     0.049 A 
ATOM     17  N   UNL A   1      40.108  30.893  31.990  1.00  0.00    -0.248 NA
ATOM     18  C   UNL A   1      38.482  32.560  31.819  1.00  0.00     0.031 C 
ATOM     19  C   UNL A   1      39.160  29.611  27.808  1.00  0.00     0.029 A 
ATOM     20  N   UNL A   1      40.562  29.321  29.531  1.00  0.00    -0.354 N 
ATOM     21  C   UNL A   1      40.044  31.605  33.180  1.00  0.00     0.074 A 
ATOM     22  C   UNL A   1      39.044  32.634  33.015  1.00  0.00     0.031 C 
ATOM     23  C   UNL A   1      39.988  28.602  27.493  1.00  0.00     0.029 A 
ATOM     24  C   UNL A   1      40.920  28.377  28.597  1.00  0.00     0.049 A 
ATOM     25  H   UNL A   1      41.030  29.435  30.390  1.00  0.00     0.167 HD
ATOM     26  C   UNL A   1      40.738  31.403  34.322  1.00  0.00     0.034 A 
ATOM     27  C   UNL A   1      41.877  27.429  28.638  1.00  0.00     0.034 A 
ATOM     28  C   UNL A   1      41.732  30.383  34.483  1.00  0.00     0.049 A 
ATOM     29  C   UNL A   1      42.684  27.264  29.898  1.00  0.00     0.074 A 
ATOM     30  C   UNL A   1      42.502  30.103  35.594  1.00  0.00     0.029 A 
ATOM     31  N   UNL A   1      42.105  29.488  33.492  1.00  0.00    -0.354 N 
ATOM     32  N   UNL A   1      42.538  27.874  31.050  1.00  0.00    -0.248 NA
ATOM     33  C   UNL A   1      43.765  26.268  29.880  1.00  0.00     0.031 C 
ATOM     34  C   UNL A   1      43.362  29.051  35.266  1.00  0.00     0.029 A 
ATOM     35  C   UNL A   1      43.113  28.666  33.958  1.00  0.00     0.049 A 
ATOM     36  H   UNL A   1      41.711  29.444  32.590  1.00  0.00     0.167 HD
ATOM     37  C   UNL A   1      43.491  27.324  31.900  1.00  0.00     0.074 A 
ATOM     38  C   UNL A   1      44.198  26.316  31.135  1.00  0.00     0.031 C 
ATOM     39  C   UNL A   1      43.767  27.635  33.190  1.00  0.00     0.034 A 
BRANCH  26  40
ATOM     40  C   UNL A   1      40.424  32.303  35.481  1.00  0.00     0.023 A 
ATOM     41  C   UNL A   1      41.257  33.410  35.746  1.00  0.00     0.012 A 
ATOM     42  C   UNL A   1      39.313  32.056  36.307  1.00  0.00     0.148 A 
ATOM     43  C   UNL A   1      41.002  34.242  36.834  1.00  0.00     0.002 A 
ATOM     44  C   UNL A   1      39.047  32.908  37.371  1.00  0.00     0.091 A 
ATOM     45  F   UNL A   1      38.558  30.977  36.057  1.00  0.00    -0.205 F 
ATOM     46  C   UNL A   1      39.894  33.996  37.641  1.00  0.00     0.022 A 
BRANCH  44  47
ATOM     47  S   UNL A   1      37.616  32.696  38.435  1.00  0.00     0.127 S 
ATOM     48  O   UNL A   1      37.810  31.330  38.919  1.00  0.00    -0.237 OA
ATOM     49  O   UNL A   1      37.825  33.735  39.445  1.00  0.00    -0.237 OA
ATOM     50  O   UNL A   1      36.455  32.904  37.584  1.00  0.00    -0.744 OA
ENDBRANCH  44  47
ENDBRANCH  26  40
BRANCH  27  51
ATOM     51  C   UNL A   1      42.070  26.530  27.463  1.00  0.00     0.023 A 
ATOM     52  C   UNL A   1      42.839  26.959  26.365  1.00  0.00     0.012 A 
ATOM     53  C   UNL A   1      41.557  25.217  27.467  1.00  0.00     0.148 A 
ATOM     54  C   UNL A   1      43.087  26.102  25.291  1.00  0.00     0.002 A 
ATOM     55  C   UNL A   1      41.862  24.348  26.425  1.00  0.00     0.091 A 
ATOM     56  F   UNL A   1      40.812  24.830  28.511  1.00  0.00    -0.205 F 
ATOM     57  C   UNL A   1      42.612  24.793  25.327  1.00  0.00     0.022 A 
BRANCH  55  58
ATOM     58  S   UNL A   1      41.451  22.601  26.490  1.00  0.00     0.127 S 
ATOM     59  O   UNL A   1      42.125  22.086  25.303  1.00  0.00    -0.237 OA
ATOM     60  O   UNL A   1      42.045  22.207  27.768  1.00  0.00    -0.237 OA
ATOM     61  O   UNL A   1      39.995  22.544  26.475  1.00  0.00    -0.744 OA
ENDBRANCH  55  58
ENDBRANCH  27  51
BRANCH  39  62
ATOM     62  C   UNL A   1      44.879  26.894  33.882  1.00  0.00     0.023 A 
ATOM     63  C   UNL A   1      46.102  27.551  34.114  1.00  0.00     0.012 A 
ATOM     64  C   UNL A   1      44.649  25.627  34.451  1.00  0.00     0.148 A 
ATOM     65  C   UNL A   1      47.083  26.957  34.906  1.00  0.00     0.002 A 
ATOM     66  C   UNL A   1      45.612  25.062  35.277  1.00  0.00     0.091 A 
ATOM     67  F   UNL A   1      43.482  25.016  34.201  1.00  0.00    -0.205 F 
ATOM     68  C   UNL A   1      46.830  25.722  35.501  1.00  0.00     0.022 A 
BRANCH  66  69
ATOM     69  S   UNL A   1      45.331  23.532  36.178  1.00  0.00     0.127 S 
ATOM     70  O   UNL A   1      46.220  22.607  35.477  1.00  0.00    -0.237 OA
ATOM     71  O   UNL A   1      45.760  23.885  37.531  1.00  0.00    -0.237 OA
ATOM     72  O   UNL A   1      43.908  23.246  36.049  1.00  0.00    -0.744 OA
ENDBRANCH  66  69
ENDBRANCH  39  62
ENDBRANCH  13  14
ENDBRANCH   6   8
ENDBRANCH   5   6
ENDBRANCH   4   5
ENDBRANCH   3   4
ENDBRANCH   2   3
ENDBRANCH   1   2
BRANCH   1  73
ATOM     73  C   UNL A   1      32.606  28.469  24.575  1.00  0.00     0.188 C 
BRANCH  73  74
ATOM     74  O   UNL A   1      32.762  28.972  23.253  1.00  0.00    -0.376 OA
BRANCH  74  75
ATOM     75  C   UNL A   1      33.693  28.358  22.373  1.00  0.00     0.202 C 
BRANCH  75  76
ATOM     76  C   UNL A   1      33.974  26.871  22.581  1.00  0.00     0.261 C 
BRANCH  76  77
ATOM     77  O   UNL A   1      33.478  26.024  21.536  1.00  0.00    -0.460 OA
BRANCH  77  78
ATOM     78  C   UNL A   1      33.157  24.757  21.905  1.00  0.00     0.340 C 
ATOM     79  O   UNL A   1      33.441  23.731  21.314  1.00  0.00    -0.246 OA
BRANCH  78  80
ATOM     80  C   UNL A   1      32.318  24.803  23.110  1.00  0.00     0.086 A 
ATOM     81  C   UNL A   1      31.095  25.480  23.039  1.00  0.00     0.019 A 
ATOM     82  C   UNL A   1      32.659  24.142  24.290  1.00  0.00     0.085 A 
ATOM     83  C   UNL A   1      30.239  25.458  24.131  1.00  0.00     0.021 A 
ATOM     84  N   UNL A   1      31.832  24.143  25.375  1.00  0.00    -0.255 NA
ATOM     85  C   UNL A   1      30.640  24.781  25.266  1.00  0.00     0.112 A 
BRANCH  82  86
ATOM     86  C   UNL A   1      33.932  23.451  24.542  1.00  0.00     0.004 A 
ATOM     87  C   UNL A   1      33.989  22.045  24.464  1.00  0.00     0.010 A 
ATOM     88  C   UNL A   1      35.125  24.143  24.792  1.00  0.00     0.049 A 
ATOM     89  C   UNL A   1      35.187  21.351  24.657  1.00  0.00     0.004 A 
ATOM     90  C   UNL A   1      36.317  23.445  24.975  1.00  0.00     0.123 A 
ATOM     91  C   UNL A   1      36.358  22.056  24.916  1.00  0.00     0.039 A 
ATOM     92  F   UNL A   1      37.451  24.122  25.203  1.00  0.00    -0.207 F 
ENDBRANCH  82  86
ENDBRANCH  78  80
ENDBRANCH  77  78
ENDBRANCH  76  77
ENDBRANCH  75  76
ENDBRANCH  74  75
ENDBRANCH  73  74
ENDBRANCH   1  73
TORSDOF 21
ENDMDL
