MODEL 1
REMARK VINA RESULT:     -10.4      0.000      0.000
REMARK SMILES C[C@@H](Sc1nc2ccccc2c(=O)n1N)C(=O)OCCOCCOCCOC(=O)c1ccc(-c2c3nc(c(-c4cccc(S(=O)(=O)[O-])c4F)c4ccc([nH]4)c(-c4cccc(S(=O)(=O)[O-])c4F)c4nc(c(-c5cccc(S(=O)(=O)[O-])c5F)c5ccc2[nH]5)C=C4)C=C3)cc1
REMARK SMILES IDX 22 1 21 2 20 3 19 4 18 5 16 6 17 7 2 8 1 9 3 10 4 11 5 12
REMARK SMILES IDX 14 13 6 14 12 15 7 16 11 17 13 18 8 19 10 20 9 21 15 22
REMARK SMILES IDX 23 25 24 26 25 27 26 28 27 29 28 30 29 31 30 32 31 33 92 34
REMARK SMILES IDX 32 35 91 36 33 37 34 38 35 39 85 40 36 41 90 42 84 43 86 44
REMARK SMILES IDX 37 45 89 46 83 47 82 48 38 50 70 51 50 52 69 53 51 54 54 55
REMARK SMILES IDX 68 56 87 57 52 58 53 59 67 61 88 62 55 63 39 64 40 65 48 66
REMARK SMILES IDX 41 67 43 68 49 69 42 70 44 71 45 72 46 73 47 74 71 75 72 76
REMARK SMILES IDX 80 77 73 78 75 79 81 80 74 81 76 82 77 83 78 84 79 85 56 86
REMARK SMILES IDX 57 87 65 88 58 89 60 90 66 91 59 92 61 93 62 94 63 95 64 96
REMARK H PARENT 15 23 15 24 86 49 54 60
REMARK Flexibility Score: inf
ROOT
ATOM      1  C   UNL A   1      37.618  22.939  25.732  1.00  0.00     0.188 C 
ENDROOT
BRANCH   1   2
ATOM      2  O   UNL A   1      36.756  24.064  25.826  1.00  0.00    -0.376 OA
BRANCH   2   3
ATOM      3  C   UNL A   1      35.564  24.103  25.052  1.00  0.00     0.202 C 
BRANCH   3   4
ATOM      4  C   UNL A   1      34.198  24.249  25.747  1.00  0.00     0.261 C 
BRANCH   4   5
ATOM      5  O   UNL A   1      34.076  23.611  27.035  1.00  0.00    -0.462 OA
BRANCH   5   6
ATOM      6  C   UNL A   1      33.009  22.783  27.193  1.00  0.00     0.319 C 
ATOM      7  O   UNL A   1      32.686  22.297  28.274  1.00  0.00    -0.251 OA
BRANCH   6   8
ATOM      8  C   UNL A   1      32.195  22.539  25.909  1.00  0.00     0.161 C 
ATOM      9  C   UNL A   1      32.137  21.120  25.335  1.00  0.00     0.032 C 
BRANCH   8  10
ATOM     10  S   UNL A   1      30.517  23.181  26.266  1.00  0.00    -0.071 SA
BRANCH  10  11
ATOM     11  C   UNL A   1      30.674  24.851  25.795  1.00  0.00     0.191 A 
ATOM     12  N   UNL A   1      30.945  25.682  26.747  1.00  0.00    -0.222 NA
ATOM     13  N   UNL A   1      30.596  25.203  24.452  1.00  0.00    -0.202 N 
ATOM     14  C   UNL A   1      31.222  27.008  26.406  1.00  0.00     0.079 A 
ATOM     15  C   UNL A   1      30.922  26.491  24.022  1.00  0.00     0.280 A 
ATOM     16  C   UNL A   1      31.519  27.905  27.434  1.00  0.00     0.029 A 
ATOM     17  C   UNL A   1      31.281  27.449  25.084  1.00  0.00     0.068 A 
ATOM     18  O   UNL A   1      30.939  26.834  22.841  1.00  0.00    -0.267 OA
ATOM     19  C   UNL A   1      31.912  29.211  27.143  1.00  0.00     0.002 A 
ATOM     20  C   UNL A   1      31.680  28.755  24.780  1.00  0.00     0.016 A 
ATOM     21  C   UNL A   1      32.006  29.633  25.815  1.00  0.00     0.001 A 
BRANCH  13  22
ATOM     22  N   UNL A   1      30.170  24.277  23.445  1.00  0.00    -0.334 N 
ATOM     23  H   UNL A   1      30.670  23.440  23.304  1.00  0.00     0.178 HD
ATOM     24  H   UNL A   1      29.380  24.477  22.895  1.00  0.00     0.178 HD
ENDBRANCH  13  22
ENDBRANCH  10  11
ENDBRANCH   8  10
ENDBRANCH   6   8
ENDBRANCH   5   6
ENDBRANCH   4   5
ENDBRANCH   3   4
ENDBRANCH   2   3
ENDBRANCH   1   2
BRANCH   1  25
ATOM     25  C   UNL A   1      37.300  21.841  24.705  1.00  0.00     0.188 C 
BRANCH  25  26
ATOM     26  O   UNL A   1      37.362  20.525  25.205  1.00  0.00    -0.376 OA
BRANCH  26  27
ATOM     27  C   UNL A   1      38.425  19.689  24.779  1.00  0.00     0.202 C 
BRANCH  27  28
ATOM     28  C   UNL A   1      39.409  19.085  25.800  1.00  0.00     0.261 C 
BRANCH  28  29
ATOM     29  O   UNL A   1      39.997  19.978  26.758  1.00  0.00    -0.460 OA
BRANCH  29  30
ATOM     30  C   UNL A   1      41.281  20.354  26.551  1.00  0.00     0.338 C 
ATOM     31  O   UNL A   1      42.148  19.707  25.981  1.00  0.00    -0.246 OA
BRANCH  30  32
ATOM     32  C   UNL A   1      41.389  21.788  26.907  1.00  0.00     0.060 A 
ATOM     33  C   UNL A   1      41.102  22.754  25.930  1.00  0.00     0.016 A 
ATOM     34  C   UNL A   1      41.741  22.178  28.199  1.00  0.00     0.016 A 
ATOM     35  C   UNL A   1      41.185  24.114  26.240  1.00  0.00     0.010 A 
ATOM     36  C   UNL A   1      41.850  23.541  28.500  1.00  0.00     0.010 A 
ATOM     37  C   UNL A   1      41.601  24.515  27.515  1.00  0.00    -0.014 A 
BRANCH  37  38
ATOM     38  C   UNL A   1      41.958  25.932  27.772  1.00  0.00     0.031 A 
ATOM     39  C   UNL A   1      43.336  26.401  27.389  1.00  0.00     0.074 A 
ATOM     40  C   UNL A   1      41.093  26.787  28.347  1.00  0.00     0.049 A 
ATOM     41  N   UNL A   1      43.902  27.563  27.585  1.00  0.00    -0.248 NA
ATOM     42  C   UNL A   1      44.191  25.422  26.698  1.00  0.00     0.031 C 
ATOM     43  C   UNL A   1      39.727  26.467  28.753  1.00  0.00     0.029 A 
ATOM     44  N   UNL A   1      41.258  28.099  28.722  1.00  0.00    -0.354 N 
ATOM     45  C   UNL A   1      45.191  27.443  27.080  1.00  0.00     0.074 A 
ATOM     46  C   UNL A   1      45.325  26.095  26.572  1.00  0.00     0.031 C 
ATOM     47  C   UNL A   1      39.189  27.542  29.355  1.00  0.00     0.029 A 
ATOM     48  C   UNL A   1      40.182  28.614  29.407  1.00  0.00     0.049 A 
ATOM     49  H   UNL A   1      42.069  28.620  28.520  1.00  0.00     0.167 HD
ATOM     50  C   UNL A   1      46.175  28.372  27.037  1.00  0.00     0.034 A 
ATOM     51  C   UNL A   1      40.030  29.800  30.032  1.00  0.00     0.034 A 
ATOM     52  C   UNL A   1      46.039  29.715  27.529  1.00  0.00     0.049 A 
ATOM     53  C   UNL A   1      41.152  30.807  29.997  1.00  0.00     0.074 A 
ATOM     54  C   UNL A   1      46.964  30.744  27.480  1.00  0.00     0.029 A 
ATOM     55  N   UNL A   1      44.922  30.213  28.179  1.00  0.00    -0.354 N 
ATOM     56  N   UNL A   1      42.326  30.721  29.421  1.00  0.00    -0.248 NA
ATOM     57  C   UNL A   1      40.916  32.092  30.676  1.00  0.00     0.031 C 
ATOM     58  C   UNL A   1      46.421  31.850  28.139  1.00  0.00     0.029 A 
ATOM     59  C   UNL A   1      45.138  31.528  28.553  1.00  0.00     0.049 A 
ATOM     60  H   UNL A   1      44.094  29.706  28.347  1.00  0.00     0.167 HD
ATOM     61  C   UNL A   1      42.950  31.948  29.631  1.00  0.00     0.074 A 
ATOM     62  C   UNL A   1      42.017  32.767  30.374  1.00  0.00     0.031 C 
ATOM     63  C   UNL A   1      44.186  32.355  29.250  1.00  0.00     0.034 A 
BRANCH  50  64
ATOM     64  C   UNL A   1      47.493  27.966  26.434  1.00  0.00     0.023 A 
ATOM     65  C   UNL A   1      48.569  27.600  27.269  1.00  0.00     0.012 A 
ATOM     66  C   UNL A   1      47.648  27.892  25.036  1.00  0.00     0.148 A 
ATOM     67  C   UNL A   1      49.787  27.201  26.722  1.00  0.00     0.002 A 
ATOM     68  C   UNL A   1      48.849  27.446  24.498  1.00  0.00     0.091 A 
ATOM     69  F   UNL A   1      46.620  28.266  24.259  1.00  0.00    -0.205 F 
ATOM     70  C   UNL A   1      49.923  27.112  25.339  1.00  0.00     0.022 A 
BRANCH  68  71
ATOM     71  S   UNL A   1      49.095  27.219  22.734  1.00  0.00     0.127 S 
ATOM     72  O   UNL A   1      48.528  28.455  22.196  1.00  0.00    -0.237 OA
ATOM     73  O   UNL A   1      50.552  27.123  22.639  1.00  0.00    -0.237 OA
ATOM     74  O   UNL A   1      48.381  26.000  22.380  1.00  0.00    -0.744 OA
ENDBRANCH  68  71
ENDBRANCH  50  64
BRANCH  51  75
ATOM     75  C   UNL A   1      38.756  30.112  30.741  1.00  0.00     0.023 A 
ATOM     76  C   UNL A   1      38.527  29.587  32.028  1.00  0.00     0.012 A 
ATOM     77  C   UNL A   1      37.772  30.925  30.146  1.00  0.00     0.148 A 
ATOM     78  C   UNL A   1      37.328  29.841  32.697  1.00  0.00     0.002 A 
ATOM     79  C   UNL A   1      36.605  31.220  30.839  1.00  0.00     0.091 A 
ATOM     80  F   UNL A   1      38.002  31.399  28.914  1.00  0.00    -0.205 F 
ATOM     81  C   UNL A   1      36.372  30.665  32.107  1.00  0.00     0.022 A 
BRANCH  79  82
ATOM     82  S   UNL A   1      35.372  32.365  30.213  1.00  0.00     0.127 S 
ATOM     83  O   UNL A   1      34.872  31.654  29.039  1.00  0.00    -0.237 OA
ATOM     84  O   UNL A   1      34.435  32.437  31.336  1.00  0.00    -0.237 OA
ATOM     85  O   UNL A   1      36.085  33.605  29.942  1.00  0.00    -0.744 OA
ENDBRANCH  79  82
ENDBRANCH  51  75
BRANCH  63  86
ATOM     86  C   UNL A   1      44.599  33.769  29.577  1.00  0.00     0.023 A 
ATOM     87  C   UNL A   1      45.471  34.022  30.654  1.00  0.00     0.012 A 
ATOM     88  C   UNL A   1      44.182  34.840  28.761  1.00  0.00     0.148 A 
ATOM     89  C   UNL A   1      45.892  35.323  30.935  1.00  0.00     0.002 A 
ATOM     90  C   UNL A   1      44.646  36.125  29.013  1.00  0.00     0.091 A 
ATOM     91  F   UNL A   1      43.340  34.582  27.749  1.00  0.00    -0.205 F 
ATOM     92  C   UNL A   1      45.489  36.370  30.109  1.00  0.00     0.022 A 
BRANCH  90  93
ATOM     93  S   UNL A   1      44.264  37.518  27.946  1.00  0.00     0.127 S 
ATOM     94  O   UNL A   1      43.282  38.248  28.749  1.00  0.00    -0.237 OA
ATOM     95  O   UNL A   1      45.562  38.180  27.823  1.00  0.00    -0.237 OA
ATOM     96  O   UNL A   1      43.754  36.950  26.706  1.00  0.00    -0.744 OA
ENDBRANCH  90  93
ENDBRANCH  63  86
ENDBRANCH  37  38
ENDBRANCH  30  32
ENDBRANCH  29  30
ENDBRANCH  28  29
ENDBRANCH  27  28
ENDBRANCH  26  27
ENDBRANCH  25  26
ENDBRANCH   1  25
TORSDOF 23
ENDMDL
MODEL 2
REMARK VINA RESULT:     -10.1      5.323      9.191
REMARK SMILES C[C@@H](Sc1nc2ccccc2c(=O)n1N)C(=O)OCCOCCOCCOC(=O)c1ccc(-c2c3nc(c(-c4cccc(S(=O)(=O)[O-])c4F)c4ccc([nH]4)c(-c4cccc(S(=O)(=O)[O-])c4F)c4nc(c(-c5cccc(S(=O)(=O)[O-])c5F)c5ccc2[nH]5)C=C4)C=C3)cc1
REMARK SMILES IDX 22 1 21 2 20 3 19 4 18 5 16 6 17 7 2 8 1 9 3 10 4 11 5 12
REMARK SMILES IDX 14 13 6 14 12 15 7 16 11 17 13 18 8 19 10 20 9 21 15 22
REMARK SMILES IDX 23 25 24 26 25 27 26 28 27 29 28 30 29 31 30 32 31 33 92 34
REMARK SMILES IDX 32 35 91 36 33 37 34 38 35 39 85 40 36 41 90 42 84 43 86 44
REMARK SMILES IDX 37 45 89 46 83 47 82 48 38 50 70 51 50 52 69 53 51 54 54 55
REMARK SMILES IDX 68 56 87 57 52 58 53 59 67 61 88 62 55 63 39 64 40 65 48 66
REMARK SMILES IDX 41 67 43 68 49 69 42 70 44 71 45 72 46 73 47 74 71 75 72 76
REMARK SMILES IDX 80 77 73 78 75 79 81 80 74 81 76 82 77 83 78 84 79 85 56 86
REMARK SMILES IDX 57 87 65 88 58 89 60 90 66 91 59 92 61 93 62 94 63 95 64 96
REMARK H PARENT 15 23 15 24 86 49 54 60
REMARK Flexibility Score: inf
ROOT
ATOM      1  C   UNL A   1      31.892  28.552  27.321  1.00  0.00     0.188 C 
ENDROOT
BRANCH   1   2
ATOM      2  O   UNL A   1      31.780  27.209  26.873  1.00  0.00    -0.376 OA
BRANCH   2   3
ATOM      3  C   UNL A   1      30.614  26.797  26.170  1.00  0.00     0.202 C 
BRANCH   3   4
ATOM      4  C   UNL A   1      30.517  25.367  25.609  1.00  0.00     0.261 C 
BRANCH   4   5
ATOM      5  O   UNL A   1      30.763  25.228  24.194  1.00  0.00    -0.462 OA
BRANCH   5   6
ATOM      6  C   UNL A   1      31.173  26.351  23.546  1.00  0.00     0.319 C 
ATOM      7  O   UNL A   1      30.430  27.298  23.300  1.00  0.00    -0.251 OA
BRANCH   6   8
ATOM      8  C   UNL A   1      32.670  26.370  23.187  1.00  0.00     0.161 C 
ATOM      9  C   UNL A   1      33.692  26.068  24.287  1.00  0.00     0.032 C 
BRANCH   8  10
ATOM     10  S   UNL A   1      32.849  25.213  21.778  1.00  0.00    -0.071 SA
BRANCH  10  11
ATOM     11  C   UNL A   1      33.492  23.799  22.566  1.00  0.00     0.191 A 
ATOM     12  N   UNL A   1      34.777  23.766  22.704  1.00  0.00    -0.222 NA
ATOM     13  N   UNL A   1      32.628  22.837  23.079  1.00  0.00    -0.202 N 
ATOM     14  C   UNL A   1      35.334  22.726  23.453  1.00  0.00     0.079 A 
ATOM     15  C   UNL A   1      33.099  21.804  23.894  1.00  0.00     0.280 A 
ATOM     16  C   UNL A   1      36.721  22.693  23.606  1.00  0.00     0.029 A 
ATOM     17  C   UNL A   1      34.557  21.770  24.106  1.00  0.00     0.068 A 
ATOM     18  O   UNL A   1      32.369  20.972  24.431  1.00  0.00    -0.267 OA
ATOM     19  C   UNL A   1      37.320  21.744  24.435  1.00  0.00     0.002 A 
ATOM     20  C   UNL A   1      35.146  20.818  24.945  1.00  0.00     0.016 A 
ATOM     21  C   UNL A   1      36.532  20.814  25.115  1.00  0.00     0.001 A 
BRANCH  13  22
ATOM     22  N   UNL A   1      31.224  22.847  22.796  1.00  0.00    -0.334 N 
ATOM     23  H   UNL A   1      30.892  23.266  21.970  1.00  0.00     0.178 HD
ATOM     24  H   UNL A   1      30.592  22.435  23.428  1.00  0.00     0.178 HD
ENDBRANCH  13  22
ENDBRANCH  10  11
ENDBRANCH   8  10
ENDBRANCH   6   8
ENDBRANCH   5   6
ENDBRANCH   4   5
ENDBRANCH   3   4
ENDBRANCH   2   3
ENDBRANCH   1   2
BRANCH   1  25
ATOM     25  C   UNL A   1      33.087  29.397  26.851  1.00  0.00     0.188 C 
BRANCH  25  26
ATOM     26  O   UNL A   1      33.096  30.725  27.322  1.00  0.00    -0.376 OA
BRANCH  26  27
ATOM     27  C   UNL A   1      32.112  31.622  26.836  1.00  0.00     0.202 C 
BRANCH  27  28
ATOM     28  C   UNL A   1      32.308  33.146  26.954  1.00  0.00     0.261 C 
BRANCH  28  29
ATOM     29  O   UNL A   1      32.167  33.731  28.258  1.00  0.00    -0.460 OA
BRANCH  29  30
ATOM     30  C   UNL A   1      33.078  34.662  28.624  1.00  0.00     0.338 C 
ATOM     31  O   UNL A   1      32.886  35.863  28.745  1.00  0.00    -0.246 OA
BRANCH  30  32
ATOM     32  C   UNL A   1      34.282  33.944  29.102  1.00  0.00     0.060 A 
ATOM     33  C   UNL A   1      34.122  32.836  29.949  1.00  0.00     0.016 A 
ATOM     34  C   UNL A   1      35.558  34.338  28.696  1.00  0.00     0.016 A 
ATOM     35  C   UNL A   1      35.238  32.132  30.406  1.00  0.00     0.010 A 
ATOM     36  C   UNL A   1      36.676  33.649  29.177  1.00  0.00     0.010 A 
ATOM     37  C   UNL A   1      36.524  32.561  30.057  1.00  0.00    -0.014 A 
BRANCH  37  38
ATOM     38  C   UNL A   1      37.711  32.002  30.751  1.00  0.00     0.031 A 
ATOM     39  C   UNL A   1      38.509  30.936  30.051  1.00  0.00     0.074 A 
ATOM     40  C   UNL A   1      38.070  32.410  31.982  1.00  0.00     0.049 A 
ATOM     41  N   UNL A   1      39.531  30.244  30.483  1.00  0.00    -0.248 NA
ATOM     42  C   UNL A   1      38.092  30.601  28.678  1.00  0.00     0.031 C 
ATOM     43  C   UNL A   1      37.393  33.442  32.764  1.00  0.00     0.029 A 
ATOM     44  N   UNL A   1      39.081  31.971  32.804  1.00  0.00    -0.354 N 
ATOM     45  C   UNL A   1      39.853  29.365  29.456  1.00  0.00     0.074 A 
ATOM     46  C   UNL A   1      38.918  29.609  28.380  1.00  0.00     0.031 C 
ATOM     47  C   UNL A   1      37.984  33.532  33.968  1.00  0.00     0.029 A 
ATOM     48  C   UNL A   1      39.058  32.543  34.054  1.00  0.00     0.049 A 
ATOM     49  H   UNL A   1      39.755  31.312  32.524  1.00  0.00     0.167 HD
ATOM     50  C   UNL A   1      40.842  28.443  29.408  1.00  0.00     0.034 A 
ATOM     51  C   UNL A   1      39.796  32.274  35.151  1.00  0.00     0.034 A 
ATOM     52  C   UNL A   1      41.781  28.209  30.471  1.00  0.00     0.049 A 
ATOM     53  C   UNL A   1      40.871  31.220  35.083  1.00  0.00     0.074 A 
ATOM     54  C   UNL A   1      42.851  27.332  30.492  1.00  0.00     0.029 A 
ATOM     55  N   UNL A   1      41.753  28.835  31.706  1.00  0.00    -0.354 N 
ATOM     56  N   UNL A   1      41.237  30.473  34.070  1.00  0.00    -0.248 NA
ATOM     57  C   UNL A   1      41.659  30.991  36.305  1.00  0.00     0.031 C 
ATOM     58  C   UNL A   1      43.443  27.397  31.757  1.00  0.00     0.029 A 
ATOM     59  C   UNL A   1      42.774  28.351  32.505  1.00  0.00     0.049 A 
ATOM     60  H   UNL A   1      41.103  29.524  31.975  1.00  0.00     0.167 HD
ATOM     61  C   UNL A   1      42.318  29.719  34.517  1.00  0.00     0.074 A 
ATOM     62  C   UNL A   1      42.559  30.110  35.890  1.00  0.00     0.031 C 
ATOM     63  C   UNL A   1      43.040  28.781  33.854  1.00  0.00     0.034 A 
BRANCH  50  64
ATOM     64  C   UNL A   1      40.961  27.610  28.159  1.00  0.00     0.023 A 
ATOM     65  C   UNL A   1      41.662  28.110  27.042  1.00  0.00     0.012 A 
ATOM     66  C   UNL A   1      40.425  26.309  28.113  1.00  0.00     0.148 A 
ATOM     67  C   UNL A   1      41.799  27.340  25.889  1.00  0.00     0.002 A 
ATOM     68  C   UNL A   1      40.608  25.529  26.977  1.00  0.00     0.091 A 
ATOM     69  F   UNL A   1      39.742  25.861  29.176  1.00  0.00    -0.205 F 
ATOM     70  C   UNL A   1      41.283  26.047  25.860  1.00  0.00     0.022 A 
BRANCH  68  71
ATOM     71  S   UNL A   1      40.053  23.824  26.874  1.00  0.00     0.127 S 
ATOM     72  O   UNL A   1      40.432  23.311  28.190  1.00  0.00    -0.237 OA
ATOM     73  O   UNL A   1      38.613  23.984  26.673  1.00  0.00    -0.237 OA
ATOM     74  O   UNL A   1      40.763  23.234  25.748  1.00  0.00    -0.744 OA
ENDBRANCH  68  71
ENDBRANCH  50  64
BRANCH  51  75
ATOM     75  C   UNL A   1      39.553  33.026  36.416  1.00  0.00     0.023 A 
ATOM     76  C   UNL A   1      40.170  34.276  36.616  1.00  0.00     0.012 A 
ATOM     77  C   UNL A   1      38.714  32.506  37.421  1.00  0.00     0.148 A 
ATOM     78  C   UNL A   1      39.981  34.981  37.806  1.00  0.00     0.002 A 
ATOM     79  C   UNL A   1      38.485  33.239  38.579  1.00  0.00     0.091 A 
ATOM     80  F   UNL A   1      38.151  31.307  37.219  1.00  0.00    -0.205 F 
ATOM     81  C   UNL A   1      39.131  34.468  38.783  1.00  0.00     0.022 A 
BRANCH  79  82
ATOM     82  S   UNL A   1      37.315  32.716  39.838  1.00  0.00     0.127 S 
ATOM     83  O   UNL A   1      37.884  31.440  40.263  1.00  0.00    -0.237 OA
ATOM     84  O   UNL A   1      37.430  33.798  40.818  1.00  0.00    -0.237 OA
ATOM     85  O   UNL A   1      36.024  32.639  39.171  1.00  0.00    -0.744 OA
ENDBRANCH  79  82
ENDBRANCH  51  75
BRANCH  63  86
ATOM     86  C   UNL A   1      44.201  28.139  34.574  1.00  0.00     0.023 A 
ATOM     87  C   UNL A   1      45.495  28.685  34.461  1.00  0.00     0.012 A 
ATOM     88  C   UNL A   1      43.989  27.038  35.429  1.00  0.00     0.148 A 
ATOM     89  C   UNL A   1      46.565  28.122  35.159  1.00  0.00     0.002 A 
ATOM     90  C   UNL A   1      45.047  26.516  36.162  1.00  0.00     0.091 A 
ATOM     91  F   UNL A   1      42.753  26.524  35.513  1.00  0.00    -0.205 F 
ATOM     92  C   UNL A   1      46.339  27.047  36.015  1.00  0.00     0.022 A 
BRANCH  90  93
ATOM     93  S   UNL A   1      44.834  25.200  37.365  1.00  0.00     0.127 S 
ATOM     94  O   UNL A   1      46.115  25.232  38.072  1.00  0.00    -0.237 OA
ATOM     95  O   UNL A   1      43.695  25.678  38.148  1.00  0.00    -0.237 OA
ATOM     96  O   UNL A   1      44.576  23.989  36.598  1.00  0.00    -0.744 OA
ENDBRANCH  90  93
ENDBRANCH  63  86
ENDBRANCH  37  38
ENDBRANCH  30  32
ENDBRANCH  29  30
ENDBRANCH  28  29
ENDBRANCH  27  28
ENDBRANCH  26  27
ENDBRANCH  25  26
ENDBRANCH   1  25
TORSDOF 23
ENDMDL
MODEL 3
REMARK VINA RESULT:     -10.0      2.166      7.867
REMARK SMILES C[C@@H](Sc1nc2ccccc2c(=O)n1N)C(=O)OCCOCCOCCOC(=O)c1ccc(-c2c3nc(c(-c4cccc(S(=O)(=O)[O-])c4F)c4ccc([nH]4)c(-c4cccc(S(=O)(=O)[O-])c4F)c4nc(c(-c5cccc(S(=O)(=O)[O-])c5F)c5ccc2[nH]5)C=C4)C=C3)cc1
REMARK SMILES IDX 22 1 21 2 20 3 19 4 18 5 16 6 17 7 2 8 1 9 3 10 4 11 5 12
REMARK SMILES IDX 14 13 6 14 12 15 7 16 11 17 13 18 8 19 10 20 9 21 15 22
REMARK SMILES IDX 23 25 24 26 25 27 26 28 27 29 28 30 29 31 30 32 31 33 92 34
REMARK SMILES IDX 32 35 91 36 33 37 34 38 35 39 85 40 36 41 90 42 84 43 86 44
REMARK SMILES IDX 37 45 89 46 83 47 82 48 38 50 70 51 50 52 69 53 51 54 54 55
REMARK SMILES IDX 68 56 87 57 52 58 53 59 67 61 88 62 55 63 39 64 40 65 48 66
REMARK SMILES IDX 41 67 43 68 49 69 42 70 44 71 45 72 46 73 47 74 71 75 72 76
REMARK SMILES IDX 80 77 73 78 75 79 81 80 74 81 76 82 77 83 78 84 79 85 56 86
REMARK SMILES IDX 57 87 65 88 58 89 60 90 66 91 59 92 61 93 62 94 63 95 64 96
REMARK H PARENT 15 23 15 24 86 49 54 60
REMARK Flexibility Score: inf
ROOT
ATOM      1  C   UNL A   1      36.786  22.797  25.257  1.00  0.00     0.188 C 
ENDROOT
BRANCH   1   2
ATOM      2  O   UNL A   1      35.374  22.915  25.351  1.00  0.00    -0.376 OA
BRANCH   2   3
ATOM      3  C   UNL A   1      34.720  22.590  26.572  1.00  0.00     0.202 C 
BRANCH   3   4
ATOM      4  C   UNL A   1      33.713  21.428  26.621  1.00  0.00     0.261 C 
BRANCH   4   5
ATOM      5  O   UNL A   1      33.106  21.068  25.363  1.00  0.00    -0.462 OA
BRANCH   5   6
ATOM      6  C   UNL A   1      32.025  21.802  24.988  1.00  0.00     0.319 C 
ATOM      7  O   UNL A   1      31.063  22.011  25.724  1.00  0.00    -0.251 OA
BRANCH   6   8
ATOM      8  C   UNL A   1      32.121  22.404  23.574  1.00  0.00     0.161 C 
ATOM      9  C   UNL A   1      32.141  21.455  22.373  1.00  0.00     0.032 C 
BRANCH   8  10
ATOM     10  S   UNL A   1      30.736  23.596  23.456  1.00  0.00    -0.071 SA
BRANCH  10  11
ATOM     11  C   UNL A   1      31.565  25.115  23.660  1.00  0.00     0.191 A 
ATOM     12  N   UNL A   1      31.560  25.604  24.856  1.00  0.00    -0.222 NA
ATOM     13  N   UNL A   1      32.250  25.680  22.589  1.00  0.00    -0.202 N 
ATOM     14  C   UNL A   1      32.328  26.744  25.106  1.00  0.00     0.079 A 
ATOM     15  C   UNL A   1      33.092  26.780  22.770  1.00  0.00     0.280 A 
ATOM     16  C   UNL A   1      32.328  27.269  26.399  1.00  0.00     0.029 A 
ATOM     17  C   UNL A   1      33.143  27.330  24.137  1.00  0.00     0.068 A 
ATOM     18  O   UNL A   1      33.775  27.272  21.873  1.00  0.00    -0.267 OA
ATOM     19  C   UNL A   1      33.163  28.337  26.731  1.00  0.00     0.002 A 
ATOM     20  C   UNL A   1      33.989  28.397  24.459  1.00  0.00     0.016 A 
ATOM     21  C   UNL A   1      34.003  28.892  25.764  1.00  0.00     0.001 A 
BRANCH  13  22
ATOM     22  N   UNL A   1      32.125  25.176  21.254  1.00  0.00    -0.334 N 
ATOM     23  H   UNL A   1      32.927  24.888  20.760  1.00  0.00     0.178 HD
ATOM     24  H   UNL A   1      31.240  25.120  20.830  1.00  0.00     0.178 HD
ENDBRANCH  13  22
ENDBRANCH  10  11
ENDBRANCH   8  10
ENDBRANCH   6   8
ENDBRANCH   5   6
ENDBRANCH   4   5
ENDBRANCH   3   4
ENDBRANCH   2   3
ENDBRANCH   1   2
BRANCH   1  25
ATOM     25  C   UNL A   1      37.385  21.614  24.479  1.00  0.00     0.188 C 
BRANCH  25  26
ATOM     26  O   UNL A   1      37.353  20.379  25.156  1.00  0.00    -0.376 OA
BRANCH  26  27
ATOM     27  C   UNL A   1      38.485  19.530  25.069  1.00  0.00     0.202 C 
BRANCH  27  28
ATOM     28  C   UNL A   1      39.737  19.797  25.927  1.00  0.00     0.261 C 
BRANCH  28  29
ATOM     29  O   UNL A   1      41.005  19.394  25.387  1.00  0.00    -0.460 OA
BRANCH  29  30
ATOM     30  C   UNL A   1      42.063  19.376  26.231  1.00  0.00     0.338 C 
ATOM     31  O   UNL A   1      42.754  18.408  26.513  1.00  0.00    -0.246 OA
BRANCH  30  32
ATOM     32  C   UNL A   1      42.400  20.781  26.555  1.00  0.00     0.060 A 
ATOM     33  C   UNL A   1      42.590  21.694  25.506  1.00  0.00     0.016 A 
ATOM     34  C   UNL A   1      42.497  21.205  27.881  1.00  0.00     0.016 A 
ATOM     35  C   UNL A   1      42.898  23.028  25.781  1.00  0.00     0.010 A 
ATOM     36  C   UNL A   1      42.832  22.536  28.153  1.00  0.00     0.010 A 
ATOM     37  C   UNL A   1      43.062  23.447  27.107  1.00  0.00    -0.014 A 
BRANCH  37  38
ATOM     38  C   UNL A   1      43.655  24.776  27.401  1.00  0.00     0.031 A 
ATOM     39  C   UNL A   1      42.748  25.863  27.911  1.00  0.00     0.074 A 
ATOM     40  C   UNL A   1      44.961  25.028  27.205  1.00  0.00     0.049 A 
ATOM     41  N   UNL A   1      43.015  27.118  28.162  1.00  0.00    -0.248 NA
ATOM     42  C   UNL A   1      41.349  25.482  28.167  1.00  0.00     0.031 C 
ATOM     43  C   UNL A   1      45.950  24.062  26.729  1.00  0.00     0.029 A 
ATOM     44  N   UNL A   1      45.673  26.195  27.352  1.00  0.00    -0.354 N 
ATOM     45  C   UNL A   1      41.813  27.686  28.564  1.00  0.00     0.074 A 
ATOM     46  C   UNL A   1      40.814  26.641  28.522  1.00  0.00     0.031 C 
ATOM     47  C   UNL A   1      47.133  24.685  26.587  1.00  0.00     0.029 A 
ATOM     48  C   UNL A   1      46.978  26.098  26.930  1.00  0.00     0.049 A 
ATOM     49  H   UNL A   1      45.286  27.019  27.724  1.00  0.00     0.167 HD
ATOM     50  C   UNL A   1      41.562  28.962  28.940  1.00  0.00     0.034 A 
ATOM     51  C   UNL A   1      47.928  27.048  26.803  1.00  0.00     0.034 A 
ATOM     52  C   UNL A   1      42.555  29.998  28.996  1.00  0.00     0.049 A 
ATOM     53  C   UNL A   1      47.615  28.469  27.199  1.00  0.00     0.074 A 
ATOM     54  C   UNL A   1      42.406  31.308  29.417  1.00  0.00     0.029 A 
ATOM     55  N   UNL A   1      43.875  29.854  28.600  1.00  0.00    -0.354 N 
ATOM     56  N   UNL A   1      46.504  28.969  27.683  1.00  0.00    -0.248 NA
ATOM     57  C   UNL A   1      48.700  29.454  27.062  1.00  0.00     0.031 C 
ATOM     58  C   UNL A   1      43.625  31.967  29.234  1.00  0.00     0.029 A 
ATOM     59  C   UNL A   1      44.548  31.055  28.749  1.00  0.00     0.049 A 
ATOM     60  H   UNL A   1      44.276  29.019  28.265  1.00  0.00     0.167 HD
ATOM     61  C   UNL A   1      46.767  30.311  27.943  1.00  0.00     0.074 A 
ATOM     62  C   UNL A   1      48.149  30.543  27.579  1.00  0.00     0.031 C 
ATOM     63  C   UNL A   1      45.937  31.266  28.431  1.00  0.00     0.034 A 
BRANCH  50  64
ATOM     64  C   UNL A   1      40.148  29.311  29.325  1.00  0.00     0.023 A 
ATOM     65  C   UNL A   1      39.213  29.666  28.332  1.00  0.00     0.012 A 
ATOM     66  C   UNL A   1      39.733  29.232  30.669  1.00  0.00     0.148 A 
ATOM     67  C   UNL A   1      37.897  29.969  28.673  1.00  0.00     0.002 A 
ATOM     68  C   UNL A   1      38.406  29.488  30.995  1.00  0.00     0.091 A 
ATOM     69  F   UNL A   1      40.642  28.915  31.602  1.00  0.00    -0.205 F 
ATOM     70  C   UNL A   1      37.491  29.869  30.001  1.00  0.00     0.022 A 
BRANCH  68  71
ATOM     71  S   UNL A   1      37.767  29.305  32.663  1.00  0.00     0.127 S 
ATOM     72  O   UNL A   1      38.711  30.117  33.431  1.00  0.00    -0.237 OA
ATOM     73  O   UNL A   1      36.427  29.880  32.541  1.00  0.00    -0.237 OA
ATOM     74  O   UNL A   1      37.793  27.879  32.952  1.00  0.00    -0.744 OA
ENDBRANCH  68  71
ENDBRANCH  50  64
BRANCH  51  75
ATOM     75  C   UNL A   1      49.279  26.688  26.284  1.00  0.00     0.023 A 
ATOM     76  C   UNL A   1      50.151  25.920  27.080  1.00  0.00     0.012 A 
ATOM     77  C   UNL A   1      49.702  27.105  25.007  1.00  0.00     0.148 A 
ATOM     78  C   UNL A   1      51.431  25.598  26.626  1.00  0.00     0.002 A 
ATOM     79  C   UNL A   1      50.956  26.734  24.538  1.00  0.00     0.091 A 
ATOM     80  F   UNL A   1      48.864  27.850  24.273  1.00  0.00    -0.205 F 
ATOM     81  C   UNL A   1      51.830  25.996  25.352  1.00  0.00     0.022 A 
BRANCH  79  82
ATOM     82  S   UNL A   1      51.510  27.096  22.868  1.00  0.00     0.127 S 
ATOM     83  O   UNL A   1      51.579  28.555  22.887  1.00  0.00    -0.237 OA
ATOM     84  O   UNL A   1      52.807  26.418  22.831  1.00  0.00    -0.237 OA
ATOM     85  O   UNL A   1      50.504  26.525  21.985  1.00  0.00    -0.744 OA
ENDBRANCH  79  82
ENDBRANCH  51  75
BRANCH  63  86
ATOM     86  C   UNL A   1      46.501  32.648  28.658  1.00  0.00     0.023 A 
ATOM     87  C   UNL A   1      46.942  33.033  29.939  1.00  0.00     0.012 A 
ATOM     88  C   UNL A   1      46.665  33.537  27.576  1.00  0.00     0.148 A 
ATOM     89  C   UNL A   1      47.504  34.293  30.148  1.00  0.00     0.002 A 
ATOM     90  C   UNL A   1      47.274  34.769  27.779  1.00  0.00     0.091 A 
ATOM     91  F   UNL A   1      46.227  33.160  26.367  1.00  0.00    -0.205 F 
ATOM     92  C   UNL A   1      47.680  35.155  29.067  1.00  0.00     0.022 A 
BRANCH  90  93
ATOM     93  S   UNL A   1      47.635  35.902  26.434  1.00  0.00     0.127 S 
ATOM     94  O   UNL A   1      46.297  36.375  26.075  1.00  0.00    -0.237 OA
ATOM     95  O   UNL A   1      48.478  36.902  27.088  1.00  0.00    -0.237 OA
ATOM     96  O   UNL A   1      48.311  35.115  25.412  1.00  0.00    -0.744 OA
ENDBRANCH  90  93
ENDBRANCH  63  86
ENDBRANCH  37  38
ENDBRANCH  30  32
ENDBRANCH  29  30
ENDBRANCH  28  29
ENDBRANCH  27  28
ENDBRANCH  26  27
ENDBRANCH  25  26
ENDBRANCH   1  25
TORSDOF 23
ENDMDL
