MODEL 1
REMARK VINA RESULT:     -10.2      0.000      0.000
REMARK SMILES CC[C@@](C)(NC(=O)NCCc1cscn1)C(=O)OCCOCCOCCOC(=O)c1ccc(-c2c3nc(c(-c4cccc(S(=O)(=O)[O-])c4F)c4ccc([nH]4)c(-c4cccc(S(=O)(=O)[O-])c4F)c4nc(c(-c5cccc(S(=O)(=O)[O-])c5F)c5ccc2[nH]5)C=C4)C=C3)cc1
REMARK SMILES IDX 22 1 21 2 20 3 19 4 18 5 16 6 17 7 3 8 4 9 2 10 1 11 5 12
REMARK SMILES IDX 6 13 7 15 8 16 9 18 10 19 11 20 12 21 15 22 13 23 14 24
REMARK SMILES IDX 23 25 24 26 25 27 26 28 27 29 28 30 29 31 30 32 31 33 92 34
REMARK SMILES IDX 32 35 91 36 33 37 34 38 35 39 85 40 36 41 90 42 84 43 86 44
REMARK SMILES IDX 37 45 89 46 83 47 82 48 38 50 70 51 50 52 69 53 51 54 54 55
REMARK SMILES IDX 68 56 87 57 52 58 53 59 67 61 88 62 55 63 39 64 40 65 48 66
REMARK SMILES IDX 41 67 43 68 49 69 42 70 44 71 45 72 46 73 47 74 71 75 72 76
REMARK SMILES IDX 80 77 73 78 75 79 81 80 74 81 76 82 77 83 78 84 79 85 56 86
REMARK SMILES IDX 57 87 65 88 58 89 60 90 66 91 59 92 61 93 62 94 63 95 64 96
REMARK H PARENT 5 14 8 17 86 49 54 60
REMARK Flexibility Score: inf
ROOT
ATOM      1  C   UNL A   1      33.144  20.635  25.812  1.00  0.00     0.188 C 
ENDROOT
BRANCH   1   2
ATOM      2  O   UNL A   1      31.998  21.347  25.350  1.00  0.00    -0.376 OA
BRANCH   2   3
ATOM      3  C   UNL A   1      31.733  22.584  26.007  1.00  0.00     0.202 C 
BRANCH   3   4
ATOM      4  C   UNL A   1      31.811  23.779  25.057  1.00  0.00     0.261 C 
BRANCH   4   5
ATOM      5  O   UNL A   1      32.516  24.822  25.748  1.00  0.00    -0.462 OA
BRANCH   5   6
ATOM      6  C   UNL A   1      31.851  25.952  26.049  1.00  0.00     0.331 C 
ATOM      7  O   UNL A   1      31.238  26.113  27.100  1.00  0.00    -0.249 OA
BRANCH   6   8
ATOM      8  C   UNL A   1      31.977  27.030  24.928  1.00  0.00     0.136 C 
ATOM      9  C   UNL A   1      31.082  28.203  25.350  1.00  0.00     0.047 C 
BRANCH   8  10
ATOM     10  C   UNL A   1      33.483  27.498  24.885  1.00  0.00     0.037 C 
ATOM     11  C   UNL A   1      34.210  27.812  26.184  1.00  0.00     0.007 C 
ENDBRANCH   8  10
BRANCH   8  12
ATOM     12  N   UNL A   1      31.697  26.700  23.476  1.00  0.00    -0.322 N 
ATOM     13  C   UNL A   1      30.998  27.142  22.434  1.00  0.00     0.315 C 
ATOM     14  H   UNL A   1      32.196  25.891  23.220  1.00  0.00     0.166 HD
ATOM     15  O   UNL A   1      31.523  26.997  21.324  1.00  0.00    -0.249 OA
ATOM     16  N   UNL A   1      29.786  27.693  22.461  1.00  0.00    -0.338 N 
ATOM     17  H   UNL A   1      29.557  28.221  21.664  1.00  0.00     0.165 HD
BRANCH  16  18
ATOM     18  C   UNL A   1      28.753  27.640  23.467  1.00  0.00     0.124 C 
BRANCH  18  19
ATOM     19  C   UNL A   1      27.532  28.521  23.182  1.00  0.00     0.078 C 
BRANCH  19  20
ATOM     20  C   UNL A   1      27.789  29.908  22.653  1.00  0.00     0.053 A 
ATOM     21  C   UNL A   1      27.664  31.120  23.307  1.00  0.00     0.090 A 
ATOM     22  N   UNL A   1      28.345  30.016  21.380  1.00  0.00    -0.250 NA
ATOM     23  S   UNL A   1      28.223  32.410  22.326  1.00  0.00    -0.130 S 
ATOM     24  C   UNL A   1      28.613  31.274  21.110  1.00  0.00     0.175 A 
ENDBRANCH  19  20
ENDBRANCH  18  19
ENDBRANCH  16  18
ENDBRANCH   8  12
ENDBRANCH   6   8
ENDBRANCH   5   6
ENDBRANCH   4   5
ENDBRANCH   3   4
ENDBRANCH   2   3
ENDBRANCH   1   2
BRANCH   1  25
ATOM     25  C   UNL A   1      33.542  19.463  24.930  1.00  0.00     0.188 C 
BRANCH  25  26
ATOM     26  O   UNL A   1      34.935  19.328  24.643  1.00  0.00    -0.376 OA
BRANCH  26  27
ATOM     27  C   UNL A   1      35.694  20.492  25.014  1.00  0.00     0.202 C 
BRANCH  27  28
ATOM     28  C   UNL A   1      37.206  20.481  24.710  1.00  0.00     0.261 C 
BRANCH  28  29
ATOM     29  O   UNL A   1      37.878  21.530  25.427  1.00  0.00    -0.460 OA
BRANCH  29  30
ATOM     30  C   UNL A   1      39.053  21.176  26.021  1.00  0.00     0.338 C 
ATOM     31  O   UNL A   1      39.653  20.139  25.880  1.00  0.00    -0.246 OA
BRANCH  30  32
ATOM     32  C   UNL A   1      39.637  22.394  26.650  1.00  0.00     0.060 A 
ATOM     33  C   UNL A   1      39.111  23.639  26.262  1.00  0.00     0.016 A 
ATOM     34  C   UNL A   1      40.585  22.321  27.674  1.00  0.00     0.016 A 
ATOM     35  C   UNL A   1      39.574  24.814  26.854  1.00  0.00     0.010 A 
ATOM     36  C   UNL A   1      41.061  23.496  28.255  1.00  0.00     0.010 A 
ATOM     37  C   UNL A   1      40.593  24.746  27.810  1.00  0.00    -0.014 A 
BRANCH  37  38
ATOM     38  C   UNL A   1      41.414  25.944  28.097  1.00  0.00     0.031 A 
ATOM     39  C   UNL A   1      40.729  27.066  28.830  1.00  0.00     0.074 A 
ATOM     40  C   UNL A   1      42.684  26.071  27.674  1.00  0.00     0.049 A 
ATOM     41  N   UNL A   1      41.153  28.271  29.094  1.00  0.00    -0.248 NA
ATOM     42  C   UNL A   1      39.364  26.787  29.316  1.00  0.00     0.031 C 
ATOM     43  C   UNL A   1      43.449  25.050  26.963  1.00  0.00     0.029 A 
ATOM     44  N   UNL A   1      43.536  27.143  27.752  1.00  0.00    -0.354 N 
ATOM     45  C   UNL A   1      40.097  28.905  29.736  1.00  0.00     0.074 A 
ATOM     46  C   UNL A   1      39.011  27.956  29.822  1.00  0.00     0.031 C 
ATOM     47  C   UNL A   1      44.648  25.563  26.629  1.00  0.00     0.029 A 
ATOM     48  C   UNL A   1      44.719  26.952  27.079  1.00  0.00     0.049 A 
ATOM     49  H   UNL A   1      43.321  27.970  28.242  1.00  0.00     0.167 HD
ATOM     50  C   UNL A   1      40.033  30.165  30.220  1.00  0.00     0.034 A 
ATOM     51  C   UNL A   1      45.725  27.818  26.832  1.00  0.00     0.034 A 
ATOM     52  C   UNL A   1      41.113  31.103  30.136  1.00  0.00     0.049 A 
ATOM     53  C   UNL A   1      45.631  29.226  27.370  1.00  0.00     0.074 A 
ATOM     54  C   UNL A   1      41.170  32.397  30.619  1.00  0.00     0.029 A 
ATOM     55  N   UNL A   1      42.326  30.847  29.515  1.00  0.00    -0.354 N 
ATOM     56  N   UNL A   1      44.671  29.780  28.072  1.00  0.00    -0.248 NA
ATOM     57  C   UNL A   1      46.768  30.120  27.104  1.00  0.00     0.031 C 
ATOM     58  C   UNL A   1      42.415  32.931  30.272  1.00  0.00     0.029 A 
ATOM     59  C   UNL A   1      43.140  31.960  29.597  1.00  0.00     0.049 A 
ATOM     60  H   UNL A   1      42.571  29.999  29.081  1.00  0.00     0.167 HD
ATOM     61  C   UNL A   1      45.105  31.069  28.368  1.00  0.00     0.074 A 
ATOM     62  C   UNL A   1      46.420  31.211  27.775  1.00  0.00     0.031 C 
ATOM     63  C   UNL A   1      44.473  32.051  29.057  1.00  0.00     0.034 A 
BRANCH  50  64
ATOM     64  C   UNL A   1      38.750  30.581  30.884  1.00  0.00     0.023 A 
ATOM     65  C   UNL A   1      38.557  30.320  32.256  1.00  0.00     0.012 A 
ATOM     66  C   UNL A   1      37.734  31.224  30.152  1.00  0.00     0.148 A 
ATOM     67  C   UNL A   1      37.358  30.657  32.881  1.00  0.00     0.002 A 
ATOM     68  C   UNL A   1      36.559  31.597  30.793  1.00  0.00     0.091 A 
ATOM     69  F   UNL A   1      37.921  31.429  28.841  1.00  0.00    -0.205 F 
ATOM     70  C   UNL A   1      36.364  31.304  32.152  1.00  0.00     0.022 A 
BRANCH  68  71
ATOM     71  S   UNL A   1      35.251  32.496  29.953  1.00  0.00     0.127 S 
ATOM     72  O   UNL A   1      34.852  31.542  28.920  1.00  0.00    -0.237 OA
ATOM     73  O   UNL A   1      34.269  32.684  31.021  1.00  0.00    -0.237 OA
ATOM     74  O   UNL A   1      35.860  33.728  29.471  1.00  0.00    -0.744 OA
ENDBRANCH  68  71
ENDBRANCH  50  64
BRANCH  51  75
ATOM     75  C   UNL A   1      46.925  27.370  26.068  1.00  0.00     0.023 A 
ATOM     76  C   UNL A   1      46.955  27.528  24.669  1.00  0.00     0.012 A 
ATOM     77  C   UNL A   1      48.044  26.810  26.717  1.00  0.00     0.148 A 
ATOM     78  C   UNL A   1      48.063  27.117  23.927  1.00  0.00     0.002 A 
ATOM     79  C   UNL A   1      49.165  26.447  25.979  1.00  0.00     0.091 A 
ATOM     80  F   UNL A   1      47.990  26.651  28.047  1.00  0.00    -0.205 F 
ATOM     81  C   UNL A   1      49.171  26.586  24.582  1.00  0.00     0.022 A 
BRANCH  79  82
ATOM     82  S   UNL A   1      50.682  25.862  26.745  1.00  0.00     0.127 S 
ATOM     83  O   UNL A   1      50.288  24.534  27.211  1.00  0.00    -0.237 OA
ATOM     84  O   UNL A   1      51.611  25.867  25.614  1.00  0.00    -0.237 OA
ATOM     85  O   UNL A   1      50.997  26.828  27.787  1.00  0.00    -0.744 OA
ENDBRANCH  79  82
ENDBRANCH  51  75
BRANCH  63  86
ATOM     86  C   UNL A   1      45.200  33.353  29.267  1.00  0.00     0.023 A 
ATOM     87  C   UNL A   1      46.023  33.524  30.397  1.00  0.00     0.012 A 
ATOM     88  C   UNL A   1      45.163  34.355  28.277  1.00  0.00     0.148 A 
ATOM     89  C   UNL A   1      46.783  34.683  30.548  1.00  0.00     0.002 A 
ATOM     90  C   UNL A   1      45.960  35.485  28.411  1.00  0.00     0.091 A 
ATOM     91  F   UNL A   1      44.361  34.176  27.217  1.00  0.00    -0.205 F 
ATOM     92  C   UNL A   1      46.763  35.655  29.550  1.00  0.00     0.022 A 
BRANCH  90  93
ATOM     93  S   UNL A   1      46.074  36.735  27.126  1.00  0.00     0.127 S 
ATOM     94  O   UNL A   1      47.086  37.636  27.677  1.00  0.00    -0.237 OA
ATOM     95  O   UNL A   1      46.517  35.954  25.970  1.00  0.00    -0.237 OA
ATOM     96  O   UNL A   1      44.738  37.299  26.995  1.00  0.00    -0.744 OA
ENDBRANCH  90  93
ENDBRANCH  63  86
ENDBRANCH  37  38
ENDBRANCH  30  32
ENDBRANCH  29  30
ENDBRANCH  28  29
ENDBRANCH  27  28
ENDBRANCH  26  27
ENDBRANCH  25  26
ENDBRANCH   1  25
TORSDOF 25
ENDMDL
MODEL 2
REMARK VINA RESULT:     -10.2      5.024     10.106
REMARK SMILES CC[C@@](C)(NC(=O)NCCc1cscn1)C(=O)OCCOCCOCCOC(=O)c1ccc(-c2c3nc(c(-c4cccc(S(=O)(=O)[O-])c4F)c4ccc([nH]4)c(-c4cccc(S(=O)(=O)[O-])c4F)c4nc(c(-c5cccc(S(=O)(=O)[O-])c5F)c5ccc2[nH]5)C=C4)C=C3)cc1
REMARK SMILES IDX 22 1 21 2 20 3 19 4 18 5 16 6 17 7 3 8 4 9 2 10 1 11 5 12
REMARK SMILES IDX 6 13 7 15 8 16 9 18 10 19 11 20 12 21 15 22 13 23 14 24
REMARK SMILES IDX 23 25 24 26 25 27 26 28 27 29 28 30 29 31 30 32 31 33 92 34
REMARK SMILES IDX 32 35 91 36 33 37 34 38 35 39 85 40 36 41 90 42 84 43 86 44
REMARK SMILES IDX 37 45 89 46 83 47 82 48 38 50 70 51 50 52 69 53 51 54 54 55
REMARK SMILES IDX 68 56 87 57 52 58 53 59 67 61 88 62 55 63 39 64 40 65 48 66
REMARK SMILES IDX 41 67 43 68 49 69 42 70 44 71 45 72 46 73 47 74 71 75 72 76
REMARK SMILES IDX 80 77 73 78 75 79 81 80 74 81 76 82 77 83 78 84 79 85 56 86
REMARK SMILES IDX 57 87 65 88 58 89 60 90 66 91 59 92 61 93 62 94 63 95 64 96
REMARK H PARENT 5 14 8 17 86 49 54 60
REMARK Flexibility Score: inf
ROOT
ATOM      1  C   UNL A   1      40.160  21.433  27.051  1.00  0.00     0.188 C 
ENDROOT
BRANCH   1   2
ATOM      2  O   UNL A   1      39.240  21.251  25.978  1.00  0.00    -0.376 OA
BRANCH   2   3
ATOM      3  C   UNL A   1      38.315  22.316  25.770  1.00  0.00     0.202 C 
BRANCH   3   4
ATOM      4  C   UNL A   1      36.931  21.816  25.358  1.00  0.00     0.261 C 
BRANCH   4   5
ATOM      5  O   UNL A   1      36.007  22.891  25.590  1.00  0.00    -0.462 OA
BRANCH   5   6
ATOM      6  C   UNL A   1      35.142  23.214  24.612  1.00  0.00     0.331 C 
ATOM      7  O   UNL A   1      35.313  22.914  23.435  1.00  0.00    -0.249 OA
BRANCH   6   8
ATOM      8  C   UNL A   1      33.895  23.979  25.153  1.00  0.00     0.136 C 
ATOM      9  C   UNL A   1      34.337  25.433  25.372  1.00  0.00     0.047 C 
BRANCH   8  10
ATOM     10  C   UNL A   1      32.781  23.925  24.037  1.00  0.00     0.037 C 
ATOM     11  C   UNL A   1      32.977  24.696  22.740  1.00  0.00     0.007 C 
ENDBRANCH   8  10
BRANCH   8  12
ATOM     12  N   UNL A   1      33.147  23.507  26.384  1.00  0.00    -0.322 N 
ATOM     13  C   UNL A   1      32.862  22.393  27.053  1.00  0.00     0.315 C 
ATOM     14  H   UNL A   1      32.738  24.279  26.837  1.00  0.00     0.166 HD
ATOM     15  O   UNL A   1      32.797  22.497  28.283  1.00  0.00    -0.249 OA
ATOM     16  N   UNL A   1      32.607  21.193  26.535  1.00  0.00    -0.338 N 
ATOM     17  H   UNL A   1      32.713  20.443  27.162  1.00  0.00     0.165 HD
BRANCH  16  18
ATOM     18  C   UNL A   1      32.201  20.812  25.203  1.00  0.00     0.124 C 
BRANCH  18  19
ATOM     19  C   UNL A   1      33.265  20.059  24.397  1.00  0.00     0.078 C 
BRANCH  19  20
ATOM     20  C   UNL A   1      33.397  18.578  24.642  1.00  0.00     0.053 A 
ATOM     21  C   UNL A   1      34.464  17.747  24.354  1.00  0.00     0.090 A 
ATOM     22  N   UNL A   1      32.383  17.954  25.364  1.00  0.00    -0.250 NA
ATOM     23  S   UNL A   1      34.197  16.168  24.966  1.00  0.00    -0.130 S 
ATOM     24  C   UNL A   1      32.697  16.698  25.591  1.00  0.00     0.175 A 
ENDBRANCH  19  20
ENDBRANCH  18  19
ENDBRANCH  16  18
ENDBRANCH   8  12
ENDBRANCH   6   8
ENDBRANCH   5   6
ENDBRANCH   4   5
ENDBRANCH   3   4
ENDBRANCH   2   3
ENDBRANCH   1   2
BRANCH   1  25
ATOM     25  C   UNL A   1      41.272  20.397  27.097  1.00  0.00     0.188 C 
BRANCH  25  26
ATOM     26  O   UNL A   1      42.608  20.895  27.012  1.00  0.00    -0.376 OA
BRANCH  26  27
ATOM     27  C   UNL A   1      43.220  20.629  25.738  1.00  0.00     0.202 C 
BRANCH  27  28
ATOM     28  C   UNL A   1      44.025  21.770  25.084  1.00  0.00     0.261 C 
BRANCH  28  29
ATOM     29  O   UNL A   1      43.249  22.978  25.029  1.00  0.00    -0.460 OA
BRANCH  29  30
ATOM     30  C   UNL A   1      43.957  24.137  25.134  1.00  0.00     0.338 C 
ATOM     31  O   UNL A   1      44.909  24.469  24.471  1.00  0.00    -0.246 OA
BRANCH  30  32
ATOM     32  C   UNL A   1      43.189  25.069  26.008  1.00  0.00     0.060 A 
ATOM     33  C   UNL A   1      43.362  26.448  25.795  1.00  0.00     0.016 A 
ATOM     34  C   UNL A   1      42.241  24.615  26.929  1.00  0.00     0.016 A 
ATOM     35  C   UNL A   1      42.631  27.373  26.540  1.00  0.00     0.010 A 
ATOM     36  C   UNL A   1      41.522  25.538  27.687  1.00  0.00     0.010 A 
ATOM     37  C   UNL A   1      41.753  26.917  27.529  1.00  0.00    -0.014 A 
BRANCH  37  38
ATOM     38  C   UNL A   1      41.340  27.826  28.622  1.00  0.00     0.031 A 
ATOM     39  C   UNL A   1      42.107  27.714  29.912  1.00  0.00     0.074 A 
ATOM     40  C   UNL A   1      40.295  28.664  28.512  1.00  0.00     0.049 A 
ATOM     41  N   UNL A   1      41.883  28.279  31.067  1.00  0.00    -0.248 NA
ATOM     42  C   UNL A   1      43.282  26.822  29.895  1.00  0.00     0.031 C 
ATOM     43  C   UNL A   1      39.485  28.860  27.312  1.00  0.00     0.029 A 
ATOM     44  N   UNL A   1      39.714  29.477  29.452  1.00  0.00    -0.354 N 
ATOM     45  C   UNL A   1      42.859  27.780  31.920  1.00  0.00     0.074 A 
ATOM     46  C   UNL A   1      43.677  26.866  31.156  1.00  0.00     0.031 C 
ATOM     47  C   UNL A   1      38.481  29.709  27.602  1.00  0.00     0.029 A 
ATOM     48  C   UNL A   1      38.565  30.090  29.011  1.00  0.00     0.049 A 
ATOM     49  H   UNL A   1      40.085  29.610  30.354  1.00  0.00     0.167 HD
ATOM     50  C   UNL A   1      43.066  28.059  33.227  1.00  0.00     0.034 A 
ATOM     51  C   UNL A   1      37.671  30.843  29.686  1.00  0.00     0.034 A 
ATOM     52  C   UNL A   1      42.255  28.968  33.982  1.00  0.00     0.049 A 
ATOM     53  C   UNL A   1      37.912  31.135  31.148  1.00  0.00     0.074 A 
ATOM     54  C   UNL A   1      42.391  29.349  35.303  1.00  0.00     0.029 A 
ATOM     55  N   UNL A   1      41.145  29.629  33.479  1.00  0.00    -0.354 N 
ATOM     56  N   UNL A   1      38.901  30.745  31.916  1.00  0.00    -0.248 NA
ATOM     57  C   UNL A   1      36.928  31.990  31.829  1.00  0.00     0.031 C 
ATOM     58  C   UNL A   1      41.348  30.230  35.605  1.00  0.00     0.029 A 
ATOM     59  C   UNL A   1      40.581  30.415  34.464  1.00  0.00     0.049 A 
ATOM     60  H   UNL A   1      40.809  29.551  32.558  1.00  0.00     0.167 HD
ATOM     61  C   UNL A   1      38.684  31.340  33.156  1.00  0.00     0.074 A 
ATOM     62  C   UNL A   1      37.471  32.124  33.034  1.00  0.00     0.031 C 
ATOM     63  C   UNL A   1      39.412  31.241  34.296  1.00  0.00     0.034 A 
BRANCH  50  64
ATOM     64  C   UNL A   1      44.219  27.370  33.901  1.00  0.00     0.023 A 
ATOM     65  C   UNL A   1      44.054  26.063  34.406  1.00  0.00     0.012 A 
ATOM     66  C   UNL A   1      45.463  28.014  34.041  1.00  0.00     0.148 A 
ATOM     67  C   UNL A   1      45.097  25.424  35.073  1.00  0.00     0.002 A 
ATOM     68  C   UNL A   1      46.511  27.352  34.668  1.00  0.00     0.091 A 
ATOM     69  F   UNL A   1      45.588  29.270  33.589  1.00  0.00    -0.205 F 
ATOM     70  C   UNL A   1      46.327  26.064  35.196  1.00  0.00     0.022 A 
BRANCH  68  71
ATOM     71  S   UNL A   1      48.151  28.069  34.812  1.00  0.00     0.127 S 
ATOM     72  O   UNL A   1      47.889  29.242  35.644  1.00  0.00    -0.237 OA
ATOM     73  O   UNL A   1      48.898  27.003  35.478  1.00  0.00    -0.237 OA
ATOM     74  O   UNL A   1      48.584  28.348  33.450  1.00  0.00    -0.744 OA
ENDBRANCH  68  71
ENDBRANCH  50  64
BRANCH  51  75
ATOM     75  C   UNL A   1      36.485  31.406  28.980  1.00  0.00     0.023 A 
ATOM     76  C   UNL A   1      36.388  32.798  28.787  1.00  0.00     0.012 A 
ATOM     77  C   UNL A   1      35.463  30.574  28.479  1.00  0.00     0.148 A 
ATOM     78  C   UNL A   1      35.288  33.354  28.132  1.00  0.00     0.002 A 
ATOM     79  C   UNL A   1      34.394  31.129  27.784  1.00  0.00     0.091 A 
ATOM     80  F   UNL A   1      35.563  29.253  28.687  1.00  0.00    -0.205 F 
ATOM     81  C   UNL A   1      34.297  32.520  27.622  1.00  0.00     0.022 A 
BRANCH  79  82
ATOM     82  S   UNL A   1      33.129  30.127  26.992  1.00  0.00     0.127 S 
ATOM     83  O   UNL A   1      33.801  29.718  25.760  1.00  0.00    -0.237 OA
ATOM     84  O   UNL A   1      32.936  29.057  27.972  1.00  0.00    -0.237 OA
ATOM     85  O   UNL A   1      31.979  31.003  26.823  1.00  0.00    -0.744 OA
ENDBRANCH  79  82
ENDBRANCH  51  75
BRANCH  63  86
ATOM     86  C   UNL A   1      38.965  32.035  35.495  1.00  0.00     0.023 A 
ATOM     87  C   UNL A   1      39.083  33.438  35.492  1.00  0.00     0.012 A 
ATOM     88  C   UNL A   1      38.314  31.394  36.569  1.00  0.00     0.148 A 
ATOM     89  C   UNL A   1      38.577  34.191  36.551  1.00  0.00     0.002 A 
ATOM     90  C   UNL A   1      37.771  32.154  37.596  1.00  0.00     0.091 A 
ATOM     91  F   UNL A   1      38.228  30.056  36.557  1.00  0.00    -0.205 F 
ATOM     92  C   UNL A   1      37.909  33.552  37.594  1.00  0.00     0.022 A 
BRANCH  90  93
ATOM     93  S   UNL A   1      36.805  31.423  38.923  1.00  0.00     0.127 S 
ATOM     94  O   UNL A   1      37.735  31.506  40.049  1.00  0.00    -0.237 OA
ATOM     95  O   UNL A   1      35.660  32.329  39.010  1.00  0.00    -0.237 OA
ATOM     96  O   UNL A   1      36.475  30.075  38.482  1.00  0.00    -0.744 OA
ENDBRANCH  90  93
ENDBRANCH  63  86
ENDBRANCH  37  38
ENDBRANCH  30  32
ENDBRANCH  29  30
ENDBRANCH  28  29
ENDBRANCH  27  28
ENDBRANCH  26  27
ENDBRANCH  25  26
ENDBRANCH   1  25
TORSDOF 25
ENDMDL
MODEL 3
REMARK VINA RESULT:     -10.1      1.932      2.270
REMARK SMILES CC[C@@](C)(NC(=O)NCCc1cscn1)C(=O)OCCOCCOCCOC(=O)c1ccc(-c2c3nc(c(-c4cccc(S(=O)(=O)[O-])c4F)c4ccc([nH]4)c(-c4cccc(S(=O)(=O)[O-])c4F)c4nc(c(-c5cccc(S(=O)(=O)[O-])c5F)c5ccc2[nH]5)C=C4)C=C3)cc1
REMARK SMILES IDX 22 1 21 2 20 3 19 4 18 5 16 6 17 7 3 8 4 9 2 10 1 11 5 12
REMARK SMILES IDX 6 13 7 15 8 16 9 18 10 19 11 20 12 21 15 22 13 23 14 24
REMARK SMILES IDX 23 25 24 26 25 27 26 28 27 29 28 30 29 31 30 32 31 33 92 34
REMARK SMILES IDX 32 35 91 36 33 37 34 38 35 39 85 40 36 41 90 42 84 43 86 44
REMARK SMILES IDX 37 45 89 46 83 47 82 48 38 50 70 51 50 52 69 53 51 54 54 55
REMARK SMILES IDX 68 56 87 57 52 58 53 59 67 61 88 62 55 63 39 64 40 65 48 66
REMARK SMILES IDX 41 67 43 68 49 69 42 70 44 71 45 72 46 73 47 74 71 75 72 76
REMARK SMILES IDX 80 77 73 78 75 79 81 80 74 81 76 82 77 83 78 84 79 85 56 86
REMARK SMILES IDX 57 87 65 88 58 89 60 90 66 91 59 92 61 93 62 94 63 95 64 96
REMARK H PARENT 5 14 8 17 86 49 54 60
REMARK Flexibility Score: inf
ROOT
ATOM      1  C   UNL A   1      33.551  20.090  25.593  1.00  0.00     0.188 C 
ENDROOT
BRANCH   1   2
ATOM      2  O   UNL A   1      32.142  20.294  25.529  1.00  0.00    -0.376 OA
BRANCH   2   3
ATOM      3  C   UNL A   1      31.724  21.604  25.153  1.00  0.00     0.202 C 
BRANCH   3   4
ATOM      4  C   UNL A   1      32.894  22.580  25.035  1.00  0.00     0.261 C 
BRANCH   4   5
ATOM      5  O   UNL A   1      32.852  23.431  26.191  1.00  0.00    -0.462 OA
BRANCH   5   6
ATOM      6  C   UNL A   1      31.862  24.338  26.282  1.00  0.00     0.331 C 
ATOM      7  O   UNL A   1      30.985  24.295  27.138  1.00  0.00    -0.249 OA
BRANCH   6   8
ATOM      8  C   UNL A   1      31.982  25.455  25.199  1.00  0.00     0.136 C 
ATOM      9  C   UNL A   1      30.649  26.215  25.208  1.00  0.00     0.047 C 
BRANCH   8  10
ATOM     10  C   UNL A   1      33.148  26.423  25.639  1.00  0.00     0.037 C 
ATOM     11  C   UNL A   1      32.908  27.925  25.669  1.00  0.00     0.007 C 
ENDBRANCH   8  10
BRANCH   8  12
ATOM     12  N   UNL A   1      32.350  25.133  23.765  1.00  0.00    -0.322 N 
ATOM     13  C   UNL A   1      32.676  25.734  22.624  1.00  0.00     0.315 C 
ATOM     14  H   UNL A   1      32.348  24.157  23.636  1.00  0.00     0.166 HD
ATOM     15  O   UNL A   1      33.498  25.145  21.912  1.00  0.00    -0.249 OA
ATOM     16  N   UNL A   1      32.186  26.880  22.157  1.00  0.00    -0.338 N 
ATOM     17  H   UNL A   1      32.740  27.316  21.471  1.00  0.00     0.165 HD
BRANCH  16  18
ATOM     18  C   UNL A   1      30.974  27.589  22.491  1.00  0.00     0.124 C 
BRANCH  18  19
ATOM     19  C   UNL A   1      31.026  29.101  22.252  1.00  0.00     0.078 C 
BRANCH  19  20
ATOM     20  C   UNL A   1      29.744  29.873  22.429  1.00  0.00     0.053 A 
ATOM     21  C   UNL A   1      29.290  30.551  23.545  1.00  0.00     0.090 A 
ATOM     22  N   UNL A   1      28.944  30.053  21.303  1.00  0.00    -0.250 NA
ATOM     23  S   UNL A   1      27.843  31.405  23.202  1.00  0.00    -0.130 S 
ATOM     24  C   UNL A   1      27.928  30.837  21.591  1.00  0.00     0.175 A 
ENDBRANCH  19  20
ENDBRANCH  18  19
ENDBRANCH  16  18
ENDBRANCH   8  12
ENDBRANCH   6   8
ENDBRANCH   5   6
ENDBRANCH   4   5
ENDBRANCH   3   4
ENDBRANCH   2   3
ENDBRANCH   1   2
BRANCH   1  25
ATOM     25  C   UNL A   1      34.064  19.006  24.658  1.00  0.00     0.188 C 
BRANCH  25  26
ATOM     26  O   UNL A   1      35.472  18.768  24.672  1.00  0.00    -0.376 OA
BRANCH  26  27
ATOM     27  C   UNL A   1      36.236  19.968  24.878  1.00  0.00     0.202 C 
BRANCH  27  28
ATOM     28  C   UNL A   1      37.773  19.841  24.879  1.00  0.00     0.261 C 
BRANCH  28  29
ATOM     29  O   UNL A   1      38.378  20.961  25.547  1.00  0.00    -0.460 OA
BRANCH  29  30
ATOM     30  C   UNL A   1      39.575  20.710  26.148  1.00  0.00     0.338 C 
ATOM     31  O   UNL A   1      40.243  19.710  26.045  1.00  0.00    -0.246 OA
BRANCH  30  32
ATOM     32  C   UNL A   1      40.078  21.988  26.726  1.00  0.00     0.060 A 
ATOM     33  C   UNL A   1      39.533  23.184  26.226  1.00  0.00     0.016 A 
ATOM     34  C   UNL A   1      40.967  22.019  27.804  1.00  0.00     0.016 A 
ATOM     35  C   UNL A   1      39.918  24.412  26.763  1.00  0.00     0.010 A 
ATOM     36  C   UNL A   1      41.366  23.247  28.330  1.00  0.00     0.010 A 
ATOM     37  C   UNL A   1      40.882  24.446  27.776  1.00  0.00    -0.014 A 
BRANCH  37  38
ATOM     38  C   UNL A   1      41.643  25.691  28.028  1.00  0.00     0.031 A 
ATOM     39  C   UNL A   1      40.906  26.793  28.742  1.00  0.00     0.074 A 
ATOM     40  C   UNL A   1      42.900  25.873  27.590  1.00  0.00     0.049 A 
ATOM     41  N   UNL A   1      41.270  28.024  28.974  1.00  0.00    -0.248 NA
ATOM     42  C   UNL A   1      39.561  26.456  29.247  1.00  0.00     0.031 C 
ATOM     43  C   UNL A   1      43.711  24.877  26.895  1.00  0.00     0.029 A 
ATOM     44  N   UNL A   1      43.696  26.989  27.635  1.00  0.00    -0.354 N 
ATOM     45  C   UNL A   1      40.187  28.618  29.611  1.00  0.00     0.074 A 
ATOM     46  C   UNL A   1      39.152  27.617  29.729  1.00  0.00     0.031 C 
ATOM     47  C   UNL A   1      44.879  25.442  26.538  1.00  0.00     0.029 A 
ATOM     48  C   UNL A   1      44.882  26.844  26.956  1.00  0.00     0.049 A 
ATOM     49  H   UNL A   1      43.443  27.815  28.108  1.00  0.00     0.167 HD
ATOM     50  C   UNL A   1      40.062  29.884  30.066  1.00  0.00     0.034 A 
ATOM     51  C   UNL A   1      45.840  27.754  26.678  1.00  0.00     0.034 A 
ATOM     52  C   UNL A   1      41.092  30.874  29.951  1.00  0.00     0.049 A 
ATOM     53  C   UNL A   1      45.677  29.168  27.185  1.00  0.00     0.074 A 
ATOM     54  C   UNL A   1      41.085  32.180  30.402  1.00  0.00     0.029 A 
ATOM     55  N   UNL A   1      42.311  30.666  29.324  1.00  0.00    -0.354 N 
ATOM     56  N   UNL A   1      44.696  29.688  27.883  1.00  0.00    -0.248 NA
ATOM     57  C   UNL A   1      46.765  30.113  26.887  1.00  0.00     0.031 C 
ATOM     58  C   UNL A   1      42.298  32.769  30.031  1.00  0.00     0.029 A 
ATOM     59  C   UNL A   1      43.067  31.821  29.372  1.00  0.00     0.049 A 
ATOM     60  H   UNL A   1      42.596  29.822  28.907  1.00  0.00     0.167 HD
ATOM     61  C   UNL A   1      45.065  31.004  28.145  1.00  0.00     0.074 A 
ATOM     62  C   UNL A   1      46.365  31.200  27.536  1.00  0.00     0.031 C 
ATOM     63  C   UNL A   1      44.389  31.969  28.818  1.00  0.00     0.034 A 
BRANCH  50  64
ATOM     64  C   UNL A   1      38.765  30.249  30.732  1.00  0.00     0.023 A 
ATOM     65  C   UNL A   1      38.523  29.838  32.060  1.00  0.00     0.012 A 
ATOM     66  C   UNL A   1      37.785  30.991  30.047  1.00  0.00     0.148 A 
ATOM     67  C   UNL A   1      37.309  30.127  32.681  1.00  0.00     0.002 A 
ATOM     68  C   UNL A   1      36.597  31.314  30.689  1.00  0.00     0.091 A 
ATOM     69  F   UNL A   1      38.019  31.340  28.774  1.00  0.00    -0.205 F 
ATOM     70  C   UNL A   1      36.351  30.873  32.000  1.00  0.00     0.022 A 
BRANCH  68  71
ATOM     71  S   UNL A   1      35.333  32.329  29.917  1.00  0.00     0.127 S 
ATOM     72  O   UNL A   1      36.105  33.499  29.501  1.00  0.00    -0.237 OA
ATOM     73  O   UNL A   1      34.879  31.476  28.818  1.00  0.00    -0.237 OA
ATOM     74  O   UNL A   1      34.331  32.570  30.946  1.00  0.00    -0.744 OA
ENDBRANCH  68  71
ENDBRANCH  50  64
BRANCH  51  75
ATOM     75  C   UNL A   1      47.055  27.351  25.914  1.00  0.00     0.023 A 
ATOM     76  C   UNL A   1      48.058  26.597  26.554  1.00  0.00     0.012 A 
ATOM     77  C   UNL A   1      47.215  27.690  24.555  1.00  0.00     0.148 A 
ATOM     78  C   UNL A   1      49.207  26.208  25.864  1.00  0.00     0.002 A 
ATOM     79  C   UNL A   1      48.339  27.257  23.860  1.00  0.00     0.091 A 
ATOM     80  F   UNL A   1      46.259  28.423  23.968  1.00  0.00    -0.205 F 
ATOM     81  C   UNL A   1      49.343  26.528  24.516  1.00  0.00     0.022 A 
BRANCH  79  82
ATOM     82  S   UNL A   1      48.548  27.522  22.095  1.00  0.00     0.127 S 
ATOM     83  O   UNL A   1      47.294  28.185  21.742  1.00  0.00    -0.237 OA
ATOM     84  O   UNL A   1      49.731  28.384  22.059  1.00  0.00    -0.237 OA
ATOM     85  O   UNL A   1      48.747  26.201  21.517  1.00  0.00    -0.744 OA
ENDBRANCH  79  82
ENDBRANCH  51  75
BRANCH  63  86
ATOM     86  C   UNL A   1      45.049  33.311  28.990  1.00  0.00     0.023 A 
ATOM     87  C   UNL A   1      44.852  34.320  28.028  1.00  0.00     0.012 A 
ATOM     88  C   UNL A   1      45.761  33.606  30.170  1.00  0.00     0.148 A 
ATOM     89  C   UNL A   1      45.371  35.598  28.229  1.00  0.00     0.002 A 
ATOM     90  C   UNL A   1      46.234  34.894  30.385  1.00  0.00     0.091 A 
ATOM     91  F   UNL A   1      45.949  32.624  31.065  1.00  0.00    -0.205 F 
ATOM     92  C   UNL A   1      46.049  35.889  29.412  1.00  0.00     0.022 A 
BRANCH  90  93
ATOM     93  S   UNL A   1      47.023  35.381  31.924  1.00  0.00     0.127 S 
ATOM     94  O   UNL A   1      48.159  34.461  31.980  1.00  0.00    -0.237 OA
ATOM     95  O   UNL A   1      47.381  36.775  31.662  1.00  0.00    -0.237 OA
ATOM     96  O   UNL A   1      46.020  35.202  32.964  1.00  0.00    -0.744 OA
ENDBRANCH  90  93
ENDBRANCH  63  86
ENDBRANCH  37  38
ENDBRANCH  30  32
ENDBRANCH  29  30
ENDBRANCH  28  29
ENDBRANCH  27  28
ENDBRANCH  26  27
ENDBRANCH  25  26
ENDBRANCH   1  25
TORSDOF 25
ENDMDL
