MODEL 1
REMARK VINA RESULT:     -10.1      0.000      0.000
REMARK SMILES CC(C)CN(C)c1cc2c(cc1Cl)C=C(C(=O)OCCOCCOCCOC(=O)c1ccc(-c3c4nc(c(-c5cccc(S(=O)(=O)[O-])c5F)c5ccc([nH]5)c(-c5cccc(S(=O)(=O)[O-])c5F)c5nc(c(-c6cccc(S(=O)(=O)[O-])c6F)c6ccc3[nH]6)C=C5)C=C4)cc1)[C@@H](C(F)(F)F)O2
REMARK SMILES IDX 22 1 21 2 20 3 19 4 18 5 16 6 17 7 15 8 7 9 8 10 12 11 9 12
REMARK SMILES IDX 11 13 13 14 10 15 98 16 14 17 93 18 5 19 6 20 4 21 2 22 1 23
REMARK SMILES IDX 3 24 94 25 95 26 96 27 97 28 23 29 24 30 25 31 26 32 27 33
REMARK SMILES IDX 28 34 29 35 30 36 31 37 92 38 32 39 91 40 33 41 34 42 35 43
REMARK SMILES IDX 85 44 36 45 90 46 84 47 86 48 37 49 89 50 83 51 82 52 38 54
REMARK SMILES IDX 70 55 50 56 69 57 51 58 54 59 68 60 87 61 52 62 53 63 67 65
REMARK SMILES IDX 88 66 55 67 39 68 40 69 48 70 41 71 43 72 49 73 42 74 44 75
REMARK SMILES IDX 45 76 46 77 47 78 71 79 72 80 80 81 73 82 75 83 81 84 74 85
REMARK SMILES IDX 76 86 77 87 78 88 79 89 56 90 57 91 65 92 58 93 60 94 66 95
REMARK SMILES IDX 59 96 61 97 62 98 63 99 64 100
REMARK H PARENT 86 53 54 64
REMARK Flexibility Score: inf
ROOT
ATOM      1  C   UNL A   1      35.024  31.857  28.001  1.00  0.00     0.188 C 
ENDROOT
BRANCH   1   2
ATOM      2  O   UNL A   1      33.707  31.491  27.663  1.00  0.00    -0.376 OA
BRANCH   2   3
ATOM      3  C   UNL A   1      33.441  30.241  27.051  1.00  0.00     0.202 C 
BRANCH   3   4
ATOM      4  C   UNL A   1      32.528  30.015  25.827  1.00  0.00     0.261 C 
BRANCH   4   5
ATOM      5  O   UNL A   1      31.511  29.014  25.926  1.00  0.00    -0.460 OA
BRANCH   5   6
ATOM      6  C   UNL A   1      31.003  28.598  24.743  1.00  0.00     0.338 C 
ATOM      7  O   UNL A   1      30.472  29.301  23.899  1.00  0.00    -0.246 OA
BRANCH   6   8
ATOM      8  C   UNL A   1      31.312  27.172  24.529  1.00  0.00     0.087 C 
ATOM      9  C   UNL A   1      32.789  22.448  25.407  1.00  0.00     0.059 A 
ATOM     10  C   UNL A   1      32.561  23.195  24.228  1.00  0.00     0.074 A 
ATOM     11  C   UNL A   1      32.477  23.081  26.631  1.00  0.00     0.065 A 
ATOM     12  C   UNL A   1      32.048  24.501  24.281  1.00  0.00     0.130 A 
ATOM     13  C   UNL A   1      31.825  24.311  26.671  1.00  0.00     0.034 A 
ATOM     14  Cl  UNL A   1      33.027  22.489  28.162  1.00  0.00    -0.082 Cl
ATOM     15  C   UNL A   1      31.632  25.031  25.499  1.00  0.00     0.019 A 
ATOM     16  O   UNL A   1      31.989  25.222  23.114  1.00  0.00    -0.475 OA
ATOM     17  C   UNL A   1      31.120  26.382  25.589  1.00  0.00     0.027 C 
ATOM     18  C   UNL A   1      31.877  26.680  23.224  1.00  0.00     0.316 C 
BRANCH   9  19
ATOM     19  N   UNL A   1      33.358  21.170  25.358  1.00  0.00    -0.373 N 
ATOM     20  C   UNL A   1      34.776  21.109  25.028  1.00  0.00     0.143 C 
BRANCH  19  21
ATOM     21  C   UNL A   1      32.521  19.994  25.024  1.00  0.00     0.119 C 
BRANCH  21  22
ATOM     22  C   UNL A   1      32.862  19.344  23.666  1.00  0.00     0.002 C 
ATOM     23  C   UNL A   1      32.541  17.846  23.651  1.00  0.00     0.009 C 
ATOM     24  C   UNL A   1      32.131  20.012  22.496  1.00  0.00     0.009 C 
ENDBRANCH  21  22
ENDBRANCH  19  21
ENDBRANCH   9  19
BRANCH  18  25
ATOM     25  C   UNL A   1      33.222  27.353  22.919  1.00  0.00     0.430 C 
ATOM     26  F   UNL A   1      33.963  27.521  24.040  1.00  0.00    -0.167 F 
ATOM     27  F   UNL A   1      33.969  26.595  22.076  1.00  0.00    -0.167 F 
ATOM     28  F   UNL A   1      33.074  28.566  22.343  1.00  0.00    -0.167 F 
ENDBRANCH  18  25
ENDBRANCH   6   8
ENDBRANCH   5   6
ENDBRANCH   4   5
ENDBRANCH   3   4
ENDBRANCH   2   3
ENDBRANCH   1   2
BRANCH   1  29
ATOM     29  C   UNL A   1      35.259  33.380  28.096  1.00  0.00     0.188 C 
BRANCH  29  30
ATOM     30  O   UNL A   1      34.276  34.280  27.612  1.00  0.00    -0.376 OA
BRANCH  30  31
ATOM     31  C   UNL A   1      34.151  35.562  28.213  1.00  0.00     0.202 C 
BRANCH  31  32
ATOM     32  C   UNL A   1      33.071  35.894  29.264  1.00  0.00     0.261 C 
BRANCH  32  33
ATOM     33  O   UNL A   1      32.812  34.902  30.266  1.00  0.00    -0.460 OA
BRANCH  33  34
ATOM     34  C   UNL A   1      33.258  35.190  31.515  1.00  0.00     0.338 C 
ATOM     35  O   UNL A   1      32.669  35.824  32.377  1.00  0.00    -0.246 OA
BRANCH  34  36
ATOM     36  C   UNL A   1      34.501  34.428  31.752  1.00  0.00     0.060 A 
ATOM     37  C   UNL A   1      35.729  34.942  31.340  1.00  0.00     0.016 A 
ATOM     38  C   UNL A   1      34.431  33.173  32.378  1.00  0.00     0.016 A 
ATOM     39  C   UNL A   1      36.892  34.204  31.569  1.00  0.00     0.010 A 
ATOM     40  C   UNL A   1      35.594  32.428  32.589  1.00  0.00     0.010 A 
ATOM     41  C   UNL A   1      36.837  32.948  32.205  1.00  0.00    -0.014 A 
BRANCH  41  42
ATOM     42  C   UNL A   1      38.099  32.291  32.626  1.00  0.00     0.031 A 
ATOM     43  C   UNL A   1      38.828  32.668  33.881  1.00  0.00     0.074 A 
ATOM     44  C   UNL A   1      38.589  31.316  31.834  1.00  0.00     0.049 A 
ATOM     45  N   UNL A   1      39.873  32.092  34.417  1.00  0.00    -0.248 NA
ATOM     46  C   UNL A   1      38.335  33.834  34.628  1.00  0.00     0.031 C 
ATOM     47  C   UNL A   1      38.008  30.911  30.552  1.00  0.00     0.029 A 
ATOM     48  N   UNL A   1      39.675  30.493  31.985  1.00  0.00    -0.354 N 
ATOM     49  C   UNL A   1      40.167  32.817  35.565  1.00  0.00     0.074 A 
ATOM     50  C   UNL A   1      39.197  33.892  35.638  1.00  0.00     0.031 C 
ATOM     51  C   UNL A   1      38.736  29.908  30.039  1.00  0.00     0.029 A 
ATOM     52  C   UNL A   1      39.840  29.608  30.946  1.00  0.00     0.049 A 
ATOM     53  H   UNL A   1      40.279  30.532  32.761  1.00  0.00     0.167 HD
ATOM     54  C   UNL A   1      41.138  32.586  36.479  1.00  0.00     0.034 A 
ATOM     55  C   UNL A   1      40.771  28.658  30.740  1.00  0.00     0.034 A 
ATOM     56  C   UNL A   1      42.089  31.508  36.408  1.00  0.00     0.049 A 
ATOM     57  C   UNL A   1      41.823  28.413  31.781  1.00  0.00     0.074 A 
ATOM     58  C   UNL A   1      43.061  31.165  37.334  1.00  0.00     0.029 A 
ATOM     59  N   UNL A   1      42.205  30.612  35.359  1.00  0.00    -0.354 N 
ATOM     60  N   UNL A   1      41.989  29.013  32.933  1.00  0.00    -0.248 NA
ATOM     61  C   UNL A   1      42.796  27.342  31.514  1.00  0.00     0.031 C 
ATOM     62  C   UNL A   1      43.779  30.076  36.835  1.00  0.00     0.029 A 
ATOM     63  C   UNL A   1      43.238  29.725  35.609  1.00  0.00     0.049 A 
ATOM     64  H   UNL A   1      41.637  30.606  34.555  1.00  0.00     0.167 HD
ATOM     65  C   UNL A   1      43.072  28.386  33.535  1.00  0.00     0.074 A 
ATOM     66  C   UNL A   1      43.514  27.347  32.630  1.00  0.00     0.031 C 
ATOM     67  C   UNL A   1      43.652  28.665  34.727  1.00  0.00     0.034 A 
BRANCH  54  68
ATOM     68  C   UNL A   1      41.205  33.467  37.698  1.00  0.00     0.023 A 
ATOM     69  C   UNL A   1      42.049  34.595  37.673  1.00  0.00     0.012 A 
ATOM     70  C   UNL A   1      40.315  33.288  38.775  1.00  0.00     0.148 A 
ATOM     71  C   UNL A   1      42.005  35.535  38.702  1.00  0.00     0.002 A 
ATOM     72  C   UNL A   1      40.258  34.243  39.783  1.00  0.00     0.091 A 
ATOM     73  F   UNL A   1      39.521  32.209  38.771  1.00  0.00    -0.205 F 
ATOM     74  C   UNL A   1      41.101  35.366  39.748  1.00  0.00     0.022 A 
BRANCH  72  75
ATOM     75  S   UNL A   1      39.091  34.156  41.148  1.00  0.00     0.127 S 
ATOM     76  O   UNL A   1      37.825  33.967  40.440  1.00  0.00    -0.237 OA
ATOM     77  O   UNL A   1      39.564  32.982  41.880  1.00  0.00    -0.237 OA
ATOM     78  O   UNL A   1      39.212  35.419  41.864  1.00  0.00    -0.744 OA
ENDBRANCH  72  75
ENDBRANCH  54  68
BRANCH  55  79
ATOM     79  C   UNL A   1      40.703  27.840  29.500  1.00  0.00     0.023 A 
ATOM     80  C   UNL A   1      39.713  26.849  29.372  1.00  0.00     0.012 A 
ATOM     81  C   UNL A   1      41.569  28.103  28.421  1.00  0.00     0.148 A 
ATOM     82  C   UNL A   1      39.592  26.124  28.186  1.00  0.00     0.002 A 
ATOM     83  C   UNL A   1      41.417  27.406  27.231  1.00  0.00     0.091 A 
ATOM     84  F   UNL A   1      42.500  29.055  28.575  1.00  0.00    -0.205 F 
ATOM     85  C   UNL A   1      40.435  26.409  27.113  1.00  0.00     0.022 A 
BRANCH  83  86
ATOM     86  S   UNL A   1      42.389  27.772  25.766  1.00  0.00     0.127 S 
ATOM     87  O   UNL A   1      43.750  27.741  26.298  1.00  0.00    -0.237 OA
ATOM     88  O   UNL A   1      42.043  26.650  24.893  1.00  0.00    -0.237 OA
ATOM     89  O   UNL A   1      41.929  29.071  25.297  1.00  0.00    -0.744 OA
ENDBRANCH  83  86
ENDBRANCH  55  79
BRANCH  67  90
ATOM     90  C   UNL A   1      44.833  27.839  35.155  1.00  0.00     0.023 A 
ATOM     91  C   UNL A   1      46.135  28.325  34.930  1.00  0.00     0.012 A 
ATOM     92  C   UNL A   1      44.650  26.657  35.900  1.00  0.00     0.148 A 
ATOM     93  C   UNL A   1      47.241  27.643  35.438  1.00  0.00     0.002 A 
ATOM     94  C   UNL A   1      45.753  26.001  36.431  1.00  0.00     0.091 A 
ATOM     95  F   UNL A   1      43.400  26.215  36.095  1.00  0.00    -0.205 F 
ATOM     96  C   UNL A   1      47.050  26.492  36.199  1.00  0.00     0.022 A 
BRANCH  94  97
ATOM     97  S   UNL A   1      45.610  24.548  37.478  1.00  0.00     0.127 S 
ATOM     98  O   UNL A   1      47.013  24.246  37.762  1.00  0.00    -0.237 OA
ATOM     99  O   UNL A   1      44.853  25.063  38.619  1.00  0.00    -0.237 OA
ATOM    100  O   UNL A   1      44.913  23.544  36.685  1.00  0.00    -0.744 OA
ENDBRANCH  94  97
ENDBRANCH  67  90
ENDBRANCH  41  42
ENDBRANCH  34  36
ENDBRANCH  33  34
ENDBRANCH  32  33
ENDBRANCH  31  32
ENDBRANCH  30  31
ENDBRANCH  29  30
ENDBRANCH   1  29
TORSDOF 24
ENDMDL
MODEL 2
REMARK VINA RESULT:      -9.6      1.588      7.679
REMARK SMILES CC(C)CN(C)c1cc2c(cc1Cl)C=C(C(=O)OCCOCCOCCOC(=O)c1ccc(-c3c4nc(c(-c5cccc(S(=O)(=O)[O-])c5F)c5ccc([nH]5)c(-c5cccc(S(=O)(=O)[O-])c5F)c5nc(c(-c6cccc(S(=O)(=O)[O-])c6F)c6ccc3[nH]6)C=C5)C=C4)cc1)[C@@H](C(F)(F)F)O2
REMARK SMILES IDX 22 1 21 2 20 3 19 4 18 5 16 6 17 7 15 8 7 9 8 10 12 11 9 12
REMARK SMILES IDX 11 13 13 14 10 15 98 16 14 17 93 18 5 19 6 20 4 21 2 22 1 23
REMARK SMILES IDX 3 24 94 25 95 26 96 27 97 28 23 29 24 30 25 31 26 32 27 33
REMARK SMILES IDX 28 34 29 35 30 36 31 37 92 38 32 39 91 40 33 41 34 42 35 43
REMARK SMILES IDX 85 44 36 45 90 46 84 47 86 48 37 49 89 50 83 51 82 52 38 54
REMARK SMILES IDX 70 55 50 56 69 57 51 58 54 59 68 60 87 61 52 62 53 63 67 65
REMARK SMILES IDX 88 66 55 67 39 68 40 69 48 70 41 71 43 72 49 73 42 74 44 75
REMARK SMILES IDX 45 76 46 77 47 78 71 79 72 80 80 81 73 82 75 83 81 84 74 85
REMARK SMILES IDX 76 86 77 87 78 88 79 89 56 90 57 91 65 92 58 93 60 94 66 95
REMARK SMILES IDX 59 96 61 97 62 98 63 99 64 100
REMARK H PARENT 86 53 54 64
REMARK Flexibility Score: inf
ROOT
ATOM      1  C   UNL A   1      31.692  29.910  25.376  1.00  0.00     0.188 C 
ENDROOT
BRANCH   1   2
ATOM      2  O   UNL A   1      30.693  30.531  24.602  1.00  0.00    -0.376 OA
BRANCH   2   3
ATOM      3  C   UNL A   1      29.780  29.754  23.848  1.00  0.00     0.202 C 
BRANCH   3   4
ATOM      4  C   UNL A   1      30.013  29.228  22.416  1.00  0.00     0.261 C 
BRANCH   4   5
ATOM      5  O   UNL A   1      30.591  27.928  22.265  1.00  0.00    -0.460 OA
BRANCH   5   6
ATOM      6  C   UNL A   1      31.934  27.879  22.420  1.00  0.00     0.338 C 
ATOM      7  O   UNL A   1      32.699  28.828  22.378  1.00  0.00    -0.246 OA
BRANCH   6   8
ATOM      8  C   UNL A   1      32.354  26.519  22.802  1.00  0.00     0.087 C 
ATOM      9  C   UNL A   1      35.128  22.737  24.614  1.00  0.00     0.059 A 
ATOM     10  C   UNL A   1      33.999  22.799  23.763  1.00  0.00     0.074 A 
ATOM     11  C   UNL A   1      35.570  23.958  25.171  1.00  0.00     0.065 A 
ATOM     12  C   UNL A   1      33.356  24.018  23.493  1.00  0.00     0.130 A 
ATOM     13  C   UNL A   1      34.839  25.134  25.026  1.00  0.00     0.034 A 
ATOM     14  Cl  UNL A   1      37.123  24.143  25.915  1.00  0.00    -0.082 Cl
ATOM     15  C   UNL A   1      33.747  25.170  24.170  1.00  0.00     0.019 A 
ATOM     16  O   UNL A   1      32.361  24.029  22.547  1.00  0.00    -0.475 OA
ATOM     17  C   UNL A   1      33.118  26.445  23.896  1.00  0.00     0.027 C 
ATOM     18  C   UNL A   1      32.001  25.323  21.958  1.00  0.00     0.316 C 
BRANCH   9  19
ATOM     19  N   UNL A   1      35.806  21.534  24.834  1.00  0.00    -0.373 N 
ATOM     20  C   UNL A   1      37.121  21.413  24.219  1.00  0.00     0.143 C 
BRANCH  19  21
ATOM     21  C   UNL A   1      35.046  20.286  25.088  1.00  0.00     0.119 C 
BRANCH  21  22
ATOM     22  C   UNL A   1      33.639  20.516  25.681  1.00  0.00     0.002 C 
ATOM     23  C   UNL A   1      32.782  19.247  25.630  1.00  0.00     0.009 C 
ATOM     24  C   UNL A   1      33.688  21.015  27.129  1.00  0.00     0.009 C 
ENDBRANCH  21  22
ENDBRANCH  19  21
ENDBRANCH   9  19
BRANCH  18  25
ATOM     25  C   UNL A   1      32.582  25.458  20.545  1.00  0.00     0.430 C 
ATOM     26  F   UNL A   1      33.549  26.404  20.489  1.00  0.00    -0.167 F 
ATOM     27  F   UNL A   1      33.158  24.297  20.139  1.00  0.00    -0.167 F 
ATOM     28  F   UNL A   1      31.643  25.781  19.628  1.00  0.00    -0.167 F 
ENDBRANCH  18  25
ENDBRANCH   6   8
ENDBRANCH   5   6
ENDBRANCH   4   5
ENDBRANCH   3   4
ENDBRANCH   2   3
ENDBRANCH   1   2
BRANCH   1  29
ATOM     29  C   UNL A   1      31.748  30.383  26.845  1.00  0.00     0.188 C 
BRANCH  29  30
ATOM     30  O   UNL A   1      33.001  30.556  27.487  1.00  0.00    -0.376 OA
BRANCH  30  31
ATOM     31  C   UNL A   1      33.553  31.861  27.593  1.00  0.00     0.202 C 
BRANCH  31  32
ATOM     32  C   UNL A   1      32.724  33.143  27.368  1.00  0.00     0.261 C 
BRANCH  32  33
ATOM     33  O   UNL A   1      32.418  33.931  28.525  1.00  0.00    -0.460 OA
BRANCH  33  34
ATOM     34  C   UNL A   1      33.292  34.929  28.812  1.00  0.00     0.338 C 
ATOM     35  O   UNL A   1      33.123  36.126  28.637  1.00  0.00    -0.246 OA
BRANCH  34  36
ATOM     36  C   UNL A   1      34.418  34.356  29.577  1.00  0.00     0.060 A 
ATOM     37  C   UNL A   1      34.187  33.718  30.795  1.00  0.00     0.016 A 
ATOM     38  C   UNL A   1      35.724  34.478  29.077  1.00  0.00     0.016 A 
ATOM     39  C   UNL A   1      35.266  33.187  31.505  1.00  0.00     0.010 A 
ATOM     40  C   UNL A   1      36.804  33.963  29.798  1.00  0.00     0.010 A 
ATOM     41  C   UNL A   1      36.580  33.294  31.009  1.00  0.00    -0.014 A 
BRANCH  41  42
ATOM     42  C   UNL A   1      37.671  32.538  31.672  1.00  0.00     0.031 A 
ATOM     43  C   UNL A   1      38.350  31.366  31.028  1.00  0.00     0.074 A 
ATOM     44  C   UNL A   1      38.052  32.941  32.901  1.00  0.00     0.049 A 
ATOM     45  N   UNL A   1      39.391  30.697  31.453  1.00  0.00    -0.248 NA
ATOM     46  C   UNL A   1      37.798  30.875  29.757  1.00  0.00     0.031 C 
ATOM     47  C   UNL A   1      37.418  34.022  33.659  1.00  0.00     0.029 A 
ATOM     48  N   UNL A   1      39.054  32.498  33.724  1.00  0.00    -0.354 N 
ATOM     49  C   UNL A   1      39.626  29.708  30.508  1.00  0.00     0.074 A 
ATOM     50  C   UNL A   1      38.604  29.852  29.491  1.00  0.00     0.031 C 
ATOM     51  C   UNL A   1      38.054  34.167  34.831  1.00  0.00     0.029 A 
ATOM     52  C   UNL A   1      39.130  33.183  34.914  1.00  0.00     0.049 A 
ATOM     53  H   UNL A   1      39.661  31.760  33.488  1.00  0.00     0.167 HD
ATOM     54  C   UNL A   1      40.619  28.788  30.483  1.00  0.00     0.034 A 
ATOM     55  C   UNL A   1      39.968  33.043  35.958  1.00  0.00     0.034 A 
ATOM     56  C   UNL A   1      41.641  28.658  31.489  1.00  0.00     0.049 A 
ATOM     57  C   UNL A   1      41.070  32.028  35.892  1.00  0.00     0.074 A 
ATOM     58  C   UNL A   1      42.724  27.795  31.500  1.00  0.00     0.029 A 
ATOM     59  N   UNL A   1      41.704  29.391  32.663  1.00  0.00    -0.354 N 
ATOM     60  N   UNL A   1      41.366  31.204  34.918  1.00  0.00    -0.248 NA
ATOM     61  C   UNL A   1      41.973  31.941  37.050  1.00  0.00     0.031 C 
ATOM     62  C   UNL A   1      43.430  27.990  32.689  1.00  0.00     0.029 A 
ATOM     63  C   UNL A   1      42.800  28.993  33.408  1.00  0.00     0.049 A 
ATOM     64  H   UNL A   1      41.065  30.092  32.926  1.00  0.00     0.167 HD
ATOM     65  C   UNL A   1      42.495  30.512  35.336  1.00  0.00     0.074 A 
ATOM     66  C   UNL A   1      42.842  31.024  36.645  1.00  0.00     0.031 C 
ATOM     67  C   UNL A   1      43.169  29.530  34.692  1.00  0.00     0.034 A 
BRANCH  54  68
ATOM     68  C   UNL A   1      40.720  27.867  29.296  1.00  0.00     0.023 A 
ATOM     69  C   UNL A   1      39.795  26.810  29.179  1.00  0.00     0.012 A 
ATOM     70  C   UNL A   1      41.591  28.151  28.227  1.00  0.00     0.148 A 
ATOM     71  C   UNL A   1      39.735  26.049  28.011  1.00  0.00     0.002 A 
ATOM     72  C   UNL A   1      41.506  27.406  27.057  1.00  0.00     0.091 A 
ATOM     73  F   UNL A   1      42.457  29.165  28.364  1.00  0.00    -0.205 F 
ATOM     74  C   UNL A   1      40.579  26.355  26.948  1.00  0.00     0.022 A 
BRANCH  72  75
ATOM     75  S   UNL A   1      42.506  27.750  25.603  1.00  0.00     0.127 S 
ATOM     76  O   UNL A   1      41.928  29.013  25.143  1.00  0.00    -0.237 OA
ATOM     77  O   UNL A   1      43.847  27.864  26.174  1.00  0.00    -0.237 OA
ATOM     78  O   UNL A   1      42.312  26.622  24.703  1.00  0.00    -0.744 OA
ENDBRANCH  72  75
ENDBRANCH  54  68
BRANCH  55  79
ATOM     79  C   UNL A   1      39.807  33.937  37.134  1.00  0.00     0.023 A 
ATOM     80  C   UNL A   1      40.253  35.270  37.065  1.00  0.00     0.012 A 
ATOM     81  C   UNL A   1      39.141  33.486  38.290  1.00  0.00     0.148 A 
ATOM     82  C   UNL A   1      40.043  36.140  38.135  1.00  0.00     0.002 A 
ATOM     83  C   UNL A   1      38.901  34.368  39.335  1.00  0.00     0.091 A 
ATOM     84  F   UNL A   1      38.728  32.212  38.325  1.00  0.00    -0.205 F 
ATOM     85  C   UNL A   1      39.359  35.693  39.264  1.00  0.00     0.022 A 
BRANCH  83  86
ATOM     86  S   UNL A   1      37.944  33.911  40.783  1.00  0.00     0.127 S 
ATOM     87  O   UNL A   1      36.779  33.267  40.179  1.00  0.00    -0.237 OA
ATOM     88  O   UNL A   1      38.862  33.003  41.472  1.00  0.00    -0.237 OA
ATOM     89  O   UNL A   1      37.674  35.154  41.491  1.00  0.00    -0.744 OA
ENDBRANCH  83  86
ENDBRANCH  55  79
BRANCH  67  90
ATOM     90  C   UNL A   1      44.368  28.926  35.369  1.00  0.00     0.023 A 
ATOM     91  C   UNL A   1      45.588  29.627  35.371  1.00  0.00     0.012 A 
ATOM     92  C   UNL A   1      44.247  27.737  36.117  1.00  0.00     0.148 A 
ATOM     93  C   UNL A   1      46.674  29.153  36.107  1.00  0.00     0.002 A 
ATOM     94  C   UNL A   1      45.321  27.288  36.874  1.00  0.00     0.091 A 
ATOM     95  F   UNL A   1      43.074  27.087  36.094  1.00  0.00    -0.205 F 
ATOM     96  C   UNL A   1      46.537  27.994  36.868  1.00  0.00     0.022 A 
BRANCH  94  97
ATOM     97  S   UNL A   1      45.226  25.843  37.937  1.00  0.00     0.127 S 
ATOM     98  O   UNL A   1      45.547  24.765  37.002  1.00  0.00    -0.237 OA
ATOM     99  O   UNL A   1      46.266  26.120  38.928  1.00  0.00    -0.237 OA
ATOM    100  O   UNL A   1      43.869  25.817  38.466  1.00  0.00    -0.744 OA
ENDBRANCH  94  97
ENDBRANCH  67  90
ENDBRANCH  41  42
ENDBRANCH  34  36
ENDBRANCH  33  34
ENDBRANCH  32  33
ENDBRANCH  31  32
ENDBRANCH  30  31
ENDBRANCH  29  30
ENDBRANCH   1  29
TORSDOF 24
ENDMDL
MODEL 3
REMARK VINA RESULT:      -9.4      2.197      7.797
REMARK SMILES CC(C)CN(C)c1cc2c(cc1Cl)C=C(C(=O)OCCOCCOCCOC(=O)c1ccc(-c3c4nc(c(-c5cccc(S(=O)(=O)[O-])c5F)c5ccc([nH]5)c(-c5cccc(S(=O)(=O)[O-])c5F)c5nc(c(-c6cccc(S(=O)(=O)[O-])c6F)c6ccc3[nH]6)C=C5)C=C4)cc1)[C@@H](C(F)(F)F)O2
REMARK SMILES IDX 22 1 21 2 20 3 19 4 18 5 16 6 17 7 15 8 7 9 8 10 12 11 9 12
REMARK SMILES IDX 11 13 13 14 10 15 98 16 14 17 93 18 5 19 6 20 4 21 2 22 1 23
REMARK SMILES IDX 3 24 94 25 95 26 96 27 97 28 23 29 24 30 25 31 26 32 27 33
REMARK SMILES IDX 28 34 29 35 30 36 31 37 92 38 32 39 91 40 33 41 34 42 35 43
REMARK SMILES IDX 85 44 36 45 90 46 84 47 86 48 37 49 89 50 83 51 82 52 38 54
REMARK SMILES IDX 70 55 50 56 69 57 51 58 54 59 68 60 87 61 52 62 53 63 67 65
REMARK SMILES IDX 88 66 55 67 39 68 40 69 48 70 41 71 43 72 49 73 42 74 44 75
REMARK SMILES IDX 45 76 46 77 47 78 71 79 72 80 80 81 73 82 75 83 81 84 74 85
REMARK SMILES IDX 76 86 77 87 78 88 79 89 56 90 57 91 65 92 58 93 60 94 66 95
REMARK SMILES IDX 59 96 61 97 62 98 63 99 64 100
REMARK H PARENT 86 53 54 64
REMARK Flexibility Score: inf
ROOT
ATOM      1  C   UNL A   1      31.140  29.592  25.040  1.00  0.00     0.188 C 
ENDROOT
BRANCH   1   2
ATOM      2  O   UNL A   1      30.436  29.743  23.830  1.00  0.00    -0.376 OA
BRANCH   2   3
ATOM      3  C   UNL A   1      30.086  28.610  23.054  1.00  0.00     0.202 C 
BRANCH   3   4
ATOM      4  C   UNL A   1      31.079  27.640  22.379  1.00  0.00     0.261 C 
BRANCH   4   5
ATOM      5  O   UNL A   1      31.713  26.653  23.198  1.00  0.00    -0.460 OA
BRANCH   5   6
ATOM      6  C   UNL A   1      30.945  25.581  23.497  1.00  0.00     0.338 C 
ATOM      7  O   UNL A   1      29.742  25.483  23.318  1.00  0.00    -0.246 OA
BRANCH   6   8
ATOM      8  C   UNL A   1      31.789  24.457  23.942  1.00  0.00     0.087 C 
ATOM      9  C   UNL A   1      33.535  19.784  24.564  1.00  0.00     0.059 A 
ATOM     10  C   UNL A   1      33.768  21.009  25.231  1.00  0.00     0.074 A 
ATOM     11  C   UNL A   1      32.707  19.830  23.421  1.00  0.00     0.065 A 
ATOM     12  C   UNL A   1      33.201  22.209  24.772  1.00  0.00     0.130 A 
ATOM     13  C   UNL A   1      32.276  21.040  22.881  1.00  0.00     0.034 A 
ATOM     14  Cl  UNL A   1      32.012  18.415  22.706  1.00  0.00    -0.082 Cl
ATOM     15  C   UNL A   1      32.502  22.225  23.567  1.00  0.00     0.019 A 
ATOM     16  O   UNL A   1      33.346  23.332  25.547  1.00  0.00    -0.475 OA
ATOM     17  C   UNL A   1      31.888  23.441  23.079  1.00  0.00     0.027 C 
ATOM     18  C   UNL A   1      32.419  24.443  25.309  1.00  0.00     0.316 C 
BRANCH   9  19
ATOM     19  N   UNL A   1      34.050  18.580  25.057  1.00  0.00    -0.373 N 
ATOM     20  C   UNL A   1      35.324  18.146  24.499  1.00  0.00     0.143 C 
BRANCH  19  21
ATOM     21  C   UNL A   1      33.135  17.536  25.578  1.00  0.00     0.119 C 
BRANCH  21  22
ATOM     22  C   UNL A   1      33.559  16.094  25.225  1.00  0.00     0.002 C 
ATOM     23  C   UNL A   1      32.476  15.073  25.589  1.00  0.00     0.009 C 
ATOM     24  C   UNL A   1      33.905  15.932  23.741  1.00  0.00     0.009 C 
ENDBRANCH  21  22
ENDBRANCH  19  21
ENDBRANCH   9  19
BRANCH  18  25
ATOM     25  C   UNL A   1      31.349  24.502  26.408  1.00  0.00     0.430 C 
ATOM     26  F   UNL A   1      31.001  25.778  26.699  1.00  0.00    -0.167 F 
ATOM     27  F   UNL A   1      30.211  23.873  26.018  1.00  0.00    -0.167 F 
ATOM     28  F   UNL A   1      31.756  23.918  27.557  1.00  0.00    -0.167 F 
ENDBRANCH  18  25
ENDBRANCH   6   8
ENDBRANCH   5   6
ENDBRANCH   4   5
ENDBRANCH   3   4
ENDBRANCH   2   3
ENDBRANCH   1   2
BRANCH   1  29
ATOM     29  C   UNL A   1      31.419  30.915  25.785  1.00  0.00     0.188 C 
BRANCH  29  30
ATOM     30  O   UNL A   1      32.173  30.906  26.986  1.00  0.00    -0.376 OA
BRANCH  30  31
ATOM     31  C   UNL A   1      33.021  32.008  27.283  1.00  0.00     0.202 C 
BRANCH  31  32
ATOM     32  C   UNL A   1      32.543  33.473  27.221  1.00  0.00     0.261 C 
BRANCH  32  33
ATOM     33  O   UNL A   1      32.571  34.219  28.444  1.00  0.00    -0.460 OA
BRANCH  33  34
ATOM     34  C   UNL A   1      33.697  34.942  28.672  1.00  0.00     0.338 C 
ATOM     35  O   UNL A   1      33.805  36.159  28.651  1.00  0.00    -0.246 OA
BRANCH  34  36
ATOM     36  C   UNL A   1      34.745  34.027  29.166  1.00  0.00     0.060 A 
ATOM     37  C   UNL A   1      36.038  34.095  28.649  1.00  0.00     0.016 A 
ATOM     38  C   UNL A   1      34.423  33.073  30.146  1.00  0.00     0.016 A 
ATOM     39  C   UNL A   1      37.014  33.218  29.125  1.00  0.00     0.010 A 
ATOM     40  C   UNL A   1      35.396  32.183  30.607  1.00  0.00     0.010 A 
ATOM     41  C   UNL A   1      36.705  32.264  30.115  1.00  0.00    -0.014 A 
BRANCH  41  42
ATOM     42  C   UNL A   1      37.805  31.496  30.752  1.00  0.00     0.031 A 
ATOM     43  C   UNL A   1      38.567  30.425  30.029  1.00  0.00     0.074 A 
ATOM     44  C   UNL A   1      38.114  31.794  32.030  1.00  0.00     0.049 A 
ATOM     45  N   UNL A   1      39.621  29.766  30.435  1.00  0.00    -0.248 NA
ATOM     46  C   UNL A   1      38.094  30.038  28.693  1.00  0.00     0.031 C 
ATOM     47  C   UNL A   1      37.396  32.764  32.859  1.00  0.00     0.029 A 
ATOM     48  N   UNL A   1      39.102  31.317  32.852  1.00  0.00    -0.354 N 
ATOM     49  C   UNL A   1      39.945  28.887  29.410  1.00  0.00     0.074 A 
ATOM     50  C   UNL A   1      38.959  29.083  28.366  1.00  0.00     0.031 C 
ATOM     51  C   UNL A   1      37.975  32.822  34.066  1.00  0.00     0.029 A 
ATOM     52  C   UNL A   1      39.094  31.885  34.104  1.00  0.00     0.049 A 
ATOM     53  H   UNL A   1      39.754  30.635  32.573  1.00  0.00     0.167 HD
ATOM     54  C   UNL A   1      40.982  28.019  29.343  1.00  0.00     0.034 A 
ATOM     55  C   UNL A   1      39.895  31.681  35.167  1.00  0.00     0.034 A 
ATOM     56  C   UNL A   1      41.967  27.838  30.378  1.00  0.00     0.049 A 
ATOM     57  C   UNL A   1      41.048  30.728  35.055  1.00  0.00     0.074 A 
ATOM     58  C   UNL A   1      43.090  27.029  30.355  1.00  0.00     0.029 A 
ATOM     59  N   UNL A   1      41.945  28.454  31.618  1.00  0.00    -0.354 N 
ATOM     60  N   UNL A   1      41.424  30.019  34.020  1.00  0.00    -0.248 NA
ATOM     61  C   UNL A   1      41.905  30.569  36.239  1.00  0.00     0.031 C 
ATOM     62  C   UNL A   1      43.736  27.138  31.588  1.00  0.00     0.029 A 
ATOM     63  C   UNL A   1      43.028  28.034  32.371  1.00  0.00     0.049 A 
ATOM     64  H   UNL A   1      41.262  29.096  31.919  1.00  0.00     0.167 HD
ATOM     65  C   UNL A   1      42.569  29.341  34.421  1.00  0.00     0.074 A 
ATOM     66  C   UNL A   1      42.835  29.737  35.787  1.00  0.00     0.031 C 
ATOM     67  C   UNL A   1      43.316  28.459  33.716  1.00  0.00     0.034 A 
BRANCH  54  68
ATOM     68  C   UNL A   1      41.178  27.226  28.079  1.00  0.00     0.023 A 
ATOM     69  C   UNL A   1      41.857  27.827  27.000  1.00  0.00     0.012 A 
ATOM     70  C   UNL A   1      40.863  25.854  28.025  1.00  0.00     0.148 A 
ATOM     71  C   UNL A   1      42.222  27.073  25.886  1.00  0.00     0.002 A 
ATOM     72  C   UNL A   1      41.254  25.104  26.923  1.00  0.00     0.091 A 
ATOM     73  F   UNL A   1      40.221  25.307  29.067  1.00  0.00    -0.205 F 
ATOM     74  C   UNL A   1      41.933  25.711  25.853  1.00  0.00     0.022 A 
BRANCH  72  75
ATOM     75  S   UNL A   1      40.985  23.330  26.800  1.00  0.00     0.127 S 
ATOM     76  O   UNL A   1      39.556  23.271  26.490  1.00  0.00    -0.237 OA
ATOM     77  O   UNL A   1      41.866  22.963  25.693  1.00  0.00    -0.237 OA
ATOM     78  O   UNL A   1      41.356  22.775  28.094  1.00  0.00    -0.744 OA
ENDBRANCH  72  75
ENDBRANCH  54  68
BRANCH  55  79
ATOM     79  C   UNL A   1      39.641  32.446  36.416  1.00  0.00     0.023 A 
ATOM     80  C   UNL A   1      40.328  33.652  36.647  1.00  0.00     0.012 A 
ATOM     81  C   UNL A   1      38.662  32.017  37.332  1.00  0.00     0.148 A 
ATOM     82  C   UNL A   1      40.048  34.417  37.779  1.00  0.00     0.002 A 
ATOM     83  C   UNL A   1      38.360  32.803  38.435  1.00  0.00     0.091 A 
ATOM     84  F   UNL A   1      38.025  30.865  37.082  1.00  0.00    -0.205 F 
ATOM     85  C   UNL A   1      39.057  33.999  38.666  1.00  0.00     0.022 A 
BRANCH  83  86
ATOM     86  S   UNL A   1      37.035  32.396  39.577  1.00  0.00     0.127 S 
ATOM     87  O   UNL A   1      37.382  31.028  39.958  1.00  0.00    -0.237 OA
ATOM     88  O   UNL A   1      37.230  33.396  40.627  1.00  0.00    -0.237 OA
ATOM     89  O   UNL A   1      35.799  32.541  38.822  1.00  0.00    -0.744 OA
ENDBRANCH  83  86
ENDBRANCH  55  79
BRANCH  67  90
ATOM     90  C   UNL A   1      44.515  27.846  34.386  1.00  0.00     0.023 A 
ATOM     91  C   UNL A   1      45.722  28.568  34.440  1.00  0.00     0.012 A 
ATOM     92  C   UNL A   1      44.403  26.624  35.080  1.00  0.00     0.148 A 
ATOM     93  C   UNL A   1      46.804  28.081  35.172  1.00  0.00     0.002 A 
ATOM     94  C   UNL A   1      45.474  26.161  35.834  1.00  0.00     0.091 A 
ATOM     95  F   UNL A   1      43.243  25.955  35.009  1.00  0.00    -0.205 F 
ATOM     96  C   UNL A   1      46.676  26.887  35.879  1.00  0.00     0.022 A 
BRANCH  94  97
ATOM     97  S   UNL A   1      45.387  24.669  36.831  1.00  0.00     0.127 S 
ATOM     98  O   UNL A   1      44.850  25.184  38.091  1.00  0.00    -0.237 OA
ATOM     99  O   UNL A   1      44.457  23.840  36.065  1.00  0.00    -0.237 OA
ATOM    100  O   UNL A   1      46.747  24.152  36.907  1.00  0.00    -0.744 OA
ENDBRANCH  94  97
ENDBRANCH  67  90
ENDBRANCH  41  42
ENDBRANCH  34  36
ENDBRANCH  33  34
ENDBRANCH  32  33
ENDBRANCH  31  32
ENDBRANCH  30  31
ENDBRANCH  29  30
ENDBRANCH   1  29
TORSDOF 24
ENDMDL
