MODEL 1
REMARK VINA RESULT:      -9.8      0.000      0.000
REMARK SMILES O=C(CCN1C(=O)/C(=C2\C(=O)N(Cc3ccc(Cl)cc3)c3ccccc32)SC1=S)OCCOCCOCCOC(=O)c1ccc(-c2c3nc(c(-c4cccc(S(=O)(=O)[O-])c4F)c4ccc([nH]4)c(-c4cccc(S(=O)(=O)[O-])c4F)c4nc(c(-c5cccc(S(=O)(=O)[O-])c5F)c5ccc2[nH]5)C=C4)C=C3)cc1
REMARK SMILES IDX 34 1 33 2 32 3 31 4 30 5 2 6 1 7 3 8 4 9 5 10 6 11 28 12
REMARK SMILES IDX 7 13 8 14 27 15 29 16 9 17 10 18 26 19 11 20 12 21 21 22
REMARK SMILES IDX 25 23 22 24 24 25 23 26 13 27 14 28 15 29 20 30 16 31 19 32
REMARK SMILES IDX 17 33 18 34 35 35 36 36 37 37 38 38 39 39 40 40 41 41 42 42
REMARK SMILES IDX 43 43 104 44 44 45 103 46 45 47 46 48 47 49 97 50 48 51
REMARK SMILES IDX 102 52 96 53 98 54 49 55 101 56 95 57 94 58 50 60 82 61
REMARK SMILES IDX 62 62 81 63 63 64 66 65 80 66 99 67 64 68 65 69 79 71 100 72
REMARK SMILES IDX 67 73 51 74 52 75 60 76 53 77 55 78 61 79 54 80 56 81 57 82
REMARK SMILES IDX 58 83 59 84 83 85 84 86 92 87 85 88 87 89 93 90 86 91 88 92
REMARK SMILES IDX 89 93 90 94 91 95 68 96 69 97 77 98 70 99 72 100 78 101
REMARK SMILES IDX 71 102 73 103 74 104 75 105 76 106
REMARK H PARENT 98 59 66 70
REMARK Flexibility Score: inf
ROOT
ATOM      1  C   UNL A   1      46.226  40.930  29.769  1.00  0.00     0.188 C 
ENDROOT
BRANCH   1   2
ATOM      2  O   UNL A   1      44.896  41.386  29.648  1.00  0.00    -0.376 OA
BRANCH   2   3
ATOM      3  C   UNL A   1      44.621  42.547  28.883  1.00  0.00     0.202 C 
BRANCH   3   4
ATOM      4  C   UNL A   1      45.722  43.183  28.044  1.00  0.00     0.261 C 
BRANCH   4   5
ATOM      5  O   UNL A   1      45.668  43.139  26.592  1.00  0.00    -0.463 OA
BRANCH   5   6
ATOM      6  C   UNL A   1      45.267  42.262  25.654  1.00  0.00     0.307 C 
ATOM      7  O   UNL A   1      45.009  41.105  25.985  1.00  0.00    -0.252 OA
BRANCH   6   8
ATOM      8  C   UNL A   1      45.200  42.650  24.203  1.00  0.00     0.144 C 
BRANCH   8   9
ATOM      9  C   UNL A   1      44.203  43.765  23.943  1.00  0.00     0.139 C 
BRANCH   9  10
ATOM     10  N   UNL A   1      43.847  43.869  22.526  1.00  0.00    -0.292 N 
ATOM     11  C   UNL A   1      44.602  44.709  21.719  1.00  0.00     0.267 C 
ATOM     12  C   UNL A   1      42.778  43.230  21.941  1.00  0.00     0.148 C 
ATOM     13  O   UNL A   1      45.497  45.426  22.129  1.00  0.00    -0.268 OA
ATOM     14  C   UNL A   1      44.112  44.676  20.311  1.00  0.00     0.093 C 
ATOM     15  S   UNL A   1      42.748  43.607  20.234  1.00  0.00    -0.053 SA
ATOM     16  S   UNL A   1      41.662  42.204  22.632  1.00  0.00    -0.052 S 
ATOM     17  C   UNL A   1      44.533  45.482  19.321  1.00  0.00     0.069 C 
ATOM     18  C   UNL A   1      45.641  46.500  19.423  1.00  0.00     0.260 C 
ATOM     19  C   UNL A   1      43.726  45.873  18.157  1.00  0.00     0.012 A 
ATOM     20  O   UNL A   1      46.719  46.371  19.972  1.00  0.00    -0.269 OA
ATOM     21  N   UNL A   1      45.203  47.570  18.642  1.00  0.00    -0.303 N 
ATOM     22  C   UNL A   1      44.039  47.219  17.933  1.00  0.00     0.052 A 
ATOM     23  C   UNL A   1      42.770  45.233  17.387  1.00  0.00     0.011 A 
ATOM     24  C   UNL A   1      43.257  47.997  17.101  1.00  0.00     0.027 A 
ATOM     25  C   UNL A   1      42.030  45.993  16.481  1.00  0.00     0.001 A 
ATOM     26  C   UNL A   1      42.243  47.374  16.371  1.00  0.00     0.002 A 
BRANCH  21  27
ATOM     27  C   UNL A   1      45.955  48.798  18.487  1.00  0.00     0.161 C 
BRANCH  27  28
ATOM     28  C   UNL A   1      47.167  48.682  17.578  1.00  0.00    -0.028 A 
ATOM     29  C   UNL A   1      48.469  48.636  18.104  1.00  0.00     0.007 A 
ATOM     30  C   UNL A   1      47.017  48.601  16.186  1.00  0.00     0.007 A 
ATOM     31  C   UNL A   1      49.587  48.544  17.275  1.00  0.00     0.021 A 
ATOM     32  C   UNL A   1      48.136  48.478  15.351  1.00  0.00     0.021 A 
ATOM     33  C   UNL A   1      49.416  48.461  15.899  1.00  0.00     0.041 A 
ATOM     34  Cl  UNL A   1      50.796  48.328  14.880  1.00  0.00    -0.084 Cl
ENDBRANCH  27  28
ENDBRANCH  21  27
ENDBRANCH   9  10
ENDBRANCH   8   9
ENDBRANCH   6   8
ENDBRANCH   5   6
ENDBRANCH   4   5
ENDBRANCH   3   4
ENDBRANCH   2   3
ENDBRANCH   1   2
BRANCH   1  35
ATOM     35  C   UNL A   1      46.489  39.480  29.341  1.00  0.00     0.188 C 
BRANCH  35  36
ATOM     36  O   UNL A   1      47.815  39.101  29.001  1.00  0.00    -0.376 OA
BRANCH  36  37
ATOM     37  C   UNL A   1      48.542  38.263  29.895  1.00  0.00     0.202 C 
BRANCH  37  38
ATOM     38  C   UNL A   1      47.874  37.779  31.190  1.00  0.00     0.261 C 
BRANCH  38  39
ATOM     39  O   UNL A   1      47.384  36.426  31.119  1.00  0.00    -0.460 OA
BRANCH  39  40
ATOM     40  C   UNL A   1      46.035  36.276  31.141  1.00  0.00     0.338 C 
ATOM     41  O   UNL A   1      45.211  37.119  31.449  1.00  0.00    -0.246 OA
BRANCH  40  42
ATOM     42  C   UNL A   1      45.674  34.963  30.564  1.00  0.00     0.060 A 
ATOM     43  C   UNL A   1      46.047  33.772  31.189  1.00  0.00     0.016 A 
ATOM     44  C   UNL A   1      44.924  34.937  29.379  1.00  0.00     0.016 A 
ATOM     45  C   UNL A   1      45.646  32.551  30.635  1.00  0.00     0.010 A 
ATOM     46  C   UNL A   1      44.555  33.716  28.810  1.00  0.00     0.010 A 
ATOM     47  C   UNL A   1      44.891  32.515  29.448  1.00  0.00    -0.014 A 
BRANCH  47  48
ATOM     48  C   UNL A   1      44.286  31.240  28.994  1.00  0.00     0.031 A 
ATOM     49  C   UNL A   1      44.998  30.289  28.083  1.00  0.00     0.074 A 
ATOM     50  C   UNL A   1      43.042  30.955  29.420  1.00  0.00     0.049 A 
ATOM     51  N   UNL A   1      44.621  29.099  27.692  1.00  0.00    -0.248 NA
ATOM     52  C   UNL A   1      46.291  30.725  27.538  1.00  0.00     0.031 C 
ATOM     53  C   UNL A   1      42.229  31.830  30.266  1.00  0.00     0.029 A 
ATOM     54  N   UNL A   1      42.244  29.863  29.197  1.00  0.00    -0.354 N 
ATOM     55  C   UNL A   1      45.632  28.628  26.867  1.00  0.00     0.074 A 
ATOM     56  C   UNL A   1      46.629  29.680  26.788  1.00  0.00     0.031 C 
ATOM     57  C   UNL A   1      41.049  31.237  30.497  1.00  0.00     0.029 A 
ATOM     58  C   UNL A   1      41.023  29.945  29.818  1.00  0.00     0.049 A 
ATOM     59  H   UNL A   1      42.522  29.095  28.648  1.00  0.00     0.167 HD
ATOM     60  C   UNL A   1      45.733  27.422  26.258  1.00  0.00     0.034 A 
ATOM     61  C   UNL A   1      39.996  29.075  29.852  1.00  0.00     0.034 A 
ATOM     62  C   UNL A   1      44.736  26.382  26.330  1.00  0.00     0.049 A 
ATOM     63  C   UNL A   1      40.122  27.750  29.163  1.00  0.00     0.074 A 
ATOM     64  C   UNL A   1      44.778  25.111  25.782  1.00  0.00     0.029 A 
ATOM     65  N   UNL A   1      43.513  26.495  26.973  1.00  0.00    -0.354 N 
ATOM     66  N   UNL A   1      41.144  27.266  28.501  1.00  0.00    -0.248 NA
ATOM     67  C   UNL A   1      38.971  26.842  29.248  1.00  0.00     0.031 C 
ATOM     68  C   UNL A   1      43.576  24.461  26.083  1.00  0.00     0.029 A 
ATOM     69  C   UNL A   1      42.788  25.323  26.828  1.00  0.00     0.049 A 
ATOM     70  H   UNL A   1      43.204  27.293  27.462  1.00  0.00     0.167 HD
ATOM     71  C   UNL A   1      40.766  25.994  28.095  1.00  0.00     0.074 A 
ATOM     72  C   UNL A   1      39.427  25.773  28.606  1.00  0.00     0.031 C 
ATOM     73  C   UNL A   1      41.463  25.100  27.351  1.00  0.00     0.034 A 
BRANCH  60  74
ATOM     74  C   UNL A   1      47.009  27.119  25.517  1.00  0.00     0.023 A 
ATOM     75  C   UNL A   1      47.989  26.332  26.154  1.00  0.00     0.012 A 
ATOM     76  C   UNL A   1      47.206  27.529  24.185  1.00  0.00     0.148 A 
ATOM     77  C   UNL A   1      49.156  25.970  25.484  1.00  0.00     0.002 A 
ATOM     78  C   UNL A   1      48.363  27.143  23.515  1.00  0.00     0.091 A 
ATOM     79  F   UNL A   1      46.268  28.289  23.602  1.00  0.00    -0.205 F 
ATOM     80  C   UNL A   1      49.339  26.368  24.164  1.00  0.00     0.022 A 
BRANCH  78  81
ATOM     81  S   UNL A   1      48.680  27.566  21.797  1.00  0.00     0.127 S 
ATOM     82  O   UNL A   1      49.063  26.268  21.244  1.00  0.00    -0.237 OA
ATOM     83  O   UNL A   1      47.375  28.056  21.353  1.00  0.00    -0.237 OA
ATOM     84  O   UNL A   1      49.734  28.571  21.819  1.00  0.00    -0.744 OA
ENDBRANCH  78  81
ENDBRANCH  60  74
BRANCH  61  85
ATOM     85  C   UNL A   1      38.800  29.430  30.659  1.00  0.00     0.023 A 
ATOM     86  C   UNL A   1      38.663  28.890  31.951  1.00  0.00     0.012 A 
ATOM     87  C   UNL A   1      37.887  30.402  30.208  1.00  0.00     0.148 A 
ATOM     88  C   UNL A   1      37.636  29.321  32.789  1.00  0.00     0.002 A 
ATOM     89  C   UNL A   1      36.889  30.853  31.062  1.00  0.00     0.091 A 
ATOM     90  F   UNL A   1      38.055  30.905  28.977  1.00  0.00    -0.205 F 
ATOM     91  C   UNL A   1      36.757  30.309  32.350  1.00  0.00     0.022 A 
BRANCH  89  92
ATOM     92  S   UNL A   1      35.779  32.198  30.632  1.00  0.00     0.127 S 
ATOM     93  O   UNL A   1      36.704  33.181  30.071  1.00  0.00    -0.237 OA
ATOM     94  O   UNL A   1      34.900  31.552  29.658  1.00  0.00    -0.237 OA
ATOM     95  O   UNL A   1      35.133  32.596  31.874  1.00  0.00    -0.744 OA
ENDBRANCH  89  92
ENDBRANCH  61  85
BRANCH  73  96
ATOM     96  C   UNL A   1      40.787  23.798  27.011  1.00  0.00     0.023 A 
ATOM     97  C   UNL A   1      41.361  22.591  27.458  1.00  0.00     0.012 A 
ATOM     98  C   UNL A   1      39.555  23.769  26.329  1.00  0.00     0.148 A 
ATOM     99  C   UNL A   1      40.726  21.373  27.220  1.00  0.00     0.002 A 
ATOM    100  C   UNL A   1      38.911  22.553  26.122  1.00  0.00     0.091 A 
ATOM    101  F   UNL A   1      39.035  24.928  25.901  1.00  0.00    -0.205 F 
ATOM    102  C   UNL A   1      39.498  21.355  26.562  1.00  0.00     0.022 A 
BRANCH 100 103
ATOM    103  S   UNL A   1      37.298  22.428  25.342  1.00  0.00     0.127 S 
ATOM    104  O   UNL A   1      37.129  20.979  25.238  1.00  0.00    -0.237 OA
ATOM    105  O   UNL A   1      36.428  23.075  26.325  1.00  0.00    -0.237 OA
ATOM    106  O   UNL A   1      37.407  23.133  24.072  1.00  0.00    -0.744 OA
ENDBRANCH 100 103
ENDBRANCH  73  96
ENDBRANCH  47  48
ENDBRANCH  40  42
ENDBRANCH  39  40
ENDBRANCH  38  39
ENDBRANCH  37  38
ENDBRANCH  36  37
ENDBRANCH  35  36
ENDBRANCH   1  35
TORSDOF 24
ENDMDL
MODEL 2
REMARK VINA RESULT:      -9.6      1.988      2.346
REMARK SMILES O=C(CCN1C(=O)/C(=C2\C(=O)N(Cc3ccc(Cl)cc3)c3ccccc32)SC1=S)OCCOCCOCCOC(=O)c1ccc(-c2c3nc(c(-c4cccc(S(=O)(=O)[O-])c4F)c4ccc([nH]4)c(-c4cccc(S(=O)(=O)[O-])c4F)c4nc(c(-c5cccc(S(=O)(=O)[O-])c5F)c5ccc2[nH]5)C=C4)C=C3)cc1
REMARK SMILES IDX 34 1 33 2 32 3 31 4 30 5 2 6 1 7 3 8 4 9 5 10 6 11 28 12
REMARK SMILES IDX 7 13 8 14 27 15 29 16 9 17 10 18 26 19 11 20 12 21 21 22
REMARK SMILES IDX 25 23 22 24 24 25 23 26 13 27 14 28 15 29 20 30 16 31 19 32
REMARK SMILES IDX 17 33 18 34 35 35 36 36 37 37 38 38 39 39 40 40 41 41 42 42
REMARK SMILES IDX 43 43 104 44 44 45 103 46 45 47 46 48 47 49 97 50 48 51
REMARK SMILES IDX 102 52 96 53 98 54 49 55 101 56 95 57 94 58 50 60 82 61
REMARK SMILES IDX 62 62 81 63 63 64 66 65 80 66 99 67 64 68 65 69 79 71 100 72
REMARK SMILES IDX 67 73 51 74 52 75 60 76 53 77 55 78 61 79 54 80 56 81 57 82
REMARK SMILES IDX 58 83 59 84 83 85 84 86 92 87 85 88 87 89 93 90 86 91 88 92
REMARK SMILES IDX 89 93 90 94 91 95 68 96 69 97 77 98 70 99 72 100 78 101
REMARK SMILES IDX 71 102 73 103 74 104 75 105 76 106
REMARK H PARENT 98 59 66 70
REMARK Flexibility Score: inf
ROOT
ATOM      1  C   UNL A   1      46.046  40.072  30.355  1.00  0.00     0.188 C 
ENDROOT
BRANCH   1   2
ATOM      2  O   UNL A   1      44.650  40.224  30.212  1.00  0.00    -0.376 OA
BRANCH   2   3
ATOM      3  C   UNL A   1      44.140  41.128  29.246  1.00  0.00     0.202 C 
BRANCH   3   4
ATOM      4  C   UNL A   1      45.097  41.989  28.431  1.00  0.00     0.261 C 
BRANCH   4   5
ATOM      5  O   UNL A   1      44.860  42.226  27.016  1.00  0.00    -0.463 OA
BRANCH   5   6
ATOM      6  C   UNL A   1      44.623  41.476  25.925  1.00  0.00     0.307 C 
ATOM      7  O   UNL A   1      44.145  40.351  26.062  1.00  0.00    -0.252 OA
BRANCH   6   8
ATOM      8  C   UNL A   1      45.000  41.959  24.552  1.00  0.00     0.144 C 
BRANCH   8   9
ATOM      9  C   UNL A   1      44.386  43.306  24.219  1.00  0.00     0.139 C 
BRANCH   9  10
ATOM     10  N   UNL A   1      43.792  43.328  22.880  1.00  0.00    -0.292 N 
ATOM     11  C   UNL A   1      44.610  43.645  21.803  1.00  0.00     0.267 C 
ATOM     12  C   UNL A   1      42.460  43.108  22.613  1.00  0.00     0.148 C 
ATOM     13  O   UNL A   1      45.776  43.980  21.909  1.00  0.00    -0.268 OA
ATOM     14  C   UNL A   1      43.846  43.599  20.523  1.00  0.00     0.093 C 
ATOM     15  S   UNL A   1      42.200  43.194  20.886  1.00  0.00    -0.053 SA
ATOM     16  S   UNL A   1      41.222  42.756  23.670  1.00  0.00    -0.052 S 
ATOM     17  C   UNL A   1      44.311  43.995  19.326  1.00  0.00     0.069 C 
ATOM     18  C   UNL A   1      45.714  44.464  19.035  1.00  0.00     0.260 C 
ATOM     19  C   UNL A   1      43.476  44.500  18.227  1.00  0.00     0.012 A 
ATOM     20  O   UNL A   1      46.756  43.987  19.443  1.00  0.00    -0.269 OA
ATOM     21  N   UNL A   1      45.552  45.485  18.097  1.00  0.00    -0.303 N 
ATOM     22  C   UNL A   1      44.216  45.543  17.657  1.00  0.00     0.052 A 
ATOM     23  C   UNL A   1      42.205  44.202  17.766  1.00  0.00     0.011 A 
ATOM     24  C   UNL A   1      43.624  46.436  16.786  1.00  0.00     0.027 A 
ATOM     25  C   UNL A   1      41.627  45.051  16.822  1.00  0.00     0.001 A 
ATOM     26  C   UNL A   1      42.315  46.184  16.368  1.00  0.00     0.002 A 
BRANCH  21  27
ATOM     27  C   UNL A   1      46.658  46.251  17.560  1.00  0.00     0.161 C 
BRANCH  27  28
ATOM     28  C   UNL A   1      46.435  47.754  17.552  1.00  0.00    -0.028 A 
ATOM     29  C   UNL A   1      46.372  48.474  16.348  1.00  0.00     0.007 A 
ATOM     30  C   UNL A   1      46.269  48.463  18.752  1.00  0.00     0.007 A 
ATOM     31  C   UNL A   1      46.182  49.856  16.334  1.00  0.00     0.021 A 
ATOM     32  C   UNL A   1      46.048  49.847  18.741  1.00  0.00     0.021 A 
ATOM     33  C   UNL A   1      46.016  50.538  17.532  1.00  0.00     0.041 A 
ATOM     34  Cl  UNL A   1      45.762  52.240  17.511  1.00  0.00    -0.084 Cl
ENDBRANCH  27  28
ENDBRANCH  21  27
ENDBRANCH   9  10
ENDBRANCH   8   9
ENDBRANCH   6   8
ENDBRANCH   5   6
ENDBRANCH   4   5
ENDBRANCH   3   4
ENDBRANCH   2   3
ENDBRANCH   1   2
BRANCH   1  35
ATOM     35  C   UNL A   1      46.590  38.644  30.229  1.00  0.00     0.188 C 
BRANCH  35  36
ATOM     36  O   UNL A   1      47.938  38.463  29.820  1.00  0.00    -0.376 OA
BRANCH  36  37
ATOM     37  C   UNL A   1      48.837  37.781  30.692  1.00  0.00     0.202 C 
BRANCH  37  38
ATOM     38  C   UNL A   1      48.330  37.266  32.047  1.00  0.00     0.261 C 
BRANCH  38  39
ATOM     39  O   UNL A   1      47.849  35.909  32.008  1.00  0.00    -0.460 OA
BRANCH  39  40
ATOM     40  C   UNL A   1      46.517  35.740  32.207  1.00  0.00     0.338 C 
ATOM     41  O   UNL A   1      45.753  36.523  32.745  1.00  0.00    -0.246 OA
BRANCH  40  42
ATOM     42  C   UNL A   1      46.066  34.514  31.514  1.00  0.00     0.060 A 
ATOM     43  C   UNL A   1      46.377  33.247  32.012  1.00  0.00     0.016 A 
ATOM     44  C   UNL A   1      45.293  34.648  30.352  1.00  0.00     0.016 A 
ATOM     45  C   UNL A   1      45.892  32.112  31.354  1.00  0.00     0.010 A 
ATOM     46  C   UNL A   1      44.839  33.512  29.677  1.00  0.00     0.010 A 
ATOM     47  C   UNL A   1      45.114  32.236  30.188  1.00  0.00    -0.014 A 
BRANCH  47  48
ATOM     48  C   UNL A   1      44.424  31.050  29.628  1.00  0.00     0.031 A 
ATOM     49  C   UNL A   1      45.094  30.096  28.688  1.00  0.00     0.074 A 
ATOM     50  C   UNL A   1      43.140  30.852  29.982  1.00  0.00     0.049 A 
ATOM     51  N   UNL A   1      44.634  28.970  28.207  1.00  0.00    -0.248 NA
ATOM     52  C   UNL A   1      46.443  30.447  28.228  1.00  0.00     0.031 C 
ATOM     53  C   UNL A   1      42.366  31.743  30.846  1.00  0.00     0.029 A 
ATOM     54  N   UNL A   1      42.263  29.850  29.656  1.00  0.00    -0.354 N 
ATOM     55  C   UNL A   1      45.639  28.461  27.397  1.00  0.00     0.074 A 
ATOM     56  C   UNL A   1      46.726  29.423  27.428  1.00  0.00     0.031 C 
ATOM     57  C   UNL A   1      41.130  31.245  30.990  1.00  0.00     0.029 A 
ATOM     58  C   UNL A   1      41.025  30.003  30.228  1.00  0.00     0.049 A 
ATOM     59  H   UNL A   1      42.500  29.095  29.071  1.00  0.00     0.167 HD
ATOM     60  C   UNL A   1      45.665  27.289  26.717  1.00  0.00     0.034 A 
ATOM     61  C   UNL A   1      39.927  29.228  30.164  1.00  0.00     0.034 A 
ATOM     62  C   UNL A   1      44.580  26.340  26.681  1.00  0.00     0.049 A 
ATOM     63  C   UNL A   1      39.971  27.940  29.397  1.00  0.00     0.074 A 
ATOM     64  C   UNL A   1      44.538  25.105  26.054  1.00  0.00     0.029 A 
ATOM     65  N   UNL A   1      43.341  26.523  27.277  1.00  0.00    -0.354 N 
ATOM     66  N   UNL A   1      40.978  27.408  28.750  1.00  0.00    -0.248 NA
ATOM     67  C   UNL A   1      38.743  27.134  29.376  1.00  0.00     0.031 C 
ATOM     68  C   UNL A   1      43.271  24.548  26.262  1.00  0.00     0.029 A 
ATOM     69  C   UNL A   1      42.526  25.430  27.026  1.00  0.00     0.049 A 
ATOM     70  H   UNL A   1      43.080  27.313  27.802  1.00  0.00     0.167 HD
ATOM     71  C   UNL A   1      40.511  26.201  28.247  1.00  0.00     0.074 A 
ATOM     72  C   UNL A   1      39.136  26.069  28.686  1.00  0.00     0.031 C 
ATOM     73  C   UNL A   1      41.163  25.295  27.478  1.00  0.00     0.034 A 
BRANCH  60  74
ATOM     74  C   UNL A   1      46.943  26.919  26.013  1.00  0.00     0.023 A 
ATOM     75  C   UNL A   1      47.061  27.201  24.636  1.00  0.00     0.012 A 
ATOM     76  C   UNL A   1      48.044  26.383  26.707  1.00  0.00     0.148 A 
ATOM     77  C   UNL A   1      48.248  26.939  23.956  1.00  0.00     0.002 A 
ATOM     78  C   UNL A   1      49.234  26.147  26.026  1.00  0.00     0.091 A 
ATOM     79  F   UNL A   1      47.907  26.109  28.012  1.00  0.00    -0.205 F 
ATOM     80  C   UNL A   1      49.336  26.420  24.651  1.00  0.00     0.022 A 
BRANCH  78  81
ATOM     81  S   UNL A   1      50.712  25.520  26.834  1.00  0.00     0.127 S 
ATOM     82  O   UNL A   1      51.611  25.338  25.696  1.00  0.00    -0.237 OA
ATOM     83  O   UNL A   1      51.070  26.625  27.724  1.00  0.00    -0.237 OA
ATOM     84  O   UNL A   1      50.309  24.297  27.514  1.00  0.00    -0.744 OA
ENDBRANCH  78  81
ENDBRANCH  60  74
BRANCH  61  85
ATOM     85  C   UNL A   1      38.729  29.639  30.940  1.00  0.00     0.023 A 
ATOM     86  C   UNL A   1      38.635  29.273  32.296  1.00  0.00     0.012 A 
ATOM     87  C   UNL A   1      37.767  30.502  30.382  1.00  0.00     0.148 A 
ATOM     88  C   UNL A   1      37.603  29.771  33.090  1.00  0.00     0.002 A 
ATOM     89  C   UNL A   1      36.763  31.023  31.189  1.00  0.00     0.091 A 
ATOM     90  F   UNL A   1      37.894  30.840  29.091  1.00  0.00    -0.205 F 
ATOM     91  C   UNL A   1      36.675  30.653  32.541  1.00  0.00     0.022 A 
BRANCH  89  92
ATOM     92  S   UNL A   1      35.589  32.250  30.605  1.00  0.00     0.127 S 
ATOM     93  O   UNL A   1      36.454  33.406  30.376  1.00  0.00    -0.237 OA
ATOM     94  O   UNL A   1      35.078  31.612  29.391  1.00  0.00    -0.237 OA
ATOM     95  O   UNL A   1      34.613  32.409  31.673  1.00  0.00    -0.744 OA
ENDBRANCH  89  92
ENDBRANCH  61  85
BRANCH  73  96
ATOM     96  C   UNL A   1      40.395  24.081  27.027  1.00  0.00     0.023 A 
ATOM     97  C   UNL A   1      39.144  24.255  26.404  1.00  0.00     0.012 A 
ATOM     98  C   UNL A   1      40.937  22.786  27.143  1.00  0.00     0.148 A 
ATOM     99  C   UNL A   1      38.437  23.158  25.913  1.00  0.00     0.002 A 
ATOM    100  C   UNL A   1      40.242  21.699  26.623  1.00  0.00     0.091 A 
ATOM    101  F   UNL A   1      42.123  22.643  27.752  1.00  0.00    -0.205 F 
ATOM    102  C   UNL A   1      38.990  21.883  26.013  1.00  0.00     0.022 A 
BRANCH 100 103
ATOM    103  S   UNL A   1      40.896  20.026  26.645  1.00  0.00     0.127 S 
ATOM    104  O   UNL A   1      39.932  19.319  25.802  1.00  0.00    -0.237 OA
ATOM    105  O   UNL A   1      42.218  20.203  26.043  1.00  0.00    -0.237 OA
ATOM    106  O   UNL A   1      40.915  19.618  28.043  1.00  0.00    -0.744 OA
ENDBRANCH 100 103
ENDBRANCH  73  96
ENDBRANCH  47  48
ENDBRANCH  40  42
ENDBRANCH  39  40
ENDBRANCH  38  39
ENDBRANCH  37  38
ENDBRANCH  36  37
ENDBRANCH  35  36
ENDBRANCH   1  35
TORSDOF 24
ENDMDL
MODEL 3
REMARK VINA RESULT:      -9.5     11.696     18.404
REMARK SMILES O=C(CCN1C(=O)/C(=C2\C(=O)N(Cc3ccc(Cl)cc3)c3ccccc32)SC1=S)OCCOCCOCCOC(=O)c1ccc(-c2c3nc(c(-c4cccc(S(=O)(=O)[O-])c4F)c4ccc([nH]4)c(-c4cccc(S(=O)(=O)[O-])c4F)c4nc(c(-c5cccc(S(=O)(=O)[O-])c5F)c5ccc2[nH]5)C=C4)C=C3)cc1
REMARK SMILES IDX 34 1 33 2 32 3 31 4 30 5 2 6 1 7 3 8 4 9 5 10 6 11 28 12
REMARK SMILES IDX 7 13 8 14 27 15 29 16 9 17 10 18 26 19 11 20 12 21 21 22
REMARK SMILES IDX 25 23 22 24 24 25 23 26 13 27 14 28 15 29 20 30 16 31 19 32
REMARK SMILES IDX 17 33 18 34 35 35 36 36 37 37 38 38 39 39 40 40 41 41 42 42
REMARK SMILES IDX 43 43 104 44 44 45 103 46 45 47 46 48 47 49 97 50 48 51
REMARK SMILES IDX 102 52 96 53 98 54 49 55 101 56 95 57 94 58 50 60 82 61
REMARK SMILES IDX 62 62 81 63 63 64 66 65 80 66 99 67 64 68 65 69 79 71 100 72
REMARK SMILES IDX 67 73 51 74 52 75 60 76 53 77 55 78 61 79 54 80 56 81 57 82
REMARK SMILES IDX 58 83 59 84 83 85 84 86 92 87 85 88 87 89 93 90 86 91 88 92
REMARK SMILES IDX 89 93 90 94 91 95 68 96 69 97 77 98 70 99 72 100 78 101
REMARK SMILES IDX 71 102 73 103 74 104 75 105 76 106
REMARK H PARENT 98 59 66 70
REMARK Flexibility Score: inf
ROOT
ATOM      1  C   UNL A   1      31.776  29.956  26.895  1.00  0.00     0.188 C 
ENDROOT
BRANCH   1   2
ATOM      2  O   UNL A   1      31.732  29.247  25.675  1.00  0.00    -0.376 OA
BRANCH   2   3
ATOM      3  C   UNL A   1      31.779  29.959  24.450  1.00  0.00     0.202 C 
BRANCH   3   4
ATOM      4  C   UNL A   1      30.492  30.242  23.685  1.00  0.00     0.261 C 
BRANCH   4   5
ATOM      5  O   UNL A   1      29.317  29.406  23.873  1.00  0.00    -0.463 OA
BRANCH   5   6
ATOM      6  C   UNL A   1      28.878  28.219  23.420  1.00  0.00     0.307 C 
ATOM      7  O   UNL A   1      27.690  28.092  23.124  1.00  0.00    -0.252 OA
BRANCH   6   8
ATOM      8  C   UNL A   1      29.793  27.030  23.340  1.00  0.00     0.144 C 
BRANCH   8   9
ATOM      9  C   UNL A   1      30.741  27.102  22.157  1.00  0.00     0.139 C 
BRANCH   9  10
ATOM     10  N   UNL A   1      31.983  26.362  22.397  1.00  0.00    -0.292 N 
ATOM     11  C   UNL A   1      31.899  24.993  22.616  1.00  0.00     0.267 C 
ATOM     12  C   UNL A   1      33.231  26.935  22.476  1.00  0.00     0.148 C 
ATOM     13  O   UNL A   1      30.851  24.378  22.696  1.00  0.00    -0.268 OA
ATOM     14  C   UNL A   1      33.254  24.404  22.822  1.00  0.00     0.093 C 
ATOM     15  S   UNL A   1      34.422  25.682  22.739  1.00  0.00    -0.053 SA
ATOM     16  S   UNL A   1      33.663  28.536  22.311  1.00  0.00    -0.052 S 
ATOM     17  C   UNL A   1      33.502  23.138  23.199  1.00  0.00     0.069 C 
ATOM     18  C   UNL A   1      32.470  22.055  23.390  1.00  0.00     0.260 C 
ATOM     19  C   UNL A   1      34.692  22.702  23.944  1.00  0.00     0.012 A 
ATOM     20  O   UNL A   1      31.513  21.809  22.680  1.00  0.00    -0.269 OA
ATOM     21  N   UNL A   1      32.930  21.326  24.487  1.00  0.00    -0.303 N 
ATOM     22  C   UNL A   1      34.223  21.744  24.851  1.00  0.00     0.052 A 
ATOM     23  C   UNL A   1      36.021  23.088  23.948  1.00  0.00     0.011 A 
ATOM     24  C   UNL A   1      35.009  21.328  25.907  1.00  0.00     0.027 A 
ATOM     25  C   UNL A   1      36.848  22.607  24.964  1.00  0.00     0.001 A 
ATOM     26  C   UNL A   1      36.334  21.767  25.961  1.00  0.00     0.002 A 
BRANCH  21  27
ATOM     27  C   UNL A   1      32.212  20.199  25.046  1.00  0.00     0.161 C 
BRANCH  27  28
ATOM     28  C   UNL A   1      32.991  18.893  25.041  1.00  0.00    -0.028 A 
ATOM     29  C   UNL A   1      32.588  17.802  25.828  1.00  0.00     0.007 A 
ATOM     30  C   UNL A   1      34.127  18.737  24.233  1.00  0.00     0.007 A 
ATOM     31  C   UNL A   1      33.306  16.606  25.838  1.00  0.00     0.021 A 
ATOM     32  C   UNL A   1      34.834  17.527  24.217  1.00  0.00     0.021 A 
ATOM     33  C   UNL A   1      34.425  16.471  25.028  1.00  0.00     0.041 A 
ATOM     34  Cl  UNL A   1      35.297  14.987  25.027  1.00  0.00    -0.084 Cl
ENDBRANCH  27  28
ENDBRANCH  21  27
ENDBRANCH   9  10
ENDBRANCH   8   9
ENDBRANCH   6   8
ENDBRANCH   5   6
ENDBRANCH   4   5
ENDBRANCH   3   4
ENDBRANCH   2   3
ENDBRANCH   1   2
BRANCH   1  35
ATOM     35  C   UNL A   1      31.056  31.310  26.920  1.00  0.00     0.188 C 
BRANCH  35  36
ATOM     36  O   UNL A   1      31.838  32.496  26.921  1.00  0.00    -0.376 OA
BRANCH  36  37
ATOM     37  C   UNL A   1      33.139  32.463  27.503  1.00  0.00     0.202 C 
BRANCH  37  38
ATOM     38  C   UNL A   1      33.761  33.760  28.041  1.00  0.00     0.261 C 
BRANCH  38  39
ATOM     39  O   UNL A   1      32.832  34.590  28.765  1.00  0.00    -0.460 OA
BRANCH  39  40
ATOM     40  C   UNL A   1      33.222  34.982  30.005  1.00  0.00     0.338 C 
ATOM     41  O   UNL A   1      32.617  35.720  30.762  1.00  0.00    -0.246 OA
BRANCH  40  42
ATOM     42  C   UNL A   1      34.438  34.238  30.398  1.00  0.00     0.060 A 
ATOM     43  C   UNL A   1      35.692  34.585  29.893  1.00  0.00     0.016 A 
ATOM     44  C   UNL A   1      34.310  33.184  31.314  1.00  0.00     0.016 A 
ATOM     45  C   UNL A   1      36.824  33.887  30.326  1.00  0.00     0.010 A 
ATOM     46  C   UNL A   1      35.438  32.466  31.718  1.00  0.00     0.010 A 
ATOM     47  C   UNL A   1      36.707  32.829  31.246  1.00  0.00    -0.014 A 
BRANCH  47  48
ATOM     48  C   UNL A   1      37.922  32.246  31.864  1.00  0.00     0.031 A 
ATOM     49  C   UNL A   1      38.468  32.723  33.174  1.00  0.00     0.074 A 
ATOM     50  C   UNL A   1      38.548  31.260  31.196  1.00  0.00     0.049 A 
ATOM     51  N   UNL A   1      39.463  32.233  33.868  1.00  0.00    -0.248 NA
ATOM     52  C   UNL A   1      37.826  33.897  33.780  1.00  0.00     0.031 C 
ATOM     53  C   UNL A   1      38.140  30.749  29.887  1.00  0.00     0.029 A 
ATOM     54  N   UNL A   1      39.656  30.520  31.518  1.00  0.00    -0.354 N 
ATOM     55  C   UNL A   1      39.562  33.023  35.005  1.00  0.00     0.074 A 
ATOM     56  C   UNL A   1      38.542  34.049  34.889  1.00  0.00     0.031 C 
ATOM     57  C   UNL A   1      38.982  29.773  29.519  1.00  0.00     0.029 A 
ATOM     58  C   UNL A   1      39.987  29.591  30.563  1.00  0.00     0.049 A 
ATOM     59  H   UNL A   1      40.164  30.643  32.352  1.00  0.00     0.167 HD
ATOM     60  C   UNL A   1      40.404  32.886  36.058  1.00  0.00     0.034 A 
ATOM     61  C   UNL A   1      40.978  28.681  30.530  1.00  0.00     0.034 A 
ATOM     62  C   UNL A   1      41.423  31.871  36.165  1.00  0.00     0.049 A 
ATOM     63  C   UNL A   1      41.906  28.552  31.700  1.00  0.00     0.074 A 
ATOM     64  C   UNL A   1      42.291  31.632  37.218  1.00  0.00     0.029 A 
ATOM     65  N   UNL A   1      41.727  30.941  35.182  1.00  0.00    -0.354 N 
ATOM     66  N   UNL A   1      41.898  29.218  32.828  1.00  0.00    -0.248 NA
ATOM     67  C   UNL A   1      42.959  27.532  31.607  1.00  0.00     0.031 C 
ATOM     68  C   UNL A   1      43.126  30.564  36.867  1.00  0.00     0.029 A 
ATOM     69  C   UNL A   1      42.773  30.133  35.599  1.00  0.00     0.049 A 
ATOM     70  H   UNL A   1      41.267  30.866  34.315  1.00  0.00     0.167 HD
ATOM     71  C   UNL A   1      42.938  28.696  33.586  1.00  0.00     0.074 A 
ATOM     72  C   UNL A   1      43.541  27.641  32.796  1.00  0.00     0.031 C 
ATOM     73  C   UNL A   1      43.361  29.072  34.817  1.00  0.00     0.034 A 
BRANCH  60  74
ATOM     74  C   UNL A   1      40.211  33.812  37.229  1.00  0.00     0.023 A 
ATOM     75  C   UNL A   1      40.705  35.129  37.136  1.00  0.00     0.012 A 
ATOM     76  C   UNL A   1      39.483  33.423  38.370  1.00  0.00     0.148 A 
ATOM     77  C   UNL A   1      40.493  36.042  38.167  1.00  0.00     0.002 A 
ATOM     78  C   UNL A   1      39.254  34.348  39.383  1.00  0.00     0.091 A 
ATOM     79  F   UNL A   1      39.034  32.162  38.444  1.00  0.00    -0.205 F 
ATOM     80  C   UNL A   1      39.761  35.655  39.285  1.00  0.00     0.022 A 
BRANCH  78  81
ATOM     81  S   UNL A   1      38.287  33.967  40.850  1.00  0.00     0.127 S 
ATOM     82  O   UNL A   1      39.022  32.825  41.393  1.00  0.00    -0.237 OA
ATOM     83  O   UNL A   1      38.410  35.198  41.630  1.00  0.00    -0.237 OA
ATOM     84  O   UNL A   1      36.941  33.676  40.378  1.00  0.00    -0.744 OA
ENDBRANCH  78  81
ENDBRANCH  60  74
BRANCH  61  85
ATOM     85  C   UNL A   1      41.055  27.767  29.362  1.00  0.00     0.023 A 
ATOM     86  C   UNL A   1      40.073  26.772  29.207  1.00  0.00     0.012 A 
ATOM     87  C   UNL A   1      42.005  27.975  28.343  1.00  0.00     0.148 A 
ATOM     88  C   UNL A   1      40.029  26.000  28.046  1.00  0.00     0.002 A 
ATOM     89  C   UNL A   1      41.931  27.228  27.175  1.00  0.00     0.091 A 
ATOM     90  F   UNL A   1      42.918  28.940  28.518  1.00  0.00    -0.205 F 
ATOM     91  C   UNL A   1      40.949  26.236  27.027  1.00  0.00     0.022 A 
BRANCH  89  92
ATOM     92  S   UNL A   1      42.998  27.531  25.762  1.00  0.00     0.127 S 
ATOM     93  O   UNL A   1      44.228  26.851  26.165  1.00  0.00    -0.237 OA
ATOM     94  O   UNL A   1      42.254  26.873  24.687  1.00  0.00    -0.237 OA
ATOM     95  O   UNL A   1      43.102  28.978  25.641  1.00  0.00    -0.744 OA
ENDBRANCH  89  92
ENDBRANCH  61  85
BRANCH  73  96
ATOM     96  C   UNL A   1      44.557  28.361  35.392  1.00  0.00     0.023 A 
ATOM     97  C   UNL A   1      45.794  29.033  35.441  1.00  0.00     0.012 A 
ATOM     98  C   UNL A   1      44.444  27.074  35.953  1.00  0.00     0.148 A 
ATOM     99  C   UNL A   1      46.906  28.430  36.028  1.00  0.00     0.002 A 
ATOM    100  C   UNL A   1      45.549  26.491  36.565  1.00  0.00     0.091 A 
ATOM    101  F   UNL A   1      43.260  26.449  35.882  1.00  0.00    -0.205 F 
ATOM    102  C   UNL A   1      46.781  27.165  36.598  1.00  0.00     0.022 A 
BRANCH 100 103
ATOM    103  S   UNL A   1      45.475  24.893  37.384  1.00  0.00     0.127 S 
ATOM    104  O   UNL A   1      45.161  24.001  36.268  1.00  0.00    -0.237 OA
ATOM    105  O   UNL A   1      46.832  24.754  37.913  1.00  0.00    -0.237 OA
ATOM    106  O   UNL A   1      44.436  25.006  38.399  1.00  0.00    -0.744 OA
ENDBRANCH 100 103
ENDBRANCH  73  96
ENDBRANCH  47  48
ENDBRANCH  40  42
ENDBRANCH  39  40
ENDBRANCH  38  39
ENDBRANCH  37  38
ENDBRANCH  36  37
ENDBRANCH  35  36
ENDBRANCH   1  35
TORSDOF 24
ENDMDL
