MODEL 1
REMARK VINA RESULT:      -8.8      0.000      0.000
REMARK SMILES O=C(Nc1ccc2c(c1)OCO2)N[C@H]1C=C[C@@H](C(=O)OCCOCCOCCOC(=O)c2ccc(-c3c4nc(c(-c5cccc(S(=O)(=O)[O-])c5F)c5ccc([nH]5)c(-c5cccc(S(=O)(=O)[O-])c5F)c5nc(c(-c6cccc(S(=O)(=O)[O-])c6F)c6ccc3[nH]6)C=C5)C=C4)cc2)C1
REMARK SMILES IDX 25 1 24 2 23 3 22 4 21 5 20 6 18 7 19 8 17 9 14 10 15 11
REMARK SMILES IDX 95 12 16 13 13 14 1 15 2 16 3 17 4 20 5 21 9 22 6 23 8 24
REMARK SMILES IDX 7 25 10 26 12 27 11 28 26 29 27 30 28 31 29 32 30 33 31 34
REMARK SMILES IDX 32 35 33 36 94 37 34 38 93 39 35 40 36 41 37 42 87 43 38 44
REMARK SMILES IDX 92 45 86 46 88 47 39 48 91 49 85 50 84 51 40 53 72 54 52 55
REMARK SMILES IDX 71 56 53 57 56 58 70 59 89 60 54 61 55 62 69 64 90 65 57 66
REMARK SMILES IDX 41 67 42 68 50 69 43 70 45 71 51 72 44 73 46 74 47 75 48 76
REMARK SMILES IDX 49 77 73 78 74 79 82 80 75 81 77 82 83 83 76 84 78 85 79 86
REMARK SMILES IDX 80 87 81 88 58 89 59 90 67 91 60 92 62 93 68 94 61 95 63 96
REMARK SMILES IDX 64 97 65 98 66 99
REMARK H PARENT 3 18 13 19 88 52 56 63
REMARK Flexibility Score: inf
ROOT
ATOM      1  C   UNL A   1      39.915  27.897  32.758  1.00  0.00     0.188 C 
ENDROOT
BRANCH   1   2
ATOM      2  C   UNL A   1      41.174  28.689  33.143  1.00  0.00     0.188 C 
BRANCH   2   3
ATOM      3  O   UNL A   1      41.913  28.265  34.281  1.00  0.00    -0.376 OA
BRANCH   3   4
ATOM      4  C   UNL A   1      41.455  28.644  35.574  1.00  0.00     0.202 C 
BRANCH   4   5
ATOM      5  C   UNL A   1      40.661  29.953  35.744  1.00  0.00     0.261 C 
BRANCH   5   6
ATOM      6  O   UNL A   1      39.256  29.782  36.041  1.00  0.00    -0.463 OA
BRANCH   6   7
ATOM      7  C   UNL A   1      38.572  30.909  36.372  1.00  0.00     0.312 C 
ATOM      8  O   UNL A   1      37.708  30.945  37.244  1.00  0.00    -0.252 OA
BRANCH   7   9
ATOM      9  C   UNL A   1      39.003  32.172  35.609  1.00  0.00     0.124 C 
ATOM     10  C   UNL A   1      38.086  34.155  34.452  1.00  0.00     0.107 C 
ATOM     11  C   UNL A   1      38.306  34.414  35.900  1.00  0.00    -0.006 C 
ATOM     12  C   UNL A   1      38.240  32.632  34.360  1.00  0.00     0.048 C 
ATOM     13  C   UNL A   1      38.833  33.355  36.522  1.00  0.00    -0.014 C 
BRANCH  10  14
ATOM     14  N   UNL A   1      36.750  34.545  34.090  1.00  0.00    -0.332 N 
ATOM     15  O   UNL A   1      35.701  33.698  35.932  1.00  0.00    -0.248 OA
ATOM     16  C   UNL A   1      35.659  34.311  34.869  1.00  0.00     0.319 C 
ATOM     17  N   UNL A   1      34.487  34.897  34.473  1.00  0.00    -0.308 N 
ATOM     18  H   UNL A   1      33.775  34.893  35.154  1.00  0.00     0.171 HD
ATOM     19  H   UNL A   1      36.617  35.008  33.231  1.00  0.00     0.165 HD
BRANCH  17  20
ATOM     20  C   UNL A   1      34.133  35.501  33.255  1.00  0.00     0.046 A 
ATOM     21  C   UNL A   1      33.837  36.876  33.146  1.00  0.00     0.030 A 
ATOM     22  C   UNL A   1      34.077  34.685  32.119  1.00  0.00     0.076 A 
ATOM     23  C   UNL A   1      33.383  37.422  31.944  1.00  0.00     0.053 A 
ATOM     24  C   UNL A   1      33.614  35.249  30.949  1.00  0.00     0.167 A 
ATOM     25  C   UNL A   1      33.261  36.575  30.868  1.00  0.00     0.165 A 
ATOM     26  O   UNL A   1      33.419  34.591  29.774  1.00  0.00    -0.454 OA
ATOM     27  O   UNL A   1      32.800  36.918  29.636  1.00  0.00    -0.454 OA
ATOM     28  C   UNL A   1      32.832  35.638  28.973  1.00  0.00     0.468 C 
ENDBRANCH  17  20
ENDBRANCH  10  14
ENDBRANCH   7   9
ENDBRANCH   6   7
ENDBRANCH   5   6
ENDBRANCH   4   5
ENDBRANCH   3   4
ENDBRANCH   2   3
ENDBRANCH   1   2
BRANCH   1  29
ATOM     29  O   UNL A   1      38.694  28.473  33.155  1.00  0.00    -0.376 OA
BRANCH  29  30
ATOM     30  C   UNL A   1      37.794  28.918  32.158  1.00  0.00     0.202 C 
BRANCH  30  31
ATOM     31  C   UNL A   1      37.985  28.605  30.660  1.00  0.00     0.261 C 
BRANCH  31  32
ATOM     32  O   UNL A   1      38.813  29.484  29.886  1.00  0.00    -0.460 OA
BRANCH  32  33
ATOM     33  C   UNL A   1      38.280  30.669  29.507  1.00  0.00     0.338 C 
ATOM     34  O   UNL A   1      37.123  30.871  29.164  1.00  0.00    -0.246 OA
BRANCH  33  35
ATOM     35  C   UNL A   1      39.267  31.728  29.812  1.00  0.00     0.060 A 
ATOM     36  C   UNL A   1      40.611  31.375  30.012  1.00  0.00     0.016 A 
ATOM     37  C   UNL A   1      38.875  33.066  29.880  1.00  0.00     0.016 A 
ATOM     38  C   UNL A   1      41.561  32.357  30.302  1.00  0.00     0.010 A 
ATOM     39  C   UNL A   1      39.823  34.045  30.198  1.00  0.00     0.010 A 
ATOM     40  C   UNL A   1      41.165  33.692  30.438  1.00  0.00    -0.014 A 
BRANCH  40  41
ATOM     41  C   UNL A   1      42.103  34.695  31.001  1.00  0.00     0.031 A 
ATOM     42  C   UNL A   1      42.201  34.822  32.498  1.00  0.00     0.074 A 
ATOM     43  C   UNL A   1      42.842  35.491  30.209  1.00  0.00     0.049 A 
ATOM     44  N   UNL A   1      42.886  35.671  33.216  1.00  0.00    -0.248 NA
ATOM     45  C   UNL A   1      41.411  33.864  33.290  1.00  0.00     0.031 C 
ATOM     46  C   UNL A   1      42.852  35.460  28.748  1.00  0.00     0.029 A 
ATOM     47  N   UNL A   1      43.709  36.509  30.530  1.00  0.00    -0.354 N 
ATOM     48  C   UNL A   1      42.586  35.375  34.541  1.00  0.00     0.074 A 
ATOM     49  C   UNL A   1      41.650  34.273  34.527  1.00  0.00     0.031 C 
ATOM     50  C   UNL A   1      43.656  36.439  28.297  1.00  0.00     0.029 A 
ATOM     51  C   UNL A   1      44.192  37.185  29.434  1.00  0.00     0.049 A 
ATOM     52  H   UNL A   1      43.960  36.732  31.456  1.00  0.00     0.167 HD
ATOM     53  C   UNL A   1      43.052  35.963  35.668  1.00  0.00     0.034 A 
ATOM     54  C   UNL A   1      44.951  38.297  29.360  1.00  0.00     0.034 A 
ATOM     55  C   UNL A   1      43.992  37.051  35.682  1.00  0.00     0.049 A 
ATOM     56  C   UNL A   1      45.429  38.955  30.631  1.00  0.00     0.074 A 
ATOM     57  C   UNL A   1      44.560  37.680  36.776  1.00  0.00     0.029 A 
ATOM     58  N   UNL A   1      44.490  37.683  34.555  1.00  0.00    -0.354 N 
ATOM     59  N   UNL A   1      45.224  38.597  31.876  1.00  0.00    -0.248 NA
ATOM     60  C   UNL A   1      46.269  40.154  30.486  1.00  0.00     0.031 C 
ATOM     61  C   UNL A   1      45.369  38.720  36.310  1.00  0.00     0.029 A 
ATOM     62  C   UNL A   1      45.344  38.708  34.925  1.00  0.00     0.049 A 
ATOM     63  H   UNL A   1      44.269  37.440  33.627  1.00  0.00     0.167 HD
ATOM     64  C   UNL A   1      45.942  39.499  32.657  1.00  0.00     0.074 A 
ATOM     65  C   UNL A   1      46.601  40.408  31.743  1.00  0.00     0.031 C 
ATOM     66  C   UNL A   1      46.037  39.575  34.008  1.00  0.00     0.034 A 
BRANCH  53  67
ATOM     67  C   UNL A   1      42.557  35.436  36.989  1.00  0.00     0.023 A 
ATOM     68  C   UNL A   1      41.538  36.121  37.682  1.00  0.00     0.012 A 
ATOM     69  C   UNL A   1      43.059  34.228  37.513  1.00  0.00     0.148 A 
ATOM     70  C   UNL A   1      41.047  35.627  38.890  1.00  0.00     0.002 A 
ATOM     71  C   UNL A   1      42.531  33.719  38.692  1.00  0.00     0.091 A 
ATOM     72  F   UNL A   1      44.043  33.605  36.850  1.00  0.00    -0.205 F 
ATOM     73  C   UNL A   1      41.535  34.422  39.388  1.00  0.00     0.022 A 
BRANCH  71  74
ATOM     74  S   UNL A   1      43.034  32.135  39.373  1.00  0.00     0.127 S 
ATOM     75  O   UNL A   1      42.084  31.971  40.473  1.00  0.00    -0.237 OA
ATOM     76  O   UNL A   1      42.817  31.233  38.242  1.00  0.00    -0.237 OA
ATOM     77  O   UNL A   1      44.425  32.290  39.772  1.00  0.00    -0.744 OA
ENDBRANCH  71  74
ENDBRANCH  53  67
BRANCH  54  78
ATOM     78  C   UNL A   1      45.324  38.865  28.032  1.00  0.00     0.023 A 
ATOM     79  C   UNL A   1      46.427  38.338  27.332  1.00  0.00     0.012 A 
ATOM     80  C   UNL A   1      44.599  39.932  27.465  1.00  0.00     0.148 A 
ATOM     81  C   UNL A   1      46.825  38.886  26.113  1.00  0.00     0.002 A 
ATOM     82  C   UNL A   1      44.965  40.436  26.223  1.00  0.00     0.091 A 
ATOM     83  F   UNL A   1      43.565  40.433  28.155  1.00  0.00    -0.205 F 
ATOM     84  C   UNL A   1      46.089  39.928  25.554  1.00  0.00     0.022 A 
BRANCH  82  85
ATOM     85  S   UNL A   1      44.008  41.694  25.372  1.00  0.00     0.127 S 
ATOM     86  O   UNL A   1      42.665  41.120  25.401  1.00  0.00    -0.237 OA
ATOM     87  O   UNL A   1      44.201  42.855  26.242  1.00  0.00    -0.237 OA
ATOM     88  O   UNL A   1      44.610  41.824  24.053  1.00  0.00    -0.744 OA
ENDBRANCH  82  85
ENDBRANCH  54  78
BRANCH  66  89
ATOM     89  C   UNL A   1      46.928  40.643  34.594  1.00  0.00     0.023 A 
ATOM     90  C   UNL A   1      48.301  40.395  34.784  1.00  0.00     0.012 A 
ATOM     91  C   UNL A   1      46.411  41.920  34.890  1.00  0.00     0.148 A 
ATOM     92  C   UNL A   1      49.137  41.388  35.295  1.00  0.00     0.002 A 
ATOM     93  C   UNL A   1      47.259  42.921  35.347  1.00  0.00     0.091 A 
ATOM     94  F   UNL A   1      45.098  42.135  34.716  1.00  0.00    -0.205 F 
ATOM     95  C   UNL A   1      48.620  42.652  35.566  1.00  0.00     0.022 A 
BRANCH  93  96
ATOM     96  S   UNL A   1      46.702  44.606  35.629  1.00  0.00     0.127 S 
ATOM     97  O   UNL A   1      46.321  44.563  37.039  1.00  0.00    -0.237 OA
ATOM     98  O   UNL A   1      47.911  45.381  35.347  1.00  0.00    -0.237 OA
ATOM     99  O   UNL A   1      45.608  44.830  34.694  1.00  0.00    -0.744 OA
ENDBRANCH  93  96
ENDBRANCH  66  89
ENDBRANCH  40  41
ENDBRANCH  33  35
ENDBRANCH  32  33
ENDBRANCH  31  32
ENDBRANCH  30  31
ENDBRANCH  29  30
ENDBRANCH   1  29
TORSDOF 22
ENDMDL
MODEL 2
REMARK VINA RESULT:      -8.7      4.857      8.654
REMARK SMILES O=C(Nc1ccc2c(c1)OCO2)N[C@H]1C=C[C@@H](C(=O)OCCOCCOCCOC(=O)c2ccc(-c3c4nc(c(-c5cccc(S(=O)(=O)[O-])c5F)c5ccc([nH]5)c(-c5cccc(S(=O)(=O)[O-])c5F)c5nc(c(-c6cccc(S(=O)(=O)[O-])c6F)c6ccc3[nH]6)C=C5)C=C4)cc2)C1
REMARK SMILES IDX 25 1 24 2 23 3 22 4 21 5 20 6 18 7 19 8 17 9 14 10 15 11
REMARK SMILES IDX 95 12 16 13 13 14 1 15 2 16 3 17 4 20 5 21 9 22 6 23 8 24
REMARK SMILES IDX 7 25 10 26 12 27 11 28 26 29 27 30 28 31 29 32 30 33 31 34
REMARK SMILES IDX 32 35 33 36 94 37 34 38 93 39 35 40 36 41 37 42 87 43 38 44
REMARK SMILES IDX 92 45 86 46 88 47 39 48 91 49 85 50 84 51 40 53 72 54 52 55
REMARK SMILES IDX 71 56 53 57 56 58 70 59 89 60 54 61 55 62 69 64 90 65 57 66
REMARK SMILES IDX 41 67 42 68 50 69 43 70 45 71 51 72 44 73 46 74 47 75 48 76
REMARK SMILES IDX 49 77 73 78 74 79 82 80 75 81 77 82 83 83 76 84 78 85 79 86
REMARK SMILES IDX 80 87 81 88 58 89 59 90 67 91 60 92 62 93 68 94 61 95 63 96
REMARK SMILES IDX 64 97 65 98 66 99
REMARK H PARENT 3 18 13 19 88 52 56 63
REMARK Flexibility Score: inf
ROOT
ATOM      1  C   UNL A   1      42.733  23.307  28.788  1.00  0.00     0.188 C 
ENDROOT
BRANCH   1   2
ATOM      2  C   UNL A   1      43.679  22.942  29.942  1.00  0.00     0.188 C 
BRANCH   2   3
ATOM      3  O   UNL A   1      44.662  23.893  30.332  1.00  0.00    -0.376 OA
BRANCH   3   4
ATOM      4  C   UNL A   1      44.254  25.029  31.085  1.00  0.00     0.202 C 
BRANCH   4   5
ATOM      5  C   UNL A   1      44.669  25.148  32.563  1.00  0.00     0.261 C 
BRANCH   5   6
ATOM      6  O   UNL A   1      43.873  24.369  33.487  1.00  0.00    -0.463 OA
BRANCH   6   7
ATOM      7  C   UNL A   1      44.382  24.218  34.737  1.00  0.00     0.312 C 
ATOM      8  O   UNL A   1      45.535  23.856  34.960  1.00  0.00    -0.252 OA
BRANCH   7   9
ATOM      9  C   UNL A   1      43.420  24.594  35.875  1.00  0.00     0.124 C 
ATOM     10  C   UNL A   1      41.819  26.344  36.572  1.00  0.00     0.107 C 
ATOM     11  C   UNL A   1      41.159  25.283  35.766  1.00  0.00    -0.006 C 
ATOM     12  C   UNL A   1      43.308  26.046  36.360  1.00  0.00     0.048 C 
ATOM     13  C   UNL A   1      42.015  24.318  35.415  1.00  0.00    -0.014 C 
BRANCH  10  14
ATOM     14  N   UNL A   1      41.485  27.635  36.035  1.00  0.00    -0.332 N 
ATOM     15  O   UNL A   1      42.132  27.220  33.885  1.00  0.00    -0.248 OA
ATOM     16  C   UNL A   1      41.643  27.971  34.725  1.00  0.00     0.319 C 
ATOM     17  N   UNL A   1      41.118  29.172  34.332  1.00  0.00    -0.308 N 
ATOM     18  H   UNL A   1      41.053  29.294  33.357  1.00  0.00     0.171 HD
ATOM     19  H   UNL A   1      41.123  28.316  36.648  1.00  0.00     0.165 HD
BRANCH  17  20
ATOM     20  C   UNL A   1      40.657  30.260  35.093  1.00  0.00     0.046 A 
ATOM     21  C   UNL A   1      41.514  31.042  35.896  1.00  0.00     0.030 A 
ATOM     22  C   UNL A   1      39.291  30.557  35.039  1.00  0.00     0.076 A 
ATOM     23  C   UNL A   1      41.006  32.046  36.725  1.00  0.00     0.053 A 
ATOM     24  C   UNL A   1      38.816  31.544  35.876  1.00  0.00     0.167 A 
ATOM     25  C   UNL A   1      39.648  32.257  36.707  1.00  0.00     0.165 A 
ATOM     26  O   UNL A   1      37.513  31.910  36.014  1.00  0.00    -0.454 OA
ATOM     27  O   UNL A   1      38.975  33.157  37.471  1.00  0.00    -0.454 OA
ATOM     28  C   UNL A   1      37.616  32.878  37.080  1.00  0.00     0.468 C 
ENDBRANCH  17  20
ENDBRANCH  10  14
ENDBRANCH   7   9
ENDBRANCH   6   7
ENDBRANCH   5   6
ENDBRANCH   4   5
ENDBRANCH   3   4
ENDBRANCH   2   3
ENDBRANCH   1   2
BRANCH   1  29
ATOM     29  O   UNL A   1      41.449  22.733  28.856  1.00  0.00    -0.376 OA
BRANCH  29  30
ATOM     30  C   UNL A   1      40.920  22.111  27.699  1.00  0.00     0.202 C 
BRANCH  30  31
ATOM     31  C   UNL A   1      40.967  22.765  26.303  1.00  0.00     0.261 C 
BRANCH  31  32
ATOM     32  O   UNL A   1      40.693  24.170  26.206  1.00  0.00    -0.460 OA
BRANCH  32  33
ATOM     33  C   UNL A   1      39.464  24.592  26.580  1.00  0.00     0.338 C 
ATOM     34  O   UNL A   1      38.403  24.015  26.384  1.00  0.00    -0.246 OA
BRANCH  33  35
ATOM     35  C   UNL A   1      39.638  25.752  27.483  1.00  0.00     0.060 A 
ATOM     36  C   UNL A   1      40.171  26.945  26.969  1.00  0.00     0.016 A 
ATOM     37  C   UNL A   1      39.259  25.672  28.824  1.00  0.00     0.016 A 
ATOM     38  C   UNL A   1      40.346  28.053  27.801  1.00  0.00     0.010 A 
ATOM     39  C   UNL A   1      39.461  26.774  29.661  1.00  0.00     0.010 A 
ATOM     40  C   UNL A   1      40.031  27.960  29.162  1.00  0.00    -0.014 A 
BRANCH  40  41
ATOM     41  C   UNL A   1      40.456  29.029  30.100  1.00  0.00     0.031 A 
ATOM     42  C   UNL A   1      39.419  30.001  30.596  1.00  0.00     0.074 A 
ATOM     43  C   UNL A   1      41.736  29.151  30.493  1.00  0.00     0.049 A 
ATOM     44  N   UNL A   1      39.564  31.055  31.355  1.00  0.00    -0.248 NA
ATOM     45  C   UNL A   1      38.031  29.751  30.173  1.00  0.00     0.031 C 
ATOM     46  C   UNL A   1      42.833  28.270  30.098  1.00  0.00     0.029 A 
ATOM     47  N   UNL A   1      42.335  30.095  31.294  1.00  0.00    -0.354 N 
ATOM     48  C   UNL A   1      38.298  31.614  31.471  1.00  0.00     0.074 A 
ATOM     49  C   UNL A   1      37.397  30.788  30.700  1.00  0.00     0.031 C 
ATOM     50  C   UNL A   1      43.978  28.735  30.628  1.00  0.00     0.029 A 
ATOM     51  C   UNL A   1      43.701  29.963  31.372  1.00  0.00     0.049 A 
ATOM     52  H   UNL A   1      41.832  30.799  31.766  1.00  0.00     0.167 HD
ATOM     53  C   UNL A   1      37.917  32.714  32.164  1.00  0.00     0.034 A 
ATOM     54  C   UNL A   1      44.623  30.760  31.949  1.00  0.00     0.034 A 
ATOM     55  C   UNL A   1      38.810  33.529  32.941  1.00  0.00     0.049 A 
ATOM     56  C   UNL A   1      44.177  31.999  32.685  1.00  0.00     0.074 A 
ATOM     57  C   UNL A   1      38.508  34.634  33.716  1.00  0.00     0.029 A 
ATOM     58  N   UNL A   1      40.180  33.341  33.029  1.00  0.00    -0.354 N 
ATOM     59  N   UNL A   1      42.962  32.455  32.878  1.00  0.00    -0.248 NA
ATOM     60  C   UNL A   1      45.227  32.819  33.309  1.00  0.00     0.031 C 
ATOM     61  C   UNL A   1      39.701  35.140  34.240  1.00  0.00     0.029 A 
ATOM     62  C   UNL A   1      40.741  34.321  33.831  1.00  0.00     0.049 A 
ATOM     63  H   UNL A   1      40.680  32.618  32.587  1.00  0.00     0.167 HD
ATOM     64  C   UNL A   1      43.100  33.586  33.678  1.00  0.00     0.074 A 
ATOM     65  C   UNL A   1      44.514  33.735  33.949  1.00  0.00     0.031 C 
ATOM     66  C   UNL A   1      42.143  34.431  34.137  1.00  0.00     0.034 A 
BRANCH  53  67
ATOM     67  C   UNL A   1      36.462  33.099  32.120  1.00  0.00     0.023 A 
ATOM     68  C   UNL A   1      35.625  32.814  33.218  1.00  0.00     0.012 A 
ATOM     69  C   UNL A   1      35.939  33.800  31.015  1.00  0.00     0.148 A 
ATOM     70  C   UNL A   1      34.283  33.194  33.204  1.00  0.00     0.002 A 
ATOM     71  C   UNL A   1      34.613  34.217  31.030  1.00  0.00     0.091 A 
ATOM     72  F   UNL A   1      36.745  34.042  29.972  1.00  0.00    -0.205 F 
ATOM     73  C   UNL A   1      33.782  33.904  32.117  1.00  0.00     0.022 A 
BRANCH  71  74
ATOM     74  S   UNL A   1      33.895  35.208  29.716  1.00  0.00     0.127 S 
ATOM     75  O   UNL A   1      32.649  34.489  29.451  1.00  0.00    -0.237 OA
ATOM     76  O   UNL A   1      33.722  36.505  30.371  1.00  0.00    -0.237 OA
ATOM     77  O   UNL A   1      34.861  35.199  28.628  1.00  0.00    -0.744 OA
ENDBRANCH  71  74
ENDBRANCH  53  67
BRANCH  54  78
ATOM     78  C   UNL A   1      46.072  30.412  31.870  1.00  0.00     0.023 A 
ATOM     79  C   UNL A   1      46.660  29.635  32.886  1.00  0.00     0.012 A 
ATOM     80  C   UNL A   1      46.871  30.859  30.799  1.00  0.00     0.148 A 
ATOM     81  C   UNL A   1      48.023  29.340  32.859  1.00  0.00     0.002 A 
ATOM     82  C   UNL A   1      48.216  30.514  30.748  1.00  0.00     0.091 A 
ATOM     83  F   UNL A   1      46.298  31.614  29.851  1.00  0.00    -0.205 F 
ATOM     84  C   UNL A   1      48.800  29.771  31.786  1.00  0.00     0.022 A 
BRANCH  82  85
ATOM     85  S   UNL A   1      49.265  30.922  29.348  1.00  0.00     0.127 S 
ATOM     86  O   UNL A   1      50.530  30.299  29.730  1.00  0.00    -0.237 OA
ATOM     87  O   UNL A   1      48.562  30.265  28.246  1.00  0.00    -0.237 OA
ATOM     88  O   UNL A   1      49.275  32.376  29.274  1.00  0.00    -0.744 OA
ENDBRANCH  82  85
ENDBRANCH  54  78
BRANCH  66  89
ATOM     89  C   UNL A   1      42.576  35.569  35.029  1.00  0.00     0.023 A 
ATOM     90  C   UNL A   1      42.664  35.384  36.422  1.00  0.00     0.012 A 
ATOM     91  C   UNL A   1      42.964  36.804  34.472  1.00  0.00     0.148 A 
ATOM     92  C   UNL A   1      43.094  36.421  37.250  1.00  0.00     0.002 A 
ATOM     93  C   UNL A   1      43.443  37.815  35.297  1.00  0.00     0.091 A 
ATOM     94  F   UNL A   1      42.861  36.968  33.144  1.00  0.00    -0.205 F 
ATOM     95  C   UNL A   1      43.494  37.630  36.688  1.00  0.00     0.022 A 
BRANCH  93  96
ATOM     96  S   UNL A   1      44.073  39.370  34.654  1.00  0.00     0.127 S 
ATOM     97  O   UNL A   1      45.318  38.947  34.016  1.00  0.00    -0.237 OA
ATOM     98  O   UNL A   1      43.016  39.769  33.723  1.00  0.00    -0.237 OA
ATOM     99  O   UNL A   1      44.229  40.249  35.804  1.00  0.00    -0.744 OA
ENDBRANCH  93  96
ENDBRANCH  66  89
ENDBRANCH  40  41
ENDBRANCH  33  35
ENDBRANCH  32  33
ENDBRANCH  31  32
ENDBRANCH  30  31
ENDBRANCH  29  30
ENDBRANCH   1  29
TORSDOF 22
ENDMDL
MODEL 3
REMARK VINA RESULT:      -7.9      7.047     11.902
REMARK SMILES O=C(Nc1ccc2c(c1)OCO2)N[C@H]1C=C[C@@H](C(=O)OCCOCCOCCOC(=O)c2ccc(-c3c4nc(c(-c5cccc(S(=O)(=O)[O-])c5F)c5ccc([nH]5)c(-c5cccc(S(=O)(=O)[O-])c5F)c5nc(c(-c6cccc(S(=O)(=O)[O-])c6F)c6ccc3[nH]6)C=C5)C=C4)cc2)C1
REMARK SMILES IDX 25 1 24 2 23 3 22 4 21 5 20 6 18 7 19 8 17 9 14 10 15 11
REMARK SMILES IDX 95 12 16 13 13 14 1 15 2 16 3 17 4 20 5 21 9 22 6 23 8 24
REMARK SMILES IDX 7 25 10 26 12 27 11 28 26 29 27 30 28 31 29 32 30 33 31 34
REMARK SMILES IDX 32 35 33 36 94 37 34 38 93 39 35 40 36 41 37 42 87 43 38 44
REMARK SMILES IDX 92 45 86 46 88 47 39 48 91 49 85 50 84 51 40 53 72 54 52 55
REMARK SMILES IDX 71 56 53 57 56 58 70 59 89 60 54 61 55 62 69 64 90 65 57 66
REMARK SMILES IDX 41 67 42 68 50 69 43 70 45 71 51 72 44 73 46 74 47 75 48 76
REMARK SMILES IDX 49 77 73 78 74 79 82 80 75 81 77 82 83 83 76 84 78 85 79 86
REMARK SMILES IDX 80 87 81 88 58 89 59 90 67 91 60 92 62 93 68 94 61 95 63 96
REMARK SMILES IDX 64 97 65 98 66 99
REMARK H PARENT 3 18 13 19 88 52 56 63
REMARK Flexibility Score: inf
ROOT
ATOM      1  C   UNL A   1      38.540  33.339  34.915  1.00  0.00     0.188 C 
ENDROOT
BRANCH   1   2
ATOM      2  C   UNL A   1      40.058  33.109  34.957  1.00  0.00     0.188 C 
BRANCH   2   3
ATOM      3  O   UNL A   1      40.909  34.141  34.473  1.00  0.00    -0.376 OA
BRANCH   3   4
ATOM      4  C   UNL A   1      42.310  34.032  34.693  1.00  0.00     0.202 C 
BRANCH   4   5
ATOM      5  C   UNL A   1      43.020  32.694  34.412  1.00  0.00     0.261 C 
BRANCH   5   6
ATOM      6  O   UNL A   1      43.124  32.339  33.014  1.00  0.00    -0.463 OA
BRANCH   6   7
ATOM      7  C   UNL A   1      44.163  31.530  32.677  1.00  0.00     0.312 C 
ATOM      8  O   UNL A   1      44.523  30.573  33.357  1.00  0.00    -0.252 OA
BRANCH   7   9
ATOM      9  C   UNL A   1      44.832  31.865  31.334  1.00  0.00     0.124 C 
ATOM     10  C   UNL A   1      44.584  31.526  28.898  1.00  0.00     0.107 C 
ATOM     11  C   UNL A   1      43.877  32.751  29.359  1.00  0.00    -0.006 C 
ATOM     12  C   UNL A   1      44.914  30.816  30.216  1.00  0.00     0.048 C 
ATOM     13  C   UNL A   1      44.037  32.955  30.671  1.00  0.00    -0.014 C 
BRANCH  10  14
ATOM     14  N   UNL A   1      43.690  30.723  28.108  1.00  0.00    -0.332 N 
ATOM     15  O   UNL A   1      44.540  31.285  26.065  1.00  0.00    -0.248 OA
ATOM     16  C   UNL A   1      43.750  30.642  26.750  1.00  0.00     0.319 C 
ATOM     17  N   UNL A   1      42.951  29.703  26.157  1.00  0.00    -0.308 N 
ATOM     18  H   UNL A   1      43.165  29.516  25.214  1.00  0.00     0.171 HD
ATOM     19  H   UNL A   1      42.996  30.203  28.574  1.00  0.00     0.165 HD
BRANCH  17  20
ATOM     20  C   UNL A   1      41.873  28.963  26.672  1.00  0.00     0.046 A 
ATOM     21  C   UNL A   1      40.983  29.487  27.634  1.00  0.00     0.030 A 
ATOM     22  C   UNL A   1      41.699  27.657  26.200  1.00  0.00     0.076 A 
ATOM     23  C   UNL A   1      39.990  28.688  28.206  1.00  0.00     0.053 A 
ATOM     24  C   UNL A   1      40.719  26.888  26.792  1.00  0.00     0.167 A 
ATOM     25  C   UNL A   1      39.898  27.385  27.778  1.00  0.00     0.165 A 
ATOM     26  O   UNL A   1      40.461  25.581  26.517  1.00  0.00    -0.454 OA
ATOM     27  O   UNL A   1      39.026  26.454  28.247  1.00  0.00    -0.454 OA
ATOM     28  C   UNL A   1      39.440  25.296  27.496  1.00  0.00     0.468 C 
ENDBRANCH  17  20
ENDBRANCH  10  14
ENDBRANCH   7   9
ENDBRANCH   6   7
ENDBRANCH   5   6
ENDBRANCH   4   5
ENDBRANCH   3   4
ENDBRANCH   2   3
ENDBRANCH   1   2
BRANCH   1  29
ATOM     29  O   UNL A   1      38.089  34.213  33.909  1.00  0.00    -0.376 OA
BRANCH  29  30
ATOM     30  C   UNL A   1      37.662  33.667  32.674  1.00  0.00     0.202 C 
BRANCH  30  31
ATOM     31  C   UNL A   1      36.969  32.294  32.562  1.00  0.00     0.261 C 
BRANCH  31  32
ATOM     32  O   UNL A   1      37.430  31.386  31.553  1.00  0.00    -0.460 OA
BRANCH  32  33
ATOM     33  C   UNL A   1      37.267  30.063  31.784  1.00  0.00     0.338 C 
ATOM     34  O   UNL A   1      36.256  29.405  31.577  1.00  0.00    -0.246 OA
BRANCH  33  35
ATOM     35  C   UNL A   1      38.595  29.491  32.100  1.00  0.00     0.060 A 
ATOM     36  C   UNL A   1      39.713  30.339  32.140  1.00  0.00     0.016 A 
ATOM     37  C   UNL A   1      38.735  28.130  32.376  1.00  0.00     0.016 A 
ATOM     38  C   UNL A   1      40.977  29.823  32.435  1.00  0.00     0.010 A 
ATOM     39  C   UNL A   1      40.006  27.611  32.644  1.00  0.00     0.010 A 
ATOM     40  C   UNL A   1      41.137  28.449  32.648  1.00  0.00    -0.014 A 
BRANCH  40  41
ATOM     41  C   UNL A   1      42.497  27.856  32.697  1.00  0.00     0.031 A 
ATOM     42  C   UNL A   1      43.130  27.625  34.043  1.00  0.00     0.074 A 
ATOM     43  C   UNL A   1      43.169  27.543  31.575  1.00  0.00     0.049 A 
ATOM     44  N   UNL A   1      44.328  27.194  34.335  1.00  0.00    -0.248 NA
ATOM     45  C   UNL A   1      42.297  27.929  35.219  1.00  0.00     0.031 C 
ATOM     46  C   UNL A   1      42.666  27.702  30.213  1.00  0.00     0.029 A 
ATOM     47  N   UNL A   1      44.442  27.051  31.408  1.00  0.00    -0.354 N 
ATOM     48  C   UNL A   1      44.408  27.209  35.722  1.00  0.00     0.074 A 
ATOM     49  C   UNL A   1      43.140  27.697  36.215  1.00  0.00     0.031 C 
ATOM     50  C   UNL A   1      43.633  27.351  29.347  1.00  0.00     0.029 A 
ATOM     51  C   UNL A   1      44.833  26.971  30.092  1.00  0.00     0.049 A 
ATOM     52  H   UNL A   1      45.019  26.782  32.160  1.00  0.00     0.167 HD
ATOM     53  C   UNL A   1      45.442  26.841  36.516  1.00  0.00     0.034 A 
ATOM     54  C   UNL A   1      46.030  26.661  29.554  1.00  0.00     0.034 A 
ATOM     55  C   UNL A   1      46.698  26.343  36.027  1.00  0.00     0.049 A 
ATOM     56  C   UNL A   1      47.176  26.290  30.461  1.00  0.00     0.074 A 
ATOM     57  C   UNL A   1      47.788  25.900  36.756  1.00  0.00     0.029 A 
ATOM     58  N   UNL A   1      47.043  26.239  34.689  1.00  0.00    -0.354 N 
ATOM     59  N   UNL A   1      47.203  26.203  31.770  1.00  0.00    -0.248 NA
ATOM     60  C   UNL A   1      48.452  25.943  29.816  1.00  0.00     0.031 C 
ATOM     61  C   UNL A   1      48.807  25.566  35.859  1.00  0.00     0.029 A 
ATOM     62  C   UNL A   1      48.335  25.755  34.570  1.00  0.00     0.049 A 
ATOM     63  H   UNL A   1      46.456  26.474  33.935  1.00  0.00     0.167 HD
ATOM     64  C   UNL A   1      48.479  25.753  32.099  1.00  0.00     0.074 A 
ATOM     65  C   UNL A   1      49.189  25.568  30.851  1.00  0.00     0.031 C 
ATOM     66  C   UNL A   1      49.016  25.525  33.323  1.00  0.00     0.034 A 
BRANCH  53  67
ATOM     67  C   UNL A   1      45.256  26.956  38.006  1.00  0.00     0.023 A 
ATOM     68  C   UNL A   1      44.912  25.817  38.762  1.00  0.00     0.012 A 
ATOM     69  C   UNL A   1      45.482  28.181  38.664  1.00  0.00     0.148 A 
ATOM     70  C   UNL A   1      44.768  25.902  40.146  1.00  0.00     0.002 A 
ATOM     71  C   UNL A   1      45.384  28.246  40.049  1.00  0.00     0.091 A 
ATOM     72  F   UNL A   1      45.786  29.257  37.925  1.00  0.00    -0.205 F 
ATOM     73  C   UNL A   1      45.015  27.112  40.789  1.00  0.00     0.022 A 
BRANCH  71  74
ATOM     74  S   UNL A   1      45.762  29.736  40.978  1.00  0.00     0.127 S 
ATOM     75  O   UNL A   1      44.461  30.405  41.004  1.00  0.00    -0.237 OA
ATOM     76  O   UNL A   1      46.193  29.191  42.266  1.00  0.00    -0.237 OA
ATOM     77  O   UNL A   1      46.801  30.427  40.229  1.00  0.00    -0.744 OA
ENDBRANCH  71  74
ENDBRANCH  53  67
BRANCH  54  78
ATOM     78  C   UNL A   1      46.214  26.675  28.074  1.00  0.00     0.023 A 
ATOM     79  C   UNL A   1      46.545  27.879  27.423  1.00  0.00     0.012 A 
ATOM     80  C   UNL A   1      46.050  25.504  27.308  1.00  0.00     0.148 A 
ATOM     81  C   UNL A   1      46.673  27.926  26.034  1.00  0.00     0.002 A 
ATOM     82  C   UNL A   1      46.235  25.546  25.931  1.00  0.00     0.091 A 
ATOM     83  F   UNL A   1      45.716  24.372  27.943  1.00  0.00    -0.205 F 
ATOM     84  C   UNL A   1      46.526  26.759  25.289  1.00  0.00     0.022 A 
BRANCH  82  85
ATOM     85  S   UNL A   1      46.184  24.072  24.906  1.00  0.00     0.127 S 
ATOM     86  O   UNL A   1      44.788  24.055  24.474  1.00  0.00    -0.237 OA
ATOM     87  O   UNL A   1      47.149  24.404  23.858  1.00  0.00    -0.237 OA
ATOM     88  O   UNL A   1      46.590  22.975  25.772  1.00  0.00    -0.744 OA
ENDBRANCH  82  85
ENDBRANCH  54  78
BRANCH  66  89
ATOM     89  C   UNL A   1      50.429  24.996  33.386  1.00  0.00     0.023 A 
ATOM     90  C   UNL A   1      51.510  25.882  33.558  1.00  0.00     0.012 A 
ATOM     91  C   UNL A   1      50.675  23.609  33.344  1.00  0.00     0.148 A 
ATOM     92  C   UNL A   1      52.816  25.399  33.649  1.00  0.00     0.002 A 
ATOM     93  C   UNL A   1      51.971  23.132  33.491  1.00  0.00     0.091 A 
ATOM     94  F   UNL A   1      49.635  22.780  33.166  1.00  0.00    -0.205 F 
ATOM     95  C   UNL A   1      53.045  24.026  33.628  1.00  0.00     0.022 A 
BRANCH  93  96
ATOM     96  S   UNL A   1      52.351  21.378  33.574  1.00  0.00     0.127 S 
ATOM     97  O   UNL A   1      51.213  20.861  34.331  1.00  0.00    -0.237 OA
ATOM     98  O   UNL A   1      52.367  20.998  32.161  1.00  0.00    -0.237 OA
ATOM     99  O   UNL A   1      53.642  21.275  34.242  1.00  0.00    -0.744 OA
ENDBRANCH  93  96
ENDBRANCH  66  89
ENDBRANCH  40  41
ENDBRANCH  33  35
ENDBRANCH  32  33
ENDBRANCH  31  32
ENDBRANCH  30  31
ENDBRANCH  29  30
ENDBRANCH   1  29
TORSDOF 22
ENDMDL
