MODEL 1
REMARK VINA RESULT:      -9.0      0.000      0.000
REMARK SMILES C[N@@H+]1CC[N@@H+](C)[C@H](C[NH2+]Cc2ccc(C(=O)OCCOCCOCCOC(=O)c3ccc(-c4c5nc(c(-c6cccc(S(=O)(=O)[O-])c6F)c6ccc([nH]6)c(-c6cccc(S(=O)(=O)[O-])c6F)c6nc(c(-c7cccc(S(=O)(=O)[O-])c7F)c7ccc4[nH]7)C=C6)C=C5)cc3)cn2)C1
REMARK SMILES IDX 21 1 20 2 19 3 18 4 17 5 15 6 16 7 14 8 11 9 12 10 93 11
REMARK SMILES IDX 13 12 92 13 10 14 9 15 8 18 7 19 1 20 2 21 3 22 94 23 4 25
REMARK SMILES IDX 5 26 6 27 22 29 23 30 24 31 25 32 26 33 27 34 28 35 29 36
REMARK SMILES IDX 30 37 91 38 31 39 90 40 32 41 33 42 34 43 84 44 35 45 89 46
REMARK SMILES IDX 83 47 85 48 36 49 88 50 82 51 81 52 37 54 69 55 49 56 68 57
REMARK SMILES IDX 50 58 53 59 67 60 86 61 51 62 52 63 66 65 87 66 54 67 38 68
REMARK SMILES IDX 39 69 47 70 40 71 42 72 48 73 41 74 43 75 44 76 45 77 46 78
REMARK SMILES IDX 70 79 71 80 79 81 72 82 74 83 80 84 73 85 75 86 76 87 77 88
REMARK SMILES IDX 78 89 55 90 56 91 64 92 57 93 59 94 65 95 58 96 60 97 61 98
REMARK SMILES IDX 62 99 63 100
REMARK H PARENT 9 16 9 17 2 24 5 28 85 53 53 64
REMARK Flexibility Score: inf
ROOT
ATOM      1  C   UNL A   1      33.351  35.588  32.667  1.00  0.00     0.188 C 
ENDROOT
BRANCH   1   2
ATOM      2  O   UNL A   1      32.489  35.942  31.603  1.00  0.00    -0.376 OA
BRANCH   2   3
ATOM      3  C   UNL A   1      32.934  36.759  30.530  1.00  0.00     0.202 C 
BRANCH   3   4
ATOM      4  C   UNL A   1      33.238  36.193  29.143  1.00  0.00     0.261 C 
BRANCH   4   5
ATOM      5  O   UNL A   1      33.048  34.780  29.051  1.00  0.00    -0.460 OA
BRANCH   5   6
ATOM      6  C   UNL A   1      34.113  34.112  28.548  1.00  0.00     0.339 C 
ATOM      7  O   UNL A   1      35.294  34.381  28.688  1.00  0.00    -0.246 OA
BRANCH   6   8
ATOM      8  C   UNL A   1      33.650  32.872  27.936  1.00  0.00     0.078 A 
ATOM      9  C   UNL A   1      32.545  30.616  26.889  1.00  0.00     0.094 A 
ATOM     10  C   UNL A   1      33.859  30.564  27.361  1.00  0.00     0.031 A 
ATOM     11  N   UNL A   1      31.831  31.769  26.824  1.00  0.00    -0.254 NA
ATOM     12  C   UNL A   1      34.431  31.722  27.878  1.00  0.00     0.019 A 
ATOM     13  C   UNL A   1      32.377  32.861  27.388  1.00  0.00     0.127 A 
BRANCH   9  14
ATOM     14  C   UNL A   1      31.778  29.334  26.654  1.00  0.00     0.318 C 
BRANCH  14  15
ATOM     15  N   UNL A   1      32.589  28.194  27.087  1.00  0.00    -0.336 N 
ATOM     16  H   UNL A   1      33.443  28.543  27.523  1.00  0.00     0.346 HD
ATOM     17  H   UNL A   1      32.038  27.647  27.747  1.00  0.00     0.346 HD
BRANCH  15  18
ATOM     18  C   UNL A   1      32.953  27.318  25.957  1.00  0.00     0.332 C 
BRANCH  18  19
ATOM     19  C   UNL A   1      31.796  26.336  25.589  1.00  0.00     0.295 C 
ATOM     20  C   UNL A   1      31.455  22.603  26.323  1.00  0.00     0.333 C 
ATOM     21  N   UNL A   1      31.131  23.913  25.767  1.00  0.00    -0.328 N 
ATOM     22  C   UNL A   1      31.031  23.871  24.303  1.00  0.00     0.324 C 
ATOM     23  C   UNL A   1      32.155  24.914  26.128  1.00  0.00     0.334 C 
ATOM     24  H   UNL A   1      30.229  24.176  26.165  1.00  0.00     0.348 HD
ATOM     25  C   UNL A   1      30.601  25.246  23.750  1.00  0.00     0.324 C 
ATOM     26  N   UNL A   1      31.500  26.359  24.115  1.00  0.00    -0.321 N 
ATOM     27  C   UNL A   1      30.887  27.629  23.709  1.00  0.00     0.333 C 
ATOM     28  H   UNL A   1      32.389  26.257  23.626  1.00  0.00     0.348 HD
ENDBRANCH  18  19
ENDBRANCH  15  18
ENDBRANCH  14  15
ENDBRANCH   9  14
ENDBRANCH   6   8
ENDBRANCH   5   6
ENDBRANCH   4   5
ENDBRANCH   3   4
ENDBRANCH   2   3
ENDBRANCH   1   2
BRANCH   1  29
ATOM     29  C   UNL A   1      34.397  34.464  32.496  1.00  0.00     0.188 C 
BRANCH  29  30
ATOM     30  O   UNL A   1      34.011  33.146  32.147  1.00  0.00    -0.376 OA
BRANCH  30  31
ATOM     31  C   UNL A   1      34.956  32.295  31.519  1.00  0.00     0.202 C 
BRANCH  31  32
ATOM     32  C   UNL A   1      35.923  31.449  32.351  1.00  0.00     0.261 C 
BRANCH  32  33
ATOM     33  O   UNL A   1      36.179  30.146  31.812  1.00  0.00    -0.460 OA
BRANCH  33  34
ATOM     34  C   UNL A   1      37.326  29.568  32.247  1.00  0.00     0.338 C 
ATOM     35  O   UNL A   1      37.438  28.520  32.861  1.00  0.00    -0.246 OA
BRANCH  34  36
ATOM     36  C   UNL A   1      38.485  30.314  31.727  1.00  0.00     0.060 A 
ATOM     37  C   UNL A   1      38.633  30.420  30.338  1.00  0.00     0.016 A 
ATOM     38  C   UNL A   1      39.450  30.835  32.590  1.00  0.00     0.016 A 
ATOM     39  C   UNL A   1      39.772  31.017  29.804  1.00  0.00     0.010 A 
ATOM     40  C   UNL A   1      40.600  31.417  32.051  1.00  0.00     0.010 A 
ATOM     41  C   UNL A   1      40.781  31.480  30.658  1.00  0.00    -0.014 A 
BRANCH  41  42
ATOM     42  C   UNL A   1      42.095  31.881  30.102  1.00  0.00     0.031 A 
ATOM     43  C   UNL A   1      42.334  33.333  29.792  1.00  0.00     0.074 A 
ATOM     44  C   UNL A   1      43.048  30.968  29.852  1.00  0.00     0.049 A 
ATOM     45  N   UNL A   1      43.383  33.904  29.259  1.00  0.00    -0.248 NA
ATOM     46  C   UNL A   1      41.244  34.265  30.125  1.00  0.00     0.031 C 
ATOM     47  C   UNL A   1      42.935  29.535  30.112  1.00  0.00     0.029 A 
ATOM     48  N   UNL A   1      44.293  31.114  29.294  1.00  0.00    -0.354 N 
ATOM     49  C   UNL A   1      43.071  35.254  29.169  1.00  0.00     0.074 A 
ATOM     50  C   UNL A   1      41.731  35.418  29.692  1.00  0.00     0.031 C 
ATOM     51  C   UNL A   1      44.053  28.925  29.681  1.00  0.00     0.029 A 
ATOM     52  C   UNL A   1      44.950  29.922  29.098  1.00  0.00     0.049 A 
ATOM     53  H   UNL A   1      44.678  31.988  29.055  1.00  0.00     0.167 HD
ATOM     54  C   UNL A   1      43.835  36.273  28.707  1.00  0.00     0.034 A 
ATOM     55  C   UNL A   1      46.130  29.667  28.499  1.00  0.00     0.034 A 
ATOM     56  C   UNL A   1      45.171  36.112  28.200  1.00  0.00     0.049 A 
ATOM     57  C   UNL A   1      46.950  30.813  27.964  1.00  0.00     0.074 A 
ATOM     58  C   UNL A   1      46.044  37.087  27.751  1.00  0.00     0.029 A 
ATOM     59  N   UNL A   1      45.822  34.896  28.059  1.00  0.00    -0.354 N 
ATOM     60  N   UNL A   1      46.698  32.099  28.003  1.00  0.00    -0.248 NA
ATOM     61  C   UNL A   1      48.233  30.474  27.331  1.00  0.00     0.031 C 
ATOM     62  C   UNL A   1      47.216  36.458  27.319  1.00  0.00     0.029 A 
ATOM     63  C   UNL A   1      47.081  35.094  27.519  1.00  0.00     0.049 A 
ATOM     64  H   UNL A   1      45.444  34.022  28.306  1.00  0.00     0.167 HD
ATOM     65  C   UNL A   1      47.804  32.724  27.434  1.00  0.00     0.074 A 
ATOM     66  C   UNL A   1      48.736  31.675  27.074  1.00  0.00     0.031 C 
ATOM     67  C   UNL A   1      48.023  34.045  27.217  1.00  0.00     0.034 A 
BRANCH  54  68
ATOM     68  C   UNL A   1      43.250  37.658  28.760  1.00  0.00     0.023 A 
ATOM     69  C   UNL A   1      42.428  38.103  27.705  1.00  0.00     0.012 A 
ATOM     70  C   UNL A   1      43.478  38.501  29.864  1.00  0.00     0.148 A 
ATOM     71  C   UNL A   1      41.869  39.381  27.732  1.00  0.00     0.002 A 
ATOM     72  C   UNL A   1      42.885  39.758  29.903  1.00  0.00     0.091 A 
ATOM     73  F   UNL A   1      44.285  38.069  30.844  1.00  0.00    -0.205 F 
ATOM     74  C   UNL A   1      42.090  40.202  28.833  1.00  0.00     0.022 A 
BRANCH  72  75
ATOM     75  S   UNL A   1      43.054  40.859  31.311  1.00  0.00     0.127 S 
ATOM     76  O   UNL A   1      44.471  41.214  31.240  1.00  0.00    -0.237 OA
ATOM     77  O   UNL A   1      42.136  41.946  30.968  1.00  0.00    -0.237 OA
ATOM     78  O   UNL A   1      42.657  40.080  32.475  1.00  0.00    -0.744 OA
ENDBRANCH  72  75
ENDBRANCH  54  68
BRANCH  55  79
ATOM     79  C   UNL A   1      46.630  28.266  28.411  1.00  0.00     0.023 A 
ATOM     80  C   UNL A   1      47.419  27.748  29.456  1.00  0.00     0.012 A 
ATOM     81  C   UNL A   1      46.314  27.443  27.313  1.00  0.00     0.148 A 
ATOM     82  C   UNL A   1      47.906  26.442  29.398  1.00  0.00     0.002 A 
ATOM     83  C   UNL A   1      46.761  26.126  27.285  1.00  0.00     0.091 A 
ATOM     84  F   UNL A   1      45.578  27.961  26.321  1.00  0.00    -0.205 F 
ATOM     85  C   UNL A   1      47.570  25.629  28.319  1.00  0.00     0.022 A 
BRANCH  83  86
ATOM     86  S   UNL A   1      46.284  24.972  25.994  1.00  0.00     0.127 S 
ATOM     87  O   UNL A   1      46.986  25.514  24.833  1.00  0.00    -0.237 OA
ATOM     88  O   UNL A   1      46.820  23.710  26.505  1.00  0.00    -0.237 OA
ATOM     89  O   UNL A   1      44.829  25.028  25.935  1.00  0.00    -0.744 OA
ENDBRANCH  83  86
ENDBRANCH  55  79
BRANCH  67  90
ATOM     90  C   UNL A   1      49.332  34.448  26.591  1.00  0.00     0.023 A 
ATOM     91  C   UNL A   1      49.389  34.732  25.212  1.00  0.00     0.012 A 
ATOM     92  C   UNL A   1      50.484  34.633  27.382  1.00  0.00     0.148 A 
ATOM     93  C   UNL A   1      50.578  35.169  24.626  1.00  0.00     0.002 A 
ATOM     94  C   UNL A   1      51.653  35.111  26.800  1.00  0.00     0.091 A 
ATOM     95  F   UNL A   1      50.416  34.341  28.689  1.00  0.00    -0.205 F 
ATOM     96  C   UNL A   1      51.704  35.369  25.421  1.00  0.00     0.022 A 
BRANCH  94  97
ATOM     97  S   UNL A   1      53.122  35.491  27.763  1.00  0.00     0.127 S 
ATOM     98  O   UNL A   1      53.964  36.158  26.771  1.00  0.00    -0.237 OA
ATOM     99  O   UNL A   1      52.594  36.372  28.805  1.00  0.00    -0.237 OA
ATOM    100  O   UNL A   1      53.621  34.212  28.252  1.00  0.00    -0.744 OA
ENDBRANCH  94  97
ENDBRANCH  67  90
ENDBRANCH  41  42
ENDBRANCH  34  36
ENDBRANCH  33  34
ENDBRANCH  32  33
ENDBRANCH  31  32
ENDBRANCH  30  31
ENDBRANCH  29  30
ENDBRANCH   1  29
TORSDOF 24
ENDMDL
MODEL 2
REMARK VINA RESULT:      -8.6      1.372      7.899
REMARK SMILES C[N@@H+]1CC[N@@H+](C)[C@H](C[NH2+]Cc2ccc(C(=O)OCCOCCOCCOC(=O)c3ccc(-c4c5nc(c(-c6cccc(S(=O)(=O)[O-])c6F)c6ccc([nH]6)c(-c6cccc(S(=O)(=O)[O-])c6F)c6nc(c(-c7cccc(S(=O)(=O)[O-])c7F)c7ccc4[nH]7)C=C6)C=C5)cc3)cn2)C1
REMARK SMILES IDX 21 1 20 2 19 3 18 4 17 5 15 6 16 7 14 8 11 9 12 10 93 11
REMARK SMILES IDX 13 12 92 13 10 14 9 15 8 18 7 19 1 20 2 21 3 22 94 23 4 25
REMARK SMILES IDX 5 26 6 27 22 29 23 30 24 31 25 32 26 33 27 34 28 35 29 36
REMARK SMILES IDX 30 37 91 38 31 39 90 40 32 41 33 42 34 43 84 44 35 45 89 46
REMARK SMILES IDX 83 47 85 48 36 49 88 50 82 51 81 52 37 54 69 55 49 56 68 57
REMARK SMILES IDX 50 58 53 59 67 60 86 61 51 62 52 63 66 65 87 66 54 67 38 68
REMARK SMILES IDX 39 69 47 70 40 71 42 72 48 73 41 74 43 75 44 76 45 77 46 78
REMARK SMILES IDX 70 79 71 80 79 81 72 82 74 83 80 84 73 85 75 86 76 87 77 88
REMARK SMILES IDX 78 89 55 90 56 91 64 92 57 93 59 94 65 95 58 96 60 97 61 98
REMARK SMILES IDX 62 99 63 100
REMARK H PARENT 9 16 9 17 2 24 5 28 85 53 53 64
REMARK Flexibility Score: inf
ROOT
ATOM      1  C   UNL A   1      33.447  35.053  29.841  1.00  0.00     0.188 C 
ENDROOT
BRANCH   1   2
ATOM      2  O   UNL A   1      34.241  34.611  28.757  1.00  0.00    -0.376 OA
BRANCH   2   3
ATOM      3  C   UNL A   1      33.891  33.459  28.004  1.00  0.00     0.202 C 
BRANCH   3   4
ATOM      4  C   UNL A   1      34.388  32.060  28.371  1.00  0.00     0.261 C 
BRANCH   4   5
ATOM      5  O   UNL A   1      33.597  31.010  27.811  1.00  0.00    -0.460 OA
BRANCH   5   6
ATOM      6  C   UNL A   1      34.322  30.001  27.273  1.00  0.00     0.339 C 
ATOM      7  O   UNL A   1      35.528  29.831  27.341  1.00  0.00    -0.246 OA
BRANCH   6   8
ATOM      8  C   UNL A   1      33.412  29.002  26.724  1.00  0.00     0.078 A 
ATOM      9  C   UNL A   1      31.737  27.009  25.933  1.00  0.00     0.094 A 
ATOM     10  C   UNL A   1      32.582  27.593  24.985  1.00  0.00     0.031 A 
ATOM     11  N   UNL A   1      31.632  27.465  27.208  1.00  0.00    -0.254 NA
ATOM     12  C   UNL A   1      33.423  28.625  25.386  1.00  0.00     0.019 A 
ATOM     13  C   UNL A   1      32.500  28.419  27.590  1.00  0.00     0.127 A 
BRANCH   9  14
ATOM     14  C   UNL A   1      31.080  25.679  25.637  1.00  0.00     0.318 C 
BRANCH  14  15
ATOM     15  N   UNL A   1      31.698  24.636  26.458  1.00  0.00    -0.336 N 
ATOM     16  H   UNL A   1      31.620  24.899  27.441  1.00  0.00     0.346 HD
ATOM     17  H   UNL A   1      31.212  23.759  26.273  1.00  0.00     0.346 HD
BRANCH  15  18
ATOM     18  C   UNL A   1      33.123  24.448  26.126  1.00  0.00     0.332 C 
BRANCH  18  19
ATOM     19  C   UNL A   1      33.397  23.034  25.525  1.00  0.00     0.295 C 
ATOM     20  C   UNL A   1      32.061  21.462  22.309  1.00  0.00     0.333 C 
ATOM     21  N   UNL A   1      32.765  21.557  23.584  1.00  0.00    -0.328 N 
ATOM     22  C   UNL A   1      32.279  20.562  24.547  1.00  0.00     0.324 C 
ATOM     23  C   UNL A   1      32.602  22.895  24.187  1.00  0.00     0.334 C 
ATOM     24  H   UNL A   1      33.749  21.383  23.380  1.00  0.00     0.348 HD
ATOM     25  C   UNL A   1      33.100  20.624  25.852  1.00  0.00     0.324 C 
ATOM     26  N   UNL A   1      33.092  21.944  26.515  1.00  0.00    -0.321 N 
ATOM     27  C   UNL A   1      34.058  21.936  27.620  1.00  0.00     0.333 C 
ATOM     28  H   UNL A   1      32.165  22.132  26.897  1.00  0.00     0.348 HD
ENDBRANCH  18  19
ENDBRANCH  15  18
ENDBRANCH  14  15
ENDBRANCH   9  14
ENDBRANCH   6   8
ENDBRANCH   5   6
ENDBRANCH   4   5
ENDBRANCH   3   4
ENDBRANCH   2   3
ENDBRANCH   1   2
BRANCH   1  29
ATOM     29  C   UNL A   1      33.845  34.728  31.297  1.00  0.00     0.188 C 
BRANCH  29  30
ATOM     30  O   UNL A   1      34.031  33.391  31.729  1.00  0.00    -0.376 OA
BRANCH  30  31
ATOM     31  C   UNL A   1      34.993  33.119  32.735  1.00  0.00     0.202 C 
BRANCH  31  32
ATOM     32  C   UNL A   1      36.408  32.671  32.364  1.00  0.00     0.261 C 
BRANCH  32  33
ATOM     33  O   UNL A   1      36.935  31.632  33.199  1.00  0.00    -0.460 OA
BRANCH  33  34
ATOM     34  C   UNL A   1      37.334  30.519  32.537  1.00  0.00     0.338 C 
ATOM     35  O   UNL A   1      36.704  29.485  32.382  1.00  0.00    -0.246 OA
BRANCH  34  36
ATOM     36  C   UNL A   1      38.616  30.778  31.860  1.00  0.00     0.060 A 
ATOM     37  C   UNL A   1      39.684  31.258  32.628  1.00  0.00     0.016 A 
ATOM     38  C   UNL A   1      38.744  30.621  30.479  1.00  0.00     0.016 A 
ATOM     39  C   UNL A   1      40.878  31.624  32.009  1.00  0.00     0.010 A 
ATOM     40  C   UNL A   1      39.935  31.005  29.859  1.00  0.00     0.010 A 
ATOM     41  C   UNL A   1      40.993  31.539  30.616  1.00  0.00    -0.014 A 
BRANCH  41  42
ATOM     42  C   UNL A   1      42.153  32.156  29.931  1.00  0.00     0.031 A 
ATOM     43  C   UNL A   1      43.326  31.287  29.573  1.00  0.00     0.074 A 
ATOM     44  C   UNL A   1      42.174  33.471  29.655  1.00  0.00     0.049 A 
ATOM     45  N   UNL A   1      44.463  31.617  29.018  1.00  0.00    -0.248 NA
ATOM     46  C   UNL A   1      43.203  29.853  29.888  1.00  0.00     0.031 C 
ATOM     47  C   UNL A   1      41.097  34.413  29.949  1.00  0.00     0.029 A 
ATOM     48  N   UNL A   1      43.156  34.244  29.088  1.00  0.00    -0.354 N 
ATOM     49  C   UNL A   1      45.200  30.442  28.939  1.00  0.00     0.074 A 
ATOM     50  C   UNL A   1      44.387  29.391  29.514  1.00  0.00     0.031 C 
ATOM     51  C   UNL A   1      41.491  35.649  29.592  1.00  0.00     0.029 A 
ATOM     52  C   UNL A   1      42.853  35.584  29.064  1.00  0.00     0.049 A 
ATOM     53  H   UNL A   1      43.997  33.874  28.735  1.00  0.00     0.167 HD
ATOM     54  C   UNL A   1      46.436  30.249  28.421  1.00  0.00     0.034 A 
ATOM     55  C   UNL A   1      43.598  36.638  28.677  1.00  0.00     0.034 A 
ATOM     56  C   UNL A   1      47.238  31.290  27.839  1.00  0.00     0.049 A 
ATOM     57  C   UNL A   1      44.984  36.403  28.132  1.00  0.00     0.074 A 
ATOM     58  C   UNL A   1      48.483  31.187  27.246  1.00  0.00     0.029 A 
ATOM     59  N   UNL A   1      46.880  32.628  27.789  1.00  0.00    -0.354 N 
ATOM     60  N   UNL A   1      45.618  35.270  27.944  1.00  0.00    -0.248 NA
ATOM     61  C   UNL A   1      45.746  37.589  27.716  1.00  0.00     0.031 C 
ATOM     62  C   UNL A   1      48.888  32.467  26.856  1.00  0.00     0.029 A 
ATOM     63  C   UNL A   1      47.886  33.365  27.187  1.00  0.00     0.049 A 
ATOM     64  H   UNL A   1      46.035  33.000  28.131  1.00  0.00     0.167 HD
ATOM     65  C   UNL A   1      46.834  35.603  27.357  1.00  0.00     0.074 A 
ATOM     66  C   UNL A   1      46.842  37.044  27.204  1.00  0.00     0.031 C 
ATOM     67  C   UNL A   1      47.858  34.792  26.988  1.00  0.00     0.034 A 
BRANCH  54  68
ATOM     68  C   UNL A   1      46.981  28.847  28.436  1.00  0.00     0.023 A 
ATOM     69  C   UNL A   1      47.742  28.411  29.540  1.00  0.00     0.012 A 
ATOM     70  C   UNL A   1      46.712  27.951  27.384  1.00  0.00     0.148 A 
ATOM     71  C   UNL A   1      48.255  27.114  29.581  1.00  0.00     0.002 A 
ATOM     72  C   UNL A   1      47.193  26.648  27.450  1.00  0.00     0.091 A 
ATOM     73  F   UNL A   1      46.010  28.394  26.330  1.00  0.00    -0.205 F 
ATOM     74  C   UNL A   1      47.973  26.233  28.542  1.00  0.00     0.022 A 
BRANCH  72  75
ATOM     75  S   UNL A   1      46.822  25.421  26.193  1.00  0.00     0.127 S 
ATOM     76  O   UNL A   1      47.238  24.185  26.855  1.00  0.00    -0.237 OA
ATOM     77  O   UNL A   1      45.374  25.567  26.033  1.00  0.00    -0.237 OA
ATOM     78  O   UNL A   1      47.599  25.801  25.023  1.00  0.00    -0.744 OA
ENDBRANCH  72  75
ENDBRANCH  54  68
BRANCH  55  79
ATOM     79  C   UNL A   1      43.033  38.015  28.750  1.00  0.00     0.023 A 
ATOM     80  C   UNL A   1      42.186  38.469  27.721  1.00  0.00     0.012 A 
ATOM     81  C   UNL A   1      43.312  38.866  29.837  1.00  0.00     0.148 A 
ATOM     82  C   UNL A   1      41.647  39.755  27.759  1.00  0.00     0.002 A 
ATOM     83  C   UNL A   1      42.732  40.128  29.894  1.00  0.00     0.091 A 
ATOM     84  F   UNL A   1      44.136  38.421  30.797  1.00  0.00    -0.205 F 
ATOM     85  C   UNL A   1      41.912  40.580  28.849  1.00  0.00     0.022 A 
BRANCH  83  86
ATOM     86  S   UNL A   1      42.923  41.215  31.312  1.00  0.00     0.127 S 
ATOM     87  O   UNL A   1      44.376  41.341  31.399  1.00  0.00    -0.237 OA
ATOM     88  O   UNL A   1      42.225  42.420  30.863  1.00  0.00    -0.237 OA
ATOM     89  O   UNL A   1      42.281  40.527  32.424  1.00  0.00    -0.744 OA
ENDBRANCH  83  86
ENDBRANCH  55  79
BRANCH  67  90
ATOM     90  C   UNL A   1      49.065  35.428  26.351  1.00  0.00     0.023 A 
ATOM     91  C   UNL A   1      49.158  35.500  24.948  1.00  0.00     0.012 A 
ATOM     92  C   UNL A   1      50.063  36.034  27.142  1.00  0.00     0.148 A 
ATOM     93  C   UNL A   1      50.238  36.142  24.340  1.00  0.00     0.002 A 
ATOM     94  C   UNL A   1      51.113  36.710  26.530  1.00  0.00     0.091 A 
ATOM     95  F   UNL A   1      49.968  35.939  28.476  1.00  0.00    -0.205 F 
ATOM     96  C   UNL A   1      51.207  36.756  25.130  1.00  0.00     0.022 A 
BRANCH  94  97
ATOM     97  S   UNL A   1      52.352  37.612  27.468  1.00  0.00     0.127 S 
ATOM     98  O   UNL A   1      52.928  38.481  26.442  1.00  0.00    -0.237 OA
ATOM     99  O   UNL A   1      51.543  38.306  28.470  1.00  0.00    -0.237 OA
ATOM    100  O   UNL A   1      53.252  36.604  28.014  1.00  0.00    -0.744 OA
ENDBRANCH  94  97
ENDBRANCH  67  90
ENDBRANCH  41  42
ENDBRANCH  34  36
ENDBRANCH  33  34
ENDBRANCH  32  33
ENDBRANCH  31  32
ENDBRANCH  30  31
ENDBRANCH  29  30
ENDBRANCH   1  29
TORSDOF 24
ENDMDL
MODEL 3
REMARK VINA RESULT:      -8.3      9.938     16.692
REMARK SMILES C[N@@H+]1CC[N@@H+](C)[C@H](C[NH2+]Cc2ccc(C(=O)OCCOCCOCCOC(=O)c3ccc(-c4c5nc(c(-c6cccc(S(=O)(=O)[O-])c6F)c6ccc([nH]6)c(-c6cccc(S(=O)(=O)[O-])c6F)c6nc(c(-c7cccc(S(=O)(=O)[O-])c7F)c7ccc4[nH]7)C=C6)C=C5)cc3)cn2)C1
REMARK SMILES IDX 21 1 20 2 19 3 18 4 17 5 15 6 16 7 14 8 11 9 12 10 93 11
REMARK SMILES IDX 13 12 92 13 10 14 9 15 8 18 7 19 1 20 2 21 3 22 94 23 4 25
REMARK SMILES IDX 5 26 6 27 22 29 23 30 24 31 25 32 26 33 27 34 28 35 29 36
REMARK SMILES IDX 30 37 91 38 31 39 90 40 32 41 33 42 34 43 84 44 35 45 89 46
REMARK SMILES IDX 83 47 85 48 36 49 88 50 82 51 81 52 37 54 69 55 49 56 68 57
REMARK SMILES IDX 50 58 53 59 67 60 86 61 51 62 52 63 66 65 87 66 54 67 38 68
REMARK SMILES IDX 39 69 47 70 40 71 42 72 48 73 41 74 43 75 44 76 45 77 46 78
REMARK SMILES IDX 70 79 71 80 79 81 72 82 74 83 80 84 73 85 75 86 76 87 77 88
REMARK SMILES IDX 78 89 55 90 56 91 64 92 57 93 59 94 65 95 58 96 60 97 61 98
REMARK SMILES IDX 62 99 63 100
REMARK H PARENT 9 16 9 17 2 24 5 28 85 53 53 64
REMARK Flexibility Score: inf
ROOT
ATOM      1  C   UNL A   1      48.973  21.944  37.739  1.00  0.00     0.188 C 
ENDROOT
BRANCH   1   2
ATOM      2  O   UNL A   1      47.694  21.737  37.169  1.00  0.00    -0.376 OA
BRANCH   2   3
ATOM      3  C   UNL A   1      46.512  21.818  37.951  1.00  0.00     0.202 C 
BRANCH   3   4
ATOM      4  C   UNL A   1      46.413  21.206  39.349  1.00  0.00     0.261 C 
BRANCH   4   5
ATOM      5  O   UNL A   1      45.929  19.861  39.348  1.00  0.00    -0.460 OA
BRANCH   5   6
ATOM      6  C   UNL A   1      46.894  18.929  39.528  1.00  0.00     0.339 C 
ATOM      7  O   UNL A   1      47.976  18.859  38.971  1.00  0.00    -0.246 OA
BRANCH   6   8
ATOM      8  C   UNL A   1      46.528  18.079  40.655  1.00  0.00     0.078 A 
ATOM      9  C   UNL A   1      45.811  16.716  42.900  1.00  0.00     0.094 A 
ATOM     10  C   UNL A   1      46.774  16.158  42.053  1.00  0.00     0.031 A 
ATOM     11  N   UNL A   1      45.134  17.854  42.598  1.00  0.00    -0.254 NA
ATOM     12  C   UNL A   1      47.124  16.845  40.896  1.00  0.00     0.019 A 
ATOM     13  C   UNL A   1      45.536  18.535  41.509  1.00  0.00     0.127 A 
BRANCH   9  14
ATOM     14  C   UNL A   1      45.660  16.197  44.312  1.00  0.00     0.318 C 
BRANCH  14  15
ATOM     15  N   UNL A   1      44.660  15.128  44.335  1.00  0.00    -0.336 N 
ATOM     16  H   UNL A   1      45.115  14.246  44.097  1.00  0.00     0.346 HD
ATOM     17  H   UNL A   1      44.257  15.092  45.271  1.00  0.00     0.346 HD
BRANCH  15  18
ATOM     18  C   UNL A   1      43.568  15.376  43.375  1.00  0.00     0.332 C 
BRANCH  18  19
ATOM     19  C   UNL A   1      42.623  14.140  43.240  1.00  0.00     0.295 C 
ATOM     20  C   UNL A   1      43.041  10.602  44.618  1.00  0.00     0.333 C 
ATOM     21  N   UNL A   1      42.455  11.705  43.863  1.00  0.00    -0.328 N 
ATOM     22  C   UNL A   1      42.341  11.386  42.435  1.00  0.00     0.324 C 
ATOM     23  C   UNL A   1      43.265  12.933  43.994  1.00  0.00     0.334 C 
ATOM     24  H   UNL A   1      41.525  11.857  44.254  1.00  0.00     0.348 HD
ATOM     25  C   UNL A   1      41.638  12.531  41.677  1.00  0.00     0.324 C 
ATOM     26  N   UNL A   1      42.305  13.843  41.800  1.00  0.00    -0.321 N 
ATOM     27  C   UNL A   1      41.446  14.879  41.214  1.00  0.00     0.333 C 
ATOM     28  H   UNL A   1      43.189  13.829  41.291  1.00  0.00     0.348 HD
ENDBRANCH  18  19
ENDBRANCH  15  18
ENDBRANCH  14  15
ENDBRANCH   9  14
ENDBRANCH   6   8
ENDBRANCH   5   6
ENDBRANCH   4   5
ENDBRANCH   3   4
ENDBRANCH   2   3
ENDBRANCH   1   2
BRANCH   1  29
ATOM     29  C   UNL A   1      49.974  22.929  37.098  1.00  0.00     0.188 C 
BRANCH  29  30
ATOM     30  O   UNL A   1      50.060  23.081  35.692  1.00  0.00    -0.376 OA
BRANCH  30  31
ATOM     31  C   UNL A   1      50.016  24.386  35.136  1.00  0.00     0.202 C 
BRANCH  31  32
ATOM     32  C   UNL A   1      48.699  25.163  35.069  1.00  0.00     0.261 C 
BRANCH  32  33
ATOM     33  O   UNL A   1      48.000  25.246  36.317  1.00  0.00    -0.460 OA
BRANCH  33  34
ATOM     34  C   UNL A   1      47.481  26.467  36.596  1.00  0.00     0.338 C 
ATOM     35  O   UNL A   1      47.888  27.273  37.416  1.00  0.00    -0.246 OA
BRANCH  34  36
ATOM     36  C   UNL A   1      46.411  26.782  35.634  1.00  0.00     0.060 A 
ATOM     37  C   UNL A   1      46.518  27.965  34.891  1.00  0.00     0.016 A 
ATOM     38  C   UNL A   1      45.284  25.967  35.519  1.00  0.00     0.016 A 
ATOM     39  C   UNL A   1      45.475  28.358  34.055  1.00  0.00     0.010 A 
ATOM     40  C   UNL A   1      44.233  26.373  34.694  1.00  0.00     0.010 A 
ATOM     41  C   UNL A   1      44.310  27.585  33.986  1.00  0.00    -0.014 A 
BRANCH  41  42
ATOM     42  C   UNL A   1      43.107  28.119  33.304  1.00  0.00     0.031 A 
ATOM     43  C   UNL A   1      42.881  27.767  31.860  1.00  0.00     0.074 A 
ATOM     44  C   UNL A   1      42.246  28.924  33.949  1.00  0.00     0.049 A 
ATOM     45  N   UNL A   1      41.929  28.157  31.052  1.00  0.00    -0.248 NA
ATOM     46  C   UNL A   1      43.861  26.857  31.243  1.00  0.00     0.031 C 
ATOM     47  C   UNL A   1      42.357  29.332  35.347  1.00  0.00     0.029 A 
ATOM     48  N   UNL A   1      41.120  29.564  33.496  1.00  0.00    -0.354 N 
ATOM     49  C   UNL A   1      42.208  27.562  29.827  1.00  0.00     0.074 A 
ATOM     50  C   UNL A   1      43.423  26.794  29.994  1.00  0.00     0.031 C 
ATOM     51  C   UNL A   1      41.357  30.185  35.631  1.00  0.00     0.029 A 
ATOM     52  C   UNL A   1      40.550  30.396  34.430  1.00  0.00     0.049 A 
ATOM     53  H   UNL A   1      40.757  29.440  32.590  1.00  0.00     0.167 HD
ATOM     54  C   UNL A   1      41.508  27.635  28.670  1.00  0.00     0.034 A 
ATOM     55  C   UNL A   1      39.508  31.244  34.320  1.00  0.00     0.034 A 
ATOM     56  C   UNL A   1      40.294  28.387  28.509  1.00  0.00     0.049 A 
ATOM     57  C   UNL A   1      38.762  31.332  33.013  1.00  0.00     0.074 A 
ATOM     58  C   UNL A   1      39.486  28.486  27.390  1.00  0.00     0.029 A 
ATOM     59  N   UNL A   1      39.719  29.181  29.489  1.00  0.00    -0.354 N 
ATOM     60  N   UNL A   1      38.960  30.665  31.901  1.00  0.00    -0.248 NA
ATOM     61  C   UNL A   1      37.628  32.266  32.955  1.00  0.00     0.031 C 
ATOM     62  C   UNL A   1      38.434  29.358  27.688  1.00  0.00     0.029 A 
ATOM     63  C   UNL A   1      38.574  29.785  28.998  1.00  0.00     0.049 A 
ATOM     64  H   UNL A   1      40.074  29.299  30.400  1.00  0.00     0.167 HD
ATOM     65  C   UNL A   1      37.958  31.071  31.026  1.00  0.00     0.074 A 
ATOM     66  C   UNL A   1      37.142  32.030  31.743  1.00  0.00     0.031 C 
ATOM     67  C   UNL A   1      37.738  30.694  29.741  1.00  0.00     0.034 A 
BRANCH  54  68
ATOM     68  C   UNL A   1      42.028  26.851  27.496  1.00  0.00     0.023 A 
ATOM     69  C   UNL A   1      42.762  27.514  26.492  1.00  0.00     0.012 A 
ATOM     70  C   UNL A   1      41.826  25.461  27.403  1.00  0.00     0.148 A 
ATOM     71  C   UNL A   1      43.260  26.810  25.395  1.00  0.00     0.002 A 
ATOM     72  C   UNL A   1      42.359  24.759  26.328  1.00  0.00     0.091 A 
ATOM     73  F   UNL A   1      41.101  24.854  28.355  1.00  0.00    -0.205 F 
ATOM     74  C   UNL A   1      43.066  25.434  25.319  1.00  0.00     0.022 A 
BRANCH  72  75
ATOM     75  S   UNL A   1      42.222  22.975  26.180  1.00  0.00     0.127 S 
ATOM     76  O   UNL A   1      42.949  22.724  24.937  1.00  0.00    -0.237 OA
ATOM     77  O   UNL A   1      42.905  22.510  27.389  1.00  0.00    -0.237 OA
ATOM     78  O   UNL A   1      40.796  22.687  26.146  1.00  0.00    -0.744 OA
ENDBRANCH  72  75
ENDBRANCH  54  68
BRANCH  55  79
ATOM     79  C   UNL A   1      39.079  32.050  35.497  1.00  0.00     0.023 A 
ATOM     80  C   UNL A   1      39.369  33.428  35.533  1.00  0.00     0.012 A 
ATOM     81  C   UNL A   1      38.370  31.469  36.565  1.00  0.00     0.148 A 
ATOM     82  C   UNL A   1      38.984  34.208  36.624  1.00  0.00     0.002 A 
ATOM     83  C   UNL A   1      37.946  32.261  37.627  1.00  0.00     0.091 A 
ATOM     84  F   UNL A   1      38.120  30.152  36.521  1.00  0.00    -0.205 F 
ATOM     85  C   UNL A   1      38.265  33.627  37.665  1.00  0.00     0.022 A 
BRANCH  83  86
ATOM     86  S   UNL A   1      36.916  31.625  38.955  1.00  0.00     0.127 S 
ATOM     87  O   UNL A   1      36.625  30.272  38.486  1.00  0.00    -0.237 OA
ATOM     88  O   UNL A   1      37.823  31.699  40.101  1.00  0.00    -0.237 OA
ATOM     89  O   UNL A   1      35.774  32.526  39.033  1.00  0.00    -0.744 OA
ENDBRANCH  83  86
ENDBRANCH  55  79
BRANCH  67  90
ATOM     90  C   UNL A   1      36.553  31.288  29.026  1.00  0.00     0.023 A 
ATOM     91  C   UNL A   1      36.497  32.678  28.801  1.00  0.00     0.012 A 
ATOM     92  C   UNL A   1      35.540  30.461  28.498  1.00  0.00     0.148 A 
ATOM     93  C   UNL A   1      35.439  33.238  28.085  1.00  0.00     0.002 A 
ATOM     94  C   UNL A   1      34.513  31.021  27.747  1.00  0.00     0.091 A 
ATOM     95  F   UNL A   1      35.601  29.143  28.737  1.00  0.00    -0.205 F 
ATOM     96  C   UNL A   1      34.456  32.410  27.549  1.00  0.00     0.022 A 
BRANCH  94  97
ATOM     97  S   UNL A   1      33.258  30.022  26.937  1.00  0.00     0.127 S 
ATOM     98  O   UNL A   1      32.380  31.046  26.374  1.00  0.00    -0.237 OA
ATOM     99  O   UNL A   1      34.040  29.279  25.949  1.00  0.00    -0.237 OA
ATOM    100  O   UNL A   1      32.669  29.196  27.983  1.00  0.00    -0.744 OA
ENDBRANCH  94  97
ENDBRANCH  67  90
ENDBRANCH  41  42
ENDBRANCH  34  36
ENDBRANCH  33  34
ENDBRANCH  32  33
ENDBRANCH  31  32
ENDBRANCH  30  31
ENDBRANCH  29  30
ENDBRANCH   1  29
TORSDOF 24
ENDMDL
