MODEL 1
REMARK VINA RESULT:     -10.2      0.000      0.000
REMARK SMILES CC(C)(C)OC(=O)N1CCC[C@H]1C(=O)N[C@@H](Cc1ccccc1)C(=O)OCCOCCOCCOC(=O)c1ccc(-c2c3nc(c(-c4cccc(S(=O)(=O)[O-])c4F)c4ccc([nH]4)c(-c4cccc(S(=O)(=O)[O-])c4F)c4nc(c(-c5cccc(S(=O)(=O)[O-])c5F)c5ccc2[nH]5)C=C4)C=C3)cc1
REMARK SMILES IDX 30 1 29 2 28 3 27 4 26 5 24 6 25 7 16 8 15 9 13 10 14 11
REMARK SMILES IDX 12 13 8 14 9 15 10 16 11 17 6 18 7 19 5 20 2 21 1 22 3 23
REMARK SMILES IDX 4 24 17 25 18 26 19 27 23 28 20 29 22 30 21 31 31 32 32 33
REMARK SMILES IDX 33 34 34 35 35 36 36 37 37 38 38 39 39 40 100 41 40 42 99 43
REMARK SMILES IDX 41 44 42 45 43 46 93 47 44 48 98 49 92 50 94 51 45 52 97 53
REMARK SMILES IDX 91 54 90 55 46 57 78 58 58 59 77 60 59 61 62 62 76 63 95 64
REMARK SMILES IDX 60 65 61 66 75 68 96 69 63 70 47 71 48 72 56 73 49 74 51 75
REMARK SMILES IDX 57 76 50 77 52 78 53 79 54 80 55 81 79 82 80 83 88 84 81 85
REMARK SMILES IDX 83 86 89 87 82 88 84 89 85 90 86 91 87 92 64 93 65 94 73 95
REMARK SMILES IDX 66 96 68 97 74 98 67 99 69 100 70 101 71 102 72 103
REMARK H PARENT 15 12 94 56 62 67
REMARK Flexibility Score: inf
ROOT
ATOM      1  C   UNL A   1      30.742  27.287  23.520  1.00  0.00     0.188 C 
ENDROOT
BRANCH   1   2
ATOM      2  O   UNL A   1      31.236  26.222  22.710  1.00  0.00    -0.376 OA
BRANCH   2   3
ATOM      3  C   UNL A   1      32.610  26.225  22.344  1.00  0.00     0.202 C 
BRANCH   3   4
ATOM      4  C   UNL A   1      33.353  24.897  22.482  1.00  0.00     0.261 C 
BRANCH   4   5
ATOM      5  O   UNL A   1      34.334  24.913  23.540  1.00  0.00    -0.462 OA
BRANCH   5   6
ATOM      6  C   UNL A   1      35.093  23.797  23.655  1.00  0.00     0.329 C 
ATOM      7  O   UNL A   1      35.187  22.937  22.783  1.00  0.00    -0.250 OA
BRANCH   6   8
ATOM      8  C   UNL A   1      35.729  23.592  25.052  1.00  0.00     0.196 C 
BRANCH   8   9
ATOM      9  N   UNL A   1      35.102  22.852  26.172  1.00  0.00    -0.341 N 
ATOM     10  C   UNL A   1      33.853  22.908  26.737  1.00  0.00     0.243 C 
ATOM     11  O   UNL A   1      33.781  22.512  27.905  1.00  0.00    -0.273 OA
ATOM     12  H   UNL A   1      35.699  22.191  26.592  1.00  0.00     0.164 HD
BRANCH  10  13
ATOM     13  C   UNL A   1      32.603  23.372  25.942  1.00  0.00     0.178 C 
ATOM     14  N   UNL A   1      31.665  22.289  25.579  1.00  0.00    -0.296 N 
ATOM     15  C   UNL A   1      30.380  22.450  26.225  1.00  0.00     0.124 C 
ATOM     16  C   UNL A   1      30.286  23.940  26.447  1.00  0.00     0.024 C 
ATOM     17  C   UNL A   1      31.725  24.343  26.746  1.00  0.00     0.037 C 
BRANCH  14  18
ATOM     18  C   UNL A   1      31.920  21.359  24.597  1.00  0.00     0.410 C 
ATOM     19  O   UNL A   1      32.071  21.652  23.421  1.00  0.00    -0.224 OA
BRANCH  18  20
ATOM     20  O   UNL A   1      31.898  20.090  25.080  1.00  0.00    -0.444 OA
BRANCH  20  21
ATOM     21  C   UNL A   1      32.878  19.067  24.732  1.00  0.00     0.106 C 
ATOM     22  C   UNL A   1      32.489  18.615  23.315  1.00  0.00     0.056 C 
ATOM     23  C   UNL A   1      32.740  17.896  25.702  1.00  0.00     0.056 C 
ATOM     24  C   UNL A   1      34.328  19.552  24.671  1.00  0.00     0.056 C 
ENDBRANCH  20  21
ENDBRANCH  18  20
ENDBRANCH  14  18
ENDBRANCH  10  13
ENDBRANCH   8   9
BRANCH   8  25
ATOM     25  C   UNL A   1      37.135  23.004  24.770  1.00  0.00     0.072 C 
BRANCH  25  26
ATOM     26  C   UNL A   1      38.222  23.110  25.837  1.00  0.00    -0.045 A 
ATOM     27  C   UNL A   1      38.522  24.266  26.573  1.00  0.00     0.004 A 
ATOM     28  C   UNL A   1      39.008  21.970  26.074  1.00  0.00     0.004 A 
ATOM     29  C   UNL A   1      39.575  24.291  27.493  1.00  0.00     0.000 A 
ATOM     30  C   UNL A   1      40.053  21.988  27.003  1.00  0.00     0.000 A 
ATOM     31  C   UNL A   1      40.341  23.152  27.708  1.00  0.00     0.000 A 
ENDBRANCH  25  26
ENDBRANCH   8  25
ENDBRANCH   6   8
ENDBRANCH   5   6
ENDBRANCH   4   5
ENDBRANCH   3   4
ENDBRANCH   2   3
ENDBRANCH   1   2
BRANCH   1  32
ATOM     32  C   UNL A   1      31.373  28.684  23.362  1.00  0.00     0.188 C 
BRANCH  32  33
ATOM     33  O   UNL A   1      31.229  29.518  24.500  1.00  0.00    -0.376 OA
BRANCH  33  34
ATOM     34  C   UNL A   1      31.973  29.109  25.637  1.00  0.00     0.202 C 
BRANCH  34  35
ATOM     35  C   UNL A   1      32.345  30.251  26.592  1.00  0.00     0.261 C 
BRANCH  35  36
ATOM     36  O   UNL A   1      33.754  30.515  26.708  1.00  0.00    -0.460 OA
BRANCH  36  37
ATOM     37  C   UNL A   1      34.118  31.535  27.520  1.00  0.00     0.338 C 
ATOM     38  O   UNL A   1      33.444  32.506  27.810  1.00  0.00    -0.246 OA
BRANCH  37  39
ATOM     39  C   UNL A   1      35.409  31.173  28.148  1.00  0.00     0.060 A 
ATOM     40  C   UNL A   1      35.521  29.933  28.782  1.00  0.00     0.016 A 
ATOM     41  C   UNL A   1      36.503  32.036  28.115  1.00  0.00     0.016 A 
ATOM     42  C   UNL A   1      36.702  29.571  29.435  1.00  0.00     0.010 A 
ATOM     43  C   UNL A   1      37.680  31.684  28.789  1.00  0.00     0.010 A 
ATOM     44  C   UNL A   1      37.770  30.471  29.497  1.00  0.00    -0.014 A 
BRANCH  44  45
ATOM     45  C   UNL A   1      38.882  30.241  30.458  1.00  0.00     0.031 A 
ATOM     46  C   UNL A   1      39.973  29.270  30.082  1.00  0.00     0.074 A 
ATOM     47  C   UNL A   1      38.950  30.890  31.635  1.00  0.00     0.049 A 
ATOM     48  N   UNL A   1      41.033  28.906  30.759  1.00  0.00    -0.248 NA
ATOM     49  C   UNL A   1      39.862  28.638  28.757  1.00  0.00     0.031 C 
ATOM     50  C   UNL A   1      37.994  31.887  32.112  1.00  0.00     0.029 A 
ATOM     51  N   UNL A   1      39.860  30.780  32.660  1.00  0.00    -0.354 N 
ATOM     52  C   UNL A   1      41.711  28.005  29.945  1.00  0.00     0.074 A 
ATOM     53  C   UNL A   1      40.935  27.862  28.733  1.00  0.00     0.031 C 
ATOM     54  C   UNL A   1      38.347  32.271  33.351  1.00  0.00     0.029 A 
ATOM     55  C   UNL A   1      39.536  31.527  33.767  1.00  0.00     0.049 A 
ATOM     56  H   UNL A   1      40.667  30.218  32.606  1.00  0.00     0.167 HD
ATOM     57  C   UNL A   1      42.881  27.363  30.172  1.00  0.00     0.034 A 
ATOM     58  C   UNL A   1      40.115  31.583  34.985  1.00  0.00     0.034 A 
ATOM     59  C   UNL A   1      43.644  27.468  31.384  1.00  0.00     0.049 A 
ATOM     60  C   UNL A   1      41.346  30.756  35.263  1.00  0.00     0.074 A 
ATOM     61  C   UNL A   1      44.836  26.846  31.708  1.00  0.00     0.029 A 
ATOM     62  N   UNL A   1      43.274  28.223  32.486  1.00  0.00    -0.354 N 
ATOM     63  N   UNL A   1      42.034  29.993  34.447  1.00  0.00    -0.248 NA
ATOM     64  C   UNL A   1      41.897  30.820  36.626  1.00  0.00     0.031 C 
ATOM     65  C   UNL A   1      45.171  27.200  33.021  1.00  0.00     0.029 A 
ATOM     66  C   UNL A   1      44.202  28.066  33.501  1.00  0.00     0.049 A 
ATOM     67  H   UNL A   1      42.471  28.788  32.538  1.00  0.00     0.167 HD
ATOM     68  C   UNL A   1      43.118  29.523  35.183  1.00  0.00     0.074 A 
ATOM     69  C   UNL A   1      43.003  30.096  36.508  1.00  0.00     0.031 C 
ATOM     70  C   UNL A   1      44.113  28.686  34.799  1.00  0.00     0.034 A 
BRANCH  57  71
ATOM     71  C   UNL A   1      43.411  26.495  29.063  1.00  0.00     0.023 A 
ATOM     72  C   UNL A   1      43.110  25.116  29.061  1.00  0.00     0.012 A 
ATOM     73  C   UNL A   1      44.188  27.036  28.022  1.00  0.00     0.148 A 
ATOM     74  C   UNL A   1      43.604  24.285  28.057  1.00  0.00     0.002 A 
ATOM     75  C   UNL A   1      44.646  26.206  27.005  1.00  0.00     0.091 A 
ATOM     76  F   UNL A   1      44.486  28.342  28.059  1.00  0.00    -0.205 F 
ATOM     77  C   UNL A   1      44.364  24.830  27.026  1.00  0.00     0.022 A 
BRANCH  75  78
ATOM     78  S   UNL A   1      45.584  26.829  25.605  1.00  0.00     0.127 S 
ATOM     79  O   UNL A   1      44.664  27.823  25.054  1.00  0.00    -0.237 OA
ATOM     80  O   UNL A   1      46.771  27.390  26.253  1.00  0.00    -0.237 OA
ATOM     81  O   UNL A   1      45.847  25.675  24.757  1.00  0.00    -0.744 OA
ENDBRANCH  75  78
ENDBRANCH  57  71
BRANCH  58  82
ATOM     82  C   UNL A   1      39.555  32.475  36.041  1.00  0.00     0.023 A 
ATOM     83  C   UNL A   1      38.504  32.008  36.854  1.00  0.00     0.012 A 
ATOM     84  C   UNL A   1      40.051  33.779  36.240  1.00  0.00     0.148 A 
ATOM     85  C   UNL A   1      37.941  32.831  37.831  1.00  0.00     0.002 A 
ATOM     86  C   UNL A   1      39.519  34.575  37.248  1.00  0.00     0.091 A 
ATOM     87  F   UNL A   1      41.033  34.214  35.438  1.00  0.00    -0.205 F 
ATOM     88  C   UNL A   1      38.454  34.109  38.035  1.00  0.00     0.022 A 
BRANCH  86  89
ATOM     89  S   UNL A   1      40.189  36.190  37.658  1.00  0.00     0.127 S 
ATOM     90  O   UNL A   1      41.333  35.835  38.494  1.00  0.00    -0.237 OA
ATOM     91  O   UNL A   1      40.530  36.717  36.337  1.00  0.00    -0.237 OA
ATOM     92  O   UNL A   1      39.113  36.904  38.333  1.00  0.00    -0.744 OA
ENDBRANCH  86  89
ENDBRANCH  58  82
BRANCH  70  93
ATOM     93  C   UNL A   1      45.193  28.364  35.800  1.00  0.00     0.023 A 
ATOM     94  C   UNL A   1      46.352  29.164  35.867  1.00  0.00     0.012 A 
ATOM     95  C   UNL A   1      45.023  27.319  36.731  1.00  0.00     0.148 A 
ATOM     96  C   UNL A   1      47.336  28.910  36.822  1.00  0.00     0.002 A 
ATOM     97  C   UNL A   1      45.986  27.101  37.710  1.00  0.00     0.091 A 
ATOM     98  F   UNL A   1      43.926  26.554  36.639  1.00  0.00    -0.205 F 
ATOM     99  C   UNL A   1      47.147  27.888  37.752  1.00  0.00     0.022 A 
BRANCH  97 100
ATOM    100  S   UNL A   1      45.775  25.872  39.005  1.00  0.00     0.127 S 
ATOM    101  O   UNL A   1      45.858  24.624  38.248  1.00  0.00    -0.237 OA
ATOM    102  O   UNL A   1      46.923  26.133  39.875  1.00  0.00    -0.237 OA
ATOM    103  O   UNL A   1      44.482  26.153  39.614  1.00  0.00    -0.744 OA
ENDBRANCH  97 100
ENDBRANCH  70  93
ENDBRANCH  44  45
ENDBRANCH  37  39
ENDBRANCH  36  37
ENDBRANCH  35  36
ENDBRANCH  34  35
ENDBRANCH  33  34
ENDBRANCH  32  33
ENDBRANCH   1  32
TORSDOF 27
ENDMDL
MODEL 2
REMARK VINA RESULT:     -10.1      1.990      7.409
REMARK SMILES CC(C)(C)OC(=O)N1CCC[C@H]1C(=O)N[C@@H](Cc1ccccc1)C(=O)OCCOCCOCCOC(=O)c1ccc(-c2c3nc(c(-c4cccc(S(=O)(=O)[O-])c4F)c4ccc([nH]4)c(-c4cccc(S(=O)(=O)[O-])c4F)c4nc(c(-c5cccc(S(=O)(=O)[O-])c5F)c5ccc2[nH]5)C=C4)C=C3)cc1
REMARK SMILES IDX 30 1 29 2 28 3 27 4 26 5 24 6 25 7 16 8 15 9 13 10 14 11
REMARK SMILES IDX 12 13 8 14 9 15 10 16 11 17 6 18 7 19 5 20 2 21 1 22 3 23
REMARK SMILES IDX 4 24 17 25 18 26 19 27 23 28 20 29 22 30 21 31 31 32 32 33
REMARK SMILES IDX 33 34 34 35 35 36 36 37 37 38 38 39 39 40 100 41 40 42 99 43
REMARK SMILES IDX 41 44 42 45 43 46 93 47 44 48 98 49 92 50 94 51 45 52 97 53
REMARK SMILES IDX 91 54 90 55 46 57 78 58 58 59 77 60 59 61 62 62 76 63 95 64
REMARK SMILES IDX 60 65 61 66 75 68 96 69 63 70 47 71 48 72 56 73 49 74 51 75
REMARK SMILES IDX 57 76 50 77 52 78 53 79 54 80 55 81 79 82 80 83 88 84 81 85
REMARK SMILES IDX 83 86 89 87 82 88 84 89 85 90 86 91 87 92 64 93 65 94 73 95
REMARK SMILES IDX 66 96 68 97 74 98 67 99 69 100 70 101 71 102 72 103
REMARK H PARENT 15 12 94 56 62 67
REMARK Flexibility Score: inf
ROOT
ATOM      1  C   UNL A   1      31.277  26.884  24.034  1.00  0.00     0.188 C 
ENDROOT
BRANCH   1   2
ATOM      2  O   UNL A   1      31.985  25.720  23.614  1.00  0.00    -0.376 OA
BRANCH   2   3
ATOM      3  C   UNL A   1      33.324  25.865  23.158  1.00  0.00     0.202 C 
BRANCH   3   4
ATOM      4  C   UNL A   1      34.176  24.597  23.141  1.00  0.00     0.261 C 
BRANCH   4   5
ATOM      5  O   UNL A   1      35.206  24.602  24.152  1.00  0.00    -0.462 OA
BRANCH   5   6
ATOM      6  C   UNL A   1      35.960  23.479  24.230  1.00  0.00     0.329 C 
ATOM      7  O   UNL A   1      36.259  22.785  23.262  1.00  0.00    -0.250 OA
BRANCH   6   8
ATOM      8  C   UNL A   1      36.301  23.031  25.671  1.00  0.00     0.196 C 
BRANCH   8   9
ATOM      9  N   UNL A   1      35.458  22.145  26.508  1.00  0.00    -0.341 N 
ATOM     10  C   UNL A   1      34.141  22.207  26.890  1.00  0.00     0.243 C 
ATOM     11  O   UNL A   1      33.859  21.594  27.924  1.00  0.00    -0.273 OA
ATOM     12  H   UNL A   1      35.936  21.360  26.860  1.00  0.00     0.164 HD
BRANCH  10  13
ATOM     13  C   UNL A   1      33.066  22.938  26.041  1.00  0.00     0.178 C 
ATOM     14  N   UNL A   1      32.008  22.061  25.496  1.00  0.00    -0.296 N 
ATOM     15  C   UNL A   1      30.707  22.379  26.043  1.00  0.00     0.124 C 
ATOM     16  C   UNL A   1      30.830  23.841  26.402  1.00  0.00     0.024 C 
ATOM     17  C   UNL A   1      32.277  23.971  26.861  1.00  0.00     0.037 C 
BRANCH  14  18
ATOM     18  C   UNL A   1      32.209  21.187  24.452  1.00  0.00     0.410 C 
ATOM     19  O   UNL A   1      32.494  21.549  23.321  1.00  0.00    -0.224 OA
BRANCH  18  20
ATOM     20  O   UNL A   1      31.972  19.900  24.813  1.00  0.00    -0.444 OA
BRANCH  20  21
ATOM     21  C   UNL A   1      32.872  18.790  24.522  1.00  0.00     0.106 C 
ATOM     22  C   UNL A   1      32.572  17.742  25.607  1.00  0.00     0.056 C 
ATOM     23  C   UNL A   1      34.315  19.271  24.657  1.00  0.00     0.056 C 
ATOM     24  C   UNL A   1      32.651  18.114  23.166  1.00  0.00     0.056 C 
ENDBRANCH  20  21
ENDBRANCH  18  20
ENDBRANCH  14  18
ENDBRANCH  10  13
ENDBRANCH   8   9
BRANCH   8  25
ATOM     25  C   UNL A   1      37.732  22.442  25.582  1.00  0.00     0.072 C 
BRANCH  25  26
ATOM     26  C   UNL A   1      38.851  23.056  26.419  1.00  0.00    -0.045 A 
ATOM     27  C   UNL A   1      40.009  22.383  26.840  1.00  0.00     0.004 A 
ATOM     28  C   UNL A   1      38.693  24.389  26.831  1.00  0.00     0.004 A 
ATOM     29  C   UNL A   1      40.959  23.007  27.653  1.00  0.00     0.000 A 
ATOM     30  C   UNL A   1      39.648  25.020  27.635  1.00  0.00     0.000 A 
ATOM     31  C   UNL A   1      40.779  24.326  28.052  1.00  0.00     0.000 A 
ENDBRANCH  25  26
ENDBRANCH   8  25
ENDBRANCH   6   8
ENDBRANCH   5   6
ENDBRANCH   4   5
ENDBRANCH   3   4
ENDBRANCH   2   3
ENDBRANCH   1   2
BRANCH   1  32
ATOM     32  C   UNL A   1      31.506  28.202  23.267  1.00  0.00     0.188 C 
BRANCH  32  33
ATOM     33  O   UNL A   1      31.731  29.327  24.101  1.00  0.00    -0.376 OA
BRANCH  33  34
ATOM     34  C   UNL A   1      32.617  29.098  25.185  1.00  0.00     0.202 C 
BRANCH  34  35
ATOM     35  C   UNL A   1      32.162  29.717  26.514  1.00  0.00     0.261 C 
BRANCH  35  36
ATOM     36  O   UNL A   1      33.195  29.872  27.502  1.00  0.00    -0.460 OA
BRANCH  36  37
ATOM     37  C   UNL A   1      33.772  31.092  27.595  1.00  0.00     0.338 C 
ATOM     38  O   UNL A   1      33.201  32.166  27.566  1.00  0.00    -0.246 OA
BRANCH  37  39
ATOM     39  C   UNL A   1      35.199  30.892  27.932  1.00  0.00     0.060 A 
ATOM     40  C   UNL A   1      35.662  29.592  28.149  1.00  0.00     0.016 A 
ATOM     41  C   UNL A   1      36.082  31.966  28.032  1.00  0.00     0.016 A 
ATOM     42  C   UNL A   1      36.988  29.359  28.522  1.00  0.00     0.010 A 
ATOM     43  C   UNL A   1      37.406  31.737  28.429  1.00  0.00     0.010 A 
ATOM     44  C   UNL A   1      37.855  30.436  28.727  1.00  0.00    -0.014 A 
BRANCH  44  45
ATOM     45  C   UNL A   1      39.144  30.229  29.439  1.00  0.00     0.031 A 
ATOM     46  C   UNL A   1      39.334  30.868  30.792  1.00  0.00     0.074 A 
ATOM     47  C   UNL A   1      40.128  29.471  28.921  1.00  0.00     0.049 A 
ATOM     48  N   UNL A   1      40.370  30.832  31.591  1.00  0.00    -0.248 NA
ATOM     49  C   UNL A   1      38.195  31.638  31.320  1.00  0.00     0.031 C 
ATOM     50  C   UNL A   1      40.068  28.756  27.648  1.00  0.00     0.029 A 
ATOM     51  N   UNL A   1      41.388  29.201  29.400  1.00  0.00    -0.354 N 
ATOM     52  C   UNL A   1      40.010  31.572  32.712  1.00  0.00     0.074 A 
ATOM     53  C   UNL A   1      38.667  32.061  32.483  1.00  0.00     0.031 C 
ATOM     54  C   UNL A   1      41.253  28.159  27.428  1.00  0.00     0.029 A 
ATOM     55  C   UNL A   1      42.164  28.472  28.529  1.00  0.00     0.049 A 
ATOM     56  H   UNL A   1      41.706  29.503  30.282  1.00  0.00     0.167 HD
ATOM     57  C   UNL A   1      40.718  31.814  33.840  1.00  0.00     0.034 A 
ATOM     58  C   UNL A   1      43.465  28.123  28.599  1.00  0.00     0.034 A 
ATOM     59  C   UNL A   1      42.063  31.365  34.066  1.00  0.00     0.049 A 
ATOM     60  C   UNL A   1      44.278  28.517  29.809  1.00  0.00     0.074 A 
ATOM     61  C   UNL A   1      42.866  31.571  35.174  1.00  0.00     0.029 A 
ATOM     62  N   UNL A   1      42.818  30.643  33.155  1.00  0.00    -0.354 N 
ATOM     63  N   UNL A   1      43.891  29.124  30.906  1.00  0.00    -0.248 NA
ATOM     64  C   UNL A   1      45.704  28.155  29.799  1.00  0.00     0.031 C 
ATOM     65  C   UNL A   1      44.118  31.001  34.918  1.00  0.00     0.029 A 
ATOM     66  C   UNL A   1      44.084  30.414  33.664  1.00  0.00     0.049 A 
ATOM     67  H   UNL A   1      42.499  30.337  32.276  1.00  0.00     0.167 HD
ATOM     68  C   UNL A   1      45.011  29.175  31.731  1.00  0.00     0.074 A 
ATOM     69  C   UNL A   1      46.089  28.528  31.013  1.00  0.00     0.031 C 
ATOM     70  C   UNL A   1      45.136  29.717  32.968  1.00  0.00     0.034 A 
BRANCH  57  71
ATOM     71  C   UNL A   1      40.030  32.598  34.925  1.00  0.00     0.023 A 
ATOM     72  C   UNL A   1      40.175  34.000  34.961  1.00  0.00     0.012 A 
ATOM     73  C   UNL A   1      39.236  31.957  35.894  1.00  0.00     0.148 A 
ATOM     74  C   UNL A   1      39.564  34.750  35.967  1.00  0.00     0.002 A 
ATOM     75  C   UNL A   1      38.602  32.715  36.872  1.00  0.00     0.091 A 
ATOM     76  F   UNL A   1      39.137  30.621  35.858  1.00  0.00    -0.205 F 
ATOM     77  C   UNL A   1      38.773  34.108  36.916  1.00  0.00     0.022 A 
BRANCH  75  78
ATOM     78  S   UNL A   1      37.516  31.983  38.101  1.00  0.00     0.127 S 
ATOM     79  O   UNL A   1      38.261  32.230  39.335  1.00  0.00    -0.237 OA
ATOM     80  O   UNL A   1      36.298  32.782  37.954  1.00  0.00    -0.237 OA
ATOM     81  O   UNL A   1      37.371  30.585  37.722  1.00  0.00    -0.744 OA
ENDBRANCH  75  78
ENDBRANCH  57  71
BRANCH  58  82
ATOM     82  C   UNL A   1      44.089  27.332  27.501  1.00  0.00     0.023 A 
ATOM     83  C   UNL A   1      44.554  27.996  26.348  1.00  0.00     0.012 A 
ATOM     84  C   UNL A   1      44.221  25.932  27.587  1.00  0.00     0.148 A 
ATOM     85  C   UNL A   1      45.115  27.278  25.292  1.00  0.00     0.002 A 
ATOM     86  C   UNL A   1      44.828  25.229  26.552  1.00  0.00     0.091 A 
ATOM     87  F   UNL A   1      43.750  25.316  28.680  1.00  0.00    -0.205 F 
ATOM     88  C   UNL A   1      45.262  25.897  25.397  1.00  0.00     0.022 A 
BRANCH  86  89
ATOM     89  S   UNL A   1      45.161  23.466  26.647  1.00  0.00     0.127 S 
ATOM     90  O   UNL A   1      46.455  23.371  25.976  1.00  0.00    -0.237 OA
ATOM     91  O   UNL A   1      45.197  23.246  28.092  1.00  0.00    -0.237 OA
ATOM     92  O   UNL A   1      44.049  22.818  25.965  1.00  0.00    -0.744 OA
ENDBRANCH  86  89
ENDBRANCH  58  82
BRANCH  70  93
ATOM     93  C   UNL A   1      46.471  29.601  33.659  1.00  0.00     0.023 A 
ATOM     94  C   UNL A   1      47.421  30.634  33.530  1.00  0.00     0.012 A 
ATOM     95  C   UNL A   1      46.753  28.507  34.502  1.00  0.00     0.148 A 
ATOM     96  C   UNL A   1      48.641  30.566  34.205  1.00  0.00     0.002 A 
ATOM     97  C   UNL A   1      47.950  28.468  35.208  1.00  0.00     0.091 A 
ATOM     98  F   UNL A   1      45.848  27.523  34.596  1.00  0.00    -0.205 F 
ATOM     99  C   UNL A   1      48.899  29.490  35.053  1.00  0.00     0.022 A 
BRANCH  97 100
ATOM    100  S   UNL A   1      48.321  27.171  36.397  1.00  0.00     0.127 S 
ATOM    101  O   UNL A   1      48.188  25.969  35.576  1.00  0.00    -0.237 OA
ATOM    102  O   UNL A   1      49.693  27.491  36.792  1.00  0.00    -0.237 OA
ATOM    103  O   UNL A   1      47.338  27.316  37.462  1.00  0.00    -0.744 OA
ENDBRANCH  97 100
ENDBRANCH  70  93
ENDBRANCH  44  45
ENDBRANCH  37  39
ENDBRANCH  36  37
ENDBRANCH  35  36
ENDBRANCH  34  35
ENDBRANCH  33  34
ENDBRANCH  32  33
ENDBRANCH   1  32
TORSDOF 27
ENDMDL
MODEL 3
REMARK VINA RESULT:      -9.8      2.421      8.479
REMARK SMILES CC(C)(C)OC(=O)N1CCC[C@H]1C(=O)N[C@@H](Cc1ccccc1)C(=O)OCCOCCOCCOC(=O)c1ccc(-c2c3nc(c(-c4cccc(S(=O)(=O)[O-])c4F)c4ccc([nH]4)c(-c4cccc(S(=O)(=O)[O-])c4F)c4nc(c(-c5cccc(S(=O)(=O)[O-])c5F)c5ccc2[nH]5)C=C4)C=C3)cc1
REMARK SMILES IDX 30 1 29 2 28 3 27 4 26 5 24 6 25 7 16 8 15 9 13 10 14 11
REMARK SMILES IDX 12 13 8 14 9 15 10 16 11 17 6 18 7 19 5 20 2 21 1 22 3 23
REMARK SMILES IDX 4 24 17 25 18 26 19 27 23 28 20 29 22 30 21 31 31 32 32 33
REMARK SMILES IDX 33 34 34 35 35 36 36 37 37 38 38 39 39 40 100 41 40 42 99 43
REMARK SMILES IDX 41 44 42 45 43 46 93 47 44 48 98 49 92 50 94 51 45 52 97 53
REMARK SMILES IDX 91 54 90 55 46 57 78 58 58 59 77 60 59 61 62 62 76 63 95 64
REMARK SMILES IDX 60 65 61 66 75 68 96 69 63 70 47 71 48 72 56 73 49 74 51 75
REMARK SMILES IDX 57 76 50 77 52 78 53 79 54 80 55 81 79 82 80 83 88 84 81 85
REMARK SMILES IDX 83 86 89 87 82 88 84 89 85 90 86 91 87 92 64 93 65 94 73 95
REMARK SMILES IDX 66 96 68 97 74 98 67 99 69 100 70 101 71 102 72 103
REMARK H PARENT 15 12 94 56 62 67
REMARK Flexibility Score: inf
ROOT
ATOM      1  C   UNL A   1      34.108  31.486  27.674  1.00  0.00     0.188 C 
ENDROOT
BRANCH   1   2
ATOM      2  O   UNL A   1      34.594  30.162  27.460  1.00  0.00    -0.376 OA
BRANCH   2   3
ATOM      3  C   UNL A   1      33.684  29.166  27.012  1.00  0.00     0.202 C 
BRANCH   3   4
ATOM      4  C   UNL A   1      33.001  29.425  25.669  1.00  0.00     0.261 C 
BRANCH   4   5
ATOM      5  O   UNL A   1      32.730  28.212  24.937  1.00  0.00    -0.462 OA
BRANCH   5   6
ATOM      6  C   UNL A   1      33.120  28.208  23.639  1.00  0.00     0.329 C 
ATOM      7  O   UNL A   1      34.187  28.669  23.242  1.00  0.00    -0.250 OA
BRANCH   6   8
ATOM      8  C   UNL A   1      32.042  27.712  22.645  1.00  0.00     0.196 C 
BRANCH   8   9
ATOM      9  N   UNL A   1      32.209  26.580  21.704  1.00  0.00    -0.341 N 
ATOM     10  C   UNL A   1      32.915  25.405  21.782  1.00  0.00     0.243 C 
ATOM     11  O   UNL A   1      33.220  24.897  20.699  1.00  0.00    -0.273 OA
ATOM     12  H   UNL A   1      31.720  26.694  20.857  1.00  0.00     0.164 HD
BRANCH  10  13
ATOM     13  C   UNL A   1      33.245  24.725  23.138  1.00  0.00     0.178 C 
ATOM     14  N   UNL A   1      32.458  23.507  23.426  1.00  0.00    -0.296 N 
ATOM     15  C   UNL A   1      33.295  22.328  23.491  1.00  0.00     0.124 C 
ATOM     16  C   UNL A   1      34.639  22.878  23.906  1.00  0.00     0.024 C 
ATOM     17  C   UNL A   1      34.698  24.230  23.206  1.00  0.00     0.037 C 
BRANCH  14  18
ATOM     18  C   UNL A   1      31.129  23.527  23.782  1.00  0.00     0.410 C 
ATOM     19  O   UNL A   1      30.278  24.141  23.158  1.00  0.00    -0.224 OA
BRANCH  18  20
ATOM     20  O   UNL A   1      30.904  22.858  24.943  1.00  0.00    -0.444 OA
BRANCH  20  21
ATOM     21  C   UNL A   1      31.058  23.448  26.268  1.00  0.00     0.106 C 
ATOM     22  C   UNL A   1      29.807  23.005  27.044  1.00  0.00     0.056 C 
ATOM     23  C   UNL A   1      31.071  24.969  26.138  1.00  0.00     0.056 C 
ATOM     24  C   UNL A   1      32.276  22.960  27.056  1.00  0.00     0.056 C 
ENDBRANCH  20  21
ENDBRANCH  18  20
ENDBRANCH  14  18
ENDBRANCH  10  13
ENDBRANCH   8   9
BRANCH   8  25
ATOM     25  C   UNL A   1      30.776  27.479  23.508  1.00  0.00     0.072 C 
BRANCH  25  26
ATOM     26  C   UNL A   1      29.602  28.447  23.398  1.00  0.00    -0.045 A 
ATOM     27  C   UNL A   1      28.259  28.074  23.230  1.00  0.00     0.004 A 
ATOM     28  C   UNL A   1      29.892  29.821  23.430  1.00  0.00     0.004 A 
ATOM     29  C   UNL A   1      27.251  29.031  23.082  1.00  0.00     0.000 A 
ATOM     30  C   UNL A   1      28.883  30.780  23.294  1.00  0.00     0.000 A 
ATOM     31  C   UNL A   1      27.562  30.385  23.112  1.00  0.00     0.000 A 
ENDBRANCH  25  26
ENDBRANCH   8  25
ENDBRANCH   6   8
ENDBRANCH   5   6
ENDBRANCH   4   5
ENDBRANCH   3   4
ENDBRANCH   2   3
ENDBRANCH   1   2
BRANCH   1  32
ATOM     32  C   UNL A   1      34.659  32.288  28.868  1.00  0.00     0.188 C 
BRANCH  32  33
ATOM     33  O   UNL A   1      35.414  33.432  28.501  1.00  0.00    -0.376 OA
BRANCH  33  34
ATOM     34  C   UNL A   1      34.647  34.602  28.266  1.00  0.00     0.202 C 
BRANCH  34  35
ATOM     35  C   UNL A   1      33.430  34.755  29.188  1.00  0.00     0.261 C 
BRANCH  35  36
ATOM     36  O   UNL A   1      33.617  35.641  30.305  1.00  0.00    -0.460 OA
BRANCH  36  37
ATOM     37  C   UNL A   1      33.261  35.171  31.523  1.00  0.00     0.338 C 
ATOM     38  O   UNL A   1      32.134  35.124  31.980  1.00  0.00    -0.246 OA
BRANCH  37  39
ATOM     39  C   UNL A   1      34.457  34.546  32.132  1.00  0.00     0.060 A 
ATOM     40  C   UNL A   1      35.721  34.999  31.746  1.00  0.00     0.016 A 
ATOM     41  C   UNL A   1      34.345  33.528  33.077  1.00  0.00     0.016 A 
ATOM     42  C   UNL A   1      36.878  34.402  32.254  1.00  0.00     0.010 A 
ATOM     43  C   UNL A   1      35.504  32.912  33.569  1.00  0.00     0.010 A 
ATOM     44  C   UNL A   1      36.777  33.311  33.122  1.00  0.00    -0.014 A 
BRANCH  44  45
ATOM     45  C   UNL A   1      37.970  32.467  33.397  1.00  0.00     0.031 A 
ATOM     46  C   UNL A   1      38.791  32.754  34.629  1.00  0.00     0.074 A 
ATOM     47  C   UNL A   1      38.320  31.446  32.592  1.00  0.00     0.049 A 
ATOM     48  N   UNL A   1      39.871  32.158  35.067  1.00  0.00    -0.248 NA
ATOM     49  C   UNL A   1      38.320  33.850  35.492  1.00  0.00     0.031 C 
ATOM     50  C   UNL A   1      37.597  31.024  31.394  1.00  0.00     0.029 A 
ATOM     51  N   UNL A   1      39.396  30.593  32.653  1.00  0.00    -0.354 N 
ATOM     52  C   UNL A   1      40.208  32.806  36.251  1.00  0.00     0.074 A 
ATOM     53  C   UNL A   1      39.229  33.852  36.454  1.00  0.00     0.031 C 
ATOM     54  C   UNL A   1      38.270  30.016  30.812  1.00  0.00     0.029 A 
ATOM     55  C   UNL A   1      39.485  29.741  31.579  1.00  0.00     0.049 A 
ATOM     56  H   UNL A   1      40.043  30.595  33.396  1.00  0.00     0.167 HD
ATOM     57  C   UNL A   1      41.226  32.549  37.105  1.00  0.00     0.034 A 
ATOM     58  C   UNL A   1      40.450  28.860  31.238  1.00  0.00     0.034 A 
ATOM     59  C   UNL A   1      42.225  31.538  36.898  1.00  0.00     0.049 A 
ATOM     60  C   UNL A   1      41.648  28.683  32.139  1.00  0.00     0.074 A 
ATOM     61  C   UNL A   1      43.302  31.213  37.704  1.00  0.00     0.029 A 
ATOM     62  N   UNL A   1      42.288  30.706  35.791  1.00  0.00    -0.354 N 
ATOM     63  N   UNL A   1      41.894  29.227  33.307  1.00  0.00    -0.248 NA
ATOM     64  C   UNL A   1      42.690  27.749  31.684  1.00  0.00     0.031 C 
ATOM     65  C   UNL A   1      44.035  30.205  37.067  1.00  0.00     0.029 A 
ATOM     66  C   UNL A   1      43.397  29.883  35.880  1.00  0.00     0.049 A 
ATOM     67  H   UNL A   1      41.639  30.701  35.052  1.00  0.00     0.167 HD
ATOM     68  C   UNL A   1      43.093  28.668  33.744  1.00  0.00     0.074 A 
ATOM     69  C   UNL A   1      43.518  27.736  32.721  1.00  0.00     0.031 C 
ATOM     70  C   UNL A   1      43.783  28.914  34.886  1.00  0.00     0.034 A 
BRANCH  57  71
ATOM     71  C   UNL A   1      41.295  33.382  38.357  1.00  0.00     0.023 A 
ATOM     72  C   UNL A   1      40.634  32.936  39.520  1.00  0.00     0.012 A 
ATOM     73  C   UNL A   1      42.018  34.589  38.389  1.00  0.00     0.148 A 
ATOM     74  C   UNL A   1      40.664  33.697  40.688  1.00  0.00     0.002 A 
ATOM     75  C   UNL A   1      42.074  35.324  39.568  1.00  0.00     0.091 A 
ATOM     76  F   UNL A   1      42.614  35.008  37.264  1.00  0.00    -0.205 F 
ATOM     77  C   UNL A   1      41.390  34.885  40.714  1.00  0.00     0.022 A 
BRANCH  75  78
ATOM     78  S   UNL A   1      43.030  36.837  39.713  1.00  0.00     0.127 S 
ATOM     79  O   UNL A   1      42.333  37.717  38.777  1.00  0.00    -0.237 OA
ATOM     80  O   UNL A   1      42.851  37.183  41.124  1.00  0.00    -0.237 OA
ATOM     81  O   UNL A   1      44.394  36.482  39.348  1.00  0.00    -0.744 OA
ENDBRANCH  75  78
ENDBRANCH  57  71
BRANCH  58  82
ATOM     82  C   UNL A   1      40.320  28.051  29.993  1.00  0.00     0.023 A 
ATOM     83  C   UNL A   1      39.392  26.992  29.950  1.00  0.00     0.012 A 
ATOM     84  C   UNL A   1      41.110  28.318  28.857  1.00  0.00     0.148 A 
ATOM     85  C   UNL A   1      39.270  26.199  28.809  1.00  0.00     0.002 A 
ATOM     86  C   UNL A   1      40.946  27.556  27.706  1.00  0.00     0.091 A 
ATOM     87  F   UNL A   1      42.005  29.313  28.926  1.00  0.00    -0.205 F 
ATOM     88  C   UNL A   1      40.038  26.486  27.684  1.00  0.00     0.022 A 
BRANCH  86  89
ATOM     89  S   UNL A   1      41.810  27.923  26.174  1.00  0.00     0.127 S 
ATOM     90  O   UNL A   1      41.246  29.222  25.817  1.00  0.00    -0.237 OA
ATOM     91  O   UNL A   1      43.204  27.956  26.617  1.00  0.00    -0.237 OA
ATOM     92  O   UNL A   1      41.491  26.827  25.269  1.00  0.00    -0.744 OA
ENDBRANCH  86  89
ENDBRANCH  58  82
BRANCH  70  93
ATOM     93  C   UNL A   1      45.051  28.135  35.127  1.00  0.00     0.023 A 
ATOM     94  C   UNL A   1      46.292  28.671  34.728  1.00  0.00     0.012 A 
ATOM     95  C   UNL A   1      45.022  26.909  35.822  1.00  0.00     0.148 A 
ATOM     96  C   UNL A   1      47.479  27.986  34.990  1.00  0.00     0.002 A 
ATOM     97  C   UNL A   1      46.212  26.255  36.121  1.00  0.00     0.091 A 
ATOM     98  F   UNL A   1      43.831  26.403  36.175  1.00  0.00    -0.205 F 
ATOM     99  C   UNL A   1      47.440  26.786  35.698  1.00  0.00     0.022 A 
BRANCH  97 100
ATOM    100  S   UNL A   1      46.259  24.757  37.114  1.00  0.00     0.127 S 
ATOM    101  O   UNL A   1      46.767  25.261  38.389  1.00  0.00    -0.237 OA
ATOM    102  O   UNL A   1      44.853  24.352  37.137  1.00  0.00    -0.237 OA
ATOM    103  O   UNL A   1      47.139  23.838  36.406  1.00  0.00    -0.744 OA
ENDBRANCH  97 100
ENDBRANCH  70  93
ENDBRANCH  44  45
ENDBRANCH  37  39
ENDBRANCH  36  37
ENDBRANCH  35  36
ENDBRANCH  34  35
ENDBRANCH  33  34
ENDBRANCH  32  33
ENDBRANCH   1  32
TORSDOF 27
ENDMDL
