MODEL 1
REMARK VINA RESULT:      -8.8      0.000      0.000
REMARK SMILES CC(C)C[C@H](NC(=O)CNC(=O)[C@@H](NC(=O)OCc1ccccc1)C(C)C)C(=O)OCCOCCOCCOC(=O)c1ccc(-c2c3nc(c(-c4cccc(S(=O)(=O)[O-])c4F)c4ccc([nH]4)c(-c4cccc(S(=O)(=O)[O-])c4F)c4nc(c(-c5cccc(S(=O)(=O)[O-])c5F)c5ccc2[nH]5)C=C4)C=C3)cc1
REMARK SMILES IDX 32 1 31 2 30 3 28 4 29 5 5 6 4 7 2 8 1 9 3 10 6 11 7 12 8 14
REMARK SMILES IDX 9 15 10 16 11 17 12 19 13 20 14 21 15 22 16 24 17 25 18 26
REMARK SMILES IDX 19 27 20 28 24 29 21 30 23 31 22 32 25 33 26 34 27 35 33 36
REMARK SMILES IDX 34 37 35 38 36 39 37 40 38 41 39 42 40 43 41 44 42 45 43 46
REMARK SMILES IDX 104 47 44 48 103 49 45 50 46 51 47 52 97 53 48 54 102 55
REMARK SMILES IDX 96 56 98 57 49 58 101 59 95 60 94 61 50 63 82 64 62 65 81 66
REMARK SMILES IDX 63 67 66 68 80 69 99 70 64 71 65 72 79 74 100 75 67 76 51 77
REMARK SMILES IDX 52 78 60 79 53 80 55 81 61 82 54 83 56 84 57 85 58 86 59 87
REMARK SMILES IDX 83 88 84 89 92 90 85 91 87 92 93 93 86 94 88 95 89 96 90 97
REMARK SMILES IDX 91 98 68 99 69 100 77 101 70 102 72 103 78 104 71 105 73 106
REMARK SMILES IDX 74 107 75 108 76 109
REMARK H PARENT 6 13 10 18 14 23 98 62 66 73
REMARK Flexibility Score: inf
ROOT
ATOM      1  C   UNL A   1      37.362  23.695  24.944  1.00  0.00     0.202 C 
ENDROOT
BRANCH   1   2
ATOM      2  C   UNL A   1      36.949  23.309  23.507  1.00  0.00     0.261 C 
BRANCH   2   3
ATOM      3  O   UNL A   1      35.642  23.665  23.017  1.00  0.00    -0.462 OA
BRANCH   3   4
ATOM      4  C   UNL A   1      34.666  22.770  23.328  1.00  0.00     0.328 C 
ATOM      5  O   UNL A   1      34.911  21.704  23.886  1.00  0.00    -0.250 OA
BRANCH   4   6
ATOM      6  C   UNL A   1      33.250  23.143  22.794  1.00  0.00     0.192 C 
BRANCH   6   7
ATOM      7  C   UNL A   1      32.305  21.940  22.840  1.00  0.00     0.040 C 
BRANCH   7   8
ATOM      8  C   UNL A   1      32.297  21.093  24.139  1.00  0.00    -0.015 C 
ATOM      9  C   UNL A   1      31.138  21.308  25.113  1.00  0.00     0.007 C 
ATOM     10  C   UNL A   1      32.300  19.616  23.756  1.00  0.00     0.007 C 
ENDBRANCH   7   8
ENDBRANCH   6   7
BRANCH   6  11
ATOM     11  N   UNL A   1      33.178  23.825  21.493  1.00  0.00    -0.341 N 
ATOM     12  C   UNL A   1      32.805  25.108  21.189  1.00  0.00     0.240 C 
ATOM     13  H   UNL A   1      33.439  23.275  20.721  1.00  0.00     0.164 HD
ATOM     14  O   UNL A   1      33.025  25.497  20.036  1.00  0.00    -0.273 OA
BRANCH  12  15
ATOM     15  C   UNL A   1      32.267  26.126  22.235  1.00  0.00     0.216 C 
BRANCH  15  16
ATOM     16  N   UNL A   1      31.020  25.815  22.917  1.00  0.00    -0.345 N 
ATOM     17  C   UNL A   1      30.027  26.527  23.507  1.00  0.00     0.243 C 
ATOM     18  H   UNL A   1      30.856  24.844  22.962  1.00  0.00     0.164 HD
ATOM     19  O   UNL A   1      29.029  25.857  23.813  1.00  0.00    -0.273 OA
BRANCH  17  20
ATOM     20  C   UNL A   1      30.020  28.060  23.794  1.00  0.00     0.177 C 
BRANCH  20  21
ATOM     21  N   UNL A   1      31.320  28.479  24.249  1.00  0.00    -0.309 N 
ATOM     22  C   UNL A   1      31.991  28.233  25.383  1.00  0.00     0.408 C 
ATOM     23  H   UNL A   1      31.805  29.050  23.610  1.00  0.00     0.167 HD
ATOM     24  O   UNL A   1      32.797  29.020  25.821  1.00  0.00    -0.225 OA
BRANCH  22  25
ATOM     25  O   UNL A   1      31.766  27.013  25.873  1.00  0.00    -0.445 OA
BRANCH  25  26
ATOM     26  C   UNL A   1      33.001  26.331  25.866  1.00  0.00     0.270 C 
BRANCH  26  27
ATOM     27  C   UNL A   1      32.952  24.866  26.340  1.00  0.00    -0.011 A 
ATOM     28  C   UNL A   1      31.868  24.218  26.951  1.00  0.00     0.007 A 
ATOM     29  C   UNL A   1      34.153  24.169  26.315  1.00  0.00     0.007 A 
ATOM     30  C   UNL A   1      32.039  22.986  27.597  1.00  0.00     0.000 A 
ATOM     31  C   UNL A   1      34.372  23.017  27.062  1.00  0.00     0.000 A 
ATOM     32  C   UNL A   1      33.306  22.423  27.712  1.00  0.00     0.000 A 
ENDBRANCH  26  27
ENDBRANCH  25  26
ENDBRANCH  22  25
ENDBRANCH  20  21
BRANCH  20  33
ATOM     33  C   UNL A   1      29.288  28.934  22.759  1.00  0.00     0.015 C 
ATOM     34  C   UNL A   1      27.779  28.663  22.846  1.00  0.00     0.010 C 
ATOM     35  C   UNL A   1      29.476  30.444  22.999  1.00  0.00     0.010 C 
ENDBRANCH  20  33
ENDBRANCH  17  20
ENDBRANCH  15  16
ENDBRANCH  12  15
ENDBRANCH   6  11
ENDBRANCH   4   6
ENDBRANCH   3   4
ENDBRANCH   2   3
ENDBRANCH   1   2
BRANCH   1  36
ATOM     36  O   UNL A   1      37.651  22.708  25.914  1.00  0.00    -0.376 OA
BRANCH  36  37
ATOM     37  C   UNL A   1      38.008  21.430  25.419  1.00  0.00     0.188 C 
BRANCH  37  38
ATOM     38  C   UNL A   1      39.447  21.039  25.801  1.00  0.00     0.188 C 
BRANCH  38  39
ATOM     39  O   UNL A   1      40.299  21.997  26.415  1.00  0.00    -0.376 OA
BRANCH  39  40
ATOM     40  C   UNL A   1      41.701  21.793  26.375  1.00  0.00     0.202 C 
BRANCH  40  41
ATOM     41  C   UNL A   1      42.618  22.651  25.470  1.00  0.00     0.261 C 
BRANCH  41  42
ATOM     42  O   UNL A   1      44.050  22.596  25.663  1.00  0.00    -0.460 OA
BRANCH  42  43
ATOM     43  C   UNL A   1      44.784  23.590  25.091  1.00  0.00     0.338 C 
ATOM     44  O   UNL A   1      45.413  23.499  24.051  1.00  0.00    -0.246 OA
BRANCH  43  45
ATOM     45  C   UNL A   1      44.615  24.880  25.840  1.00  0.00     0.060 A 
ATOM     46  C   UNL A   1      44.362  26.059  25.121  1.00  0.00     0.016 A 
ATOM     47  C   UNL A   1      44.710  24.967  27.232  1.00  0.00     0.016 A 
ATOM     48  C   UNL A   1      44.112  27.293  25.783  1.00  0.00     0.010 A 
ATOM     49  C   UNL A   1      44.464  26.206  27.889  1.00  0.00     0.010 A 
ATOM     50  C   UNL A   1      44.081  27.380  27.186  1.00  0.00    -0.014 A 
BRANCH  50  51
ATOM     51  C   UNL A   1      43.911  28.692  27.941  1.00  0.00     0.031 A 
ATOM     52  C   UNL A   1      45.186  29.438  28.169  1.00  0.00     0.074 A 
ATOM     53  C   UNL A   1      42.785  29.264  28.456  1.00  0.00     0.049 A 
ATOM     54  N   UNL A   1      45.345  30.642  28.640  1.00  0.00    -0.248 NA
ATOM     55  C   UNL A   1      46.428  28.768  27.750  1.00  0.00     0.031 C 
ATOM     56  C   UNL A   1      41.427  28.860  28.199  1.00  0.00     0.029 A 
ATOM     57  N   UNL A   1      42.573  30.327  29.327  1.00  0.00    -0.354 N 
ATOM     58  C   UNL A   1      46.695  30.897  28.522  1.00  0.00     0.074 A 
ATOM     59  C   UNL A   1      47.323  29.699  28.014  1.00  0.00     0.031 C 
ATOM     60  C   UNL A   1      40.538  29.487  28.976  1.00  0.00     0.029 A 
ATOM     61  C   UNL A   1      41.251  30.476  29.742  1.00  0.00     0.049 A 
ATOM     62  H   UNL A   1      43.296  30.925  29.626  1.00  0.00     0.167 HD
ATOM     63  C   UNL A   1      47.352  32.046  28.779  1.00  0.00     0.034 A 
ATOM     64  C   UNL A   1      40.613  31.344  30.557  1.00  0.00     0.034 A 
ATOM     65  C   UNL A   1      46.760  33.180  29.420  1.00  0.00     0.049 A 
ATOM     66  C   UNL A   1      41.399  32.535  30.998  1.00  0.00     0.074 A 
ATOM     67  C   UNL A   1      47.369  34.358  29.804  1.00  0.00     0.029 A 
ATOM     68  N   UNL A   1      45.440  33.246  29.847  1.00  0.00    -0.354 N 
ATOM     69  N   UNL A   1      42.651  32.810  30.737  1.00  0.00    -0.248 NA
ATOM     70  C   UNL A   1      40.678  33.590  31.721  1.00  0.00     0.031 C 
ATOM     71  C   UNL A   1      46.440  35.102  30.540  1.00  0.00     0.029 A 
ATOM     72  C   UNL A   1      45.230  34.425  30.541  1.00  0.00     0.049 A 
ATOM     73  H   UNL A   1      44.757  32.558  29.681  1.00  0.00     0.167 HD
ATOM     74  C   UNL A   1      42.851  34.102  31.185  1.00  0.00     0.074 A 
ATOM     75  C   UNL A   1      41.593  34.551  31.747  1.00  0.00     0.031 C 
ATOM     76  C   UNL A   1      43.974  34.851  31.104  1.00  0.00     0.034 A 
BRANCH  63  77
ATOM     77  C   UNL A   1      48.808  32.022  28.434  1.00  0.00     0.023 A 
ATOM     78  C   UNL A   1      49.762  31.699  29.425  1.00  0.00     0.012 A 
ATOM     79  C   UNL A   1      49.229  32.494  27.182  1.00  0.00     0.148 A 
ATOM     80  C   UNL A   1      51.117  31.926  29.194  1.00  0.00     0.002 A 
ATOM     81  C   UNL A   1      50.582  32.671  26.944  1.00  0.00     0.091 A 
ATOM     82  F   UNL A   1      48.296  32.831  26.281  1.00  0.00    -0.205 F 
ATOM     83  C   UNL A   1      51.525  32.412  27.954  1.00  0.00     0.022 A 
BRANCH  81  84
ATOM     84  S   UNL A   1      51.205  33.268  25.374  1.00  0.00     0.127 S 
ATOM     85  O   UNL A   1      50.215  34.286  25.031  1.00  0.00    -0.237 OA
ATOM     86  O   UNL A   1      52.517  33.789  25.754  1.00  0.00    -0.237 OA
ATOM     87  O   UNL A   1      51.238  32.114  24.486  1.00  0.00    -0.744 OA
ENDBRANCH  81  84
ENDBRANCH  63  77
BRANCH  64  88
ATOM     88  C   UNL A   1      39.133  31.249  30.825  1.00  0.00     0.023 A 
ATOM     89  C   UNL A   1      38.667  30.461  31.902  1.00  0.00     0.012 A 
ATOM     90  C   UNL A   1      38.183  31.925  30.029  1.00  0.00     0.148 A 
ATOM     91  C   UNL A   1      37.298  30.312  32.151  1.00  0.00     0.002 A 
ATOM     92  C   UNL A   1      36.819  31.799  30.304  1.00  0.00     0.091 A 
ATOM     93  F   UNL A   1      38.627  32.672  29.009  1.00  0.00    -0.205 F 
ATOM     94  C   UNL A   1      36.375  30.980  31.354  1.00  0.00     0.022 A 
BRANCH  92  95
ATOM     95  S   UNL A   1      35.541  32.678  29.389  1.00  0.00     0.127 S 
ATOM     96  O   UNL A   1      36.334  33.575  28.551  1.00  0.00    -0.237 OA
ATOM     97  O   UNL A   1      34.882  31.588  28.669  1.00  0.00    -0.237 OA
ATOM     98  O   UNL A   1      34.710  33.327  30.394  1.00  0.00    -0.744 OA
ENDBRANCH  92  95
ENDBRANCH  64  88
BRANCH  76  99
ATOM     99  C   UNL A   1      43.891  36.254  31.625  1.00  0.00     0.023 A 
ATOM    100  C   UNL A   1      43.951  36.506  33.009  1.00  0.00     0.012 A 
ATOM    101  C   UNL A   1      43.817  37.326  30.720  1.00  0.00     0.148 A 
ATOM    102  C   UNL A   1      43.904  37.813  33.486  1.00  0.00     0.002 A 
ATOM    103  C   UNL A   1      43.842  38.626  31.197  1.00  0.00     0.091 A 
ATOM    104  F   UNL A   1      43.724  37.053  29.409  1.00  0.00    -0.205 F 
ATOM    105  C   UNL A   1      43.867  38.872  32.579  1.00  0.00     0.022 A 
BRANCH 103 106
ATOM    106  S   UNL A   1      43.925  40.041  30.099  1.00  0.00     0.127 S 
ATOM    107  O   UNL A   1      42.542  40.137  29.633  1.00  0.00    -0.237 OA
ATOM    108  O   UNL A   1      44.342  41.108  31.008  1.00  0.00    -0.237 OA
ATOM    109  O   UNL A   1      44.905  39.701  29.076  1.00  0.00    -0.744 OA
ENDBRANCH 103 106
ENDBRANCH  76  99
ENDBRANCH  50  51
ENDBRANCH  43  45
ENDBRANCH  42  43
ENDBRANCH  41  42
ENDBRANCH  40  41
ENDBRANCH  39  40
ENDBRANCH  38  39
ENDBRANCH  37  38
ENDBRANCH  36  37
ENDBRANCH   1  36
TORSDOF 31
ENDMDL
MODEL 2
REMARK VINA RESULT:      -8.7      3.280      6.441
REMARK SMILES CC(C)C[C@H](NC(=O)CNC(=O)[C@@H](NC(=O)OCc1ccccc1)C(C)C)C(=O)OCCOCCOCCOC(=O)c1ccc(-c2c3nc(c(-c4cccc(S(=O)(=O)[O-])c4F)c4ccc([nH]4)c(-c4cccc(S(=O)(=O)[O-])c4F)c4nc(c(-c5cccc(S(=O)(=O)[O-])c5F)c5ccc2[nH]5)C=C4)C=C3)cc1
REMARK SMILES IDX 32 1 31 2 30 3 28 4 29 5 5 6 4 7 2 8 1 9 3 10 6 11 7 12 8 14
REMARK SMILES IDX 9 15 10 16 11 17 12 19 13 20 14 21 15 22 16 24 17 25 18 26
REMARK SMILES IDX 19 27 20 28 24 29 21 30 23 31 22 32 25 33 26 34 27 35 33 36
REMARK SMILES IDX 34 37 35 38 36 39 37 40 38 41 39 42 40 43 41 44 42 45 43 46
REMARK SMILES IDX 104 47 44 48 103 49 45 50 46 51 47 52 97 53 48 54 102 55
REMARK SMILES IDX 96 56 98 57 49 58 101 59 95 60 94 61 50 63 82 64 62 65 81 66
REMARK SMILES IDX 63 67 66 68 80 69 99 70 64 71 65 72 79 74 100 75 67 76 51 77
REMARK SMILES IDX 52 78 60 79 53 80 55 81 61 82 54 83 56 84 57 85 58 86 59 87
REMARK SMILES IDX 83 88 84 89 92 90 85 91 87 92 93 93 86 94 88 95 89 96 90 97
REMARK SMILES IDX 91 98 68 99 69 100 77 101 70 102 72 103 78 104 71 105 73 106
REMARK SMILES IDX 74 107 75 108 76 109
REMARK H PARENT 6 13 10 18 14 23 98 62 66 73
REMARK Flexibility Score: inf
ROOT
ATOM      1  C   UNL A   1      34.985  24.034  25.826  1.00  0.00     0.202 C 
ENDROOT
BRANCH   1   2
ATOM      2  C   UNL A   1      33.820  25.040  25.949  1.00  0.00     0.261 C 
BRANCH   2   3
ATOM      3  O   UNL A   1      33.990  26.394  25.488  1.00  0.00    -0.462 OA
BRANCH   3   4
ATOM      4  C   UNL A   1      33.168  26.742  24.461  1.00  0.00     0.328 C 
ATOM      5  O   UNL A   1      33.541  26.725  23.291  1.00  0.00    -0.250 OA
BRANCH   4   6
ATOM      6  C   UNL A   1      31.778  27.293  24.901  1.00  0.00     0.192 C 
BRANCH   6   7
ATOM      7  C   UNL A   1      31.503  28.665  24.280  1.00  0.00     0.040 C 
BRANCH   7   8
ATOM      8  C   UNL A   1      30.073  28.925  23.739  1.00  0.00    -0.015 C 
ATOM      9  C   UNL A   1      29.847  30.202  22.929  1.00  0.00     0.007 C 
ATOM     10  C   UNL A   1      29.668  27.750  22.853  1.00  0.00     0.007 C 
ENDBRANCH   7   8
ENDBRANCH   6   7
BRANCH   6  11
ATOM     11  N   UNL A   1      31.478  27.294  26.341  1.00  0.00    -0.341 N 
ATOM     12  C   UNL A   1      31.797  28.211  27.308  1.00  0.00     0.240 C 
ATOM     13  H   UNL A   1      30.968  26.516  26.660  1.00  0.00     0.164 HD
ATOM     14  O   UNL A   1      31.252  28.076  28.410  1.00  0.00    -0.273 OA
BRANCH  12  15
ATOM     15  C   UNL A   1      32.673  29.471  27.054  1.00  0.00     0.216 C 
BRANCH  15  16
ATOM     16  N   UNL A   1      34.115  29.295  26.958  1.00  0.00    -0.345 N 
ATOM     17  C   UNL A   1      35.194  29.674  27.688  1.00  0.00     0.243 C 
ATOM     18  H   UNL A   1      34.371  28.768  26.166  1.00  0.00     0.164 HD
ATOM     19  O   UNL A   1      36.259  29.141  27.342  1.00  0.00    -0.273 OA
BRANCH  17  20
ATOM     20  C   UNL A   1      35.206  30.661  28.896  1.00  0.00     0.177 C 
BRANCH  20  21
ATOM     21  N   UNL A   1      35.773  30.014  30.051  1.00  0.00    -0.309 N 
ATOM     22  C   UNL A   1      36.963  29.430  30.251  1.00  0.00     0.408 C 
ATOM     23  H   UNL A   1      35.180  29.999  30.835  1.00  0.00     0.167 HD
ATOM     24  O   UNL A   1      37.097  28.532  31.048  1.00  0.00    -0.225 OA
BRANCH  22  25
ATOM     25  O   UNL A   1      37.959  30.024  29.592  1.00  0.00    -0.445 OA
BRANCH  25  26
ATOM     26  C   UNL A   1      39.115  29.243  29.799  1.00  0.00     0.270 C 
BRANCH  26  27
ATOM     27  C   UNL A   1      39.638  28.491  28.559  1.00  0.00    -0.011 A 
ATOM     28  C   UNL A   1      40.227  27.218  28.537  1.00  0.00     0.007 A 
ATOM     29  C   UNL A   1      39.684  29.214  27.374  1.00  0.00     0.007 A 
ATOM     30  C   UNL A   1      40.921  26.768  27.407  1.00  0.00     0.000 A 
ATOM     31  C   UNL A   1      40.479  28.842  26.296  1.00  0.00     0.000 A 
ATOM     32  C   UNL A   1      41.107  27.609  26.314  1.00  0.00     0.000 A 
ENDBRANCH  26  27
ENDBRANCH  25  26
ENDBRANCH  22  25
ENDBRANCH  20  21
BRANCH  20  33
ATOM     33  C   UNL A   1      35.635  32.105  28.579  1.00  0.00     0.015 C 
ATOM     34  C   UNL A   1      34.521  32.800  27.784  1.00  0.00     0.010 C 
ATOM     35  C   UNL A   1      35.871  32.958  29.840  1.00  0.00     0.010 C 
ENDBRANCH  20  33
ENDBRANCH  17  20
ENDBRANCH  15  16
ENDBRANCH  12  15
ENDBRANCH   6  11
ENDBRANCH   4   6
ENDBRANCH   3   4
ENDBRANCH   2   3
ENDBRANCH   1   2
BRANCH   1  36
ATOM     36  O   UNL A   1      35.719  23.906  24.624  1.00  0.00    -0.376 OA
BRANCH  36  37
ATOM     37  C   UNL A   1      37.013  23.344  24.740  1.00  0.00     0.188 C 
BRANCH  37  38
ATOM     38  C   UNL A   1      37.602  23.520  26.151  1.00  0.00     0.188 C 
BRANCH  38  39
ATOM     39  O   UNL A   1      38.926  24.013  26.307  1.00  0.00    -0.376 OA
BRANCH  39  40
ATOM     40  C   UNL A   1      39.784  23.389  27.246  1.00  0.00     0.202 C 
BRANCH  40  41
ATOM     41  C   UNL A   1      40.732  22.237  26.836  1.00  0.00     0.261 C 
BRANCH  41  42
ATOM     42  O   UNL A   1      42.159  22.410  26.985  1.00  0.00    -0.460 OA
BRANCH  42  43
ATOM     43  C   UNL A   1      42.842  22.842  25.890  1.00  0.00     0.338 C 
ATOM     44  O   UNL A   1      42.815  22.325  24.786  1.00  0.00    -0.246 OA
BRANCH  43  45
ATOM     45  C   UNL A   1      43.544  24.139  26.173  1.00  0.00     0.060 A 
ATOM     46  C   UNL A   1      43.792  24.505  27.506  1.00  0.00     0.016 A 
ATOM     47  C   UNL A   1      43.957  25.014  25.164  1.00  0.00     0.016 A 
ATOM     48  C   UNL A   1      44.525  25.680  27.828  1.00  0.00     0.010 A 
ATOM     49  C   UNL A   1      44.687  26.191  25.493  1.00  0.00     0.010 A 
ATOM     50  C   UNL A   1      45.057  26.512  26.827  1.00  0.00    -0.014 A 
BRANCH  50  51
ATOM     51  C   UNL A   1      45.768  27.826  27.120  1.00  0.00     0.031 A 
ATOM     52  C   UNL A   1      47.258  27.723  27.159  1.00  0.00     0.074 A 
ATOM     53  C   UNL A   1      45.249  29.062  27.375  1.00  0.00     0.049 A 
ATOM     54  N   UNL A   1      48.134  28.685  27.232  1.00  0.00    -0.248 NA
ATOM     55  C   UNL A   1      47.830  26.373  27.032  1.00  0.00     0.031 C 
ATOM     56  C   UNL A   1      43.878  29.468  27.197  1.00  0.00     0.029 A 
ATOM     57  N   UNL A   1      45.802  30.244  27.854  1.00  0.00    -0.354 N 
ATOM     58  C   UNL A   1      49.358  28.064  27.103  1.00  0.00     0.074 A 
ATOM     59  C   UNL A   1      49.121  26.640  27.029  1.00  0.00     0.031 C 
ATOM     60  C   UNL A   1      43.623  30.682  27.693  1.00  0.00     0.029 A 
ATOM     61  C   UNL A   1      44.871  31.242  28.139  1.00  0.00     0.049 A 
ATOM     62  H   UNL A   1      46.771  30.367  27.982  1.00  0.00     0.167 HD
ATOM     63  C   UNL A   1      50.577  28.634  27.014  1.00  0.00     0.034 A 
ATOM     64  C   UNL A   1      44.961  32.505  28.608  1.00  0.00     0.034 A 
ATOM     65  C   UNL A   1      50.827  30.025  27.235  1.00  0.00     0.049 A 
ATOM     66  C   UNL A   1      46.335  33.085  28.685  1.00  0.00     0.074 A 
ATOM     67  C   UNL A   1      52.042  30.682  27.255  1.00  0.00     0.029 A 
ATOM     68  N   UNL A   1      49.854  30.962  27.557  1.00  0.00    -0.354 N 
ATOM     69  N   UNL A   1      47.470  32.496  28.409  1.00  0.00    -0.248 NA
ATOM     70  C   UNL A   1      46.448  34.514  29.003  1.00  0.00     0.031 C 
ATOM     71  C   UNL A   1      51.813  31.997  27.674  1.00  0.00     0.029 A 
ATOM     72  C   UNL A   1      50.448  32.181  27.832  1.00  0.00     0.049 A 
ATOM     73  H   UNL A   1      48.886  30.784  27.586  1.00  0.00     0.167 HD
ATOM     74  C   UNL A   1      48.425  33.494  28.434  1.00  0.00     0.074 A 
ATOM     75  C   UNL A   1      47.737  34.727  28.767  1.00  0.00     0.031 C 
ATOM     76  C   UNL A   1      49.748  33.394  28.173  1.00  0.00     0.034 A 
BRANCH  63  77
ATOM     77  C   UNL A   1      51.697  27.675  26.761  1.00  0.00     0.023 A 
ATOM     78  C   UNL A   1      52.287  26.981  27.842  1.00  0.00     0.012 A 
ATOM     79  C   UNL A   1      52.272  27.605  25.484  1.00  0.00     0.148 A 
ATOM     80  C   UNL A   1      53.486  26.294  27.663  1.00  0.00     0.002 A 
ATOM     81  C   UNL A   1      53.439  26.880  25.305  1.00  0.00     0.091 A 
ATOM     82  F   UNL A   1      51.711  28.308  24.492  1.00  0.00    -0.205 F 
ATOM     83  C   UNL A   1      54.061  26.245  26.395  1.00  0.00     0.022 A 
BRANCH  81  84
ATOM     84  S   UNL A   1      54.239  26.737  23.708  1.00  0.00     0.127 S 
ATOM     85  O   UNL A   1      54.276  28.131  23.271  1.00  0.00    -0.237 OA
ATOM     86  O   UNL A   1      55.536  26.172  24.075  1.00  0.00    -0.237 OA
ATOM     87  O   UNL A   1      53.393  25.861  22.908  1.00  0.00    -0.744 OA
ENDBRANCH  81  84
ENDBRANCH  63  77
BRANCH  64  88
ATOM     88  C   UNL A   1      43.742  33.366  28.823  1.00  0.00     0.023 A 
ATOM     89  C   UNL A   1      43.433  34.385  27.896  1.00  0.00     0.012 A 
ATOM     90  C   UNL A   1      42.889  33.190  29.935  1.00  0.00     0.148 A 
ATOM     91  C   UNL A   1      42.338  35.234  28.090  1.00  0.00     0.002 A 
ATOM     92  C   UNL A   1      41.777  34.019  30.105  1.00  0.00     0.091 A 
ATOM     93  F   UNL A   1      43.183  32.222  30.814  1.00  0.00    -0.205 F 
ATOM     94  C   UNL A   1      41.510  35.051  29.191  1.00  0.00     0.022 A 
BRANCH  92  95
ATOM     95  S   UNL A   1      40.596  33.824  31.449  1.00  0.00     0.127 S 
ATOM     96  O   UNL A   1      41.222  34.602  32.516  1.00  0.00    -0.237 OA
ATOM     97  O   UNL A   1      39.389  34.423  30.879  1.00  0.00    -0.237 OA
ATOM     98  O   UNL A   1      40.502  32.390  31.689  1.00  0.00    -0.744 OA
ENDBRANCH  92  95
ENDBRANCH  64  88
BRANCH  76  99
ATOM     99  C   UNL A   1      50.546  34.661  28.220  1.00  0.00     0.023 A 
ATOM    100  C   UNL A   1      51.069  35.131  29.440  1.00  0.00     0.012 A 
ATOM    101  C   UNL A   1      50.825  35.349  27.026  1.00  0.00     0.148 A 
ATOM    102  C   UNL A   1      51.835  36.293  29.472  1.00  0.00     0.002 A 
ATOM    103  C   UNL A   1      51.646  36.463  27.056  1.00  0.00     0.091 A 
ATOM    104  F   UNL A   1      50.282  34.897  25.885  1.00  0.00    -0.205 F 
ATOM    105  C   UNL A   1      52.137  36.948  28.278  1.00  0.00     0.022 A 
BRANCH 103 106
ATOM    106  S   UNL A   1      52.185  37.288  25.557  1.00  0.00     0.127 S 
ATOM    107  O   UNL A   1      53.117  36.309  24.999  1.00  0.00    -0.237 OA
ATOM    108  O   UNL A   1      50.931  37.431  24.820  1.00  0.00    -0.237 OA
ATOM    109  O   UNL A   1      52.784  38.546  25.982  1.00  0.00    -0.744 OA
ENDBRANCH 103 106
ENDBRANCH  76  99
ENDBRANCH  50  51
ENDBRANCH  43  45
ENDBRANCH  42  43
ENDBRANCH  41  42
ENDBRANCH  40  41
ENDBRANCH  39  40
ENDBRANCH  38  39
ENDBRANCH  37  38
ENDBRANCH  36  37
ENDBRANCH   1  36
TORSDOF 31
ENDMDL
MODEL 3
REMARK VINA RESULT:      -8.6      3.756      8.997
REMARK SMILES CC(C)C[C@H](NC(=O)CNC(=O)[C@@H](NC(=O)OCc1ccccc1)C(C)C)C(=O)OCCOCCOCCOC(=O)c1ccc(-c2c3nc(c(-c4cccc(S(=O)(=O)[O-])c4F)c4ccc([nH]4)c(-c4cccc(S(=O)(=O)[O-])c4F)c4nc(c(-c5cccc(S(=O)(=O)[O-])c5F)c5ccc2[nH]5)C=C4)C=C3)cc1
REMARK SMILES IDX 32 1 31 2 30 3 28 4 29 5 5 6 4 7 2 8 1 9 3 10 6 11 7 12 8 14
REMARK SMILES IDX 9 15 10 16 11 17 12 19 13 20 14 21 15 22 16 24 17 25 18 26
REMARK SMILES IDX 19 27 20 28 24 29 21 30 23 31 22 32 25 33 26 34 27 35 33 36
REMARK SMILES IDX 34 37 35 38 36 39 37 40 38 41 39 42 40 43 41 44 42 45 43 46
REMARK SMILES IDX 104 47 44 48 103 49 45 50 46 51 47 52 97 53 48 54 102 55
REMARK SMILES IDX 96 56 98 57 49 58 101 59 95 60 94 61 50 63 82 64 62 65 81 66
REMARK SMILES IDX 63 67 66 68 80 69 99 70 64 71 65 72 79 74 100 75 67 76 51 77
REMARK SMILES IDX 52 78 60 79 53 80 55 81 61 82 54 83 56 84 57 85 58 86 59 87
REMARK SMILES IDX 83 88 84 89 92 90 85 91 87 92 93 93 86 94 88 95 89 96 90 97
REMARK SMILES IDX 91 98 68 99 69 100 77 101 70 102 72 103 78 104 71 105 73 106
REMARK SMILES IDX 74 107 75 108 76 109
REMARK H PARENT 6 13 10 18 14 23 98 62 66 73
REMARK Flexibility Score: inf
ROOT
ATOM      1  C   UNL A   1      36.573  23.469  24.825  1.00  0.00     0.202 C 
ENDROOT
BRANCH   1   2
ATOM      2  C   UNL A   1      35.975  22.584  23.710  1.00  0.00     0.261 C 
BRANCH   2   3
ATOM      3  O   UNL A   1      34.986  23.129  22.817  1.00  0.00    -0.462 OA
BRANCH   3   4
ATOM      4  C   UNL A   1      33.712  22.732  23.084  1.00  0.00     0.328 C 
ATOM      5  O   UNL A   1      33.380  21.550  23.067  1.00  0.00    -0.250 OA
BRANCH   4   6
ATOM      6  C   UNL A   1      32.694  23.898  23.268  1.00  0.00     0.192 C 
BRANCH   6   7
ATOM      7  C   UNL A   1      31.618  23.537  24.296  1.00  0.00     0.040 C 
BRANCH   7   8
ATOM      8  C   UNL A   1      32.010  23.624  25.794  1.00  0.00    -0.015 C 
ATOM      9  C   UNL A   1      32.561  22.359  26.452  1.00  0.00     0.007 C 
ATOM     10  C   UNL A   1      33.065  24.715  25.957  1.00  0.00     0.007 C 
ENDBRANCH   7   8
ENDBRANCH   6   7
BRANCH   6  11
ATOM     11  N   UNL A   1      32.096  24.469  22.053  1.00  0.00    -0.341 N 
ATOM     12  C   UNL A   1      32.325  25.672  21.439  1.00  0.00     0.240 C 
ATOM     13  H   UNL A   1      31.427  23.898  21.611  1.00  0.00     0.164 HD
ATOM     14  O   UNL A   1      31.837  25.828  20.313  1.00  0.00    -0.273 OA
BRANCH  12  15
ATOM     15  C   UNL A   1      33.269  26.770  22.006  1.00  0.00     0.216 C 
BRANCH  15  16
ATOM     16  N   UNL A   1      32.675  28.024  22.444  1.00  0.00    -0.345 N 
ATOM     17  C   UNL A   1      31.893  28.424  23.479  1.00  0.00     0.243 C 
ATOM     18  H   UNL A   1      32.895  28.770  21.839  1.00  0.00     0.164 HD
ATOM     19  O   UNL A   1      31.764  29.653  23.579  1.00  0.00    -0.273 OA
BRANCH  17  20
ATOM     20  C   UNL A   1      31.194  27.508  24.532  1.00  0.00     0.177 C 
BRANCH  20  21
ATOM     21  N   UNL A   1      31.022  28.225  25.768  1.00  0.00    -0.309 N 
ATOM     22  C   UNL A   1      31.825  28.376  26.831  1.00  0.00     0.408 C 
ATOM     23  H   UNL A   1      30.158  28.690  25.846  1.00  0.00     0.167 HD
ATOM     24  O   UNL A   1      31.376  28.559  27.938  1.00  0.00    -0.225 OA
BRANCH  22  25
ATOM     25  O   UNL A   1      33.118  28.429  26.511  1.00  0.00    -0.445 OA
BRANCH  25  26
ATOM     26  C   UNL A   1      33.486  29.791  26.501  1.00  0.00     0.270 C 
BRANCH  26  27
ATOM     27  C   UNL A   1      34.728  30.148  27.340  1.00  0.00    -0.011 A 
ATOM     28  C   UNL A   1      35.820  29.314  27.619  1.00  0.00     0.007 A 
ATOM     29  C   UNL A   1      34.683  31.356  28.025  1.00  0.00     0.007 A 
ATOM     30  C   UNL A   1      36.739  29.645  28.623  1.00  0.00     0.000 A 
ATOM     31  C   UNL A   1      35.504  31.637  29.111  1.00  0.00     0.000 A 
ATOM     32  C   UNL A   1      36.539  30.771  29.415  1.00  0.00     0.000 A 
ENDBRANCH  26  27
ENDBRANCH  25  26
ENDBRANCH  22  25
ENDBRANCH  20  21
BRANCH  20  33
ATOM     33  C   UNL A   1      30.023  26.656  24.008  1.00  0.00     0.015 C 
ATOM     34  C   UNL A   1      29.331  25.968  25.193  1.00  0.00     0.010 C 
ATOM     35  C   UNL A   1      28.942  27.488  23.292  1.00  0.00     0.010 C 
ENDBRANCH  20  33
ENDBRANCH  17  20
ENDBRANCH  15  16
ENDBRANCH  12  15
ENDBRANCH   6  11
ENDBRANCH   4   6
ENDBRANCH   3   4
ENDBRANCH   2   3
ENDBRANCH   1   2
BRANCH   1  36
ATOM     36  O   UNL A   1      37.169  22.900  25.974  1.00  0.00    -0.376 OA
BRANCH  36  37
ATOM     37  C   UNL A   1      38.072  21.834  25.746  1.00  0.00     0.188 C 
BRANCH  37  38
ATOM     38  C   UNL A   1      39.503  22.174  26.201  1.00  0.00     0.188 C 
BRANCH  38  39
ATOM     39  O   UNL A   1      39.736  23.340  26.981  1.00  0.00    -0.376 OA
BRANCH  39  40
ATOM     40  C   UNL A   1      40.800  23.337  27.917  1.00  0.00     0.202 C 
BRANCH  40  41
ATOM     41  C   UNL A   1      41.674  24.592  28.153  1.00  0.00     0.261 C 
BRANCH  41  42
ATOM     42  O   UNL A   1      42.793  24.511  29.065  1.00  0.00    -0.460 OA
BRANCH  42  43
ATOM     43  C   UNL A   1      43.963  24.035  28.560  1.00  0.00     0.338 C 
ATOM     44  O   UNL A   1      44.210  22.865  28.323  1.00  0.00    -0.246 OA
BRANCH  43  45
ATOM     45  C   UNL A   1      44.887  25.160  28.195  1.00  0.00     0.060 A 
ATOM     46  C   UNL A   1      45.287  25.310  26.857  1.00  0.00     0.016 A 
ATOM     47  C   UNL A   1      45.383  26.069  29.134  1.00  0.00     0.016 A 
ATOM     48  C   UNL A   1      46.094  26.405  26.442  1.00  0.00     0.010 A 
ATOM     49  C   UNL A   1      46.194  27.161  28.713  1.00  0.00     0.010 A 
ATOM     50  C   UNL A   1      46.504  27.400  27.347  1.00  0.00    -0.014 A 
BRANCH  50  51
ATOM     51  C   UNL A   1      47.443  28.539  26.972  1.00  0.00     0.031 A 
ATOM     52  C   UNL A   1      46.755  29.838  26.704  1.00  0.00     0.074 A 
ATOM     53  C   UNL A   1      48.799  28.540  26.821  1.00  0.00     0.049 A 
ATOM     54  N   UNL A   1      47.288  31.011  26.514  1.00  0.00    -0.248 NA
ATOM     55  C   UNL A   1      45.283  29.822  26.719  1.00  0.00     0.031 C 
ATOM     56  C   UNL A   1      49.704  27.490  27.214  1.00  0.00     0.029 A 
ATOM     57  N   UNL A   1      49.694  29.457  26.283  1.00  0.00    -0.354 N 
ATOM     58  C   UNL A   1      46.221  31.882  26.444  1.00  0.00     0.074 A 
ATOM     59  C   UNL A   1      45.010  31.098  26.529  1.00  0.00     0.031 C 
ATOM     60  C   UNL A   1      50.953  27.688  26.783  1.00  0.00     0.029 A 
ATOM     61  C   UNL A   1      50.999  28.985  26.161  1.00  0.00     0.049 A 
ATOM     62  H   UNL A   1      49.428  30.366  26.011  1.00  0.00     0.167 HD
ATOM     63  C   UNL A   1      46.246  33.227  26.356  1.00  0.00     0.034 A 
ATOM     64  C   UNL A   1      52.153  29.519  25.707  1.00  0.00     0.034 A 
ATOM     65  C   UNL A   1      47.434  33.991  26.123  1.00  0.00     0.049 A 
ATOM     66  C   UNL A   1      52.139  30.986  25.430  1.00  0.00     0.074 A 
ATOM     67  C   UNL A   1      47.549  35.353  25.929  1.00  0.00     0.029 A 
ATOM     68  N   UNL A   1      48.704  33.450  25.970  1.00  0.00    -0.354 N 
ATOM     69  N   UNL A   1      51.125  31.808  25.519  1.00  0.00    -0.248 NA
ATOM     70  C   UNL A   1      53.424  31.629  25.123  1.00  0.00     0.031 C 
ATOM     71  C   UNL A   1      48.873  35.626  25.572  1.00  0.00     0.029 A 
ATOM     72  C   UNL A   1      49.600  34.447  25.628  1.00  0.00     0.049 A 
ATOM     73  H   UNL A   1      48.931  32.500  26.086  1.00  0.00     0.167 HD
ATOM     74  C   UNL A   1      51.656  33.075  25.365  1.00  0.00     0.074 A 
ATOM     75  C   UNL A   1      53.083  32.911  25.163  1.00  0.00     0.031 C 
ATOM     76  C   UNL A   1      51.014  34.264  25.419  1.00  0.00     0.034 A 
BRANCH  63  77
ATOM     77  C   UNL A   1      44.902  33.881  26.417  1.00  0.00     0.023 A 
ATOM     78  C   UNL A   1      44.134  34.026  25.239  1.00  0.00     0.012 A 
ATOM     79  C   UNL A   1      44.492  34.507  27.603  1.00  0.00     0.148 A 
ATOM     80  C   UNL A   1      43.015  34.855  25.230  1.00  0.00     0.002 A 
ATOM     81  C   UNL A   1      43.350  35.292  27.596  1.00  0.00     0.091 A 
ATOM     82  F   UNL A   1      45.266  34.384  28.690  1.00  0.00    -0.205 F 
ATOM     83  C   UNL A   1      42.624  35.487  26.408  1.00  0.00     0.022 A 
BRANCH  81  84
ATOM     84  S   UNL A   1      42.754  36.124  29.067  1.00  0.00     0.127 S 
ATOM     85  O   UNL A   1      41.454  36.620  28.619  1.00  0.00    -0.237 OA
ATOM     86  O   UNL A   1      42.695  35.024  30.027  1.00  0.00    -0.237 OA
ATOM     87  O   UNL A   1      43.736  37.155  29.374  1.00  0.00    -0.744 OA
ENDBRANCH  81  84
ENDBRANCH  63  77
BRANCH  64  88
ATOM     88  C   UNL A   1      53.444  28.740  25.695  1.00  0.00     0.023 A 
ATOM     89  C   UNL A   1      53.847  28.072  24.517  1.00  0.00     0.012 A 
ATOM     90  C   UNL A   1      54.275  28.651  26.833  1.00  0.00     0.148 A 
ATOM     91  C   UNL A   1      55.014  27.301  24.484  1.00  0.00     0.002 A 
ATOM     92  C   UNL A   1      55.457  27.908  26.783  1.00  0.00     0.091 A 
ATOM     93  F   UNL A   1      53.892  29.287  27.949  1.00  0.00    -0.205 F 
ATOM     94  C   UNL A   1      55.819  27.220  25.615  1.00  0.00     0.022 A 
BRANCH  92  95
ATOM     95  S   UNL A   1      56.612  27.796  28.160  1.00  0.00     0.127 S 
ATOM     96  O   UNL A   1      55.807  27.121  29.175  1.00  0.00    -0.237 OA
ATOM     97  O   UNL A   1      57.686  26.982  27.587  1.00  0.00    -0.237 OA
ATOM     98  O   UNL A   1      56.994  29.167  28.469  1.00  0.00    -0.744 OA
ENDBRANCH  92  95
ENDBRANCH  64  88
BRANCH  76  99
ATOM     99  C   UNL A   1      51.856  35.495  25.273  1.00  0.00     0.023 A 
ATOM    100  C   UNL A   1      52.133  36.024  23.998  1.00  0.00     0.012 A 
ATOM    101  C   UNL A   1      52.317  36.160  26.423  1.00  0.00     0.148 A 
ATOM    102  C   UNL A   1      52.890  37.185  23.870  1.00  0.00     0.002 A 
ATOM    103  C   UNL A   1      53.009  37.352  26.291  1.00  0.00     0.091 A 
ATOM    104  F   UNL A   1      52.069  35.612  27.622  1.00  0.00    -0.205 F 
ATOM    105  C   UNL A   1      53.312  37.857  25.017  1.00  0.00     0.022 A 
BRANCH 103 106
ATOM    106  S   UNL A   1      53.476  38.343  27.711  1.00  0.00     0.127 S 
ATOM    107  O   UNL A   1      53.217  37.420  28.815  1.00  0.00    -0.237 OA
ATOM    108  O   UNL A   1      54.891  38.603  27.448  1.00  0.00    -0.237 OA
ATOM    109  O   UNL A   1      52.627  39.526  27.674  1.00  0.00    -0.744 OA
ENDBRANCH 103 106
ENDBRANCH  76  99
ENDBRANCH  50  51
ENDBRANCH  43  45
ENDBRANCH  42  43
ENDBRANCH  41  42
ENDBRANCH  40  41
ENDBRANCH  39  40
ENDBRANCH  38  39
ENDBRANCH  37  38
ENDBRANCH  36  37
ENDBRANCH   1  36
TORSDOF 31
ENDMDL
