MODEL 1
REMARK VINA RESULT:     -11.6      0.000      0.000
REMARK SMILES Cc1ccc(C[C@@H](Cc2cc(F)cc(Br)c2)C(=O)OCCOCCOCCOC(=O)c2ccc(-c3c4nc(c(-c5cccc(S(=O)(=O)[O-])c5F)c5ccc([nH]5)c(-c5cccc(S(=O)(=O)[O-])c5F)c5nc(c(-c6cccc(S(=O)(=O)[O-])c6F)c6ccc3[nH]6)C=C5)C=C4)cc2)cc1
REMARK SMILES IDX 24 1 23 2 22 3 21 4 20 5 19 6 17 7 18 8 7 9 6 10 5 11 1 12
REMARK SMILES IDX 2 13 3 14 95 15 4 16 94 17 8 18 9 19 10 20 16 21 11 22 14 23
REMARK SMILES IDX 12 24 13 25 15 26 25 27 26 28 27 29 28 30 29 31 30 32 31 33
REMARK SMILES IDX 32 34 93 35 33 36 92 37 34 38 35 39 36 40 86 41 37 42 91 43
REMARK SMILES IDX 85 44 87 45 38 46 90 47 84 48 83 49 39 51 71 52 51 53 70 54
REMARK SMILES IDX 52 55 55 56 69 57 88 58 53 59 54 60 68 62 89 63 56 64 40 65
REMARK SMILES IDX 41 66 49 67 42 68 44 69 50 70 43 71 45 72 46 73 47 74 48 75
REMARK SMILES IDX 72 76 73 77 81 78 74 79 76 80 82 81 75 82 77 83 78 84 79 85
REMARK SMILES IDX 80 86 57 87 58 88 66 89 59 90 61 91 67 92 60 93 62 94 63 95
REMARK SMILES IDX 64 96 65 97
REMARK H PARENT 87 50 55 61
REMARK Flexibility Score: inf
ROOT
ATOM      1  C   UNL A   1      32.884  35.237  28.904  1.00  0.00     0.188 C 
ENDROOT
BRANCH   1   2
ATOM      2  C   UNL A   1      33.880  34.238  28.318  1.00  0.00     0.188 C 
BRANCH   2   3
ATOM      3  O   UNL A   1      33.485  32.917  27.863  1.00  0.00    -0.376 OA
BRANCH   3   4
ATOM      4  C   UNL A   1      34.048  31.603  28.152  1.00  0.00     0.202 C 
BRANCH   4   5
ATOM      5  C   UNL A   1      34.822  30.271  27.214  1.00  0.00     0.261 C 
BRANCH   5   6
ATOM      6  O   UNL A   1      34.286  28.757  26.555  1.00  0.00    -0.463 OA
BRANCH   6   7
ATOM      7  C   UNL A   1      33.695  28.230  25.354  1.00  0.00     0.309 C 
ATOM      8  O   UNL A   1      33.221  28.888  24.426  1.00  0.00    -0.252 OA
BRANCH   7   9
ATOM      9  C   UNL A   1      33.532  26.762  25.087  1.00  0.00     0.108 C 
BRANCH   9  10
ATOM     10  C   UNL A   1      33.892  25.933  26.300  1.00  0.00     0.051 C 
BRANCH  10  11
ATOM     11  C   UNL A   1      34.457  24.618  25.828  1.00  0.00    -0.047 A 
ATOM     12  C   UNL A   1      36.759  21.115  24.907  1.00  0.00     0.044 C 
ATOM     13  C   UNL A   1      35.949  22.326  25.239  1.00  0.00    -0.051 A 
ATOM     14  C   UNL A   1      36.111  23.483  24.474  1.00  0.00     0.004 A 
ATOM     15  C   UNL A   1      35.057  22.330  26.318  1.00  0.00     0.004 A 
ATOM     16  C   UNL A   1      35.329  24.600  24.730  1.00  0.00     0.004 A 
ATOM     17  C   UNL A   1      34.329  23.476  26.626  1.00  0.00     0.004 A 
ENDBRANCH  10  11
ENDBRANCH   9  10
BRANCH   9  18
ATOM     18  C   UNL A   1      32.186  26.250  24.355  1.00  0.00     0.051 C 
BRANCH  18  19
ATOM     19  C   UNL A   1      32.073  25.216  23.273  1.00  0.00    -0.043 A 
ATOM     20  C   UNL A   1      32.362  25.536  21.934  1.00  0.00     0.043 A 
ATOM     21  C   UNL A   1      31.795  23.911  23.587  1.00  0.00     0.019 A 
ATOM     22  C   UNL A   1      32.730  24.539  21.043  1.00  0.00     0.124 A 
ATOM     23  C   UNL A   1      32.306  22.953  22.738  1.00  0.00     0.021 A 
ATOM     24  F   UNL A   1      33.168  24.865  19.821  1.00  0.00    -0.207 F 
ATOM     25  C   UNL A   1      32.797  23.237  21.473  1.00  0.00     0.055 A 
ATOM     26  Br  UNL A   1      32.675  21.364  23.581  1.00  0.00    -0.051 Br
ENDBRANCH  18  19
ENDBRANCH   9  18
ENDBRANCH   7   9
ENDBRANCH   6   7
ENDBRANCH   5   6
ENDBRANCH   4   5
ENDBRANCH   3   4
ENDBRANCH   2   3
ENDBRANCH   1   2
BRANCH   1  27
ATOM     27  O   UNL A   1      33.593  36.375  29.324  1.00  0.00    -0.376 OA
BRANCH  27  28
ATOM     28  C   UNL A   1      33.641  36.635  30.704  1.00  0.00     0.202 C 
BRANCH  28  29
ATOM     29  C   UNL A   1      32.464  36.026  31.477  1.00  0.00     0.261 C 
BRANCH  29  30
ATOM     30  O   UNL A   1      32.829  34.764  32.087  1.00  0.00    -0.460 OA
BRANCH  30  31
ATOM     31  C   UNL A   1      33.897  34.781  32.958  1.00  0.00     0.338 C 
ATOM     32  O   UNL A   1      34.292  35.796  33.520  1.00  0.00    -0.246 OA
BRANCH  31  33
ATOM     33  C   UNL A   1      34.629  33.467  32.905  1.00  0.00     0.060 A 
ATOM     34  C   UNL A   1      35.662  33.060  33.763  1.00  0.00     0.016 A 
ATOM     35  C   UNL A   1      34.582  32.831  31.714  1.00  0.00     0.016 A 
ATOM     36  C   UNL A   1      36.783  32.239  33.304  1.00  0.00     0.010 A 
ATOM     37  C   UNL A   1      35.803  32.328  31.260  1.00  0.00     0.010 A 
ATOM     38  C   UNL A   1      37.008  31.939  31.950  1.00  0.00    -0.014 A 
BRANCH  38  39
ATOM     39  C   UNL A   1      38.493  31.269  31.248  1.00  0.00     0.031 A 
ATOM     40  C   UNL A   1      38.918  29.684  30.555  1.00  0.00     0.074 A 
ATOM     41  C   UNL A   1      39.608  32.044  31.231  1.00  0.00     0.049 A 
ATOM     42  N   UNL A   1      39.836  29.414  29.623  1.00  0.00    -0.248 NA
ATOM     43  C   UNL A   1      38.314  28.350  30.875  1.00  0.00     0.031 C 
ATOM     44  C   UNL A   1      40.787  31.860  30.389  1.00  0.00     0.029 A 
ATOM     45  N   UNL A   1      40.013  33.056  32.092  1.00  0.00    -0.354 N 
ATOM     46  C   UNL A   1      39.809  28.039  29.277  1.00  0.00     0.074 A 
ATOM     47  C   UNL A   1      38.732  27.467  29.989  1.00  0.00     0.031 C 
ATOM     48  C   UNL A   1      41.849  32.382  31.008  1.00  0.00     0.029 A 
ATOM     49  C   UNL A   1      41.388  32.855  32.289  1.00  0.00     0.049 A 
ATOM     50  H   UNL A   1      39.453  33.765  32.483  1.00  0.00     0.167 HD
ATOM     51  C   UNL A   1      40.798  27.200  28.842  1.00  0.00     0.034 A 
ATOM     52  C   UNL A   1      42.010  32.691  33.485  1.00  0.00     0.034 A 
ATOM     53  C   UNL A   1      42.118  27.700  29.252  1.00  0.00     0.049 A 
ATOM     54  C   UNL A   1      43.083  31.579  33.490  1.00  0.00     0.074 A 
ATOM     55  C   UNL A   1      42.934  28.711  28.789  1.00  0.00     0.029 A 
ATOM     56  N   UNL A   1      42.651  27.360  30.504  1.00  0.00    -0.354 N 
ATOM     57  N   UNL A   1      43.480  30.829  32.470  1.00  0.00    -0.248 NA
ATOM     58  C   UNL A   1      43.764  31.198  34.724  1.00  0.00     0.031 C 
ATOM     59  C   UNL A   1      43.795  29.111  29.862  1.00  0.00     0.029 A 
ATOM     60  C   UNL A   1      43.552  28.325  30.987  1.00  0.00     0.049 A 
ATOM     61  H   UNL A   1      42.419  26.536  30.991  1.00  0.00     0.167 HD
ATOM     62  C   UNL A   1      44.099  29.682  32.981  1.00  0.00     0.074 A 
ATOM     63  C   UNL A   1      44.479  30.139  34.315  1.00  0.00     0.031 C 
ATOM     64  C   UNL A   1      44.031  28.398  32.417  1.00  0.00     0.034 A 
BRANCH  51  65
ATOM     65  C   UNL A   1      40.477  25.810  28.141  1.00  0.00     0.023 A 
ATOM     66  C   UNL A   1      39.239  25.705  27.475  1.00  0.00     0.012 A 
ATOM     67  C   UNL A   1      41.213  24.563  28.208  1.00  0.00     0.148 A 
ATOM     68  C   UNL A   1      38.763  24.492  26.923  1.00  0.00     0.002 A 
ATOM     69  C   UNL A   1      40.766  23.370  27.593  1.00  0.00     0.091 A 
ATOM     70  F   UNL A   1      42.318  24.462  28.957  1.00  0.00    -0.205 F 
ATOM     71  C   UNL A   1      39.526  23.331  26.963  1.00  0.00     0.022 A 
BRANCH  69  72
ATOM     72  S   UNL A   1      41.723  21.821  27.594  1.00  0.00     0.127 S 
ATOM     73  O   UNL A   1      40.743  20.849  28.080  1.00  0.00    -0.237 OA
ATOM     74  O   UNL A   1      42.083  21.648  26.185  1.00  0.00    -0.237 OA
ATOM     75  O   UNL A   1      42.862  22.056  28.474  1.00  0.00    -0.744 OA
ENDBRANCH  69  72
ENDBRANCH  51  65
BRANCH  52  76
ATOM     76  C   UNL A   1      41.192  33.281  34.622  1.00  0.00     0.023 A 
ATOM     77  C   UNL A   1      40.926  34.672  34.472  1.00  0.00     0.012 A 
ATOM     78  C   UNL A   1      40.337  32.553  35.488  1.00  0.00     0.148 A 
ATOM     79  C   UNL A   1      39.776  35.272  34.996  1.00  0.00     0.002 A 
ATOM     80  C   UNL A   1      39.208  33.180  36.057  1.00  0.00     0.091 A 
ATOM     81  F   UNL A   1      40.589  31.258  35.709  1.00  0.00    -0.205 F 
ATOM     82  C   UNL A   1      38.904  34.519  35.764  1.00  0.00     0.022 A 
BRANCH  80  83
ATOM     83  S   UNL A   1      37.983  32.302  37.066  1.00  0.00     0.127 S 
ATOM     84  O   UNL A   1      38.642  32.280  38.369  1.00  0.00    -0.237 OA
ATOM     85  O   UNL A   1      36.817  33.185  36.996  1.00  0.00    -0.237 OA
ATOM     86  O   UNL A   1      37.798  31.017  36.412  1.00  0.00    -0.744 OA
ENDBRANCH  80  83
ENDBRANCH  52  76
BRANCH  64  87
ATOM     87  C   UNL A   1      44.343  27.097  33.268  1.00  0.00     0.023 A 
ATOM     88  C   UNL A   1      43.329  26.177  33.638  1.00  0.00     0.012 A 
ATOM     89  C   UNL A   1      45.639  26.697  33.698  1.00  0.00     0.148 A 
ATOM     90  C   UNL A   1      43.506  25.105  34.526  1.00  0.00     0.002 A 
ATOM     91  C   UNL A   1      45.841  25.562  34.513  1.00  0.00     0.091 A 
ATOM     92  F   UNL A   1      46.711  27.400  33.314  1.00  0.00    -0.205 F 
ATOM     93  C   UNL A   1      44.769  24.803  34.980  1.00  0.00     0.022 A 
BRANCH  91  94
ATOM     94  S   UNL A   1      47.477  24.953  34.968  1.00  0.00     0.127 S 
ATOM     95  O   UNL A   1      48.005  24.532  33.671  1.00  0.00    -0.237 OA
ATOM     96  O   UNL A   1      48.118  26.148  35.521  1.00  0.00    -0.237 OA
ATOM     97  O   UNL A   1      47.235  23.892  35.934  1.00  0.00    -0.744 OA
ENDBRANCH  91  94
ENDBRANCH  64  87
ENDBRANCH  38  39
ENDBRANCH  31  33
ENDBRANCH  30  31
ENDBRANCH  29  30
ENDBRANCH  28  29
ENDBRANCH  27  28
ENDBRANCH   1  27
TORSDOF 24
ENDMDL
MODEL 2
REMARK VINA RESULT:     -10.7      4.388     10.644
REMARK SMILES Cc1ccc(C[C@@H](Cc2cc(F)cc(Br)c2)C(=O)OCCOCCOCCOC(=O)c2ccc(-c3c4nc(c(-c5cccc(S(=O)(=O)[O-])c5F)c5ccc([nH]5)c(-c5cccc(S(=O)(=O)[O-])c5F)c5nc(c(-c6cccc(S(=O)(=O)[O-])c6F)c6ccc3[nH]6)C=C5)C=C4)cc2)cc1
REMARK SMILES IDX 24 1 23 2 22 3 21 4 20 5 19 6 17 7 18 8 7 9 6 10 5 11 1 12
REMARK SMILES IDX 2 13 3 14 95 15 4 16 94 17 8 18 9 19 10 20 16 21 11 22 14 23
REMARK SMILES IDX 12 24 13 25 15 26 25 27 26 28 27 29 28 30 29 31 30 32 31 33
REMARK SMILES IDX 32 34 93 35 33 36 92 37 34 38 35 39 36 40 86 41 37 42 91 43
REMARK SMILES IDX 85 44 87 45 38 46 90 47 84 48 83 49 39 51 71 52 51 53 70 54
REMARK SMILES IDX 52 55 55 56 69 57 88 58 53 59 54 60 68 62 89 63 56 64 40 65
REMARK SMILES IDX 41 66 49 67 42 68 44 69 50 70 43 71 45 72 46 73 47 74 48 75
REMARK SMILES IDX 72 76 73 77 81 78 74 79 76 80 82 81 75 82 77 83 78 84 79 85
REMARK SMILES IDX 80 86 57 87 58 88 66 89 59 90 61 91 67 92 60 93 62 94 63 95
REMARK SMILES IDX 64 96 65 97
REMARK H PARENT 87 50 55 61
REMARK Flexibility Score: inf
ROOT
ATOM      1  C   UNL A   1      39.904  21.674  26.861  1.00  0.00     0.188 C 
ENDROOT
BRANCH   1   2
ATOM      2  C   UNL A   1      38.819  22.150  25.897  1.00  0.00     0.188 C 
BRANCH   2   3
ATOM      3  O   UNL A   1      37.460  21.642  25.937  1.00  0.00    -0.376 OA
BRANCH   3   4
ATOM      4  C   UNL A   1      36.622  21.080  24.884  1.00  0.00     0.202 C 
BRANCH   4   5
ATOM      5  C   UNL A   1      34.909  21.244  24.342  1.00  0.00     0.261 C 
BRANCH   5   6
ATOM      6  O   UNL A   1      33.360  21.171  25.122  1.00  0.00    -0.463 OA
BRANCH   6   7
ATOM      7  C   UNL A   1      32.218  22.008  25.376  1.00  0.00     0.309 C 
ATOM      8  O   UNL A   1      31.102  21.628  25.735  1.00  0.00    -0.252 OA
BRANCH   7   9
ATOM      9  C   UNL A   1      32.224  23.497  25.187  1.00  0.00     0.108 C 
BRANCH   9  10
ATOM     10  C   UNL A   1      33.141  24.179  26.177  1.00  0.00     0.051 C 
BRANCH  10  11
ATOM     11  C   UNL A   1      32.855  25.659  26.150  1.00  0.00    -0.047 A 
ATOM     12  C   UNL A   1      32.235  29.840  26.894  1.00  0.00     0.044 C 
ATOM     13  C   UNL A   1      32.466  28.388  26.628  1.00  0.00    -0.051 A 
ATOM     14  C   UNL A   1      31.448  27.475  26.913  1.00  0.00     0.004 A 
ATOM     15  C   UNL A   1      33.690  27.926  26.129  1.00  0.00     0.004 A 
ATOM     16  C   UNL A   1      31.621  26.129  26.621  1.00  0.00     0.004 A 
ATOM     17  C   UNL A   1      33.893  26.566  25.910  1.00  0.00     0.004 A 
ENDBRANCH  10  11
ENDBRANCH   9  10
BRANCH   9  18
ATOM     18  C   UNL A   1      32.365  24.089  23.691  1.00  0.00     0.051 C 
BRANCH  18  19
ATOM     19  C   UNL A   1      31.767  25.357  23.152  1.00  0.00    -0.043 A 
ATOM     20  C   UNL A   1      30.425  25.692  23.413  1.00  0.00     0.043 A 
ATOM     21  C   UNL A   1      32.550  26.266  22.491  1.00  0.00     0.019 A 
ATOM     22  C   UNL A   1      30.014  27.015  23.354  1.00  0.00     0.124 A 
ATOM     23  C   UNL A   1      32.168  27.588  22.584  1.00  0.00     0.021 A 
ATOM     24  F   UNL A   1      28.786  27.349  23.768  1.00  0.00    -0.207 F 
ATOM     25  C   UNL A   1      30.920  27.992  23.029  1.00  0.00     0.055 A 
ATOM     26  Br  UNL A   1      33.582  28.756  22.484  1.00  0.00    -0.051 Br
ENDBRANCH  18  19
ENDBRANCH   9  18
ENDBRANCH   7   9
ENDBRANCH   6   7
ENDBRANCH   5   6
ENDBRANCH   4   5
ENDBRANCH   3   4
ENDBRANCH   2   3
ENDBRANCH   1   2
BRANCH   1  27
ATOM     27  O   UNL A   1      40.546  20.562  26.292  1.00  0.00    -0.376 OA
BRANCH  27  28
ATOM     28  C   UNL A   1      41.941  20.627  26.142  1.00  0.00     0.202 C 
BRANCH  28  29
ATOM     29  C   UNL A   1      42.453  22.038  25.822  1.00  0.00     0.261 C 
BRANCH  29  30
ATOM     30  O   UNL A   1      43.578  22.394  26.662  1.00  0.00    -0.460 OA
BRANCH  30  31
ATOM     31  C   UNL A   1      43.290  23.038  27.847  1.00  0.00     0.338 C 
ATOM     32  O   UNL A   1      42.712  22.498  28.783  1.00  0.00    -0.246 OA
BRANCH  31  33
ATOM     33  C   UNL A   1      43.550  24.514  27.710  1.00  0.00     0.060 A 
ATOM     34  C   UNL A   1      44.662  25.207  28.210  1.00  0.00     0.016 A 
ATOM     35  C   UNL A   1      42.456  25.269  27.470  1.00  0.00     0.016 A 
ATOM     36  C   UNL A   1      44.566  26.575  28.722  1.00  0.00     0.010 A 
ATOM     37  C   UNL A   1      42.353  26.428  28.242  1.00  0.00     0.010 A 
ATOM     38  C   UNL A   1      43.341  27.236  28.914  1.00  0.00    -0.014 A 
BRANCH  38  39
ATOM     39  C   UNL A   1      43.077  28.726  29.841  1.00  0.00     0.031 A 
ATOM     40  C   UNL A   1      41.679  29.810  30.051  1.00  0.00     0.074 A 
ATOM     41  C   UNL A   1      44.120  29.251  30.533  1.00  0.00     0.049 A 
ATOM     42  N   UNL A   1      41.388  30.580  31.104  1.00  0.00    -0.248 NA
ATOM     43  C   UNL A   1      40.552  30.051  29.094  1.00  0.00     0.031 C 
ATOM     44  C   UNL A   1      44.044  30.209  31.634  1.00  0.00     0.029 A 
ATOM     45  N   UNL A   1      45.486  29.189  30.287  1.00  0.00    -0.354 N 
ATOM     46  C   UNL A   1      40.139  31.227  30.920  1.00  0.00     0.074 A 
ATOM     47  C   UNL A   1      39.605  30.731  29.710  1.00  0.00     0.031 C 
ATOM     48  C   UNL A   1      45.175  30.918  31.671  1.00  0.00     0.029 A 
ATOM     49  C   UNL A   1      45.975  30.476  30.557  1.00  0.00     0.049 A 
ATOM     50  H   UNL A   1      46.002  28.406  29.986  1.00  0.00     0.167 HD
ATOM     51  C   UNL A   1      39.673  32.430  31.372  1.00  0.00     0.034 A 
ATOM     52  C   UNL A   1      46.674  31.264  29.699  1.00  0.00     0.034 A 
ATOM     53  C   UNL A   1      40.790  33.335  31.679  1.00  0.00     0.049 A 
ATOM     54  C   UNL A   1      46.241  32.746  29.710  1.00  0.00     0.074 A 
ATOM     55  C   UNL A   1      41.682  33.419  32.728  1.00  0.00     0.029 A 
ATOM     56  N   UNL A   1      41.342  34.149  30.679  1.00  0.00    -0.354 N 
ATOM     57  N   UNL A   1      45.324  33.319  30.479  1.00  0.00    -0.248 NA
ATOM     58  C   UNL A   1      46.812  33.702  28.765  1.00  0.00     0.031 C 
ATOM     59  C   UNL A   1      42.856  34.092  32.258  1.00  0.00     0.029 A 
ATOM     60  C   UNL A   1      42.688  34.470  30.927  1.00  0.00     0.049 A 
ATOM     61  H   UNL A   1      40.842  34.461  29.889  1.00  0.00     0.167 HD
ATOM     62  C   UNL A   1      44.925  34.516  29.873  1.00  0.00     0.074 A 
ATOM     63  C   UNL A   1      46.077  34.795  29.019  1.00  0.00     0.031 C 
ATOM     64  C   UNL A   1      43.626  35.048  29.894  1.00  0.00     0.034 A 
BRANCH  51  65
ATOM     65  C   UNL A   1      38.123  32.785  31.382  1.00  0.00     0.023 A 
ATOM     66  C   UNL A   1      37.475  32.833  30.130  1.00  0.00     0.012 A 
ATOM     67  C   UNL A   1      37.293  33.219  32.488  1.00  0.00     0.148 A 
ATOM     68  C   UNL A   1      36.137  33.265  29.974  1.00  0.00     0.002 A 
ATOM     69  C   UNL A   1      35.934  33.582  32.336  1.00  0.00     0.091 A 
ATOM     70  F   UNL A   1      37.818  33.396  33.707  1.00  0.00    -0.205 F 
ATOM     71  C   UNL A   1      35.360  33.622  31.070  1.00  0.00     0.022 A 
BRANCH  69  72
ATOM     72  S   UNL A   1      34.857  34.043  33.730  1.00  0.00     0.127 S 
ATOM     73  O   UNL A   1      35.013  35.497  33.777  1.00  0.00    -0.237 OA
ATOM     74  O   UNL A   1      33.532  33.600  33.290  1.00  0.00    -0.237 OA
ATOM     75  O   UNL A   1      35.371  33.320  34.888  1.00  0.00    -0.744 OA
ENDBRANCH  69  72
ENDBRANCH  51  65
BRANCH  52  76
ATOM     76  C   UNL A   1      47.353  30.439  28.617  1.00  0.00     0.023 A 
ATOM     77  C   UNL A   1      48.452  29.668  29.093  1.00  0.00     0.012 A 
ATOM     78  C   UNL A   1      46.758  30.027  27.397  1.00  0.00     0.148 A 
ATOM     79  C   UNL A   1      48.822  28.455  28.501  1.00  0.00     0.002 A 
ATOM     80  C   UNL A   1      47.175  28.831  26.777  1.00  0.00     0.091 A 
ATOM     81  F   UNL A   1      45.766  30.761  26.881  1.00  0.00    -0.205 F 
ATOM     82  C   UNL A   1      48.165  28.024  27.361  1.00  0.00     0.022 A 
BRANCH  80  83
ATOM     83  S   UNL A   1      46.387  28.150  25.292  1.00  0.00     0.127 S 
ATOM     84  O   UNL A   1      44.980  28.155  25.680  1.00  0.00    -0.237 OA
ATOM     85  O   UNL A   1      46.732  29.137  24.264  1.00  0.00    -0.237 OA
ATOM     86  O   UNL A   1      47.001  26.847  25.096  1.00  0.00    -0.744 OA
ENDBRANCH  80  83
ENDBRANCH  52  76
BRANCH  64  87
ATOM     87  C   UNL A   1      43.148  36.120  28.828  1.00  0.00     0.023 A 
ATOM     88  C   UNL A   1      42.564  35.745  27.592  1.00  0.00     0.012 A 
ATOM     89  C   UNL A   1      43.205  37.531  29.010  1.00  0.00     0.148 A 
ATOM     90  C   UNL A   1      42.276  36.630  26.540  1.00  0.00     0.002 A 
ATOM     91  C   UNL A   1      42.825  38.433  27.992  1.00  0.00     0.091 A 
ATOM     92  F   UNL A   1      43.614  38.032  30.180  1.00  0.00    -0.205 F 
ATOM     93  C   UNL A   1      42.422  37.983  26.736  1.00  0.00     0.022 A 
BRANCH  91  94
ATOM     94  S   UNL A   1      42.762  40.220  28.232  1.00  0.00     0.127 S 
ATOM     95  O   UNL A   1      44.167  40.531  28.493  1.00  0.00    -0.237 OA
ATOM     96  O   UNL A   1      42.269  40.696  26.938  1.00  0.00    -0.237 OA
ATOM     97  O   UNL A   1      41.845  40.424  29.343  1.00  0.00    -0.744 OA
ENDBRANCH  91  94
ENDBRANCH  64  87
ENDBRANCH  38  39
ENDBRANCH  31  33
ENDBRANCH  30  31
ENDBRANCH  29  30
ENDBRANCH  28  29
ENDBRANCH  27  28
ENDBRANCH   1  27
TORSDOF 24
ENDMDL
MODEL 3
REMARK VINA RESULT:     -10.0      5.328      9.861
REMARK SMILES Cc1ccc(C[C@@H](Cc2cc(F)cc(Br)c2)C(=O)OCCOCCOCCOC(=O)c2ccc(-c3c4nc(c(-c5cccc(S(=O)(=O)[O-])c5F)c5ccc([nH]5)c(-c5cccc(S(=O)(=O)[O-])c5F)c5nc(c(-c6cccc(S(=O)(=O)[O-])c6F)c6ccc3[nH]6)C=C5)C=C4)cc2)cc1
REMARK SMILES IDX 24 1 23 2 22 3 21 4 20 5 19 6 17 7 18 8 7 9 6 10 5 11 1 12
REMARK SMILES IDX 2 13 3 14 95 15 4 16 94 17 8 18 9 19 10 20 16 21 11 22 14 23
REMARK SMILES IDX 12 24 13 25 15 26 25 27 26 28 27 29 28 30 29 31 30 32 31 33
REMARK SMILES IDX 32 34 93 35 33 36 92 37 34 38 35 39 36 40 86 41 37 42 91 43
REMARK SMILES IDX 85 44 87 45 38 46 90 47 84 48 83 49 39 51 71 52 51 53 70 54
REMARK SMILES IDX 52 55 55 56 69 57 88 58 53 59 54 60 68 62 89 63 56 64 40 65
REMARK SMILES IDX 41 66 49 67 42 68 44 69 50 70 43 71 45 72 46 73 47 74 48 75
REMARK SMILES IDX 72 76 73 77 81 78 74 79 76 80 82 81 75 82 77 83 78 84 79 85
REMARK SMILES IDX 80 86 57 87 58 88 66 89 59 90 61 91 67 92 60 93 62 94 63 95
REMARK SMILES IDX 64 96 65 97
REMARK H PARENT 87 50 55 61
REMARK Flexibility Score: inf
ROOT
ATOM      1  C   UNL A   1      42.897  32.935  36.786  1.00  0.00     0.188 C 
ENDROOT
BRANCH   1   2
ATOM      2  C   UNL A   1      41.865  33.451  37.788  1.00  0.00     0.188 C 
BRANCH   2   3
ATOM      3  O   UNL A   1      40.490  33.729  37.418  1.00  0.00    -0.376 OA
BRANCH   3   4
ATOM      4  C   UNL A   1      39.252  33.044  37.772  1.00  0.00     0.202 C 
BRANCH   4   5
ATOM      5  C   UNL A   1      38.360  31.576  37.219  1.00  0.00     0.261 C 
BRANCH   5   6
ATOM      6  O   UNL A   1      38.521  30.464  35.896  1.00  0.00    -0.463 OA
BRANCH   6   7
ATOM      7  C   UNL A   1      39.257  30.316  34.669  1.00  0.00     0.309 C 
ATOM      8  O   UNL A   1      40.122  29.470  34.436  1.00  0.00    -0.252 OA
BRANCH   7   9
ATOM      9  C   UNL A   1      39.096  31.233  33.491  1.00  0.00     0.108 C 
BRANCH   9  10
ATOM     10  C   UNL A   1      39.155  32.687  33.907  1.00  0.00     0.051 C 
BRANCH  10  11
ATOM     11  C   UNL A   1      37.797  33.301  33.685  1.00  0.00    -0.047 A 
ATOM     12  C   UNL A   1      33.993  34.708  32.283  1.00  0.00     0.044 C 
ATOM     13  C   UNL A   1      35.309  34.206  32.780  1.00  0.00    -0.051 A 
ATOM     14  C   UNL A   1      36.469  34.920  32.471  1.00  0.00     0.004 A 
ATOM     15  C   UNL A   1      35.403  33.021  33.520  1.00  0.00     0.004 A 
ATOM     16  C   UNL A   1      37.695  34.502  32.969  1.00  0.00     0.004 A 
ATOM     17  C   UNL A   1      36.642  32.558  33.954  1.00  0.00     0.004 A 
ENDBRANCH  10  11
ENDBRANCH   9  10
BRANCH   9  18
ATOM     18  C   UNL A   1      39.942  30.930  32.149  1.00  0.00     0.051 C 
BRANCH  18  19
ATOM     19  C   UNL A   1      39.557  30.026  31.014  1.00  0.00    -0.043 A 
ATOM     20  C   UNL A   1      39.550  28.628  31.173  1.00  0.00     0.043 A 
ATOM     21  C   UNL A   1      39.098  30.551  29.835  1.00  0.00     0.019 A 
ATOM     22  C   UNL A   1      38.766  27.836  30.348  1.00  0.00     0.124 A 
ATOM     23  C   UNL A   1      38.209  29.773  29.123  1.00  0.00     0.021 A 
ATOM     24  F   UNL A   1      38.628  26.531  30.610  1.00  0.00    -0.207 F 
ATOM     25  C   UNL A   1      38.007  28.425  29.368  1.00  0.00     0.055 A 
ATOM     26  Br  UNL A   1      37.021  30.762  28.130  1.00  0.00    -0.051 Br
ENDBRANCH  18  19
ENDBRANCH   9  18
ENDBRANCH   7   9
ENDBRANCH   6   7
ENDBRANCH   5   6
ENDBRANCH   4   5
ENDBRANCH   3   4
ENDBRANCH   2   3
ENDBRANCH   1   2
BRANCH   1  27
ATOM     27  O   UNL A   1      43.786  32.085  37.464  1.00  0.00    -0.376 OA
BRANCH  27  28
ATOM     28  C   UNL A   1      44.339  31.016  36.740  1.00  0.00     0.202 C 
BRANCH  28  29
ATOM     29  C   UNL A   1      45.018  29.966  37.629  1.00  0.00     0.261 C 
BRANCH  29  30
ATOM     30  O   UNL A   1      44.361  28.680  37.524  1.00  0.00    -0.460 OA
BRANCH  30  31
ATOM     31  C   UNL A   1      43.289  28.599  36.660  1.00  0.00     0.338 C 
ATOM     32  O   UNL A   1      42.189  29.080  36.905  1.00  0.00    -0.246 OA
BRANCH  31  33
ATOM     33  C   UNL A   1      43.599  27.643  35.540  1.00  0.00     0.060 A 
ATOM     34  C   UNL A   1      44.732  27.677  34.713  1.00  0.00     0.016 A 
ATOM     35  C   UNL A   1      42.533  26.985  35.036  1.00  0.00     0.016 A 
ATOM     36  C   UNL A   1      44.678  27.304  33.298  1.00  0.00     0.010 A 
ATOM     37  C   UNL A   1      42.465  26.945  33.641  1.00  0.00     0.010 A 
ATOM     38  C   UNL A   1      43.476  27.052  32.618  1.00  0.00    -0.014 A 
BRANCH  38  39
ATOM     39  C   UNL A   1      43.257  26.944  30.861  1.00  0.00     0.031 A 
ATOM     40  C   UNL A   1      43.500  25.641  29.671  1.00  0.00     0.074 A 
ATOM     41  C   UNL A   1      42.865  28.055  30.187  1.00  0.00     0.049 A 
ATOM     42  N   UNL A   1      42.864  25.460  28.509  1.00  0.00    -0.248 NA
ATOM     43  C   UNL A   1      44.452  24.487  29.753  1.00  0.00     0.031 C 
ATOM     44  C   UNL A   1      42.268  28.105  28.855  1.00  0.00     0.029 A 
ATOM     45  N   UNL A   1      43.083  29.399  30.465  1.00  0.00    -0.354 N 
ATOM     46  C   UNL A   1      43.283  24.253  27.892  1.00  0.00     0.074 A 
ATOM     47  C   UNL A   1      44.164  23.624  28.799  1.00  0.00     0.031 C 
ATOM     48  C   UNL A   1      42.549  29.285  28.297  1.00  0.00     0.029 A 
ATOM     49  C   UNL A   1      43.386  29.994  29.231  1.00  0.00     0.049 A 
ATOM     50  H   UNL A   1      43.036  29.841  31.343  1.00  0.00     0.167 HD
ATOM     51  C   UNL A   1      43.370  23.899  26.575  1.00  0.00     0.034 A 
ATOM     52  C   UNL A   1      44.507  30.703  28.937  1.00  0.00     0.034 A 
ATOM     53  C   UNL A   1      43.489  25.093  25.724  1.00  0.00     0.049 A 
ATOM     54  C   UNL A   1      45.113  30.380  27.553  1.00  0.00     0.074 A 
ATOM     55  C   UNL A   1      42.587  26.040  25.289  1.00  0.00     0.029 A 
ATOM     56  N   UNL A   1      44.747  25.651  25.453  1.00  0.00    -0.354 N 
ATOM     57  N   UNL A   1      44.642  29.547  26.635  1.00  0.00    -0.248 NA
ATOM     58  C   UNL A   1      46.381  30.971  27.132  1.00  0.00     0.031 C 
ATOM     59  C   UNL A   1      43.314  27.235  24.979  1.00  0.00     0.029 A 
ATOM     60  C   UNL A   1      44.678  27.028  25.177  1.00  0.00     0.049 A 
ATOM     61  H   UNL A   1      45.587  25.136  25.458  1.00  0.00     0.167 HD
ATOM     62  C   UNL A   1      45.687  29.207  25.769  1.00  0.00     0.074 A 
ATOM     63  C   UNL A   1      46.598  30.330  25.973  1.00  0.00     0.031 C 
ATOM     64  C   UNL A   1      45.872  27.952  25.166  1.00  0.00     0.034 A 
BRANCH  51  65
ATOM     65  C   UNL A   1      43.487  22.382  26.114  1.00  0.00     0.023 A 
ATOM     66  C   UNL A   1      42.346  21.573  26.297  1.00  0.00     0.012 A 
ATOM     67  C   UNL A   1      44.655  21.653  25.662  1.00  0.00     0.148 A 
ATOM     68  C   UNL A   1      42.347  20.178  26.059  1.00  0.00     0.002 A 
ATOM     69  C   UNL A   1      44.632  20.271  25.358  1.00  0.00     0.091 A 
ATOM     70  F   UNL A   1      45.854  22.247  25.612  1.00  0.00    -0.205 F 
ATOM     71  C   UNL A   1      43.476  19.528  25.575  1.00  0.00     0.022 A 
BRANCH  69  72
ATOM     72  S   UNL A   1      46.069  19.363  24.705  1.00  0.00     0.127 S 
ATOM     73  O   UNL A   1      45.513  18.710  23.520  1.00  0.00    -0.237 OA
ATOM     74  O   UNL A   1      47.029  20.427  24.404  1.00  0.00    -0.237 OA
ATOM     75  O   UNL A   1      46.493  18.466  25.774  1.00  0.00    -0.744 OA
ENDBRANCH  69  72
ENDBRANCH  51  65
BRANCH  52  76
ATOM     76  C   UNL A   1      45.153  31.266  30.193  1.00  0.00     0.023 A 
ATOM     77  C   UNL A   1      44.278  32.077  30.971  1.00  0.00     0.012 A 
ATOM     78  C   UNL A   1      46.282  30.721  30.855  1.00  0.00     0.148 A 
ATOM     79  C   UNL A   1      44.406  32.192  32.359  1.00  0.00     0.002 A 
ATOM     80  C   UNL A   1      46.433  30.887  32.248  1.00  0.00     0.091 A 
ATOM     81  F   UNL A   1      47.165  30.006  30.148  1.00  0.00    -0.205 F 
ATOM     82  C   UNL A   1      45.467  31.574  33.000  1.00  0.00     0.022 A 
BRANCH  80  83
ATOM     83  S   UNL A   1      47.768  30.118  33.206  1.00  0.00     0.127 S 
ATOM     84  O   UNL A   1      47.627  28.716  32.826  1.00  0.00    -0.237 OA
ATOM     85  O   UNL A   1      48.965  30.770  32.670  1.00  0.00    -0.237 OA
ATOM     86  O   UNL A   1      47.481  30.446  34.593  1.00  0.00    -0.744 OA
ENDBRANCH  80  83
ENDBRANCH  52  76
BRANCH  64  87
ATOM     87  C   UNL A   1      47.282  27.500  24.600  1.00  0.00     0.023 A 
ATOM     88  C   UNL A   1      48.186  26.719  25.363  1.00  0.00     0.012 A 
ATOM     89  C   UNL A   1      47.760  27.777  23.288  1.00  0.00     0.148 A 
ATOM     90  C   UNL A   1      49.508  26.429  24.990  1.00  0.00     0.002 A 
ATOM     91  C   UNL A   1      49.055  27.403  22.868  1.00  0.00     0.091 A 
ATOM     92  F   UNL A   1      46.962  28.395  22.410  1.00  0.00    -0.205 F 
ATOM     93  C   UNL A   1      49.952  26.787  23.739  1.00  0.00     0.022 A 
BRANCH  91  94
ATOM     94  S   UNL A   1      49.644  27.623  21.176  1.00  0.00     0.127 S 
ATOM     95  O   UNL A   1      49.694  29.080  21.070  1.00  0.00    -0.237 OA
ATOM     96  O   UNL A   1      50.956  26.974  21.211  1.00  0.00    -0.237 OA
ATOM     97  O   UNL A   1      48.659  26.954  20.339  1.00  0.00    -0.744 OA
ENDBRANCH  91  94
ENDBRANCH  64  87
ENDBRANCH  38  39
ENDBRANCH  31  33
ENDBRANCH  30  31
ENDBRANCH  29  30
ENDBRANCH  28  29
ENDBRANCH  27  28
ENDBRANCH   1  27
TORSDOF 24
ENDMDL
