MODEL 1
REMARK VINA RESULT:      -8.1      0.000      0.000
REMARK SMILES Cc1[nH]c2ccccc2c1/C=C1/SC(=S)N(c2cccc(C(=O)OCCOCCOCCOC(=O)c3ccc(-c4c5nc(c(-c6cccc(S(=O)(=O)[O-])c6F)c6ccc([nH]6)c(-c6cccc(S(=O)(=O)[O-])c6F)c6nc(c(-c7cccc(S(=O)(=O)[O-])c7F)c7ccc4[nH]7)C=C6)C=C5)cc3)c2)C1=O
REMARK SMILES IDX 29 1 28 2 27 3 26 4 25 5 24 6 22 7 23 8 21 9 17 10 18 11
REMARK SMILES IDX 99 12 19 13 20 14 16 15 11 16 12 17 13 18 100 19 14 20
REMARK SMILES IDX 101 21 15 22 10 23 1 24 2 25 3 26 4 27 9 29 5 30 8 31 6 32
REMARK SMILES IDX 7 33 30 34 31 35 32 36 33 37 34 38 35 39 36 40 37 41 98 42
REMARK SMILES IDX 38 43 97 44 39 45 40 46 41 47 91 48 42 49 96 50 90 51 92 52
REMARK SMILES IDX 43 53 95 54 89 55 88 56 44 58 76 59 56 60 75 61 57 62 60 63
REMARK SMILES IDX 74 64 93 65 58 66 59 67 73 69 94 70 61 71 45 72 46 73 54 74
REMARK SMILES IDX 47 75 49 76 55 77 48 78 50 79 51 80 52 81 53 82 77 83 78 84
REMARK SMILES IDX 86 85 79 86 81 87 87 88 80 89 82 90 83 91 84 92 85 93 62 94
REMARK SMILES IDX 63 95 71 96 64 97 66 98 72 99 65 100 67 101 68 102 69 103
REMARK SMILES IDX 70 104
REMARK H PARENT 3 28 92 57 60 68
REMARK Flexibility Score: inf
ROOT
ATOM      1  C   UNL A   1      42.931  19.775  25.726  1.00  0.00     0.188 C 
ENDROOT
BRANCH   1   2
ATOM      2  C   UNL A   1      44.034  20.849  25.597  1.00  0.00     0.188 C 
BRANCH   2   3
ATOM      3  O   UNL A   1      43.943  21.574  24.390  1.00  0.00    -0.376 OA
BRANCH   3   4
ATOM      4  C   UNL A   1      43.796  22.979  24.446  1.00  0.00     0.202 C 
BRANCH   4   5
ATOM      5  C   UNL A   1      44.917  23.886  24.990  1.00  0.00     0.261 C 
BRANCH   5   6
ATOM      6  O   UNL A   1      44.527  24.954  25.862  1.00  0.00    -0.460 OA
BRANCH   6   7
ATOM      7  C   UNL A   1      44.877  26.210  25.501  1.00  0.00     0.338 C 
ATOM      8  O   UNL A   1      45.838  26.539  24.826  1.00  0.00    -0.246 OA
BRANCH   7   9
ATOM      9  C   UNL A   1      43.797  27.130  25.922  1.00  0.00     0.062 A 
ATOM     10  C   UNL A   1      42.944  28.878  27.397  1.00  0.00     0.051 A 
ATOM     11  C   UNL A   1      41.685  28.712  26.793  1.00  0.00     0.027 A 
ATOM     12  C   UNL A   1      43.992  28.047  26.968  1.00  0.00     0.042 A 
ATOM     13  C   UNL A   1      41.489  27.794  25.755  1.00  0.00     0.003 A 
ATOM     14  C   UNL A   1      42.551  27.017  25.303  1.00  0.00     0.016 A 
BRANCH  10  15
ATOM     15  N   UNL A   1      43.135  29.859  28.430  1.00  0.00    -0.261 N 
ATOM     16  C   UNL A   1      42.655  30.891  31.924  1.00  0.00     0.032 C 
ATOM     17  C   UNL A   1      42.939  30.774  30.617  1.00  0.00     0.081 C 
ATOM     18  S   UNL A   1      43.838  31.967  29.766  1.00  0.00    -0.054 SA
ATOM     19  C   UNL A   1      42.580  29.650  29.697  1.00  0.00     0.270 C 
ATOM     20  C   UNL A   1      43.811  31.060  28.255  1.00  0.00     0.152 C 
ATOM     21  O   UNL A   1      41.906  28.690  30.045  1.00  0.00    -0.268 OA
ATOM     22  S   UNL A   1      44.451  31.760  26.873  1.00  0.00    -0.051 S 
BRANCH  16  23
ATOM     23  C   UNL A   1      41.991  29.931  32.741  1.00  0.00     0.004 A 
ATOM     24  C   UNL A   1      39.486  30.527  32.224  1.00  0.00     0.065 C 
ATOM     25  C   UNL A   1      40.620  29.796  32.848  1.00  0.00     0.020 A 
ATOM     26  N   UNL A   1      40.390  28.803  33.771  1.00  0.00    -0.358 N 
ATOM     27  C   UNL A   1      41.576  28.264  34.214  1.00  0.00     0.046 A 
ATOM     28  H   UNL A   1      39.498  28.517  34.074  1.00  0.00     0.166 HD
ATOM     29  C   UNL A   1      42.607  28.944  33.565  1.00  0.00     0.007 A 
ATOM     30  C   UNL A   1      41.807  27.247  35.147  1.00  0.00     0.027 A 
ATOM     31  C   UNL A   1      43.938  28.578  33.854  1.00  0.00     0.011 A 
ATOM     32  C   UNL A   1      43.135  26.909  35.421  1.00  0.00     0.002 A 
ATOM     33  C   UNL A   1      44.187  27.559  34.782  1.00  0.00     0.001 A 
ENDBRANCH  16  23
ENDBRANCH  10  15
ENDBRANCH   7   9
ENDBRANCH   6   7
ENDBRANCH   5   6
ENDBRANCH   4   5
ENDBRANCH   3   4
ENDBRANCH   2   3
ENDBRANCH   1   2
BRANCH   1  34
ATOM     34  O   UNL A   1      41.931  19.892  26.734  1.00  0.00    -0.376 OA
BRANCH  34  35
ATOM     35  C   UNL A   1      40.660  20.434  26.393  1.00  0.00     0.202 C 
BRANCH  35  36
ATOM     36  C   UNL A   1      40.292  21.863  26.825  1.00  0.00     0.261 C 
BRANCH  36  37
ATOM     37  O   UNL A   1      41.340  22.837  26.713  1.00  0.00    -0.460 OA
BRANCH  37  38
ATOM     38  C   UNL A   1      41.126  24.003  27.372  1.00  0.00     0.338 C 
ATOM     39  O   UNL A   1      40.152  24.730  27.292  1.00  0.00    -0.246 OA
BRANCH  38  40
ATOM     40  C   UNL A   1      42.199  24.203  28.364  1.00  0.00     0.060 A 
ATOM     41  C   UNL A   1      42.425  25.497  28.858  1.00  0.00     0.016 A 
ATOM     42  C   UNL A   1      43.008  23.139  28.762  1.00  0.00     0.016 A 
ATOM     43  C   UNL A   1      43.474  25.734  29.746  1.00  0.00     0.010 A 
ATOM     44  C   UNL A   1      44.075  23.384  29.630  1.00  0.00     0.010 A 
ATOM     45  C   UNL A   1      44.328  24.685  30.103  1.00  0.00    -0.014 A 
BRANCH  45  46
ATOM     46  C   UNL A   1      45.592  24.963  30.824  1.00  0.00     0.031 A 
ATOM     47  C   UNL A   1      46.786  25.401  30.028  1.00  0.00     0.074 A 
ATOM     48  C   UNL A   1      45.692  24.766  32.150  1.00  0.00     0.049 A 
ATOM     49  N   UNL A   1      48.022  25.576  30.416  1.00  0.00    -0.248 NA
ATOM     50  C   UNL A   1      46.558  25.663  28.598  1.00  0.00     0.031 C 
ATOM     51  C   UNL A   1      44.603  24.342  33.025  1.00  0.00     0.029 A 
ATOM     52  N   UNL A   1      46.783  24.851  32.979  1.00  0.00    -0.354 N 
ATOM     53  C   UNL A   1      48.728  25.922  29.271  1.00  0.00     0.074 A 
ATOM     54  C   UNL A   1      47.783  25.935  28.175  1.00  0.00     0.031 C 
ATOM     55  C   UNL A   1      45.093  24.144  34.261  1.00  0.00     0.029 A 
ATOM     56  C   UNL A   1      46.534  24.398  34.253  1.00  0.00     0.049 A 
ATOM     57  H   UNL A   1      47.658  25.201  32.691  1.00  0.00     0.167 HD
ATOM     58  C   UNL A   1      50.045  26.206  29.143  1.00  0.00     0.034 A 
ATOM     59  C   UNL A   1      47.378  24.170  35.278  1.00  0.00     0.034 A 
ATOM     60  C   UNL A   1      50.978  26.202  30.236  1.00  0.00     0.049 A 
ATOM     61  C   UNL A   1      48.843  24.477  35.115  1.00  0.00     0.074 A 
ATOM     62  C   UNL A   1      52.317  26.544  30.223  1.00  0.00     0.029 A 
ATOM     63  N   UNL A   1      50.675  25.812  31.530  1.00  0.00    -0.354 N 
ATOM     64  N   UNL A   1      49.478  24.935  34.062  1.00  0.00    -0.248 NA
ATOM     65  C   UNL A   1      49.707  24.268  36.288  1.00  0.00     0.031 C 
ATOM     66  C   UNL A   1      52.834  26.324  31.504  1.00  0.00     0.029 A 
ATOM     67  C   UNL A   1      51.805  25.883  32.323  1.00  0.00     0.049 A 
ATOM     68  H   UNL A   1      49.785  25.525  31.840  1.00  0.00     0.167 HD
ATOM     69  C   UNL A   1      50.802  25.100  34.452  1.00  0.00     0.074 A 
ATOM     70  C   UNL A   1      50.880  24.702  35.842  1.00  0.00     0.031 C 
ATOM     71  C   UNL A   1      51.860  25.535  33.722  1.00  0.00     0.034 A 
BRANCH  58  72
ATOM     72  C   UNL A   1      50.549  26.545  27.766  1.00  0.00     0.023 A 
ATOM     73  C   UNL A   1      50.736  25.522  26.813  1.00  0.00     0.012 A 
ATOM     74  C   UNL A   1      50.822  27.879  27.409  1.00  0.00     0.148 A 
ATOM     75  C   UNL A   1      51.229  25.817  25.542  1.00  0.00     0.002 A 
ATOM     76  C   UNL A   1      51.267  28.172  26.125  1.00  0.00     0.091 A 
ATOM     77  F   UNL A   1      50.664  28.836  28.335  1.00  0.00    -0.205 F 
ATOM     78  C   UNL A   1      51.485  27.141  25.196  1.00  0.00     0.022 A 
BRANCH  76  79
ATOM     79  S   UNL A   1      51.545  29.855  25.566  1.00  0.00     0.127 S 
ATOM     80  O   UNL A   1      50.390  30.549  26.133  1.00  0.00    -0.237 OA
ATOM     81  O   UNL A   1      52.823  30.185  26.200  1.00  0.00    -0.237 OA
ATOM     82  O   UNL A   1      51.593  29.790  24.113  1.00  0.00    -0.744 OA
ENDBRANCH  76  79
ENDBRANCH  58  72
BRANCH  59  83
ATOM     83  C   UNL A   1      46.842  23.623  36.557  1.00  0.00     0.023 A 
ATOM     84  C   UNL A   1      46.123  24.462  37.428  1.00  0.00     0.012 A 
ATOM     85  C   UNL A   1      46.995  22.261  36.881  1.00  0.00     0.148 A 
ATOM     86  C   UNL A   1      45.580  23.957  38.610  1.00  0.00     0.002 A 
ATOM     87  C   UNL A   1      46.407  21.753  38.032  1.00  0.00     0.091 A 
ATOM     88  F   UNL A   1      47.695  21.485  36.041  1.00  0.00    -0.205 F 
ATOM     89  C   UNL A   1      45.711  22.602  38.906  1.00  0.00     0.022 A 
BRANCH  87  90
ATOM     90  S   UNL A   1      46.411  20.000  38.429  1.00  0.00     0.127 S 
ATOM     91  O   UNL A   1      45.728  19.986  39.720  1.00  0.00    -0.237 OA
ATOM     92  O   UNL A   1      45.640  19.442  37.317  1.00  0.00    -0.237 OA
ATOM     93  O   UNL A   1      47.811  19.602  38.453  1.00  0.00    -0.744 OA
ENDBRANCH  87  90
ENDBRANCH  59  83
BRANCH  71  94
ATOM     94  C   UNL A   1      53.197  25.657  34.405  1.00  0.00     0.023 A 
ATOM     95  C   UNL A   1      53.480  26.781  35.206  1.00  0.00     0.012 A 
ATOM     96  C   UNL A   1      54.125  24.597  34.347  1.00  0.00     0.148 A 
ATOM     97  C   UNL A   1      54.671  26.853  35.927  1.00  0.00     0.002 A 
ATOM     98  C   UNL A   1      55.286  24.654  35.106  1.00  0.00     0.091 A 
ATOM     99  F   UNL A   1      53.843  23.545  33.565  1.00  0.00    -0.205 F 
ATOM    100  C   UNL A   1      55.567  25.786  35.890  1.00  0.00     0.022 A 
BRANCH  98 101
ATOM    101  S   UNL A   1      56.448  23.286  35.201  1.00  0.00     0.127 S 
ATOM    102  O   UNL A   1      57.497  23.844  36.055  1.00  0.00    -0.237 OA
ATOM    103  O   UNL A   1      55.642  22.239  35.830  1.00  0.00    -0.237 OA
ATOM    104  O   UNL A   1      56.850  23.001  33.830  1.00  0.00    -0.744 OA
ENDBRANCH  98 101
ENDBRANCH  71  94
ENDBRANCH  45  46
ENDBRANCH  38  40
ENDBRANCH  37  38
ENDBRANCH  36  37
ENDBRANCH  35  36
ENDBRANCH  34  35
ENDBRANCH   1  34
TORSDOF 22
ENDMDL
MODEL 2
REMARK VINA RESULT:      -7.9      1.950      3.710
REMARK SMILES Cc1[nH]c2ccccc2c1/C=C1/SC(=S)N(c2cccc(C(=O)OCCOCCOCCOC(=O)c3ccc(-c4c5nc(c(-c6cccc(S(=O)(=O)[O-])c6F)c6ccc([nH]6)c(-c6cccc(S(=O)(=O)[O-])c6F)c6nc(c(-c7cccc(S(=O)(=O)[O-])c7F)c7ccc4[nH]7)C=C6)C=C5)cc3)c2)C1=O
REMARK SMILES IDX 29 1 28 2 27 3 26 4 25 5 24 6 22 7 23 8 21 9 17 10 18 11
REMARK SMILES IDX 99 12 19 13 20 14 16 15 11 16 12 17 13 18 100 19 14 20
REMARK SMILES IDX 101 21 15 22 10 23 1 24 2 25 3 26 4 27 9 29 5 30 8 31 6 32
REMARK SMILES IDX 7 33 30 34 31 35 32 36 33 37 34 38 35 39 36 40 37 41 98 42
REMARK SMILES IDX 38 43 97 44 39 45 40 46 41 47 91 48 42 49 96 50 90 51 92 52
REMARK SMILES IDX 43 53 95 54 89 55 88 56 44 58 76 59 56 60 75 61 57 62 60 63
REMARK SMILES IDX 74 64 93 65 58 66 59 67 73 69 94 70 61 71 45 72 46 73 54 74
REMARK SMILES IDX 47 75 49 76 55 77 48 78 50 79 51 80 52 81 53 82 77 83 78 84
REMARK SMILES IDX 86 85 79 86 81 87 87 88 80 89 82 90 83 91 84 92 85 93 62 94
REMARK SMILES IDX 63 95 71 96 64 97 66 98 72 99 65 100 67 101 68 102 69 103
REMARK SMILES IDX 70 104
REMARK H PARENT 3 28 92 57 60 68
REMARK Flexibility Score: inf
ROOT
ATOM      1  C   UNL A   1      42.767  19.954  25.830  1.00  0.00     0.188 C 
ENDROOT
BRANCH   1   2
ATOM      2  C   UNL A   1      43.743  21.152  25.785  1.00  0.00     0.188 C 
BRANCH   2   3
ATOM      3  O   UNL A   1      43.897  21.673  24.483  1.00  0.00    -0.376 OA
BRANCH   3   4
ATOM      4  C   UNL A   1      43.826  23.073  24.296  1.00  0.00     0.202 C 
BRANCH   4   5
ATOM      5  C   UNL A   1      44.999  23.997  24.676  1.00  0.00     0.261 C 
BRANCH   5   6
ATOM      6  O   UNL A   1      44.780  24.920  25.751  1.00  0.00    -0.460 OA
BRANCH   6   7
ATOM      7  C   UNL A   1      45.274  26.172  25.605  1.00  0.00     0.338 C 
ATOM      8  O   UNL A   1      46.398  26.481  25.246  1.00  0.00    -0.246 OA
BRANCH   7   9
ATOM      9  C   UNL A   1      44.163  27.131  25.794  1.00  0.00     0.062 A 
ATOM     10  C   UNL A   1      43.232  29.130  26.840  1.00  0.00     0.051 A 
ATOM     11  C   UNL A   1      41.994  28.805  26.256  1.00  0.00     0.027 A 
ATOM     12  C   UNL A   1      44.309  28.255  26.624  1.00  0.00     0.042 A 
ATOM     13  C   UNL A   1      41.848  27.682  25.435  1.00  0.00     0.003 A 
ATOM     14  C   UNL A   1      42.938  26.855  25.185  1.00  0.00     0.016 A 
BRANCH  10  15
ATOM     15  N   UNL A   1      43.372  30.313  27.644  1.00  0.00    -0.261 N 
ATOM     16  C   UNL A   1      44.748  33.694  28.064  1.00  0.00     0.032 C 
ATOM     17  C   UNL A   1      44.154  32.495  28.177  1.00  0.00     0.081 C 
ATOM     18  S   UNL A   1      43.179  32.082  29.532  1.00  0.00    -0.054 SA
ATOM     19  C   UNL A   1      44.192  31.358  27.206  1.00  0.00     0.270 C 
ATOM     20  C   UNL A   1      42.774  30.491  28.886  1.00  0.00     0.152 C 
ATOM     21  O   UNL A   1      44.849  31.382  26.174  1.00  0.00    -0.268 OA
ATOM     22  S   UNL A   1      41.884  29.431  29.831  1.00  0.00    -0.051 S 
BRANCH  16  23
ATOM     23  C   UNL A   1      45.505  34.169  26.955  1.00  0.00     0.004 A 
ATOM     24  C   UNL A   1      43.575  34.645  25.239  1.00  0.00     0.065 C 
ATOM     25  C   UNL A   1      44.970  34.575  25.748  1.00  0.00     0.020 A 
ATOM     26  N   UNL A   1      46.029  34.903  24.934  1.00  0.00    -0.358 N 
ATOM     27  C   UNL A   1      47.222  34.770  25.608  1.00  0.00     0.046 A 
ATOM     28  H   UNL A   1      45.945  35.193  23.997  1.00  0.00     0.166 HD
ATOM     29  C   UNL A   1      46.920  34.325  26.896  1.00  0.00     0.007 A 
ATOM     30  C   UNL A   1      48.531  34.990  25.167  1.00  0.00     0.027 A 
ATOM     31  C   UNL A   1      47.985  34.103  27.795  1.00  0.00     0.011 A 
ATOM     32  C   UNL A   1      49.568  34.755  26.075  1.00  0.00     0.002 A 
ATOM     33  C   UNL A   1      49.302  34.323  27.371  1.00  0.00     0.001 A 
ENDBRANCH  16  23
ENDBRANCH  10  15
ENDBRANCH   7   9
ENDBRANCH   6   7
ENDBRANCH   5   6
ENDBRANCH   4   5
ENDBRANCH   3   4
ENDBRANCH   2   3
ENDBRANCH   1   2
BRANCH   1  34
ATOM     34  O   UNL A   1      41.572  20.032  26.603  1.00  0.00    -0.376 OA
BRANCH  34  35
ATOM     35  C   UNL A   1      40.595  21.014  26.276  1.00  0.00     0.202 C 
BRANCH  35  36
ATOM     36  C   UNL A   1      40.472  22.289  27.125  1.00  0.00     0.261 C 
BRANCH  36  37
ATOM     37  O   UNL A   1      41.379  23.349  26.794  1.00  0.00    -0.460 OA
BRANCH  37  38
ATOM     38  C   UNL A   1      41.210  24.503  27.487  1.00  0.00     0.338 C 
ATOM     39  O   UNL A   1      40.261  25.265  27.432  1.00  0.00    -0.246 OA
BRANCH  38  40
ATOM     40  C   UNL A   1      42.293  24.637  28.479  1.00  0.00     0.060 A 
ATOM     41  C   UNL A   1      42.495  25.884  29.090  1.00  0.00     0.016 A 
ATOM     42  C   UNL A   1      43.135  23.562  28.764  1.00  0.00     0.016 A 
ATOM     43  C   UNL A   1      43.551  26.064  29.981  1.00  0.00     0.010 A 
ATOM     44  C   UNL A   1      44.209  23.752  29.636  1.00  0.00     0.010 A 
ATOM     45  C   UNL A   1      44.436  25.009  30.226  1.00  0.00    -0.014 A 
BRANCH  45  46
ATOM     46  C   UNL A   1      45.704  25.251  30.953  1.00  0.00     0.031 A 
ATOM     47  C   UNL A   1      46.892  25.737  30.175  1.00  0.00     0.074 A 
ATOM     48  C   UNL A   1      45.815  24.981  32.266  1.00  0.00     0.049 A 
ATOM     49  N   UNL A   1      48.129  25.895  30.564  1.00  0.00    -0.248 NA
ATOM     50  C   UNL A   1      46.652  26.078  28.763  1.00  0.00     0.031 C 
ATOM     51  C   UNL A   1      44.733  24.504  33.123  1.00  0.00     0.029 A 
ATOM     52  N   UNL A   1      46.911  25.023  33.091  1.00  0.00    -0.354 N 
ATOM     53  C   UNL A   1      48.826  26.308  29.435  1.00  0.00     0.074 A 
ATOM     54  C   UNL A   1      47.873  26.378  28.348  1.00  0.00     0.031 C 
ATOM     55  C   UNL A   1      45.233  24.240  34.342  1.00  0.00     0.029 A 
ATOM     56  C   UNL A   1      46.672  24.499  34.339  1.00  0.00     0.049 A 
ATOM     57  H   UNL A   1      47.782  25.392  32.817  1.00  0.00     0.167 HD
ATOM     58  C   UNL A   1      50.141  26.603  29.314  1.00  0.00     0.034 A 
ATOM     59  C   UNL A   1      47.524  24.217  35.344  1.00  0.00     0.034 A 
ATOM     60  C   UNL A   1      51.082  26.542  30.399  1.00  0.00     0.049 A 
ATOM     61  C   UNL A   1      48.987  24.539  35.189  1.00  0.00     0.074 A 
ATOM     62  C   UNL A   1      52.420  26.889  30.396  1.00  0.00     0.029 A 
ATOM     63  N   UNL A   1      50.789  26.079  31.672  1.00  0.00    -0.354 N 
ATOM     64  N   UNL A   1      49.613  25.057  34.159  1.00  0.00    -0.248 NA
ATOM     65  C   UNL A   1      49.860  24.268  36.342  1.00  0.00     0.031 C 
ATOM     66  C   UNL A   1      52.946  26.600  31.660  1.00  0.00     0.029 A 
ATOM     67  C   UNL A   1      51.925  26.110  32.460  1.00  0.00     0.049 A 
ATOM     68  H   UNL A   1      49.902  25.772  31.971  1.00  0.00     0.167 HD
ATOM     69  C   UNL A   1      50.940  25.205  34.548  1.00  0.00     0.074 A 
ATOM     70  C   UNL A   1      51.028  24.730  35.913  1.00  0.00     0.031 C 
ATOM     71  C   UNL A   1      51.990  25.685  33.836  1.00  0.00     0.034 A 
BRANCH  58  72
ATOM     72  C   UNL A   1      50.635  27.020  27.955  1.00  0.00     0.023 A 
ATOM     73  C   UNL A   1      50.896  26.045  26.971  1.00  0.00     0.012 A 
ATOM     74  C   UNL A   1      50.823  28.381  27.645  1.00  0.00     0.148 A 
ATOM     75  C   UNL A   1      51.380  26.414  25.716  1.00  0.00     0.002 A 
ATOM     76  C   UNL A   1      51.260  28.745  26.377  1.00  0.00     0.091 A 
ATOM     77  F   UNL A   1      50.596  29.293  28.601  1.00  0.00    -0.205 F 
ATOM     78  C   UNL A   1      51.553  27.763  25.417  1.00  0.00     0.022 A 
BRANCH  76  79
ATOM     79  S   UNL A   1      51.434  30.461  25.878  1.00  0.00     0.127 S 
ATOM     80  O   UNL A   1      51.696  30.327  24.446  1.00  0.00    -0.237 OA
ATOM     81  O   UNL A   1      50.119  31.014  26.207  1.00  0.00    -0.237 OA
ATOM     82  O   UNL A   1      52.529  30.998  26.672  1.00  0.00    -0.744 OA
ENDBRANCH  76  79
ENDBRANCH  58  72
BRANCH  59  83
ATOM     83  C   UNL A   1      46.999  23.598  36.594  1.00  0.00     0.023 A 
ATOM     84  C   UNL A   1      46.331  24.395  37.541  1.00  0.00     0.012 A 
ATOM     85  C   UNL A   1      47.111  22.212  36.815  1.00  0.00     0.148 A 
ATOM     86  C   UNL A   1      45.799  23.825  38.698  1.00  0.00     0.002 A 
ATOM     87  C   UNL A   1      46.532  21.642  37.942  1.00  0.00     0.091 A 
ATOM     88  F   UNL A   1      47.762  21.475  35.904  1.00  0.00    -0.205 F 
ATOM     89  C   UNL A   1      45.887  22.448  38.892  1.00  0.00     0.022 A 
BRANCH  87  90
ATOM     90  S   UNL A   1      46.482  19.866  38.212  1.00  0.00     0.127 S 
ATOM     91  O   UNL A   1      45.912  19.784  39.555  1.00  0.00    -0.237 OA
ATOM     92  O   UNL A   1      45.593  19.426  37.136  1.00  0.00    -0.237 OA
ATOM     93  O   UNL A   1      47.858  19.406  38.085  1.00  0.00    -0.744 OA
ENDBRANCH  87  90
ENDBRANCH  59  83
BRANCH  71  94
ATOM     94  C   UNL A   1      53.332  25.774  34.516  1.00  0.00     0.023 A 
ATOM     95  C   UNL A   1      53.602  26.829  35.408  1.00  0.00     0.012 A 
ATOM     96  C   UNL A   1      54.279  24.741  34.359  1.00  0.00     0.148 A 
ATOM     97  C   UNL A   1      54.799  26.862  36.123  1.00  0.00     0.002 A 
ATOM     98  C   UNL A   1      55.447  24.755  35.110  1.00  0.00     0.091 A 
ATOM     99  F   UNL A   1      54.009  23.755  33.491  1.00  0.00    -0.205 F 
ATOM    100  C   UNL A   1      55.714  25.820  35.986  1.00  0.00     0.022 A 
BRANCH  98 101
ATOM    101  S   UNL A   1      56.635  23.407  35.077  1.00  0.00     0.127 S 
ATOM    102  O   UNL A   1      56.613  23.024  33.665  1.00  0.00    -0.237 OA
ATOM    103  O   UNL A   1      57.866  24.068  35.511  1.00  0.00    -0.237 OA
ATOM    104  O   UNL A   1      56.129  22.400  36.000  1.00  0.00    -0.744 OA
ENDBRANCH  98 101
ENDBRANCH  71  94
ENDBRANCH  45  46
ENDBRANCH  38  40
ENDBRANCH  37  38
ENDBRANCH  36  37
ENDBRANCH  35  36
ENDBRANCH  34  35
ENDBRANCH   1  34
TORSDOF 22
ENDMDL
MODEL 3
REMARK VINA RESULT:      -7.8      6.028     10.039
REMARK SMILES Cc1[nH]c2ccccc2c1/C=C1/SC(=S)N(c2cccc(C(=O)OCCOCCOCCOC(=O)c3ccc(-c4c5nc(c(-c6cccc(S(=O)(=O)[O-])c6F)c6ccc([nH]6)c(-c6cccc(S(=O)(=O)[O-])c6F)c6nc(c(-c7cccc(S(=O)(=O)[O-])c7F)c7ccc4[nH]7)C=C6)C=C5)cc3)c2)C1=O
REMARK SMILES IDX 29 1 28 2 27 3 26 4 25 5 24 6 22 7 23 8 21 9 17 10 18 11
REMARK SMILES IDX 99 12 19 13 20 14 16 15 11 16 12 17 13 18 100 19 14 20
REMARK SMILES IDX 101 21 15 22 10 23 1 24 2 25 3 26 4 27 9 29 5 30 8 31 6 32
REMARK SMILES IDX 7 33 30 34 31 35 32 36 33 37 34 38 35 39 36 40 37 41 98 42
REMARK SMILES IDX 38 43 97 44 39 45 40 46 41 47 91 48 42 49 96 50 90 51 92 52
REMARK SMILES IDX 43 53 95 54 89 55 88 56 44 58 76 59 56 60 75 61 57 62 60 63
REMARK SMILES IDX 74 64 93 65 58 66 59 67 73 69 94 70 61 71 45 72 46 73 54 74
REMARK SMILES IDX 47 75 49 76 55 77 48 78 50 79 51 80 52 81 53 82 77 83 78 84
REMARK SMILES IDX 86 85 79 86 81 87 87 88 80 89 82 90 83 91 84 92 85 93 62 94
REMARK SMILES IDX 63 95 71 96 64 97 66 98 72 99 65 100 67 101 68 102 69 103
REMARK SMILES IDX 70 104
REMARK H PARENT 3 28 92 57 60 68
REMARK Flexibility Score: inf
ROOT
ATOM      1  C   UNL A   1      35.482  32.307  31.650  1.00  0.00     0.188 C 
ENDROOT
BRANCH   1   2
ATOM      2  C   UNL A   1      35.510  32.243  30.106  1.00  0.00     0.188 C 
BRANCH   2   3
ATOM      3  O   UNL A   1      36.819  32.110  29.596  1.00  0.00    -0.376 OA
BRANCH   3   4
ATOM      4  C   UNL A   1      37.123  30.998  28.777  1.00  0.00     0.202 C 
BRANCH   4   5
ATOM      5  C   UNL A   1      36.174  29.788  28.676  1.00  0.00     0.261 C 
BRANCH   5   6
ATOM      6  O   UNL A   1      35.525  29.571  27.417  1.00  0.00    -0.460 OA
BRANCH   6   7
ATOM      7  C   UNL A   1      34.314  30.147  27.235  1.00  0.00     0.338 C 
ATOM      8  O   UNL A   1      34.064  31.340  27.214  1.00  0.00    -0.246 OA
BRANCH   7   9
ATOM      9  C   UNL A   1      33.344  29.083  26.892  1.00  0.00     0.062 A 
ATOM     10  C   UNL A   1      32.506  27.382  25.355  1.00  0.00     0.051 A 
ATOM     11  C   UNL A   1      31.399  27.219  26.209  1.00  0.00     0.027 A 
ATOM     12  C   UNL A   1      33.462  28.352  25.699  1.00  0.00     0.042 A 
ATOM     13  C   UNL A   1      31.279  27.953  27.394  1.00  0.00     0.003 A 
ATOM     14  C   UNL A   1      32.262  28.871  27.748  1.00  0.00     0.016 A 
BRANCH  10  15
ATOM     15  N   UNL A   1      32.633  26.586  24.165  1.00  0.00    -0.261 N 
ATOM     16  C   UNL A   1      33.674  23.443  22.571  1.00  0.00     0.032 C 
ATOM     17  C   UNL A   1      33.240  24.674  22.888  1.00  0.00     0.081 C 
ATOM     18  S   UNL A   1      32.532  25.721  21.722  1.00  0.00    -0.054 SA
ATOM     19  C   UNL A   1      33.258  25.336  24.229  1.00  0.00     0.270 C 
ATOM     20  C   UNL A   1      32.213  26.991  22.904  1.00  0.00     0.152 C 
ATOM     21  O   UNL A   1      33.744  24.817  25.224  1.00  0.00    -0.268 OA
ATOM     22  S   UNL A   1      31.599  28.458  22.377  1.00  0.00    -0.051 S 
BRANCH  16  23
ATOM     23  C   UNL A   1      34.198  22.468  23.468  1.00  0.00     0.004 A 
ATOM     24  C   UNL A   1      32.180  20.790  23.568  1.00  0.00     0.065 C 
ATOM     25  C   UNL A   1      33.530  21.330  23.878  1.00  0.00     0.020 A 
ATOM     26  N   UNL A   1      34.350  20.690  24.777  1.00  0.00    -0.358 N 
ATOM     27  C   UNL A   1      35.546  21.359  24.909  1.00  0.00     0.046 A 
ATOM     28  H   UNL A   1      34.114  19.866  25.261  1.00  0.00     0.166 HD
ATOM     29  C   UNL A   1      35.486  22.478  24.077  1.00  0.00     0.007 A 
ATOM     30  C   UNL A   1      36.654  21.067  25.712  1.00  0.00     0.027 A 
ATOM     31  C   UNL A   1      36.600  23.342  24.036  1.00  0.00     0.011 A 
ATOM     32  C   UNL A   1      37.742  21.943  25.657  1.00  0.00     0.002 A 
ATOM     33  C   UNL A   1      37.720  23.062  24.829  1.00  0.00     0.001 A 
ENDBRANCH  16  23
ENDBRANCH  10  15
ENDBRANCH   7   9
ENDBRANCH   6   7
ENDBRANCH   5   6
ENDBRANCH   4   5
ENDBRANCH   3   4
ENDBRANCH   2   3
ENDBRANCH   1   2
BRANCH   1  34
ATOM     34  O   UNL A   1      34.313  32.760  32.327  1.00  0.00    -0.376 OA
BRANCH  34  35
ATOM     35  C   UNL A   1      34.447  33.670  33.414  1.00  0.00     0.202 C 
BRANCH  35  36
ATOM     36  C   UNL A   1      35.823  33.898  34.060  1.00  0.00     0.261 C 
BRANCH  36  37
ATOM     37  O   UNL A   1      36.238  32.905  35.008  1.00  0.00    -0.460 OA
BRANCH  37  38
ATOM     38  C   UNL A   1      37.325  33.227  35.754  1.00  0.00     0.338 C 
ATOM     39  O   UNL A   1      37.359  33.938  36.743  1.00  0.00    -0.246 OA
BRANCH  38  40
ATOM     40  C   UNL A   1      38.483  32.440  35.289  1.00  0.00     0.060 A 
ATOM     41  C   UNL A   1      38.394  31.040  35.304  1.00  0.00     0.016 A 
ATOM     42  C   UNL A   1      39.662  33.072  34.895  1.00  0.00     0.016 A 
ATOM     43  C   UNL A   1      39.492  30.264  34.936  1.00  0.00     0.010 A 
ATOM     44  C   UNL A   1      40.769  32.294  34.553  1.00  0.00     0.010 A 
ATOM     45  C   UNL A   1      40.697  30.889  34.598  1.00  0.00    -0.014 A 
BRANCH  45  46
ATOM     46  C   UNL A   1      41.939  30.093  34.464  1.00  0.00     0.031 A 
ATOM     47  C   UNL A   1      42.168  29.337  33.188  1.00  0.00     0.074 A 
ATOM     48  C   UNL A   1      42.813  29.992  35.481  1.00  0.00     0.049 A 
ATOM     49  N   UNL A   1      43.108  28.479  32.889  1.00  0.00    -0.248 NA
ATOM     50  C   UNL A   1      41.197  29.572  32.106  1.00  0.00     0.031 C 
ATOM     51  C   UNL A   1      42.695  30.677  36.764  1.00  0.00     0.029 A 
ATOM     52  N   UNL A   1      43.947  29.228  35.603  1.00  0.00    -0.354 N 
ATOM     53  C   UNL A   1      42.816  28.035  31.606  1.00  0.00     0.074 A 
ATOM     54  C   UNL A   1      41.614  28.721  31.181  1.00  0.00     0.031 C 
ATOM     55  C   UNL A   1      43.685  30.256  37.571  1.00  0.00     0.029 A 
ATOM     56  C   UNL A   1      44.483  29.252  36.869  1.00  0.00     0.049 A 
ATOM     57  H   UNL A   1      44.338  28.713  34.860  1.00  0.00     0.167 HD
ATOM     58  C   UNL A   1      43.488  27.138  30.848  1.00  0.00     0.034 A 
ATOM     59  C   UNL A   1      45.473  28.514  37.411  1.00  0.00     0.034 A 
ATOM     60  C   UNL A   1      44.687  26.468  31.270  1.00  0.00     0.049 A 
ATOM     61  C   UNL A   1      46.202  27.510  36.557  1.00  0.00     0.074 A 
ATOM     62  C   UNL A   1      45.482  25.596  30.550  1.00  0.00     0.029 A 
ATOM     63  N   UNL A   1      45.246  26.573  32.533  1.00  0.00    -0.354 N 
ATOM     64  N   UNL A   1      46.001  27.196  35.299  1.00  0.00    -0.248 NA
ATOM     65  C   UNL A   1      47.313  26.778  37.185  1.00  0.00     0.031 C 
ATOM     66  C   UNL A   1      46.504  25.144  31.391  1.00  0.00     0.029 A 
ATOM     67  C   UNL A   1      46.366  25.766  32.623  1.00  0.00     0.049 A 
ATOM     68  H   UNL A   1      44.898  27.139  33.260  1.00  0.00     0.167 HD
ATOM     69  C   UNL A   1      46.978  26.260  34.975  1.00  0.00     0.074 A 
ATOM     70  C   UNL A   1      47.777  26.063  36.166  1.00  0.00     0.031 C 
ATOM     71  C   UNL A   1      47.188  25.618  33.799  1.00  0.00     0.034 A 
BRANCH  58  72
ATOM     72  C   UNL A   1      42.935  26.835  29.481  1.00  0.00     0.023 A 
ATOM     73  C   UNL A   1      42.020  25.776  29.310  1.00  0.00     0.012 A 
ATOM     74  C   UNL A   1      43.308  27.611  28.367  1.00  0.00     0.148 A 
ATOM     75  C   UNL A   1      41.520  25.466  28.046  1.00  0.00     0.002 A 
ATOM     76  C   UNL A   1      42.770  27.326  27.117  1.00  0.00     0.091 A 
ATOM     77  F   UNL A   1      44.200  28.597  28.542  1.00  0.00    -0.205 F 
ATOM     78  C   UNL A   1      41.888  26.245  26.953  1.00  0.00     0.022 A 
BRANCH  76  79
ATOM     79  S   UNL A   1      43.124  28.327  25.670  1.00  0.00     0.127 S 
ATOM     80  O   UNL A   1      42.750  29.662  26.135  1.00  0.00    -0.237 OA
ATOM     81  O   UNL A   1      44.563  28.124  25.497  1.00  0.00    -0.237 OA
ATOM     82  O   UNL A   1      42.305  27.780  24.597  1.00  0.00    -0.744 OA
ENDBRANCH  76  79
ENDBRANCH  58  72
BRANCH  59  83
ATOM     83  C   UNL A   1      45.829  28.712  38.844  1.00  0.00     0.023 A 
ATOM     84  C   UNL A   1      45.308  27.844  39.820  1.00  0.00     0.012 A 
ATOM     85  C   UNL A   1      46.729  29.724  39.231  1.00  0.00     0.148 A 
ATOM     86  C   UNL A   1      45.662  27.990  41.161  1.00  0.00     0.002 A 
ATOM     87  C   UNL A   1      47.120  29.831  40.559  1.00  0.00     0.091 A 
ATOM     88  F   UNL A   1      47.203  30.547  38.284  1.00  0.00    -0.205 F 
ATOM     89  C   UNL A   1      46.578  28.974  41.529  1.00  0.00     0.022 A 
BRANCH  87  90
ATOM     90  S   UNL A   1      48.389  30.981  41.105  1.00  0.00     0.127 S 
ATOM     91  O   UNL A   1      48.667  30.498  42.457  1.00  0.00    -0.237 OA
ATOM     92  O   UNL A   1      49.453  30.734  40.132  1.00  0.00    -0.237 OA
ATOM     93  O   UNL A   1      47.789  32.304  41.022  1.00  0.00    -0.744 OA
ENDBRANCH  87  90
ENDBRANCH  59  83
BRANCH  71  94
ATOM     94  C   UNL A   1      48.353  24.668  33.702  1.00  0.00     0.023 A 
ATOM     95  C   UNL A   1      49.594  25.121  33.215  1.00  0.00     0.012 A 
ATOM     96  C   UNL A   1      48.246  23.357  34.211  1.00  0.00     0.148 A 
ATOM     97  C   UNL A   1      50.707  24.280  33.222  1.00  0.00     0.002 A 
ATOM     98  C   UNL A   1      49.370  22.542  34.259  1.00  0.00     0.091 A 
ATOM     99  F   UNL A   1      47.051  22.941  34.654  1.00  0.00    -0.205 F 
ATOM    100  C   UNL A   1      50.599  22.998  33.756  1.00  0.00     0.022 A 
BRANCH  98 101
ATOM    101  S   UNL A   1      49.352  20.915  35.023  1.00  0.00     0.127 S 
ATOM    102  O   UNL A   1      50.735  20.480  34.830  1.00  0.00    -0.237 OA
ATOM    103  O   UNL A   1      48.997  21.226  36.408  1.00  0.00    -0.237 OA
ATOM    104  O   UNL A   1      48.351  20.140  34.300  1.00  0.00    -0.744 OA
ENDBRANCH  98 101
ENDBRANCH  71  94
ENDBRANCH  45  46
ENDBRANCH  38  40
ENDBRANCH  37  38
ENDBRANCH  36  37
ENDBRANCH  35  36
ENDBRANCH  34  35
ENDBRANCH   1  34
TORSDOF 22
ENDMDL
