MODEL 1
REMARK VINA RESULT:     -10.8      0.000      0.000
REMARK SMILES CC1(C)CCN(S(=O)(=O)c2ccc(O)c(C(=O)OCCOCCOCCOC(=O)c3ccc(-c4c5nc(c(-c6cccc(S(=O)(=O)[O-])c6F)c6ccc([nH]6)c(-c6cccc(S(=O)(=O)[O-])c6F)c6nc(c(-c7cccc(S(=O)(=O)[O-])c7F)c7ccc4[nH]7)C=C6)C=C5)cc3)c2)C1
REMARK SMILES IDX 23 1 22 2 21 3 20 4 19 5 18 6 16 7 17 8 15 9 10 10 11 11
REMARK SMILES IDX 93 12 12 13 13 14 7 15 8 16 9 17 6 18 1 19 2 20 3 21 4 22
REMARK SMILES IDX 94 23 5 24 14 25 24 27 25 28 26 29 27 30 28 31 29 32 30 33
REMARK SMILES IDX 31 34 92 35 32 36 91 37 33 38 34 39 35 40 85 41 36 42 90 43
REMARK SMILES IDX 84 44 86 45 37 46 89 47 83 48 82 49 38 51 70 52 50 53 69 54
REMARK SMILES IDX 51 55 54 56 68 57 87 58 52 59 53 60 67 62 88 63 55 64 39 65
REMARK SMILES IDX 40 66 48 67 41 68 43 69 49 70 42 71 44 72 45 73 46 74 47 75
REMARK SMILES IDX 71 76 72 77 80 78 73 79 75 80 81 81 74 82 76 83 77 84 78 85
REMARK SMILES IDX 79 86 56 87 57 88 65 89 58 90 60 91 66 92 59 93 61 94 62 95
REMARK SMILES IDX 63 96 64 97
REMARK H PARENT 14 26 86 50 54 61
REMARK Flexibility Score: inf
ROOT
ATOM      1  C   UNL A   1      28.879  31.118  23.631  1.00  0.00     0.188 C 
ENDROOT
BRANCH   1   2
ATOM      2  C   UNL A   1      29.155  30.849  22.134  1.00  0.00     0.188 C 
BRANCH   2   3
ATOM      3  O   UNL A   1      29.167  29.479  21.805  1.00  0.00    -0.376 OA
BRANCH   3   4
ATOM      4  C   UNL A   1      29.281  28.501  22.820  1.00  0.00     0.202 C 
BRANCH   4   5
ATOM      5  C   UNL A   1      30.524  27.618  23.036  1.00  0.00     0.261 C 
BRANCH   5   6
ATOM      6  O   UNL A   1      31.680  27.934  22.262  1.00  0.00    -0.460 OA
BRANCH   6   7
ATOM      7  C   UNL A   1      32.811  28.265  22.933  1.00  0.00     0.342 C 
ATOM      8  O   UNL A   1      33.350  29.357  22.973  1.00  0.00    -0.246 OA
BRANCH   7   9
ATOM      9  C   UNL A   1      33.207  27.119  23.782  1.00  0.00     0.103 A 
ATOM     10  C   UNL A   1      33.969  24.830  23.910  1.00  0.00     0.083 A 
ATOM     11  C   UNL A   1      34.212  24.982  25.282  1.00  0.00     0.025 A 
ATOM     12  C   UNL A   1      33.469  25.894  23.151  1.00  0.00     0.041 A 
ATOM     13  C   UNL A   1      33.916  26.191  25.911  1.00  0.00     0.048 A 
ATOM     14  C   UNL A   1      33.419  27.257  25.160  1.00  0.00     0.130 A 
BRANCH  10  15
ATOM     15  S   UNL A   1      34.447  23.309  23.116  1.00  0.00     0.243 S 
ATOM     16  O   UNL A   1      35.883  23.188  23.252  1.00  0.00    -0.207 OA
ATOM     17  O   UNL A   1      33.817  23.284  21.814  1.00  0.00    -0.207 OA
BRANCH  15  18
ATOM     18  N   UNL A   1      33.724  22.119  24.091  1.00  0.00    -0.197 NA
ATOM     19  C   UNL A   1      32.935  19.779  26.026  1.00  0.00     0.012 C 
ATOM     20  C   UNL A   1      33.591  19.780  24.636  1.00  0.00    -0.020 C 
ATOM     21  C   UNL A   1      34.296  18.440  24.410  1.00  0.00     0.012 C 
ATOM     22  C   UNL A   1      32.575  20.082  23.534  1.00  0.00     0.024 C 
ATOM     23  C   UNL A   1      34.565  20.955  24.476  1.00  0.00     0.109 C 
ATOM     24  C   UNL A   1      32.423  21.600  23.569  1.00  0.00     0.103 C 
ENDBRANCH  15  18
ENDBRANCH  10  15
BRANCH  14  25
ATOM     25  O   UNL A   1      33.152  28.439  25.791  1.00  0.00    -0.507 OA
ATOM     26  H   UNL A   1      33.770  29.142  25.752  1.00  0.00     0.293 HD
ENDBRANCH  14  25
ENDBRANCH   7   9
ENDBRANCH   6   7
ENDBRANCH   5   6
ENDBRANCH   4   5
ENDBRANCH   3   4
ENDBRANCH   2   3
ENDBRANCH   1   2
BRANCH   1  27
ATOM     27  O   UNL A   1      29.826  31.818  24.433  1.00  0.00    -0.376 OA
BRANCH  27  28
ATOM     28  C   UNL A   1      30.713  31.081  25.266  1.00  0.00     0.202 C 
BRANCH  28  29
ATOM     29  C   UNL A   1      31.279  31.726  26.539  1.00  0.00     0.261 C 
BRANCH  29  30
ATOM     30  O   UNL A   1      32.615  31.332  26.883  1.00  0.00    -0.460 OA
BRANCH  30  31
ATOM     31  C   UNL A   1      33.362  32.291  27.487  1.00  0.00     0.338 C 
ATOM     32  O   UNL A   1      33.010  33.417  27.795  1.00  0.00    -0.246 OA
BRANCH  31  33
ATOM     33  C   UNL A   1      34.660  31.718  27.891  1.00  0.00     0.060 A 
ATOM     34  C   UNL A   1      34.720  30.346  28.175  1.00  0.00     0.016 A 
ATOM     35  C   UNL A   1      35.786  32.526  28.047  1.00  0.00     0.016 A 
ATOM     36  C   UNL A   1      35.907  29.779  28.635  1.00  0.00     0.010 A 
ATOM     37  C   UNL A   1      36.968  31.961  28.534  1.00  0.00     0.010 A 
ATOM     38  C   UNL A   1      37.023  30.593  28.859  1.00  0.00    -0.014 A 
BRANCH  38  39
ATOM     39  C   UNL A   1      38.198  30.054  29.585  1.00  0.00     0.031 A 
ATOM     40  C   UNL A   1      38.489  30.569  30.967  1.00  0.00     0.074 A 
ATOM     41  C   UNL A   1      39.003  29.138  29.017  1.00  0.00     0.049 A 
ATOM     42  N   UNL A   1      39.484  30.286  31.765  1.00  0.00    -0.248 NA
ATOM     43  C   UNL A   1      37.530  31.539  31.523  1.00  0.00     0.031 C 
ATOM     44  C   UNL A   1      38.816  28.555  27.690  1.00  0.00     0.029 A 
ATOM     45  N   UNL A   1      40.159  28.563  29.482  1.00  0.00    -0.354 N 
ATOM     46  C   UNL A   1      39.289  31.059  32.903  1.00  0.00     0.074 A 
ATOM     47  C   UNL A   1      38.086  31.833  32.688  1.00  0.00     0.031 C 
ATOM     48  C   UNL A   1      39.847  27.732  27.429  1.00  0.00     0.029 A 
ATOM     49  C   UNL A   1      40.771  27.745  28.561  1.00  0.00     0.049 A 
ATOM     50  H   UNL A   1      40.515  28.721  30.385  1.00  0.00     0.167 HD
ATOM     51  C   UNL A   1      40.036  31.109  34.031  1.00  0.00     0.034 A 
ATOM     52  C   UNL A   1      41.953  27.100  28.621  1.00  0.00     0.034 A 
ATOM     53  C   UNL A   1      41.220  30.325  34.248  1.00  0.00     0.049 A 
ATOM     54  C   UNL A   1      42.779  27.191  29.880  1.00  0.00     0.074 A 
ATOM     55  C   UNL A   1      42.020  30.269  35.375  1.00  0.00     0.029 A 
ATOM     56  N   UNL A   1      41.783  29.469  33.314  1.00  0.00    -0.354 N 
ATOM     57  N   UNL A   1      42.519  27.830  30.995  1.00  0.00    -0.248 NA
ATOM     58  C   UNL A   1      44.045  26.443  29.901  1.00  0.00     0.031 C 
ATOM     59  C   UNL A   1      43.084  29.399  35.113  1.00  0.00     0.029 A 
ATOM     60  C   UNL A   1      42.928  28.889  33.833  1.00  0.00     0.049 A 
ATOM     61  H   UNL A   1      41.423  29.299  32.414  1.00  0.00     0.167 HD
ATOM     62  C   UNL A   1      43.564  27.527  31.863  1.00  0.00     0.074 A 
ATOM     63  C   UNL A   1      44.454  26.637  31.148  1.00  0.00     0.031 C 
ATOM     64  C   UNL A   1      43.773  27.956  33.133  1.00  0.00     0.034 A 
BRANCH  51  65
ATOM     65  C   UNL A   1      39.575  32.027  35.130  1.00  0.00     0.023 A 
ATOM     66  C   UNL A   1      39.854  33.407  35.049  1.00  0.00     0.012 A 
ATOM     67  C   UNL A   1      38.824  31.536  36.216  1.00  0.00     0.148 A 
ATOM     68  C   UNL A   1      39.419  34.279  36.047  1.00  0.00     0.002 A 
ATOM     69  C   UNL A   1      38.357  32.417  37.184  1.00  0.00     0.091 A 
ATOM     70  F   UNL A   1      38.590  30.218  36.288  1.00  0.00    -0.205 F 
ATOM     71  C   UNL A   1      38.664  33.786  37.107  1.00  0.00     0.022 A 
BRANCH  69  72
ATOM     72  S   UNL A   1      37.312  31.892  38.547  1.00  0.00     0.127 S 
ATOM     73  O   UNL A   1      36.191  32.823  38.436  1.00  0.00    -0.237 OA
ATOM     74  O   UNL A   1      36.997  30.511  38.180  1.00  0.00    -0.237 OA
ATOM     75  O   UNL A   1      38.122  32.029  39.750  1.00  0.00    -0.744 OA
ENDBRANCH  69  72
ENDBRANCH  51  65
BRANCH  52  76
ATOM     76  C   UNL A   1      42.411  26.275  27.469  1.00  0.00     0.023 A 
ATOM     77  C   UNL A   1      43.205  26.865  26.466  1.00  0.00     0.012 A 
ATOM     78  C   UNL A   1      42.075  24.911  27.364  1.00  0.00     0.148 A 
ATOM     79  C   UNL A   1      43.630  26.121  25.365  1.00  0.00     0.002 A 
ATOM     80  C   UNL A   1      42.544  24.163  26.291  1.00  0.00     0.091 A 
ATOM     81  F   UNL A   1      41.302  24.372  28.318  1.00  0.00    -0.205 F 
ATOM     82  C   UNL A   1      43.308  24.770  25.282  1.00  0.00     0.022 A 
BRANCH  80  83
ATOM     83  S   UNL A   1      42.272  22.392  26.156  1.00  0.00     0.127 S 
ATOM     84  O   UNL A   1      42.851  21.906  27.406  1.00  0.00    -0.237 OA
ATOM     85  O   UNL A   1      40.812  22.315  26.084  1.00  0.00    -0.237 OA
ATOM     86  O   UNL A   1      42.957  21.978  24.939  1.00  0.00    -0.744 OA
ENDBRANCH  80  83
ENDBRANCH  52  76
BRANCH  64  87
ATOM     87  C   UNL A   1      44.985  27.438  33.862  1.00  0.00     0.023 A 
ATOM     88  C   UNL A   1      44.916  26.215  34.559  1.00  0.00     0.012 A 
ATOM     89  C   UNL A   1      46.216  28.120  33.783  1.00  0.00     0.148 A 
ATOM     90  C   UNL A   1      46.047  25.693  35.188  1.00  0.00     0.002 A 
ATOM     91  C   UNL A   1      47.349  27.570  34.371  1.00  0.00     0.091 A 
ATOM     92  F   UNL A   1      46.258  29.290  33.131  1.00  0.00    -0.205 F 
ATOM     93  C   UNL A   1      47.264  26.363  35.083  1.00  0.00     0.022 A 
BRANCH  91  94
ATOM     94  S   UNL A   1      48.977  28.312  34.204  1.00  0.00     0.127 S 
ATOM     95  O   UNL A   1      49.138  28.358  32.752  1.00  0.00    -0.237 OA
ATOM     96  O   UNL A   1      48.790  29.618  34.838  1.00  0.00    -0.237 OA
ATOM     97  O   UNL A   1      49.897  27.427  34.907  1.00  0.00    -0.744 OA
ENDBRANCH  91  94
ENDBRANCH  64  87
ENDBRANCH  38  39
ENDBRANCH  31  33
ENDBRANCH  30  31
ENDBRANCH  29  30
ENDBRANCH  28  29
ENDBRANCH  27  28
ENDBRANCH   1  27
TORSDOF 23
ENDMDL
MODEL 2
REMARK VINA RESULT:     -10.7      1.726      2.091
REMARK SMILES CC1(C)CCN(S(=O)(=O)c2ccc(O)c(C(=O)OCCOCCOCCOC(=O)c3ccc(-c4c5nc(c(-c6cccc(S(=O)(=O)[O-])c6F)c6ccc([nH]6)c(-c6cccc(S(=O)(=O)[O-])c6F)c6nc(c(-c7cccc(S(=O)(=O)[O-])c7F)c7ccc4[nH]7)C=C6)C=C5)cc3)c2)C1
REMARK SMILES IDX 23 1 22 2 21 3 20 4 19 5 18 6 16 7 17 8 15 9 10 10 11 11
REMARK SMILES IDX 93 12 12 13 13 14 7 15 8 16 9 17 6 18 1 19 2 20 3 21 4 22
REMARK SMILES IDX 94 23 5 24 14 25 24 27 25 28 26 29 27 30 28 31 29 32 30 33
REMARK SMILES IDX 31 34 92 35 32 36 91 37 33 38 34 39 35 40 85 41 36 42 90 43
REMARK SMILES IDX 84 44 86 45 37 46 89 47 83 48 82 49 38 51 70 52 50 53 69 54
REMARK SMILES IDX 51 55 54 56 68 57 87 58 52 59 53 60 67 62 88 63 55 64 39 65
REMARK SMILES IDX 40 66 48 67 41 68 43 69 49 70 42 71 44 72 45 73 46 74 47 75
REMARK SMILES IDX 71 76 72 77 80 78 73 79 75 80 81 81 74 82 76 83 77 84 78 85
REMARK SMILES IDX 79 86 56 87 57 88 65 89 58 90 60 91 66 92 59 93 61 94 62 95
REMARK SMILES IDX 63 96 64 97
REMARK H PARENT 14 26 86 50 54 61
REMARK Flexibility Score: inf
ROOT
ATOM      1  C   UNL A   1      28.804  31.463  23.661  1.00  0.00     0.188 C 
ENDROOT
BRANCH   1   2
ATOM      2  C   UNL A   1      29.024  31.221  22.150  1.00  0.00     0.188 C 
BRANCH   2   3
ATOM      3  O   UNL A   1      28.841  29.878  21.766  1.00  0.00    -0.376 OA
BRANCH   3   4
ATOM      4  C   UNL A   1      28.722  28.865  22.745  1.00  0.00     0.202 C 
BRANCH   4   5
ATOM      5  C   UNL A   1      29.913  28.085  23.333  1.00  0.00     0.261 C 
BRANCH   5   6
ATOM      6  O   UNL A   1      30.920  27.661  22.416  1.00  0.00    -0.460 OA
BRANCH   6   7
ATOM      7  C   UNL A   1      32.209  27.950  22.725  1.00  0.00     0.342 C 
ATOM      8  O   UNL A   1      32.891  28.849  22.266  1.00  0.00    -0.246 OA
BRANCH   7   9
ATOM      9  C   UNL A   1      32.621  27.102  23.866  1.00  0.00     0.103 A 
ATOM     10  C   UNL A   1      32.783  24.891  24.823  1.00  0.00     0.083 A 
ATOM     11  C   UNL A   1      33.590  25.390  25.854  1.00  0.00     0.025 A 
ATOM     12  C   UNL A   1      32.295  25.739  23.823  1.00  0.00     0.041 A 
ATOM     13  C   UNL A   1      33.881  26.752  25.912  1.00  0.00     0.048 A 
ATOM     14  C   UNL A   1      33.401  27.605  24.916  1.00  0.00     0.130 A 
BRANCH  10  15
ATOM     15  S   UNL A   1      32.509  23.133  24.720  1.00  0.00     0.243 S 
ATOM     16  O   UNL A   1      31.760  22.887  23.506  1.00  0.00    -0.207 OA
ATOM     17  O   UNL A   1      32.008  22.698  26.005  1.00  0.00    -0.207 OA
BRANCH  15  18
ATOM     18  N   UNL A   1      34.076  22.509  24.508  1.00  0.00    -0.197 NA
ATOM     19  C   UNL A   1      37.034  21.478  24.682  1.00  0.00     0.012 C 
ATOM     20  C   UNL A   1      36.438  22.893  24.750  1.00  0.00    -0.020 C 
ATOM     21  C   UNL A   1      37.453  23.838  25.399  1.00  0.00     0.012 C 
ATOM     22  C   UNL A   1      36.002  23.388  23.370  1.00  0.00     0.024 C 
ATOM     23  C   UNL A   1      35.104  22.904  25.507  1.00  0.00     0.109 C 
ATOM     24  C   UNL A   1      34.647  22.724  23.144  1.00  0.00     0.103 C 
ENDBRANCH  15  18
ENDBRANCH  10  15
BRANCH  14  25
ATOM     25  O   UNL A   1      33.710  28.933  24.981  1.00  0.00    -0.507 OA
ATOM     26  H   UNL A   1      34.208  29.332  24.295  1.00  0.00     0.293 HD
ENDBRANCH  14  25
ENDBRANCH   7   9
ENDBRANCH   6   7
ENDBRANCH   5   6
ENDBRANCH   4   5
ENDBRANCH   3   4
ENDBRANCH   2   3
ENDBRANCH   1   2
BRANCH   1  27
ATOM     27  O   UNL A   1      29.758  32.188  24.431  1.00  0.00    -0.376 OA
BRANCH  27  28
ATOM     28  C   UNL A   1      30.660  31.477  25.270  1.00  0.00     0.202 C 
BRANCH  28  29
ATOM     29  C   UNL A   1      31.236  32.155  26.522  1.00  0.00     0.261 C 
BRANCH  29  30
ATOM     30  O   UNL A   1      32.537  31.702  26.920  1.00  0.00    -0.460 OA
BRANCH  30  31
ATOM     31  C   UNL A   1      33.309  32.631  27.539  1.00  0.00     0.338 C 
ATOM     32  O   UNL A   1      32.990  33.765  27.852  1.00  0.00    -0.246 OA
BRANCH  31  33
ATOM     33  C   UNL A   1      34.583  32.013  27.952  1.00  0.00     0.060 A 
ATOM     34  C   UNL A   1      34.601  30.634  28.203  1.00  0.00     0.016 A 
ATOM     35  C   UNL A   1      35.728  32.787  28.146  1.00  0.00     0.016 A 
ATOM     36  C   UNL A   1      35.765  30.024  28.669  1.00  0.00     0.010 A 
ATOM     37  C   UNL A   1      36.885  32.179  28.640  1.00  0.00     0.010 A 
ATOM     38  C   UNL A   1      36.898  30.802  28.932  1.00  0.00    -0.014 A 
BRANCH  38  39
ATOM     39  C   UNL A   1      38.044  30.213  29.665  1.00  0.00     0.031 A 
ATOM     40  C   UNL A   1      38.316  30.677  31.069  1.00  0.00     0.074 A 
ATOM     41  C   UNL A   1      38.842  29.300  29.084  1.00  0.00     0.049 A 
ATOM     42  N   UNL A   1      39.287  30.347  31.878  1.00  0.00    -0.248 NA
ATOM     43  C   UNL A   1      37.366  31.649  31.636  1.00  0.00     0.031 C 
ATOM     44  C   UNL A   1      38.672  28.764  27.736  1.00  0.00     0.029 A 
ATOM     45  N   UNL A   1      39.975  28.685  29.555  1.00  0.00    -0.354 N 
ATOM     46  C   UNL A   1      39.083  31.087  33.036  1.00  0.00     0.074 A 
ATOM     47  C   UNL A   1      37.902  31.893  32.822  1.00  0.00     0.031 C 
ATOM     48  C   UNL A   1      39.691  27.928  27.469  1.00  0.00     0.029 A 
ATOM     49  C   UNL A   1      40.590  27.884  28.620  1.00  0.00     0.049 A 
ATOM     50  H   UNL A   1      40.314  28.805  30.470  1.00  0.00     0.167 HD
ATOM     51  C   UNL A   1      39.806  31.083  34.181  1.00  0.00     0.034 A 
ATOM     52  C   UNL A   1      41.756  27.211  28.685  1.00  0.00     0.034 A 
ATOM     53  C   UNL A   1      40.968  30.267  34.398  1.00  0.00     0.049 A 
ATOM     54  C   UNL A   1      42.556  27.243  29.963  1.00  0.00     0.074 A 
ATOM     55  C   UNL A   1      41.742  30.157  35.539  1.00  0.00     0.029 A 
ATOM     56  N   UNL A   1      41.534  29.429  33.449  1.00  0.00    -0.354 N 
ATOM     57  N   UNL A   1      42.285  27.851  31.093  1.00  0.00    -0.248 NA
ATOM     58  C   UNL A   1      43.806  26.467  29.986  1.00  0.00     0.031 C 
ATOM     59  C   UNL A   1      42.792  29.272  35.271  1.00  0.00     0.029 A 
ATOM     60  C   UNL A   1      42.654  28.808  33.973  1.00  0.00     0.049 A 
ATOM     61  H   UNL A   1      41.189  29.297  32.536  1.00  0.00     0.167 HD
ATOM     62  C   UNL A   1      43.304  27.497  31.973  1.00  0.00     0.074 A 
ATOM     63  C   UNL A   1      44.191  26.611  31.248  1.00  0.00     0.031 C 
ATOM     64  C   UNL A   1      43.494  27.880  33.260  1.00  0.00     0.034 A 
BRANCH  51  65
ATOM     65  C   UNL A   1      39.341  31.976  35.300  1.00  0.00     0.023 A 
ATOM     66  C   UNL A   1      39.600  33.360  35.242  1.00  0.00     0.012 A 
ATOM     67  C   UNL A   1      38.604  31.455  36.383  1.00  0.00     0.148 A 
ATOM     68  C   UNL A   1      39.162  34.208  36.258  1.00  0.00     0.002 A 
ATOM     69  C   UNL A   1      38.133  32.312  37.369  1.00  0.00     0.091 A 
ATOM     70  F   UNL A   1      38.389  30.133  36.432  1.00  0.00    -0.205 F 
ATOM     71  C   UNL A   1      38.420  33.686  37.315  1.00  0.00     0.022 A 
BRANCH  69  72
ATOM     72  S   UNL A   1      37.104  31.748  38.730  1.00  0.00     0.127 S 
ATOM     73  O   UNL A   1      35.927  32.602  38.584  1.00  0.00    -0.237 OA
ATOM     74  O   UNL A   1      36.884  30.342  38.388  1.00  0.00    -0.237 OA
ATOM     75  O   UNL A   1      37.886  31.962  39.939  1.00  0.00    -0.744 OA
ENDBRANCH  69  72
ENDBRANCH  51  65
BRANCH  52  76
ATOM     76  C   UNL A   1      42.222  26.414  27.516  1.00  0.00     0.023 A 
ATOM     77  C   UNL A   1      42.954  27.047  26.493  1.00  0.00     0.012 A 
ATOM     78  C   UNL A   1      41.954  25.034  27.415  1.00  0.00     0.148 A 
ATOM     79  C   UNL A   1      43.385  26.329  25.377  1.00  0.00     0.002 A 
ATOM     80  C   UNL A   1      42.429  24.314  26.325  1.00  0.00     0.091 A 
ATOM     81  F   UNL A   1      41.239  24.454  28.390  1.00  0.00    -0.205 F 
ATOM     82  C   UNL A   1      43.131  24.963  25.298  1.00  0.00     0.022 A 
BRANCH  80  83
ATOM     83  S   UNL A   1      42.245  22.533  26.191  1.00  0.00     0.127 S 
ATOM     84  O   UNL A   1      40.792  22.384  26.156  1.00  0.00    -0.237 OA
ATOM     85  O   UNL A   1      42.922  22.253  24.925  1.00  0.00    -0.237 OA
ATOM     86  O   UNL A   1      42.908  21.977  27.364  1.00  0.00    -0.744 OA
ENDBRANCH  80  83
ENDBRANCH  52  76
BRANCH  64  87
ATOM     87  C   UNL A   1      44.679  27.312  33.998  1.00  0.00     0.023 A 
ATOM     88  C   UNL A   1      45.917  27.982  33.959  1.00  0.00     0.012 A 
ATOM     89  C   UNL A   1      44.540  26.161  34.800  1.00  0.00     0.148 A 
ATOM     90  C   UNL A   1      47.006  27.501  34.687  1.00  0.00     0.002 A 
ATOM     91  C   UNL A   1      45.615  25.716  35.560  1.00  0.00     0.091 A 
ATOM     92  F   UNL A   1      43.359  25.527  34.809  1.00  0.00    -0.205 F 
ATOM     93  C   UNL A   1      46.852  26.377  35.495  1.00  0.00     0.022 A 
BRANCH  91  94
ATOM     94  S   UNL A   1      45.480  24.336  36.703  1.00  0.00     0.127 S 
ATOM     95  O   UNL A   1      45.164  23.230  35.801  1.00  0.00    -0.237 OA
ATOM     96  O   UNL A   1      46.822  24.282  37.286  1.00  0.00    -0.237 OA
ATOM     97  O   UNL A   1      44.428  24.695  37.645  1.00  0.00    -0.744 OA
ENDBRANCH  91  94
ENDBRANCH  64  87
ENDBRANCH  38  39
ENDBRANCH  31  33
ENDBRANCH  30  31
ENDBRANCH  29  30
ENDBRANCH  28  29
ENDBRANCH  27  28
ENDBRANCH   1  27
TORSDOF 23
ENDMDL
MODEL 3
REMARK VINA RESULT:     -10.7      2.072      7.758
REMARK SMILES CC1(C)CCN(S(=O)(=O)c2ccc(O)c(C(=O)OCCOCCOCCOC(=O)c3ccc(-c4c5nc(c(-c6cccc(S(=O)(=O)[O-])c6F)c6ccc([nH]6)c(-c6cccc(S(=O)(=O)[O-])c6F)c6nc(c(-c7cccc(S(=O)(=O)[O-])c7F)c7ccc4[nH]7)C=C6)C=C5)cc3)c2)C1
REMARK SMILES IDX 23 1 22 2 21 3 20 4 19 5 18 6 16 7 17 8 15 9 10 10 11 11
REMARK SMILES IDX 93 12 12 13 13 14 7 15 8 16 9 17 6 18 1 19 2 20 3 21 4 22
REMARK SMILES IDX 94 23 5 24 14 25 24 27 25 28 26 29 27 30 28 31 29 32 30 33
REMARK SMILES IDX 31 34 92 35 32 36 91 37 33 38 34 39 35 40 85 41 36 42 90 43
REMARK SMILES IDX 84 44 86 45 37 46 89 47 83 48 82 49 38 51 70 52 50 53 69 54
REMARK SMILES IDX 51 55 54 56 68 57 87 58 52 59 53 60 67 62 88 63 55 64 39 65
REMARK SMILES IDX 40 66 48 67 41 68 43 69 49 70 42 71 44 72 45 73 46 74 47 75
REMARK SMILES IDX 71 76 72 77 80 78 73 79 75 80 81 81 74 82 76 83 77 84 78 85
REMARK SMILES IDX 79 86 56 87 57 88 65 89 58 90 60 91 66 92 59 93 61 94 62 95
REMARK SMILES IDX 63 96 64 97
REMARK H PARENT 14 26 86 50 54 61
REMARK Flexibility Score: inf
ROOT
ATOM      1  C   UNL A   1      33.630  29.230  26.650  1.00  0.00     0.188 C 
ENDROOT
BRANCH   1   2
ATOM      2  C   UNL A   1      33.526  27.752  26.207  1.00  0.00     0.188 C 
BRANCH   2   3
ATOM      3  O   UNL A   1      34.059  27.514  24.925  1.00  0.00    -0.376 OA
BRANCH   3   4
ATOM      4  C   UNL A   1      33.222  27.549  23.785  1.00  0.00     0.202 C 
BRANCH   4   5
ATOM      5  C   UNL A   1      31.699  27.767  23.837  1.00  0.00     0.261 C 
BRANCH   5   6
ATOM      6  O   UNL A   1      30.911  26.692  24.346  1.00  0.00    -0.460 OA
BRANCH   6   7
ATOM      7  C   UNL A   1      30.980  25.504  23.694  1.00  0.00     0.342 C 
ATOM      8  O   UNL A   1      30.962  25.324  22.489  1.00  0.00    -0.246 OA
BRANCH   7   9
ATOM      9  C   UNL A   1      31.271  24.441  24.682  1.00  0.00     0.103 A 
ATOM     10  C   UNL A   1      32.689  22.610  25.365  1.00  0.00     0.083 A 
ATOM     11  C   UNL A   1      32.051  22.573  26.612  1.00  0.00     0.025 A 
ATOM     12  C   UNL A   1      32.308  23.542  24.395  1.00  0.00     0.041 A 
ATOM     13  C   UNL A   1      30.996  23.445  26.879  1.00  0.00     0.048 A 
ATOM     14  C   UNL A   1      30.611  24.380  25.917  1.00  0.00     0.130 A 
BRANCH  10  15
ATOM     15  S   UNL A   1      34.096  21.552  25.088  1.00  0.00     0.243 S 
ATOM     16  O   UNL A   1      34.931  21.631  26.269  1.00  0.00    -0.207 OA
ATOM     17  O   UNL A   1      34.624  21.869  23.780  1.00  0.00    -0.207 OA
BRANCH  15  18
ATOM     18  N   UNL A   1      33.407  19.998  25.034  1.00  0.00    -0.197 NA
ATOM     19  C   UNL A   1      32.679  16.947  25.027  1.00  0.00     0.012 C 
ATOM     20  C   UNL A   1      33.457  17.815  24.026  1.00  0.00    -0.020 C 
ATOM     21  C   UNL A   1      34.310  16.912  23.131  1.00  0.00     0.012 C 
ATOM     22  C   UNL A   1      32.523  18.708  23.210  1.00  0.00     0.024 C 
ATOM     23  C   UNL A   1      34.320  18.862  24.743  1.00  0.00     0.109 C 
ATOM     24  C   UNL A   1      32.218  19.881  24.137  1.00  0.00     0.103 C 
ENDBRANCH  15  18
ENDBRANCH  10  15
BRANCH  14  25
ATOM     25  O   UNL A   1      29.587  25.237  26.203  1.00  0.00    -0.507 OA
ATOM     26  H   UNL A   1      29.625  26.126  25.912  1.00  0.00     0.293 HD
ENDBRANCH  14  25
ENDBRANCH   7   9
ENDBRANCH   6   7
ENDBRANCH   5   6
ENDBRANCH   4   5
ENDBRANCH   3   4
ENDBRANCH   2   3
ENDBRANCH   1   2
BRANCH   1  27
ATOM     27  O   UNL A   1      32.522  29.891  27.253  1.00  0.00    -0.376 OA
BRANCH  27  28
ATOM     28  C   UNL A   1      31.774  30.831  26.492  1.00  0.00     0.202 C 
BRANCH  28  29
ATOM     29  C   UNL A   1      31.700  32.296  26.945  1.00  0.00     0.261 C 
BRANCH  29  30
ATOM     30  O   UNL A   1      32.903  33.055  26.759  1.00  0.00    -0.460 OA
BRANCH  30  31
ATOM     31  C   UNL A   1      33.371  33.676  27.872  1.00  0.00     0.338 C 
ATOM     32  O   UNL A   1      32.840  34.582  28.490  1.00  0.00    -0.246 OA
BRANCH  31  33
ATOM     33  C   UNL A   1      34.575  32.973  28.355  1.00  0.00     0.060 A 
ATOM     34  C   UNL A   1      34.402  31.811  29.121  1.00  0.00     0.016 A 
ATOM     35  C   UNL A   1      35.851  33.480  28.109  1.00  0.00     0.016 A 
ATOM     36  C   UNL A   1      35.510  31.160  29.662  1.00  0.00     0.010 A 
ATOM     37  C   UNL A   1      36.958  32.841  28.674  1.00  0.00     0.010 A 
ATOM     38  C   UNL A   1      36.789  31.698  29.477  1.00  0.00    -0.014 A 
BRANCH  38  39
ATOM     39  C   UNL A   1      37.933  31.166  30.255  1.00  0.00     0.031 A 
ATOM     40  C   UNL A   1      38.838  30.156  29.605  1.00  0.00     0.074 A 
ATOM     41  C   UNL A   1      38.150  31.557  31.523  1.00  0.00     0.049 A 
ATOM     42  N   UNL A   1      39.861  29.516  30.106  1.00  0.00    -0.248 NA
ATOM     43  C   UNL A   1      38.547  29.819  28.201  1.00  0.00     0.031 C 
ATOM     44  C   UNL A   1      37.351  32.537  32.254  1.00  0.00     0.029 A 
ATOM     45  N   UNL A   1      39.098  31.148  32.427  1.00  0.00    -0.354 N 
ATOM     46  C   UNL A   1      40.319  28.683  29.093  1.00  0.00     0.074 A 
ATOM     47  C   UNL A   1      39.456  28.889  27.951  1.00  0.00     0.031 C 
ATOM     48  C   UNL A   1      37.817  32.626  33.512  1.00  0.00     0.029 A 
ATOM     49  C   UNL A   1      38.934  31.698  33.678  1.00  0.00     0.049 A 
ATOM     50  H   UNL A   1      39.825  30.524  32.203  1.00  0.00     0.167 HD
ATOM     51  C   UNL A   1      41.373  27.834  29.107  1.00  0.00     0.034 A 
ATOM     52  C   UNL A   1      39.598  31.460  34.826  1.00  0.00     0.034 A 
ATOM     53  C   UNL A   1      42.240  27.645  30.237  1.00  0.00     0.049 A 
ATOM     54  C   UNL A   1      40.753  30.491  34.822  1.00  0.00     0.074 A 
ATOM     55  C   UNL A   1      43.363  26.842  30.335  1.00  0.00     0.029 A 
ATOM     56  N   UNL A   1      42.075  28.255  31.471  1.00  0.00    -0.354 N 
ATOM     57  N   UNL A   1      41.252  29.802  33.823  1.00  0.00    -0.248 NA
ATOM     58  C   UNL A   1      41.460  30.292  36.096  1.00  0.00     0.031 C 
ATOM     59  C   UNL A   1      43.862  26.947  31.638  1.00  0.00     0.029 A 
ATOM     60  C   UNL A   1      43.067  27.839  32.342  1.00  0.00     0.049 A 
ATOM     61  H   UNL A   1      41.357  28.891  31.694  1.00  0.00     0.167 HD
ATOM     62  C   UNL A   1      42.354  29.124  34.337  1.00  0.00     0.074 A 
ATOM     63  C   UNL A   1      42.457  29.495  35.732  1.00  0.00     0.031 C 
ATOM     64  C   UNL A   1      43.195  28.264  33.712  1.00  0.00     0.034 A 
BRANCH  51  65
ATOM     65  C   UNL A   1      41.662  27.062  27.848  1.00  0.00     0.023 A 
ATOM     66  C   UNL A   1      42.215  27.726  26.734  1.00  0.00     0.012 A 
ATOM     67  C   UNL A   1      41.435  25.673  27.782  1.00  0.00     0.148 A 
ATOM     68  C   UNL A   1      42.509  27.027  25.564  1.00  0.00     0.002 A 
ATOM     69  C   UNL A   1      41.771  24.975  26.628  1.00  0.00     0.091 A 
ATOM     70  F   UNL A   1      40.886  25.064  28.842  1.00  0.00    -0.205 F 
ATOM     71  C   UNL A   1      42.296  25.651  25.515  1.00  0.00     0.022 A 
BRANCH  69  72
ATOM     72  S   UNL A   1      41.606  23.191  26.494  1.00  0.00     0.127 S 
ATOM     73  O   UNL A   1      42.303  22.924  25.238  1.00  0.00    -0.237 OA
ATOM     74  O   UNL A   1      42.307  22.726  27.692  1.00  0.00    -0.237 OA
ATOM     75  O   UNL A   1      40.176  22.920  26.487  1.00  0.00    -0.744 OA
ENDBRANCH  69  72
ENDBRANCH  51  65
BRANCH  52  76
ATOM     76  C   UNL A   1      39.215  32.182  36.071  1.00  0.00     0.023 A 
ATOM     77  C   UNL A   1      39.777  33.444  36.342  1.00  0.00     0.012 A 
ATOM     78  C   UNL A   1      38.291  31.632  36.982  1.00  0.00     0.148 A 
ATOM     79  C   UNL A   1      39.452  34.133  37.510  1.00  0.00     0.002 A 
ATOM     80  C   UNL A   1      37.932  32.346  38.120  1.00  0.00     0.091 A 
ATOM     81  F   UNL A   1      37.781  30.421  36.717  1.00  0.00    -0.205 F 
ATOM     82  C   UNL A   1      38.523  33.589  38.393  1.00  0.00     0.022 A 
BRANCH  80  83
ATOM     83  S   UNL A   1      36.665  31.775  39.258  1.00  0.00     0.127 S 
ATOM     84  O   UNL A   1      37.315  31.971  40.551  1.00  0.00    -0.237 OA
ATOM     85  O   UNL A   1      35.567  32.700  38.976  1.00  0.00    -0.237 OA
ATOM     86  O   UNL A   1      36.397  30.391  38.890  1.00  0.00    -0.744 OA
ENDBRANCH  80  83
ENDBRANCH  52  76
BRANCH  64  87
ATOM     87  C   UNL A   1      44.340  27.692  34.509  1.00  0.00     0.023 A 
ATOM     88  C   UNL A   1      45.505  28.458  34.714  1.00  0.00     0.012 A 
ATOM     89  C   UNL A   1      44.224  26.431  35.129  1.00  0.00     0.148 A 
ATOM     90  C   UNL A   1      46.547  27.966  35.500  1.00  0.00     0.002 A 
ATOM     91  C   UNL A   1      45.245  25.969  35.949  1.00  0.00     0.091 A 
ATOM     92  F   UNL A   1      43.115  25.710  34.907  1.00  0.00    -0.205 F 
ATOM     93  C   UNL A   1      46.412  26.730  36.127  1.00  0.00     0.022 A 
BRANCH  91  94
ATOM     94  S   UNL A   1      45.117  24.433  36.874  1.00  0.00     0.127 S 
ATOM     95  O   UNL A   1      46.523  24.109  37.111  1.00  0.00    -0.237 OA
ATOM     96  O   UNL A   1      44.378  24.849  38.066  1.00  0.00    -0.237 OA
ATOM     97  O   UNL A   1      44.398  23.504  36.012  1.00  0.00    -0.744 OA
ENDBRANCH  91  94
ENDBRANCH  64  87
ENDBRANCH  38  39
ENDBRANCH  31  33
ENDBRANCH  30  31
ENDBRANCH  29  30
ENDBRANCH  28  29
ENDBRANCH  27  28
ENDBRANCH   1  27
TORSDOF 23
ENDMDL
