MODEL 1
REMARK VINA RESULT:     -10.4      0.000      0.000
REMARK SMILES O=C(OCCOCCOCCOC(=O)[C@@H]1[C@H](C(=O)Nc2ccccc2OC(F)F)[C@@H]2C=C[C@H]1C2)c1ccc(-c2c3nc(c(-c4cccc(S(=O)(=O)[O-])c4F)c4ccc([nH]4)c(-c4cccc(S(=O)(=O)[O-])c4F)c4nc(c(-c5cccc(S(=O)(=O)[O-])c5F)c5ccc2[nH]5)C=C4)C=C3)cc1
REMARK SMILES IDX 8 1 7 2 6 3 5 4 4 5 3 6 2 7 1 8 35 9 36 10 97 11 37 12 96 13
REMARK SMILES IDX 38 14 39 15 40 16 90 17 41 18 95 19 89 20 91 21 42 22 94 23
REMARK SMILES IDX 88 24 87 25 43 27 75 28 55 29 74 30 56 31 59 32 73 33 92 34
REMARK SMILES IDX 57 35 58 36 72 38 93 39 60 40 44 41 45 42 53 43 46 44 48 45
REMARK SMILES IDX 54 46 47 47 49 48 50 49 51 50 52 51 76 52 77 53 85 54 78 55
REMARK SMILES IDX 80 56 86 57 79 58 81 59 82 60 83 61 84 62 61 63 62 64 70 65
REMARK SMILES IDX 63 66 65 67 71 68 64 69 66 70 67 71 68 72 69 73 9 74 10 75
REMARK SMILES IDX 11 76 12 77 13 78 14 79 15 80 16 81 33 82 30 83 32 84 34 85
REMARK SMILES IDX 31 86 17 87 18 88 19 89 20 91 21 92 25 93 22 94 24 95 23 96
REMARK SMILES IDX 26 97 27 98 28 99 29 100
REMARK H PARENT 91 26 59 37 19 90
REMARK Flexibility Score: inf
ROOT
ATOM      1  C   UNL A   1      40.218  22.109  26.781  1.00  0.00     0.188 C 
ENDROOT
BRANCH   1   2
ATOM      2  C   UNL A   1      41.569  21.353  26.799  1.00  0.00     0.188 C 
BRANCH   2   3
ATOM      3  O   UNL A   1      41.727  20.422  25.741  1.00  0.00    -0.376 OA
BRANCH   3   4
ATOM      4  C   UNL A   1      42.166  19.102  26.103  1.00  0.00     0.202 C 
BRANCH   4   5
ATOM      5  C   UNL A   1      43.446  18.519  25.463  1.00  0.00     0.261 C 
BRANCH   5   6
ATOM      6  O   UNL A   1      43.767  19.263  24.287  1.00  0.00    -0.460 OA
BRANCH   6   7
ATOM      7  C   UNL A   1      45.006  19.808  24.223  1.00  0.00     0.338 C 
ATOM      8  O   UNL A   1      46.016  19.238  23.878  1.00  0.00    -0.246 OA
BRANCH   7   9
ATOM      9  C   UNL A   1      44.913  21.165  24.809  1.00  0.00     0.060 A 
ATOM     10  C   UNL A   1      44.361  22.206  24.043  1.00  0.00     0.016 A 
ATOM     11  C   UNL A   1      45.283  21.380  26.134  1.00  0.00     0.016 A 
ATOM     12  C   UNL A   1      44.095  23.443  24.613  1.00  0.00     0.010 A 
ATOM     13  C   UNL A   1      45.036  22.630  26.704  1.00  0.00     0.010 A 
ATOM     14  C   UNL A   1      44.445  23.664  25.944  1.00  0.00    -0.014 A 
BRANCH  14  15
ATOM     15  C   UNL A   1      44.538  25.059  26.419  1.00  0.00     0.031 A 
ATOM     16  C   UNL A   1      45.894  25.683  26.294  1.00  0.00     0.074 A 
ATOM     17  C   UNL A   1      43.492  25.747  26.911  1.00  0.00     0.049 A 
ATOM     18  N   UNL A   1      46.287  26.886  26.603  1.00  0.00    -0.248 NA
ATOM     19  C   UNL A   1      46.952  24.833  25.712  1.00  0.00     0.031 C 
ATOM     20  C   UNL A   1      42.119  25.261  27.006  1.00  0.00     0.029 A 
ATOM     21  N   UNL A   1      43.436  26.997  27.474  1.00  0.00    -0.354 N 
ATOM     22  C   UNL A   1      47.629  26.930  26.256  1.00  0.00     0.074 A 
ATOM     23  C   UNL A   1      48.001  25.629  25.760  1.00  0.00     0.031 C 
ATOM     24  C   UNL A   1      41.380  26.147  27.696  1.00  0.00     0.029 A 
ATOM     25  C   UNL A   1      42.222  27.280  28.060  1.00  0.00     0.049 A 
ATOM     26  H   UNL A   1      44.191  27.630  27.461  1.00  0.00     0.167 HD
ATOM     27  C   UNL A   1      48.477  27.977  26.317  1.00  0.00     0.034 A 
ATOM     28  C   UNL A   1      41.851  28.336  28.811  1.00  0.00     0.034 A 
ATOM     29  C   UNL A   1      48.107  29.242  26.869  1.00  0.00     0.049 A 
ATOM     30  C   UNL A   1      42.838  29.466  28.966  1.00  0.00     0.074 A 
ATOM     31  C   UNL A   1      48.872  30.379  27.019  1.00  0.00     0.029 A 
ATOM     32  N   UNL A   1      46.854  29.514  27.405  1.00  0.00    -0.354 N 
ATOM     33  N   UNL A   1      44.067  29.552  28.513  1.00  0.00    -0.248 NA
ATOM     34  C   UNL A   1      42.375  30.671  29.669  1.00  0.00     0.031 C 
ATOM     35  C   UNL A   1      48.092  31.329  27.685  1.00  0.00     0.029 A 
ATOM     36  C   UNL A   1      46.827  30.798  27.906  1.00  0.00     0.049 A 
ATOM     37  H   UNL A   1      46.098  28.884  27.422  1.00  0.00     0.167 HD
ATOM     38  C   UNL A   1      44.501  30.837  28.810  1.00  0.00     0.074 A 
ATOM     39  C   UNL A   1      43.407  31.491  29.502  1.00  0.00     0.031 C 
ATOM     40  C   UNL A   1      45.688  31.428  28.530  1.00  0.00     0.034 A 
BRANCH  27  41
ATOM     41  C   UNL A   1      49.863  27.729  25.795  1.00  0.00     0.023 A 
ATOM     42  C   UNL A   1      50.940  27.630  26.703  1.00  0.00     0.012 A 
ATOM     43  C   UNL A   1      50.117  27.740  24.413  1.00  0.00     0.148 A 
ATOM     44  C   UNL A   1      52.255  27.617  26.242  1.00  0.00     0.002 A 
ATOM     45  C   UNL A   1      51.429  27.683  23.961  1.00  0.00     0.091 A 
ATOM     46  F   UNL A   1      49.083  27.874  23.573  1.00  0.00    -0.205 F 
ATOM     47  C   UNL A   1      52.499  27.642  24.872  1.00  0.00     0.022 A 
BRANCH  45  48
ATOM     48  S   UNL A   1      51.845  27.674  22.216  1.00  0.00     0.127 S 
ATOM     49  O   UNL A   1      51.595  29.067  21.845  1.00  0.00    -0.237 OA
ATOM     50  O   UNL A   1      53.257  27.294  22.241  1.00  0.00    -0.237 OA
ATOM     51  O   UNL A   1      50.963  26.692  21.599  1.00  0.00    -0.744 OA
ENDBRANCH  45  48
ENDBRANCH  27  41
BRANCH  28  52
ATOM     52  C   UNL A   1      40.474  28.410  29.382  1.00  0.00     0.023 A 
ATOM     53  C   UNL A   1      40.198  27.782  30.612  1.00  0.00     0.012 A 
ATOM     54  C   UNL A   1      39.443  29.124  28.734  1.00  0.00     0.148 A 
ATOM     55  C   UNL A   1      38.920  27.835  31.172  1.00  0.00     0.002 A 
ATOM     56  C   UNL A   1      38.181  29.207  29.317  1.00  0.00     0.091 A 
ATOM     57  F   UNL A   1      39.718  29.713  27.562  1.00  0.00    -0.205 F 
ATOM     58  C   UNL A   1      37.914  28.551  30.530  1.00  0.00     0.022 A 
BRANCH  56  59
ATOM     59  S   UNL A   1      36.841  30.184  28.622  1.00  0.00     0.127 S 
ATOM     60  O   UNL A   1      35.878  30.200  29.722  1.00  0.00    -0.237 OA
ATOM     61  O   UNL A   1      37.505  31.463  28.368  1.00  0.00    -0.237 OA
ATOM     62  O   UNL A   1      36.412  29.478  27.423  1.00  0.00    -0.744 OA
ENDBRANCH  56  59
ENDBRANCH  28  52
BRANCH  40  63
ATOM     63  C   UNL A   1      45.865  32.874  28.896  1.00  0.00     0.023 A 
ATOM     64  C   UNL A   1      46.527  33.222  30.087  1.00  0.00     0.012 A 
ATOM     65  C   UNL A   1      45.536  33.872  27.957  1.00  0.00     0.148 A 
ATOM     66  C   UNL A   1      46.859  34.551  30.340  1.00  0.00     0.002 A 
ATOM     67  C   UNL A   1      45.920  35.184  28.190  1.00  0.00     0.091 A 
ATOM     68  F   UNL A   1      44.889  33.509  26.839  1.00  0.00    -0.205 F 
ATOM     69  C   UNL A   1      46.575  35.527  29.384  1.00  0.00     0.022 A 
BRANCH  67  70
ATOM     70  S   UNL A   1      45.713  36.475  26.960  1.00  0.00     0.127 S 
ATOM     71  O   UNL A   1      44.256  36.553  26.853  1.00  0.00    -0.237 OA
ATOM     72  O   UNL A   1      46.340  37.625  27.613  1.00  0.00    -0.237 OA
ATOM     73  O   UNL A   1      46.401  36.010  25.763  1.00  0.00    -0.744 OA
ENDBRANCH  67  70
ENDBRANCH  40  63
ENDBRANCH  14  15
ENDBRANCH   7   9
ENDBRANCH   6   7
ENDBRANCH   5   6
ENDBRANCH   4   5
ENDBRANCH   3   4
ENDBRANCH   2   3
ENDBRANCH   1   2
BRANCH   1  74
ATOM     74  O   UNL A   1      39.207  21.725  25.859  1.00  0.00    -0.376 OA
BRANCH  74  75
ATOM     75  C   UNL A   1      37.975  22.485  25.888  1.00  0.00     0.202 C 
BRANCH  75  76
ATOM     76  C   UNL A   1      37.052  22.462  24.619  1.00  0.00     0.261 C 
BRANCH  76  77
ATOM     77  O   UNL A   1      35.667  21.994  24.837  1.00  0.00    -0.463 OA
BRANCH  77  78
ATOM     78  C   UNL A   1      34.791  22.892  25.426  1.00  0.00     0.310 C 
ATOM     79  O   UNL A   1      34.571  22.857  26.637  1.00  0.00    -0.252 OA
BRANCH  78  80
ATOM     80  C   UNL A   1      33.998  23.830  24.460  1.00  0.00     0.119 C 
ATOM     81  C   UNL A   1      32.675  24.740  24.507  1.00  0.00     0.100 C 
ATOM     82  C   UNL A   1      33.730  23.034  23.128  1.00  0.00     0.027 C 
ATOM     83  C   UNL A   1      31.996  24.421  23.126  1.00  0.00     0.025 C 
ATOM     84  C   UNL A   1      32.475  22.191  23.265  1.00  0.00    -0.027 C 
ATOM     85  C   UNL A   1      33.178  24.135  22.219  1.00  0.00     0.017 C 
ATOM     86  C   UNL A   1      31.428  23.025  23.221  1.00  0.00    -0.027 C 
BRANCH  81  87
ATOM     87  C   UNL A   1      31.426  25.068  25.366  1.00  0.00     0.229 C 
ATOM     88  O   UNL A   1      31.150  24.269  26.278  1.00  0.00    -0.274 OA
ATOM     89  N   UNL A   1      30.725  26.224  25.461  1.00  0.00    -0.323 N 
ATOM     90  H   UNL A   1      30.164  26.294  26.267  1.00  0.00     0.170 HD
BRANCH  89  91
ATOM     91  C   UNL A   1      30.662  27.320  24.623  1.00  0.00     0.084 A 
ATOM     92  C   UNL A   1      29.833  27.284  23.501  1.00  0.00     0.030 A 
ATOM     93  C   UNL A   1      31.355  28.465  24.906  1.00  0.00     0.149 A 
ATOM     94  C   UNL A   1      29.479  28.478  22.867  1.00  0.00     0.002 A 
ATOM     95  C   UNL A   1      30.868  29.674  24.403  1.00  0.00     0.049 A 
ATOM     96  C   UNL A   1      29.928  29.687  23.383  1.00  0.00     0.004 A 
BRANCH  93  97
ATOM     97  O   UNL A   1      32.504  28.511  25.620  1.00  0.00    -0.433 OA
BRANCH  97  98
ATOM     98  C   UNL A   1      32.612  28.899  26.989  1.00  0.00     0.542 C 
ATOM     99  F   UNL A   1      31.425  28.700  27.605  1.00  0.00    -0.167 F 
ATOM    100  F   UNL A   1      33.560  28.206  27.619  1.00  0.00    -0.167 F 
ENDBRANCH  97  98
ENDBRANCH  93  97
ENDBRANCH  89  91
ENDBRANCH  81  87
ENDBRANCH  78  80
ENDBRANCH  77  78
ENDBRANCH  76  77
ENDBRANCH  75  76
ENDBRANCH  74  75
ENDBRANCH   1  74
TORSDOF 24
ENDMDL
MODEL 2
REMARK VINA RESULT:     -10.1      2.112      2.669
REMARK SMILES O=C(OCCOCCOCCOC(=O)[C@@H]1[C@H](C(=O)Nc2ccccc2OC(F)F)[C@@H]2C=C[C@H]1C2)c1ccc(-c2c3nc(c(-c4cccc(S(=O)(=O)[O-])c4F)c4ccc([nH]4)c(-c4cccc(S(=O)(=O)[O-])c4F)c4nc(c(-c5cccc(S(=O)(=O)[O-])c5F)c5ccc2[nH]5)C=C4)C=C3)cc1
REMARK SMILES IDX 8 1 7 2 6 3 5 4 4 5 3 6 2 7 1 8 35 9 36 10 97 11 37 12 96 13
REMARK SMILES IDX 38 14 39 15 40 16 90 17 41 18 95 19 89 20 91 21 42 22 94 23
REMARK SMILES IDX 88 24 87 25 43 27 75 28 55 29 74 30 56 31 59 32 73 33 92 34
REMARK SMILES IDX 57 35 58 36 72 38 93 39 60 40 44 41 45 42 53 43 46 44 48 45
REMARK SMILES IDX 54 46 47 47 49 48 50 49 51 50 52 51 76 52 77 53 85 54 78 55
REMARK SMILES IDX 80 56 86 57 79 58 81 59 82 60 83 61 84 62 61 63 62 64 70 65
REMARK SMILES IDX 63 66 65 67 71 68 64 69 66 70 67 71 68 72 69 73 9 74 10 75
REMARK SMILES IDX 11 76 12 77 13 78 14 79 15 80 16 81 33 82 30 83 32 84 34 85
REMARK SMILES IDX 31 86 17 87 18 88 19 89 20 91 21 92 25 93 22 94 24 95 23 96
REMARK SMILES IDX 26 97 27 98 28 99 29 100
REMARK H PARENT 91 26 59 37 19 90
REMARK Flexibility Score: inf
ROOT
ATOM      1  C   UNL A   1      40.705  22.322  27.409  1.00  0.00     0.188 C 
ENDROOT
BRANCH   1   2
ATOM      2  C   UNL A   1      41.648  21.094  27.378  1.00  0.00     0.188 C 
BRANCH   2   3
ATOM      3  O   UNL A   1      41.714  20.446  26.118  1.00  0.00    -0.376 OA
BRANCH   3   4
ATOM      4  C   UNL A   1      42.162  19.080  26.119  1.00  0.00     0.202 C 
BRANCH   4   5
ATOM      5  C   UNL A   1      43.511  18.717  25.457  1.00  0.00     0.261 C 
BRANCH   5   6
ATOM      6  O   UNL A   1      43.790  19.649  24.412  1.00  0.00    -0.460 OA
BRANCH   6   7
ATOM      7  C   UNL A   1      45.035  20.184  24.380  1.00  0.00     0.338 C 
ATOM      8  O   UNL A   1      46.051  19.601  24.079  1.00  0.00    -0.246 OA
BRANCH   7   9
ATOM      9  C   UNL A   1      44.933  21.551  24.940  1.00  0.00     0.060 A 
ATOM     10  C   UNL A   1      44.507  22.602  24.110  1.00  0.00     0.016 A 
ATOM     11  C   UNL A   1      45.167  21.770  26.296  1.00  0.00     0.016 A 
ATOM     12  C   UNL A   1      44.230  23.855  24.637  1.00  0.00     0.010 A 
ATOM     13  C   UNL A   1      44.909  23.036  26.824  1.00  0.00     0.010 A 
ATOM     14  C   UNL A   1      44.443  24.081  25.995  1.00  0.00    -0.014 A 
BRANCH  14  15
ATOM     15  C   UNL A   1      44.539  25.478  26.464  1.00  0.00     0.031 A 
ATOM     16  C   UNL A   1      45.917  26.065  26.433  1.00  0.00     0.074 A 
ATOM     17  C   UNL A   1      43.479  26.198  26.874  1.00  0.00     0.049 A 
ATOM     18  N   UNL A   1      46.319  27.260  26.761  1.00  0.00    -0.248 NA
ATOM     19  C   UNL A   1      46.991  25.181  25.937  1.00  0.00     0.031 C 
ATOM     20  C   UNL A   1      42.090  25.749  26.872  1.00  0.00     0.029 A 
ATOM     21  N   UNL A   1      43.416  27.455  27.421  1.00  0.00    -0.354 N 
ATOM     22  C   UNL A   1      47.683  27.266  26.512  1.00  0.00     0.074 A 
ATOM     23  C   UNL A   1      48.054  25.950  26.054  1.00  0.00     0.031 C 
ATOM     24  C   UNL A   1      41.327  26.661  27.500  1.00  0.00     0.029 A 
ATOM     25  C   UNL A   1      42.171  27.775  27.915  1.00  0.00     0.049 A 
ATOM     26  H   UNL A   1      44.186  28.067  27.458  1.00  0.00     0.167 HD
ATOM     27  C   UNL A   1      48.553  28.290  26.626  1.00  0.00     0.034 A 
ATOM     28  C   UNL A   1      41.775  28.848  28.628  1.00  0.00     0.034 A 
ATOM     29  C   UNL A   1      48.177  29.570  27.139  1.00  0.00     0.049 A 
ATOM     30  C   UNL A   1      42.778  29.953  28.846  1.00  0.00     0.074 A 
ATOM     31  C   UNL A   1      48.960  30.688  27.335  1.00  0.00     0.029 A 
ATOM     32  N   UNL A   1      46.896  29.880  27.580  1.00  0.00    -0.354 N 
ATOM     33  N   UNL A   1      44.039  30.002  28.482  1.00  0.00    -0.248 NA
ATOM     34  C   UNL A   1      42.298  31.177  29.503  1.00  0.00     0.031 C 
ATOM     35  C   UNL A   1      48.159  31.665  27.935  1.00  0.00     0.029 A 
ATOM     36  C   UNL A   1      46.868  31.169  28.068  1.00  0.00     0.049 A 
ATOM     37  H   UNL A   1      46.125  29.270  27.548  1.00  0.00     0.167 HD
ATOM     38  C   UNL A   1      44.485  31.278  28.801  1.00  0.00     0.074 A 
ATOM     39  C   UNL A   1      43.361  31.968  29.405  1.00  0.00     0.031 C 
ATOM     40  C   UNL A   1      45.705  31.835  28.602  1.00  0.00     0.034 A 
BRANCH  27  41
ATOM     41  C   UNL A   1      49.965  28.001  26.208  1.00  0.00     0.023 A 
ATOM     42  C   UNL A   1      50.275  27.888  24.835  1.00  0.00     0.012 A 
ATOM     43  C   UNL A   1      50.946  27.700  27.169  1.00  0.00     0.148 A 
ATOM     44  C   UNL A   1      51.519  27.411  24.427  1.00  0.00     0.002 A 
ATOM     45  C   UNL A   1      52.198  27.266  26.752  1.00  0.00     0.091 A 
ATOM     46  F   UNL A   1      50.617  27.778  28.466  1.00  0.00    -0.205 F 
ATOM     47  C   UNL A   1      52.479  27.101  25.385  1.00  0.00     0.022 A 
BRANCH  45  48
ATOM     48  S   UNL A   1      53.514  26.877  27.907  1.00  0.00     0.127 S 
ATOM     49  O   UNL A   1      54.060  28.204  28.191  1.00  0.00    -0.237 OA
ATOM     50  O   UNL A   1      52.777  26.271  29.015  1.00  0.00    -0.237 OA
ATOM     51  O   UNL A   1      54.409  25.968  27.204  1.00  0.00    -0.744 OA
ENDBRANCH  45  48
ENDBRANCH  27  41
BRANCH  28  52
ATOM     52  C   UNL A   1      40.363  28.964  29.098  1.00  0.00     0.023 A 
ATOM     53  C   UNL A   1      39.339  29.213  28.163  1.00  0.00     0.012 A 
ATOM     54  C   UNL A   1      40.020  28.799  30.457  1.00  0.00     0.148 A 
ATOM     55  C   UNL A   1      38.008  29.325  28.572  1.00  0.00     0.002 A 
ATOM     56  C   UNL A   1      38.687  28.873  30.853  1.00  0.00     0.091 A 
ATOM     57  F   UNL A   1      41.004  28.568  31.337  1.00  0.00    -0.205 F 
ATOM     58  C   UNL A   1      37.682  29.151  29.913  1.00  0.00     0.022 A 
BRANCH  56  59
ATOM     59  S   UNL A   1      38.145  28.567  32.540  1.00  0.00     0.127 S 
ATOM     60  O   UNL A   1      39.095  29.368  33.310  1.00  0.00    -0.237 OA
ATOM     61  O   UNL A   1      36.779  29.091  32.515  1.00  0.00    -0.237 OA
ATOM     62  O   UNL A   1      38.237  27.128  32.734  1.00  0.00    -0.744 OA
ENDBRANCH  56  59
ENDBRANCH  28  52
BRANCH  40  63
ATOM     63  C   UNL A   1      45.893  33.279  28.968  1.00  0.00     0.023 A 
ATOM     64  C   UNL A   1      46.492  33.622  30.194  1.00  0.00     0.012 A 
ATOM     65  C   UNL A   1      45.642  34.277  28.005  1.00  0.00     0.148 A 
ATOM     66  C   UNL A   1      46.840  34.945  30.457  1.00  0.00     0.002 A 
ATOM     67  C   UNL A   1      46.043  35.582  28.252  1.00  0.00     0.091 A 
ATOM     68  F   UNL A   1      45.054  33.921  26.854  1.00  0.00    -0.205 F 
ATOM     69  C   UNL A   1      46.635  35.920  29.480  1.00  0.00     0.022 A 
BRANCH  67  70
ATOM     70  S   UNL A   1      45.938  36.868  27.003  1.00  0.00     0.127 S 
ATOM     71  O   UNL A   1      44.491  37.018  26.852  1.00  0.00    -0.237 OA
ATOM     72  O   UNL A   1      46.603  37.992  27.663  1.00  0.00    -0.237 OA
ATOM     73  O   UNL A   1      46.637  36.355  25.833  1.00  0.00    -0.744 OA
ENDBRANCH  67  70
ENDBRANCH  40  63
ENDBRANCH  14  15
ENDBRANCH   7   9
ENDBRANCH   6   7
ENDBRANCH   5   6
ENDBRANCH   4   5
ENDBRANCH   3   4
ENDBRANCH   2   3
ENDBRANCH   1   2
BRANCH   1  74
ATOM     74  O   UNL A   1      39.905  22.626  26.273  1.00  0.00    -0.376 OA
BRANCH  74  75
ATOM     75  C   UNL A   1      38.861  23.613  26.457  1.00  0.00     0.202 C 
BRANCH  75  76
ATOM     76  C   UNL A   1      37.371  23.173  26.240  1.00  0.00     0.261 C 
BRANCH  76  77
ATOM     77  O   UNL A   1      36.708  23.715  25.035  1.00  0.00    -0.463 OA
BRANCH  77  78
ATOM     78  C   UNL A   1      35.325  23.797  25.069  1.00  0.00     0.310 C 
ATOM     79  O   UNL A   1      34.763  24.860  25.337  1.00  0.00    -0.252 OA
BRANCH  78  80
ATOM     80  C   UNL A   1      34.540  22.455  24.903  1.00  0.00     0.119 C 
ATOM     81  C   UNL A   1      33.416  21.849  23.929  1.00  0.00     0.100 C 
ATOM     82  C   UNL A   1      33.913  22.089  26.300  1.00  0.00     0.027 C 
ATOM     83  C   UNL A   1      32.460  21.111  24.935  1.00  0.00     0.025 C 
ATOM     84  C   UNL A   1      32.580  22.794  26.477  1.00  0.00    -0.027 C 
ATOM     85  C   UNL A   1      33.399  20.671  26.042  1.00  0.00     0.017 C 
ATOM     86  C   UNL A   1      31.695  22.176  25.685  1.00  0.00    -0.027 C 
BRANCH  81  87
ATOM     87  C   UNL A   1      32.410  22.226  22.810  1.00  0.00     0.229 C 
ATOM     88  O   UNL A   1      31.832  21.285  22.239  1.00  0.00    -0.274 OA
ATOM     89  N   UNL A   1      31.854  23.427  22.521  1.00  0.00    -0.323 N 
ATOM     90  H   UNL A   1      31.040  23.377  21.970  1.00  0.00     0.170 HD
BRANCH  89  91
ATOM     91  C   UNL A   1      32.232  24.710  22.866  1.00  0.00     0.084 A 
ATOM     92  C   UNL A   1      33.417  25.242  22.354  1.00  0.00     0.030 A 
ATOM     93  C   UNL A   1      31.435  25.493  23.654  1.00  0.00     0.149 A 
ATOM     94  C   UNL A   1      33.624  26.623  22.386  1.00  0.00     0.002 A 
ATOM     95  C   UNL A   1      31.540  26.881  23.530  1.00  0.00     0.049 A 
ATOM     96  C   UNL A   1      32.633  27.453  22.896  1.00  0.00     0.004 A 
BRANCH  93  97
ATOM     97  O   UNL A   1      30.563  25.019  24.575  1.00  0.00    -0.433 OA
BRANCH  97  98
ATOM     98  C   UNL A   1      29.989  25.778  25.637  1.00  0.00     0.542 C 
ATOM     99  F   UNL A   1      29.461  24.937  26.554  1.00  0.00    -0.167 F 
ATOM    100  F   UNL A   1      30.896  26.560  26.224  1.00  0.00    -0.167 F 
ENDBRANCH  97  98
ENDBRANCH  93  97
ENDBRANCH  89  91
ENDBRANCH  81  87
ENDBRANCH  78  80
ENDBRANCH  77  78
ENDBRANCH  76  77
ENDBRANCH  75  76
ENDBRANCH  74  75
ENDBRANCH   1  74
TORSDOF 24
ENDMDL
MODEL 3
REMARK VINA RESULT:      -9.5      2.182      7.719
REMARK SMILES O=C(OCCOCCOCCOC(=O)[C@@H]1[C@H](C(=O)Nc2ccccc2OC(F)F)[C@@H]2C=C[C@H]1C2)c1ccc(-c2c3nc(c(-c4cccc(S(=O)(=O)[O-])c4F)c4ccc([nH]4)c(-c4cccc(S(=O)(=O)[O-])c4F)c4nc(c(-c5cccc(S(=O)(=O)[O-])c5F)c5ccc2[nH]5)C=C4)C=C3)cc1
REMARK SMILES IDX 8 1 7 2 6 3 5 4 4 5 3 6 2 7 1 8 35 9 36 10 97 11 37 12 96 13
REMARK SMILES IDX 38 14 39 15 40 16 90 17 41 18 95 19 89 20 91 21 42 22 94 23
REMARK SMILES IDX 88 24 87 25 43 27 75 28 55 29 74 30 56 31 59 32 73 33 92 34
REMARK SMILES IDX 57 35 58 36 72 38 93 39 60 40 44 41 45 42 53 43 46 44 48 45
REMARK SMILES IDX 54 46 47 47 49 48 50 49 51 50 52 51 76 52 77 53 85 54 78 55
REMARK SMILES IDX 80 56 86 57 79 58 81 59 82 60 83 61 84 62 61 63 62 64 70 65
REMARK SMILES IDX 63 66 65 67 71 68 64 69 66 70 67 71 68 72 69 73 9 74 10 75
REMARK SMILES IDX 11 76 12 77 13 78 14 79 15 80 16 81 33 82 30 83 32 84 34 85
REMARK SMILES IDX 31 86 17 87 18 88 19 89 20 91 21 92 25 93 22 94 24 95 23 96
REMARK SMILES IDX 26 97 27 98 28 99 29 100
REMARK H PARENT 91 26 59 37 19 90
REMARK Flexibility Score: inf
ROOT
ATOM      1  C   UNL A   1      40.520  22.362  27.568  1.00  0.00     0.188 C 
ENDROOT
BRANCH   1   2
ATOM      2  C   UNL A   1      41.546  21.207  27.472  1.00  0.00     0.188 C 
BRANCH   2   3
ATOM      3  O   UNL A   1      41.403  20.399  26.314  1.00  0.00    -0.376 OA
BRANCH   3   4
ATOM      4  C   UNL A   1      41.957  19.074  26.380  1.00  0.00     0.202 C 
BRANCH   4   5
ATOM      5  C   UNL A   1      43.229  18.737  25.570  1.00  0.00     0.261 C 
BRANCH   5   6
ATOM      6  O   UNL A   1      43.469  19.771  24.615  1.00  0.00    -0.460 OA
BRANCH   6   7
ATOM      7  C   UNL A   1      44.761  20.121  24.399  1.00  0.00     0.338 C 
ATOM      8  O   UNL A   1      45.631  19.397  23.972  1.00  0.00    -0.246 OA
BRANCH   7   9
ATOM      9  C   UNL A   1      44.935  21.489  24.938  1.00  0.00     0.060 A 
ATOM     10  C   UNL A   1      44.861  22.586  24.062  1.00  0.00     0.016 A 
ATOM     11  C   UNL A   1      45.076  21.687  26.310  1.00  0.00     0.016 A 
ATOM     12  C   UNL A   1      44.842  23.884  24.550  1.00  0.00     0.010 A 
ATOM     13  C   UNL A   1      45.079  22.993  26.801  1.00  0.00     0.010 A 
ATOM     14  C   UNL A   1      44.965  24.094  25.922  1.00  0.00    -0.014 A 
BRANCH  14  15
ATOM     15  C   UNL A   1      45.346  25.441  26.392  1.00  0.00     0.031 A 
ATOM     16  C   UNL A   1      44.207  26.299  26.852  1.00  0.00     0.074 A 
ATOM     17  C   UNL A   1      46.617  25.881  26.433  1.00  0.00     0.049 A 
ATOM     18  N   UNL A   1      44.220  27.510  27.331  1.00  0.00    -0.248 NA
ATOM     19  C   UNL A   1      42.864  25.690  26.783  1.00  0.00     0.031 C 
ATOM     20  C   UNL A   1      47.801  25.103  26.081  1.00  0.00     0.029 A 
ATOM     21  N   UNL A   1      47.119  27.119  26.745  1.00  0.00    -0.354 N 
ATOM     22  C   UNL A   1      42.895  27.802  27.615  1.00  0.00     0.074 A 
ATOM     23  C   UNL A   1      42.096  26.671  27.214  1.00  0.00     0.031 C 
ATOM     24  C   UNL A   1      48.878  25.909  26.080  1.00  0.00     0.029 A 
ATOM     25  C   UNL A   1      48.462  27.251  26.469  1.00  0.00     0.049 A 
ATOM     26  H   UNL A   1      46.572  27.842  27.130  1.00  0.00     0.167 HD
ATOM     27  C   UNL A   1      42.384  28.910  28.191  1.00  0.00     0.034 A 
ATOM     28  C   UNL A   1      49.250  28.343  26.518  1.00  0.00     0.034 A 
ATOM     29  C   UNL A   1      43.184  30.046  28.526  1.00  0.00     0.049 A 
ATOM     30  C   UNL A   1      48.651  29.614  27.068  1.00  0.00     0.074 A 
ATOM     31  C   UNL A   1      42.794  31.244  29.087  1.00  0.00     0.029 A 
ATOM     32  N   UNL A   1      44.549  30.128  28.283  1.00  0.00    -0.354 N 
ATOM     33  N   UNL A   1      47.420  29.839  27.464  1.00  0.00    -0.248 NA
ATOM     34  C   UNL A   1      49.555  30.759  27.248  1.00  0.00     0.031 C 
ATOM     35  C   UNL A   1      43.922  32.069  29.146  1.00  0.00     0.029 A 
ATOM     36  C   UNL A   1      45.020  31.367  28.665  1.00  0.00     0.049 A 
ATOM     37  H   UNL A   1      45.099  29.409  27.896  1.00  0.00     0.167 HD
ATOM     38  C   UNL A   1      47.413  31.119  28.002  1.00  0.00     0.074 A 
ATOM     39  C   UNL A   1      48.763  31.631  27.865  1.00  0.00     0.031 C 
ATOM     40  C   UNL A   1      46.391  31.806  28.567  1.00  0.00     0.034 A 
BRANCH  27  41
ATOM     41  C   UNL A   1      40.904  28.899  28.436  1.00  0.00     0.023 A 
ATOM     42  C   UNL A   1      40.023  29.261  27.393  1.00  0.00     0.012 A 
ATOM     43  C   UNL A   1      40.395  28.673  29.727  1.00  0.00     0.148 A 
ATOM     44  C   UNL A   1      38.669  29.468  27.649  1.00  0.00     0.002 A 
ATOM     45  C   UNL A   1      39.037  28.839  29.964  1.00  0.00     0.091 A 
ATOM     46  F   UNL A   1      41.254  28.368  30.709  1.00  0.00    -0.205 F 
ATOM     47  C   UNL A   1      38.177  29.256  28.933  1.00  0.00     0.022 A 
BRANCH  45  48
ATOM     48  S   UNL A   1      38.301  28.556  31.574  1.00  0.00     0.127 S 
ATOM     49  O   UNL A   1      36.919  28.977  31.346  1.00  0.00    -0.237 OA
ATOM     50  O   UNL A   1      38.480  27.115  31.742  1.00  0.00    -0.237 OA
ATOM     51  O   UNL A   1      39.059  29.374  32.512  1.00  0.00    -0.744 OA
ENDBRANCH  45  48
ENDBRANCH  27  41
BRANCH  28  52
ATOM     52  C   UNL A   1      50.688  28.255  26.128  1.00  0.00     0.023 A 
ATOM     53  C   UNL A   1      51.069  28.562  24.808  1.00  0.00     0.012 A 
ATOM     54  C   UNL A   1      51.686  27.901  27.062  1.00  0.00     0.148 A 
ATOM     55  C   UNL A   1      52.407  28.490  24.414  1.00  0.00     0.002 A 
ATOM     56  C   UNL A   1      53.023  27.870  26.673  1.00  0.00     0.091 A 
ATOM     57  F   UNL A   1      51.309  27.607  28.314  1.00  0.00    -0.205 F 
ATOM     58  C   UNL A   1      53.383  28.150  25.345  1.00  0.00     0.022 A 
BRANCH  56  59
ATOM     59  S   UNL A   1      54.370  27.539  27.817  1.00  0.00     0.127 S 
ATOM     60  O   UNL A   1      54.522  26.090  27.691  1.00  0.00    -0.237 OA
ATOM     61  O   UNL A   1      55.458  28.324  27.232  1.00  0.00    -0.237 OA
ATOM     62  O   UNL A   1      53.916  28.011  29.116  1.00  0.00    -0.744 OA
ENDBRANCH  56  59
ENDBRANCH  28  52
BRANCH  40  63
ATOM     63  C   UNL A   1      46.683  33.158  29.152  1.00  0.00     0.023 A 
ATOM     64  C   UNL A   1      47.190  33.264  30.460  1.00  0.00     0.012 A 
ATOM     65  C   UNL A   1      46.627  34.298  28.326  1.00  0.00     0.148 A 
ATOM     66  C   UNL A   1      47.638  34.492  30.940  1.00  0.00     0.002 A 
ATOM     67  C   UNL A   1      47.127  35.505  28.791  1.00  0.00     0.091 A 
ATOM     68  F   UNL A   1      46.122  34.168  27.091  1.00  0.00    -0.205 F 
ATOM     69  C   UNL A   1      47.626  35.607  30.100  1.00  0.00     0.022 A 
BRANCH  67  70
ATOM     70  S   UNL A   1      47.271  36.952  27.737  1.00  0.00     0.127 S 
ATOM     71  O   UNL A   1      46.865  36.416  26.439  1.00  0.00    -0.237 OA
ATOM     72  O   UNL A   1      46.311  37.873  28.347  1.00  0.00    -0.237 OA
ATOM     73  O   UNL A   1      48.660  37.381  27.825  1.00  0.00    -0.744 OA
ENDBRANCH  67  70
ENDBRANCH  40  63
ENDBRANCH  14  15
ENDBRANCH   7   9
ENDBRANCH   6   7
ENDBRANCH   5   6
ENDBRANCH   4   5
ENDBRANCH   3   4
ENDBRANCH   2   3
ENDBRANCH   1   2
BRANCH   1  74
ATOM     74  O   UNL A   1      39.678  22.653  26.459  1.00  0.00    -0.376 OA
BRANCH  74  75
ATOM     75  C   UNL A   1      38.863  23.846  26.555  1.00  0.00     0.202 C 
BRANCH  75  76
ATOM     76  C   UNL A   1      37.305  23.698  26.439  1.00  0.00     0.261 C 
BRANCH  76  77
ATOM     77  O   UNL A   1      36.756  23.718  25.066  1.00  0.00    -0.463 OA
BRANCH  77  78
ATOM     78  C   UNL A   1      35.376  23.685  24.947  1.00  0.00     0.310 C 
ATOM     79  O   UNL A   1      34.695  24.671  25.233  1.00  0.00    -0.252 OA
BRANCH  78  80
ATOM     80  C   UNL A   1      34.738  22.305  24.583  1.00  0.00     0.119 C 
ATOM     81  C   UNL A   1      33.639  21.737  23.559  1.00  0.00     0.100 C 
ATOM     82  C   UNL A   1      34.229  21.644  25.919  1.00  0.00     0.027 C 
ATOM     83  C   UNL A   1      32.825  20.737  24.458  1.00  0.00     0.025 C 
ATOM     84  C   UNL A   1      32.837  22.147  26.256  1.00  0.00    -0.027 C 
ATOM     85  C   UNL A   1      33.864  20.236  25.443  1.00  0.00     0.017 C 
ATOM     86  C   UNL A   1      31.987  21.567  25.401  1.00  0.00    -0.027 C 
BRANCH  81  87
ATOM     87  C   UNL A   1      32.540  22.170  22.554  1.00  0.00     0.229 C 
ATOM     88  O   UNL A   1      31.963  21.262  21.932  1.00  0.00    -0.274 OA
ATOM     89  N   UNL A   1      31.913  23.364  22.425  1.00  0.00    -0.323 N 
ATOM     90  H   UNL A   1      31.064  23.327  21.927  1.00  0.00     0.170 HD
BRANCH  89  91
ATOM     91  C   UNL A   1      32.259  24.625  22.869  1.00  0.00     0.084 A 
ATOM     92  C   UNL A   1      33.370  25.269  22.322  1.00  0.00     0.030 A 
ATOM     93  C   UNL A   1      31.497  25.280  23.796  1.00  0.00     0.149 A 
ATOM     94  C   UNL A   1      33.515  26.650  22.482  1.00  0.00     0.002 A 
ATOM     95  C   UNL A   1      31.526  26.677  23.810  1.00  0.00     0.049 A 
ATOM     96  C   UNL A   1      32.533  27.369  23.153  1.00  0.00     0.004 A 
BRANCH  93  97
ATOM     97  O   UNL A   1      30.729  24.670  24.729  1.00  0.00    -0.433 OA
BRANCH  97  98
ATOM     98  C   UNL A   1      30.587  25.088  26.086  1.00  0.00     0.542 C 
ATOM     99  F   UNL A   1      29.882  24.160  26.769  1.00  0.00    -0.167 F 
ATOM    100  F   UNL A   1      31.774  25.262  26.669  1.00  0.00    -0.167 F 
ENDBRANCH  97  98
ENDBRANCH  93  97
ENDBRANCH  89  91
ENDBRANCH  81  87
ENDBRANCH  78  80
ENDBRANCH  77  78
ENDBRANCH  76  77
ENDBRANCH  75  76
ENDBRANCH  74  75
ENDBRANCH   1  74
TORSDOF 24
ENDMDL
