MODEL 1
REMARK VINA RESULT:      -7.9      0.000      0.000
REMARK SMILES Cc1cc(C(=O)NC[C@H]2CC[C@@H](C(=O)OCCOCCOCCOC(=O)c3ccc(-c4c5nc(c(-c6cccc(S(=O)(=O)[O-])c6F)c6ccc([nH]6)c(-c6cccc(S(=O)(=O)[O-])c6F)c6nc(c(-c7cccc(S(=O)(=O)[O-])c7F)c7ccc4[nH]7)C=C6)C=C5)cc3)O2)c(C)s1
REMARK SMILES IDX 19 1 18 2 17 3 16 4 15 5 13 6 14 7 12 8 9 9 10 10 90 11
REMARK SMILES IDX 11 12 8 13 7 14 5 15 6 16 4 18 1 19 2 20 3 21 93 22 91 23
REMARK SMILES IDX 92 24 20 25 21 26 22 27 23 28 24 29 25 30 26 31 27 32 28 33
REMARK SMILES IDX 89 34 29 35 88 36 30 37 31 38 32 39 82 40 33 41 87 42 81 43
REMARK SMILES IDX 83 44 34 45 86 46 80 47 79 48 35 50 67 51 47 52 66 53 48 54
REMARK SMILES IDX 51 55 65 56 84 57 49 58 50 59 64 61 85 62 52 63 36 64 37 65
REMARK SMILES IDX 45 66 38 67 40 68 46 69 39 70 41 71 42 72 43 73 44 74 68 75
REMARK SMILES IDX 69 76 77 77 70 78 72 79 78 80 71 81 73 82 74 83 75 84 76 85
REMARK SMILES IDX 53 86 54 87 62 88 55 89 57 90 63 91 56 92 58 93 59 94 60 95
REMARK SMILES IDX 61 96
REMARK H PARENT 7 17 83 49 51 60
REMARK Flexibility Score: inf
ROOT
ATOM      1  C   UNL A   1      34.666  33.534  32.904  1.00  0.00     0.188 C 
ENDROOT
BRANCH   1   2
ATOM      2  O   UNL A   1      36.044  33.496  33.215  1.00  0.00    -0.376 OA
BRANCH   2   3
ATOM      3  C   UNL A   1      36.555  32.419  33.988  1.00  0.00     0.202 C 
BRANCH   3   4
ATOM      4  C   UNL A   1      37.504  32.636  35.176  1.00  0.00     0.261 C 
BRANCH   4   5
ATOM      5  O   UNL A   1      38.781  32.003  35.028  1.00  0.00    -0.461 OA
BRANCH   5   6
ATOM      6  C   UNL A   1      39.001  30.891  35.781  1.00  0.00     0.335 C 
ATOM      7  O   UNL A   1      38.149  30.322  36.454  1.00  0.00    -0.249 OA
BRANCH   6   8
ATOM      8  C   UNL A   1      40.442  30.381  35.646  1.00  0.00     0.228 C 
ATOM      9  C   UNL A   1      41.844  28.558  35.241  1.00  0.00     0.138 C 
ATOM     10  C   UNL A   1      42.189  29.652  34.235  1.00  0.00     0.037 C 
ATOM     11  O   UNL A   1      40.651  28.994  35.898  1.00  0.00    -0.361 OA
ATOM     12  C   UNL A   1      40.970  30.552  34.238  1.00  0.00     0.047 C 
BRANCH   9  13
ATOM     13  C   UNL A   1      41.629  27.170  34.613  1.00  0.00     0.148 C 
BRANCH  13  14
ATOM     14  N   UNL A   1      41.151  26.182  35.573  1.00  0.00    -0.349 N 
ATOM     15  C   UNL A   1      41.762  25.257  36.386  1.00  0.00     0.252 C 
ATOM     16  O   UNL A   1      40.999  24.679  37.166  1.00  0.00    -0.269 OA
ATOM     17  H   UNL A   1      40.170  26.176  35.656  1.00  0.00     0.163 HD
BRANCH  15  18
ATOM     18  C   UNL A   1      43.216  25.000  36.382  1.00  0.00     0.053 A 
ATOM     19  C   UNL A   1      46.776  25.739  37.527  1.00  0.00     0.056 C 
ATOM     20  C   UNL A   1      45.516  25.239  36.914  1.00  0.00     0.003 A 
ATOM     21  C   UNL A   1      44.229  25.655  37.165  1.00  0.00     0.029 A 
ATOM     22  S   UNL A   1      45.547  24.037  35.721  1.00  0.00    -0.145 S 
ATOM     23  C   UNL A   1      43.840  24.108  35.502  1.00  0.00     0.014 A 
ATOM     24  C   UNL A   1      43.287  23.258  34.397  1.00  0.00     0.057 C 
ENDBRANCH  15  18
ENDBRANCH  13  14
ENDBRANCH   9  13
ENDBRANCH   6   8
ENDBRANCH   5   6
ENDBRANCH   4   5
ENDBRANCH   3   4
ENDBRANCH   2   3
ENDBRANCH   1   2
BRANCH   1  25
ATOM     25  C   UNL A   1      34.072  34.819  32.309  1.00  0.00     0.188 C 
BRANCH  25  26
ATOM     26  O   UNL A   1      34.128  35.079  30.929  1.00  0.00    -0.376 OA
BRANCH  26  27
ATOM     27  C   UNL A   1      32.948  35.401  30.213  1.00  0.00     0.202 C 
BRANCH  27  28
ATOM     28  C   UNL A   1      32.753  35.203  28.701  1.00  0.00     0.261 C 
BRANCH  28  29
ATOM     29  O   UNL A   1      33.831  34.599  27.987  1.00  0.00    -0.460 OA
BRANCH  29  30
ATOM     30  C   UNL A   1      33.907  33.249  28.105  1.00  0.00     0.338 C 
ATOM     31  O   UNL A   1      33.140  32.413  27.654  1.00  0.00    -0.246 OA
BRANCH  30  32
ATOM     32  C   UNL A   1      35.223  32.921  28.676  1.00  0.00     0.060 A 
ATOM     33  C   UNL A   1      36.349  33.627  28.224  1.00  0.00     0.016 A 
ATOM     34  C   UNL A   1      35.335  31.939  29.659  1.00  0.00     0.016 A 
ATOM     35  C   UNL A   1      37.603  33.350  28.759  1.00  0.00     0.010 A 
ATOM     36  C   UNL A   1      36.596  31.637  30.165  1.00  0.00     0.010 A 
ATOM     37  C   UNL A   1      37.733  32.323  29.700  1.00  0.00    -0.014 A 
BRANCH  37  38
ATOM     38  C   UNL A   1      39.074  31.815  30.054  1.00  0.00     0.031 A 
ATOM     39  C   UNL A   1      39.884  32.606  31.039  1.00  0.00     0.074 A 
ATOM     40  C   UNL A   1      39.570  30.706  29.481  1.00  0.00     0.049 A 
ATOM     41  N   UNL A   1      41.121  32.438  31.418  1.00  0.00    -0.248 NA
ATOM     42  C   UNL A   1      39.207  33.751  31.675  1.00  0.00     0.031 C 
ATOM     43  C   UNL A   1      38.862  29.853  28.529  1.00  0.00     0.029 A 
ATOM     44  N   UNL A   1      40.810  30.132  29.595  1.00  0.00    -0.354 N 
ATOM     45  C   UNL A   1      41.386  33.474  32.304  1.00  0.00     0.074 A 
ATOM     46  C   UNL A   1      40.182  34.271  32.403  1.00  0.00     0.031 C 
ATOM     47  C   UNL A   1      39.696  28.886  28.110  1.00  0.00     0.029 A 
ATOM     48  C   UNL A   1      41.002  29.074  28.739  1.00  0.00     0.049 A 
ATOM     49  H   UNL A   1      41.496  30.446  30.227  1.00  0.00     0.167 HD
ATOM     50  C   UNL A   1      42.529  33.737  32.977  1.00  0.00     0.034 A 
ATOM     51  C   UNL A   1      42.118  28.368  28.471  1.00  0.00     0.034 A 
ATOM     52  C   UNL A   1      43.717  32.938  32.872  1.00  0.00     0.049 A 
ATOM     53  C   UNL A   1      43.392  28.706  29.203  1.00  0.00     0.074 A 
ATOM     54  C   UNL A   1      44.918  33.092  33.542  1.00  0.00     0.029 A 
ATOM     55  N   UNL A   1      43.863  31.847  32.030  1.00  0.00    -0.354 N 
ATOM     56  N   UNL A   1      43.603  29.622  30.118  1.00  0.00    -0.248 NA
ATOM     57  C   UNL A   1      44.576  27.893  28.887  1.00  0.00     0.031 C 
ATOM     58  C   UNL A   1      45.802  32.114  33.076  1.00  0.00     0.029 A 
ATOM     59  C   UNL A   1      45.139  31.324  32.150  1.00  0.00     0.049 A 
ATOM     60  H   UNL A   1      43.163  31.495  31.434  1.00  0.00     0.167 HD
ATOM     61  C   UNL A   1      44.927  29.471  30.515  1.00  0.00     0.074 A 
ATOM     62  C   UNL A   1      45.465  28.363  29.752  1.00  0.00     0.031 C 
ATOM     63  C   UNL A   1      45.639  30.187  31.421  1.00  0.00     0.034 A 
BRANCH  50  64
ATOM     64  C   UNL A   1      42.542  34.935  33.888  1.00  0.00     0.023 A 
ATOM     65  C   UNL A   1      43.075  36.158  33.433  1.00  0.00     0.012 A 
ATOM     66  C   UNL A   1      41.987  34.860  35.180  1.00  0.00     0.148 A 
ATOM     67  C   UNL A   1      43.088  37.279  34.262  1.00  0.00     0.002 A 
ATOM     68  C   UNL A   1      41.959  35.994  35.982  1.00  0.00     0.091 A 
ATOM     69  F   UNL A   1      41.509  33.682  35.603  1.00  0.00    -0.205 F 
ATOM     70  C   UNL A   1      42.521  37.200  35.530  1.00  0.00     0.022 A 
BRANCH  68  71
ATOM     71  S   UNL A   1      41.178  36.017  37.599  1.00  0.00     0.127 S 
ATOM     72  O   UNL A   1      41.184  34.598  37.951  1.00  0.00    -0.237 OA
ATOM     73  O   UNL A   1      42.106  36.841  38.375  1.00  0.00    -0.237 OA
ATOM     74  O   UNL A   1      39.860  36.604  37.403  1.00  0.00    -0.744 OA
ENDBRANCH  68  71
ENDBRANCH  50  64
BRANCH  51  75
ATOM     75  C   UNL A   1      42.082  27.258  27.476  1.00  0.00     0.023 A 
ATOM     76  C   UNL A   1      42.519  27.494  26.158  1.00  0.00     0.012 A 
ATOM     77  C   UNL A   1      41.624  25.973  27.828  1.00  0.00     0.148 A 
ATOM     78  C   UNL A   1      42.469  26.481  25.200  1.00  0.00     0.002 A 
ATOM     79  C   UNL A   1      41.628  24.953  26.883  1.00  0.00     0.091 A 
ATOM     80  F   UNL A   1      41.199  25.772  29.083  1.00  0.00    -0.205 F 
ATOM     81  C   UNL A   1      42.033  25.210  25.564  1.00  0.00     0.022 A 
BRANCH  79  82
ATOM     82  S   UNL A   1      41.197  23.257  27.287  1.00  0.00     0.127 S 
ATOM     83  O   UNL A   1      41.642  22.543  26.093  1.00  0.00    -0.237 OA
ATOM     84  O   UNL A   1      42.005  23.022  28.484  1.00  0.00    -0.237 OA
ATOM     85  O   UNL A   1      39.759  23.260  27.521  1.00  0.00    -0.744 OA
ENDBRANCH  79  82
ENDBRANCH  51  75
BRANCH  63  86
ATOM     86  C   UNL A   1      47.062  29.770  31.686  1.00  0.00     0.023 A 
ATOM     87  C   UNL A   1      48.113  30.305  30.914  1.00  0.00     0.012 A 
ATOM     88  C   UNL A   1      47.364  28.910  32.762  1.00  0.00     0.148 A 
ATOM     89  C   UNL A   1      49.437  29.965  31.189  1.00  0.00     0.002 A 
ATOM     90  C   UNL A   1      48.688  28.620  33.064  1.00  0.00     0.091 A 
ATOM     91  F   UNL A   1      46.349  28.401  33.476  1.00  0.00    -0.205 F 
ATOM     92  C   UNL A   1      49.725  29.134  32.269  1.00  0.00     0.022 A 
BRANCH  90  93
ATOM     93  S   UNL A   1      49.160  27.643  34.495  1.00  0.00     0.127 S 
ATOM     94  O   UNL A   1      50.618  27.647  34.391  1.00  0.00    -0.237 OA
ATOM     95  O   UNL A   1      48.624  28.437  35.601  1.00  0.00    -0.237 OA
ATOM     96  O   UNL A   1      48.527  26.341  34.322  1.00  0.00    -0.744 OA
ENDBRANCH  90  93
ENDBRANCH  63  86
ENDBRANCH  37  38
ENDBRANCH  30  32
ENDBRANCH  29  30
ENDBRANCH  28  29
ENDBRANCH  27  28
ENDBRANCH  26  27
ENDBRANCH  25  26
ENDBRANCH   1  25
TORSDOF 23
ENDMDL
MODEL 2
REMARK VINA RESULT:      -7.4      4.455     10.747
REMARK SMILES Cc1cc(C(=O)NC[C@H]2CC[C@@H](C(=O)OCCOCCOCCOC(=O)c3ccc(-c4c5nc(c(-c6cccc(S(=O)(=O)[O-])c6F)c6ccc([nH]6)c(-c6cccc(S(=O)(=O)[O-])c6F)c6nc(c(-c7cccc(S(=O)(=O)[O-])c7F)c7ccc4[nH]7)C=C6)C=C5)cc3)O2)c(C)s1
REMARK SMILES IDX 19 1 18 2 17 3 16 4 15 5 13 6 14 7 12 8 9 9 10 10 90 11
REMARK SMILES IDX 11 12 8 13 7 14 5 15 6 16 4 18 1 19 2 20 3 21 93 22 91 23
REMARK SMILES IDX 92 24 20 25 21 26 22 27 23 28 24 29 25 30 26 31 27 32 28 33
REMARK SMILES IDX 89 34 29 35 88 36 30 37 31 38 32 39 82 40 33 41 87 42 81 43
REMARK SMILES IDX 83 44 34 45 86 46 80 47 79 48 35 50 67 51 47 52 66 53 48 54
REMARK SMILES IDX 51 55 65 56 84 57 49 58 50 59 64 61 85 62 52 63 36 64 37 65
REMARK SMILES IDX 45 66 38 67 40 68 46 69 39 70 41 71 42 72 43 73 44 74 68 75
REMARK SMILES IDX 69 76 77 77 70 78 72 79 78 80 71 81 73 82 74 83 75 84 76 85
REMARK SMILES IDX 53 86 54 87 62 88 55 89 57 90 63 91 56 92 58 93 59 94 60 95
REMARK SMILES IDX 61 96
REMARK H PARENT 7 17 83 49 51 60
REMARK Flexibility Score: inf
ROOT
ATOM      1  C   UNL A   1      46.747  24.193  24.461  1.00  0.00     0.188 C 
ENDROOT
BRANCH   1   2
ATOM      2  O   UNL A   1      46.661  24.704  25.775  1.00  0.00    -0.376 OA
BRANCH   2   3
ATOM      3  C   UNL A   1      45.641  25.641  26.094  1.00  0.00     0.202 C 
BRANCH   3   4
ATOM      4  C   UNL A   1      45.418  26.924  25.279  1.00  0.00     0.261 C 
BRANCH   4   5
ATOM      5  O   UNL A   1      45.372  28.118  26.070  1.00  0.00    -0.461 OA
BRANCH   5   6
ATOM      6  C   UNL A   1      45.965  29.222  25.540  1.00  0.00     0.335 C 
ATOM      7  O   UNL A   1      46.560  29.251  24.470  1.00  0.00    -0.249 OA
BRANCH   6   8
ATOM      8  C   UNL A   1      45.752  30.464  26.416  1.00  0.00     0.228 C 
ATOM      9  C   UNL A   1      45.297  32.754  26.489  1.00  0.00     0.138 C 
ATOM     10  C   UNL A   1      44.251  32.036  27.338  1.00  0.00     0.037 C 
ATOM     11  O   UNL A   1      46.017  31.725  25.805  1.00  0.00    -0.361 OA
ATOM     12  C   UNL A   1      44.312  30.600  26.860  1.00  0.00     0.047 C 
BRANCH   9  13
ATOM     13  C   UNL A   1      44.709  33.754  25.479  1.00  0.00     0.148 C 
BRANCH  13  14
ATOM     14  N   UNL A   1      43.485  34.387  25.957  1.00  0.00    -0.349 N 
ATOM     15  C   UNL A   1      43.210  35.527  26.676  1.00  0.00     0.252 C 
ATOM     16  O   UNL A   1      42.008  35.792  26.773  1.00  0.00    -0.269 OA
ATOM     17  H   UNL A   1      42.675  33.886  25.711  1.00  0.00     0.163 HD
BRANCH  15  18
ATOM     18  C   UNL A   1      44.252  36.405  27.245  1.00  0.00     0.053 A 
ATOM     19  C   UNL A   1      47.472  36.991  29.200  1.00  0.00     0.056 C 
ATOM     20  C   UNL A   1      46.211  37.060  28.413  1.00  0.00     0.003 A 
ATOM     21  C   UNL A   1      45.444  36.016  27.950  1.00  0.00     0.029 A 
ATOM     22  S   UNL A   1      45.518  38.552  28.010  1.00  0.00    -0.145 S 
ATOM     23  C   UNL A   1      44.162  37.802  27.259  1.00  0.00     0.014 A 
ATOM     24  C   UNL A   1      43.085  38.729  26.779  1.00  0.00     0.057 C 
ENDBRANCH  15  18
ENDBRANCH  13  14
ENDBRANCH   9  13
ENDBRANCH   6   8
ENDBRANCH   5   6
ENDBRANCH   4   5
ENDBRANCH   3   4
ENDBRANCH   2   3
ENDBRANCH   1   2
BRANCH   1  25
ATOM     25  C   UNL A   1      46.315  22.744  24.195  1.00  0.00     0.188 C 
BRANCH  25  26
ATOM     26  O   UNL A   1      44.996  22.432  23.820  1.00  0.00    -0.376 OA
BRANCH  26  27
ATOM     27  C   UNL A   1      43.901  22.975  24.537  1.00  0.00     0.202 C 
BRANCH  27  28
ATOM     28  C   UNL A   1      43.061  22.210  25.572  1.00  0.00     0.261 C 
BRANCH  28  29
ATOM     29  O   UNL A   1      41.858  22.838  26.016  1.00  0.00    -0.460 OA
BRANCH  29  30
ATOM     30  C   UNL A   1      41.692  22.863  27.363  1.00  0.00     0.338 C 
ATOM     31  O   UNL A   1      41.387  21.936  28.097  1.00  0.00    -0.246 OA
BRANCH  30  32
ATOM     32  C   UNL A   1      42.180  24.162  27.853  1.00  0.00     0.060 A 
ATOM     33  C   UNL A   1      42.870  24.206  29.075  1.00  0.00     0.016 A 
ATOM     34  C   UNL A   1      41.970  25.317  27.103  1.00  0.00     0.016 A 
ATOM     35  C   UNL A   1      43.358  25.417  29.554  1.00  0.00     0.010 A 
ATOM     36  C   UNL A   1      42.425  26.534  27.603  1.00  0.00     0.010 A 
ATOM     37  C   UNL A   1      43.097  26.590  28.837  1.00  0.00    -0.014 A 
BRANCH  37  38
ATOM     38  C   UNL A   1      43.338  27.905  29.466  1.00  0.00     0.031 A 
ATOM     39  C   UNL A   1      42.141  28.702  29.897  1.00  0.00     0.074 A 
ATOM     40  C   UNL A   1      44.581  28.391  29.606  1.00  0.00     0.049 A 
ATOM     41  N   UNL A   1      42.081  29.921  30.359  1.00  0.00    -0.248 NA
ATOM     42  C   UNL A   1      40.832  28.034  29.783  1.00  0.00     0.031 C 
ATOM     43  C   UNL A   1      45.812  27.694  29.239  1.00  0.00     0.029 A 
ATOM     44  N   UNL A   1      45.006  29.612  30.064  1.00  0.00    -0.354 N 
ATOM     45  C   UNL A   1      40.731  30.183  30.552  1.00  0.00     0.074 A 
ATOM     46  C   UNL A   1      40.004  28.997  30.154  1.00  0.00     0.031 C 
ATOM     47  C   UNL A   1      46.855  28.516  29.446  1.00  0.00     0.029 A 
ATOM     48  C   UNL A   1      46.360  29.804  29.927  1.00  0.00     0.049 A 
ATOM     49  H   UNL A   1      44.402  30.285  30.453  1.00  0.00     0.167 HD
ATOM     50  C   UNL A   1      40.150  31.309  31.022  1.00  0.00     0.034 A 
ATOM     51  C   UNL A   1      47.103  30.911  30.131  1.00  0.00     0.034 A 
ATOM     52  C   UNL A   1      40.882  32.479  31.416  1.00  0.00     0.049 A 
ATOM     53  C   UNL A   1      46.426  32.168  30.615  1.00  0.00     0.074 A 
ATOM     54  C   UNL A   1      40.393  33.661  31.946  1.00  0.00     0.029 A 
ATOM     55  N   UNL A   1      42.255  32.625  31.306  1.00  0.00    -0.354 N 
ATOM     56  N   UNL A   1      45.161  32.372  30.896  1.00  0.00    -0.248 NA
ATOM     57  C   UNL A   1      47.284  33.341  30.840  1.00  0.00     0.031 C 
ATOM     58  C   UNL A   1      41.470  34.535  32.121  1.00  0.00     0.029 A 
ATOM     59  C   UNL A   1      42.634  33.882  31.744  1.00  0.00     0.049 A 
ATOM     60  H   UNL A   1      42.872  31.936  30.968  1.00  0.00     0.167 HD
ATOM     61  C   UNL A   1      45.078  33.678  31.366  1.00  0.00     0.074 A 
ATOM     62  C   UNL A   1      46.424  34.212  31.349  1.00  0.00     0.031 C 
ATOM     63  C   UNL A   1      43.987  34.377  31.769  1.00  0.00     0.034 A 
BRANCH  50  64
ATOM     64  C   UNL A   1      38.649  31.322  31.138  1.00  0.00     0.023 A 
ATOM     65  C   UNL A   1      38.026  30.743  32.262  1.00  0.00     0.012 A 
ATOM     66  C   UNL A   1      37.858  31.946  30.154  1.00  0.00     0.148 A 
ATOM     67  C   UNL A   1      36.637  30.753  32.387  1.00  0.00     0.002 A 
ATOM     68  C   UNL A   1      36.479  31.995  30.309  1.00  0.00     0.091 A 
ATOM     69  F   UNL A   1      38.468  32.468  29.080  1.00  0.00    -0.205 F 
ATOM     70  C   UNL A   1      35.866  31.388  31.419  1.00  0.00     0.022 A 
BRANCH  68  71
ATOM     71  S   UNL A   1      35.405  32.861  29.160  1.00  0.00     0.127 S 
ATOM     72  O   UNL A   1      35.981  34.204  29.171  1.00  0.00    -0.237 OA
ATOM     73  O   UNL A   1      35.622  32.115  27.919  1.00  0.00    -0.237 OA
ATOM     74  O   UNL A   1      34.059  32.755  29.706  1.00  0.00    -0.744 OA
ENDBRANCH  68  71
ENDBRANCH  50  64
BRANCH  51  75
ATOM     75  C   UNL A   1      48.575  30.879  29.896  1.00  0.00     0.023 A 
ATOM     76  C   UNL A   1      49.431  30.432  30.921  1.00  0.00     0.012 A 
ATOM     77  C   UNL A   1      49.130  31.284  28.665  1.00  0.00     0.148 A 
ATOM     78  C   UNL A   1      50.814  30.421  30.738  1.00  0.00     0.002 A 
ATOM     79  C   UNL A   1      50.504  31.218  28.471  1.00  0.00     0.091 A 
ATOM     80  F   UNL A   1      48.299  31.719  27.707  1.00  0.00    -0.205 F 
ATOM     81  C   UNL A   1      51.349  30.804  29.512  1.00  0.00     0.022 A 
BRANCH  79  82
ATOM     82  S   UNL A   1      51.276  31.577  26.889  1.00  0.00     0.127 S 
ATOM     83  O   UNL A   1      52.693  31.579  27.242  1.00  0.00    -0.237 OA
ATOM     84  O   UNL A   1      50.842  30.437  26.080  1.00  0.00    -0.237 OA
ATOM     85  O   UNL A   1      50.730  32.859  26.465  1.00  0.00    -0.744 OA
ENDBRANCH  79  82
ENDBRANCH  51  75
BRANCH  63  86
ATOM     86  C   UNL A   1      44.199  35.780  32.276  1.00  0.00     0.023 A 
ATOM     87  C   UNL A   1      44.203  36.866  31.378  1.00  0.00     0.012 A 
ATOM     88  C   UNL A   1      44.306  36.028  33.660  1.00  0.00     0.148 A 
ATOM     89  C   UNL A   1      44.344  38.171  31.846  1.00  0.00     0.002 A 
ATOM     90  C   UNL A   1      44.391  37.334  34.123  1.00  0.00     0.091 A 
ATOM     91  F   UNL A   1      44.313  34.980  34.498  1.00  0.00    -0.205 F 
ATOM     92  C   UNL A   1      44.425  38.406  33.217  1.00  0.00     0.022 A 
BRANCH  90  93
ATOM     93  S   UNL A   1      44.399  37.740  35.873  1.00  0.00     0.127 S 
ATOM     94  O   UNL A   1      45.703  37.230  36.291  1.00  0.00    -0.237 OA
ATOM     95  O   UNL A   1      44.292  39.199  35.852  1.00  0.00    -0.237 OA
ATOM     96  O   UNL A   1      43.249  37.057  36.451  1.00  0.00    -0.744 OA
ENDBRANCH  90  93
ENDBRANCH  63  86
ENDBRANCH  37  38
ENDBRANCH  30  32
ENDBRANCH  29  30
ENDBRANCH  28  29
ENDBRANCH  27  28
ENDBRANCH  26  27
ENDBRANCH  25  26
ENDBRANCH   1  25
TORSDOF 23
ENDMDL
MODEL 3
REMARK VINA RESULT:      -7.3      6.207      9.519
REMARK SMILES Cc1cc(C(=O)NC[C@H]2CC[C@@H](C(=O)OCCOCCOCCOC(=O)c3ccc(-c4c5nc(c(-c6cccc(S(=O)(=O)[O-])c6F)c6ccc([nH]6)c(-c6cccc(S(=O)(=O)[O-])c6F)c6nc(c(-c7cccc(S(=O)(=O)[O-])c7F)c7ccc4[nH]7)C=C6)C=C5)cc3)O2)c(C)s1
REMARK SMILES IDX 19 1 18 2 17 3 16 4 15 5 13 6 14 7 12 8 9 9 10 10 90 11
REMARK SMILES IDX 11 12 8 13 7 14 5 15 6 16 4 18 1 19 2 20 3 21 93 22 91 23
REMARK SMILES IDX 92 24 20 25 21 26 22 27 23 28 24 29 25 30 26 31 27 32 28 33
REMARK SMILES IDX 89 34 29 35 88 36 30 37 31 38 32 39 82 40 33 41 87 42 81 43
REMARK SMILES IDX 83 44 34 45 86 46 80 47 79 48 35 50 67 51 47 52 66 53 48 54
REMARK SMILES IDX 51 55 65 56 84 57 49 58 50 59 64 61 85 62 52 63 36 64 37 65
REMARK SMILES IDX 45 66 38 67 40 68 46 69 39 70 41 71 42 72 43 73 44 74 68 75
REMARK SMILES IDX 69 76 77 77 70 78 72 79 78 80 71 81 73 82 74 83 75 84 76 85
REMARK SMILES IDX 53 86 54 87 62 88 55 89 57 90 63 91 56 92 58 93 59 94 60 95
REMARK SMILES IDX 61 96
REMARK H PARENT 7 17 83 49 51 60
REMARK Flexibility Score: inf
ROOT
ATOM      1  C   UNL A   1      35.431  34.419  33.118  1.00  0.00     0.188 C 
ENDROOT
BRANCH   1   2
ATOM      2  O   UNL A   1      34.486  35.368  33.570  1.00  0.00    -0.376 OA
BRANCH   2   3
ATOM      3  C   UNL A   1      33.385  35.707  32.739  1.00  0.00     0.202 C 
BRANCH   3   4
ATOM      4  C   UNL A   1      33.558  36.102  31.264  1.00  0.00     0.261 C 
BRANCH   4   5
ATOM      5  O   UNL A   1      33.138  35.095  30.335  1.00  0.00    -0.461 OA
BRANCH   5   6
ATOM      6  C   UNL A   1      33.902  34.939  29.220  1.00  0.00     0.335 C 
ATOM      7  O   UNL A   1      34.102  35.809  28.381  1.00  0.00    -0.249 OA
BRANCH   6   8
ATOM      8  C   UNL A   1      34.547  33.548  29.158  1.00  0.00     0.228 C 
ATOM      9  C   UNL A   1      34.433  31.372  28.317  1.00  0.00     0.138 C 
ATOM     10  C   UNL A   1      35.782  31.962  27.919  1.00  0.00     0.037 C 
ATOM     11  O   UNL A   1      33.678  32.457  28.863  1.00  0.00    -0.361 OA
ATOM     12  C   UNL A   1      35.586  33.458  28.061  1.00  0.00     0.047 C 
BRANCH   9  13
ATOM     13  C   UNL A   1      33.664  30.720  27.155  1.00  0.00     0.148 C 
BRANCH  13  14
ATOM     14  N   UNL A   1      32.674  29.749  27.606  1.00  0.00    -0.349 N 
ATOM     15  C   UNL A   1      31.872  28.828  26.972  1.00  0.00     0.252 C 
ATOM     16  O   UNL A   1      31.244  28.087  27.734  1.00  0.00    -0.269 OA
ATOM     17  H   UNL A   1      32.551  29.754  28.582  1.00  0.00     0.163 HD
BRANCH  15  18
ATOM     18  C   UNL A   1      31.795  28.684  25.505  1.00  0.00     0.053 A 
ATOM     19  C   UNL A   1      30.180  29.391  22.125  1.00  0.00     0.056 C 
ATOM     20  C   UNL A   1      31.001  28.950  23.285  1.00  0.00     0.003 A 
ATOM     21  C   UNL A   1      30.865  29.311  24.604  1.00  0.00     0.029 A 
ATOM     22  S   UNL A   1      32.263  27.839  23.083  1.00  0.00    -0.145 S 
ATOM     23  C   UNL A   1      32.597  27.800  24.772  1.00  0.00     0.014 A 
ATOM     24  C   UNL A   1      33.641  26.817  25.210  1.00  0.00     0.057 C 
ENDBRANCH  15  18
ENDBRANCH  13  14
ENDBRANCH   9  13
ENDBRANCH   6   8
ENDBRANCH   5   6
ENDBRANCH   4   5
ENDBRANCH   3   4
ENDBRANCH   2   3
ENDBRANCH   1   2
BRANCH   1  25
ATOM     25  C   UNL A   1      34.961  32.993  32.803  1.00  0.00     0.188 C 
BRANCH  25  26
ATOM     26  O   UNL A   1      35.876  31.933  32.675  1.00  0.00    -0.376 OA
BRANCH  26  27
ATOM     27  C   UNL A   1      35.731  30.984  31.633  1.00  0.00     0.202 C 
BRANCH  27  28
ATOM     28  C   UNL A   1      36.764  29.903  31.275  1.00  0.00     0.261 C 
BRANCH  28  29
ATOM     29  O   UNL A   1      38.082  30.352  30.962  1.00  0.00    -0.460 OA
BRANCH  29  30
ATOM     30  C   UNL A   1      39.016  30.080  31.909  1.00  0.00     0.338 C 
ATOM     31  O   UNL A   1      38.874  29.437  32.937  1.00  0.00    -0.246 OA
BRANCH  30  32
ATOM     32  C   UNL A   1      40.327  30.489  31.380  1.00  0.00     0.060 A 
ATOM     33  C   UNL A   1      41.299  30.957  32.277  1.00  0.00     0.016 A 
ATOM     34  C   UNL A   1      40.593  30.392  30.016  1.00  0.00     0.016 A 
ATOM     35  C   UNL A   1      42.553  31.334  31.808  1.00  0.00     0.010 A 
ATOM     36  C   UNL A   1      41.835  30.806  29.543  1.00  0.00     0.010 A 
ATOM     37  C   UNL A   1      42.807  31.298  30.432  1.00  0.00    -0.014 A 
BRANCH  37  38
ATOM     38  C   UNL A   1      44.006  31.968  29.888  1.00  0.00     0.031 A 
ATOM     39  C   UNL A   1      43.887  33.416  29.511  1.00  0.00     0.074 A 
ATOM     40  C   UNL A   1      45.151  31.293  29.695  1.00  0.00     0.049 A 
ATOM     41  N   UNL A   1      44.749  34.188  28.908  1.00  0.00    -0.248 NA
ATOM     42  C   UNL A   1      42.616  34.080  29.852  1.00  0.00     0.031 C 
ATOM     43  C   UNL A   1      45.380  29.892  30.043  1.00  0.00     0.029 A 
ATOM     44  N   UNL A   1      46.328  31.697  29.118  1.00  0.00    -0.354 N 
ATOM     45  C   UNL A   1      44.115  35.414  28.760  1.00  0.00     0.074 A 
ATOM     46  C   UNL A   1      42.793  35.285  29.333  1.00  0.00     0.031 C 
ATOM     47  C   UNL A   1      46.610  29.539  29.632  1.00  0.00     0.029 A 
ATOM     48  C   UNL A   1      47.237  30.678  28.965  1.00  0.00     0.049 A 
ATOM     49  H   UNL A   1      46.504  32.625  28.840  1.00  0.00     0.167 HD
ATOM     50  C   UNL A   1      44.593  36.549  28.201  1.00  0.00     0.034 A 
ATOM     51  C   UNL A   1      48.422  30.664  28.323  1.00  0.00     0.034 A 
ATOM     52  C   UNL A   1      45.909  36.667  27.638  1.00  0.00     0.049 A 
ATOM     53  C   UNL A   1      48.917  31.930  27.670  1.00  0.00     0.074 A 
ATOM     54  C   UNL A   1      46.509  37.783  27.083  1.00  0.00     0.029 A 
ATOM     55  N   UNL A   1      46.821  35.628  27.539  1.00  0.00    -0.354 N 
ATOM     56  N   UNL A   1      48.354  33.115  27.629  1.00  0.00    -0.248 NA
ATOM     57  C   UNL A   1      50.223  31.866  26.999  1.00  0.00     0.031 C 
ATOM     58  C   UNL A   1      47.772  37.408  26.615  1.00  0.00     0.029 A 
ATOM     59  C   UNL A   1      47.976  36.071  26.919  1.00  0.00     0.049 A 
ATOM     60  H   UNL A   1      46.670  34.711  27.863  1.00  0.00     0.167 HD
ATOM     61  C   UNL A   1      49.252  33.944  26.966  1.00  0.00     0.074 A 
ATOM     62  C   UNL A   1      50.405  33.130  26.639  1.00  0.00     0.031 C 
ATOM     63  C   UNL A   1      49.135  35.258  26.649  1.00  0.00     0.034 A 
BRANCH  50  64
ATOM     64  C   UNL A   1      43.687  37.750  28.178  1.00  0.00     0.023 A 
ATOM     65  C   UNL A   1      42.746  37.901  27.140  1.00  0.00     0.012 A 
ATOM     66  C   UNL A   1      43.740  38.709  29.208  1.00  0.00     0.148 A 
ATOM     67  C   UNL A   1      41.895  39.004  27.108  1.00  0.00     0.002 A 
ATOM     68  C   UNL A   1      42.856  39.780  29.196  1.00  0.00     0.091 A 
ATOM     69  F   UNL A   1      44.660  38.561  30.172  1.00  0.00    -0.205 F 
ATOM     70  C   UNL A   1      41.942  39.936  28.141  1.00  0.00     0.022 A 
BRANCH  68  71
ATOM     71  S   UNL A   1      42.781  40.989  30.521  1.00  0.00     0.127 S 
ATOM     72  O   UNL A   1      42.740  40.130  31.703  1.00  0.00    -0.237 OA
ATOM     73  O   UNL A   1      44.038  41.718  30.341  1.00  0.00    -0.237 OA
ATOM     74  O   UNL A   1      41.581  41.778  30.282  1.00  0.00    -0.744 OA
ENDBRANCH  68  71
ENDBRANCH  50  64
BRANCH  51  75
ATOM     75  C   UNL A   1      49.236  29.416  28.278  1.00  0.00     0.023 A 
ATOM     76  C   UNL A   1      50.181  29.168  29.294  1.00  0.00     0.012 A 
ATOM     77  C   UNL A   1      49.078  28.474  27.243  1.00  0.00     0.148 A 
ATOM     78  C   UNL A   1      50.976  28.022  29.261  1.00  0.00     0.002 A 
ATOM     79  C   UNL A   1      49.835  27.309  27.246  1.00  0.00     0.091 A 
ATOM     80  F   UNL A   1      48.185  28.736  26.279  1.00  0.00    -0.205 F 
ATOM     81  C   UNL A   1      50.797  27.089  28.243  1.00  0.00     0.022 A 
BRANCH  79  82
ATOM     82  S   UNL A   1      49.593  25.995  26.045  1.00  0.00     0.127 S 
ATOM     83  O   UNL A   1      50.937  25.432  25.943  1.00  0.00    -0.237 OA
ATOM     84  O   UNL A   1      48.617  25.144  26.726  1.00  0.00    -0.237 OA
ATOM     85  O   UNL A   1      49.091  26.646  24.842  1.00  0.00    -0.744 OA
ENDBRANCH  79  82
ENDBRANCH  51  75
BRANCH  63  86
ATOM     86  C   UNL A   1      50.297  35.921  25.956  1.00  0.00     0.023 A 
ATOM     87  C   UNL A   1      50.448  35.809  24.560  1.00  0.00     0.012 A 
ATOM     88  C   UNL A   1      51.191  36.731  26.686  1.00  0.00     0.148 A 
ATOM     89  C   UNL A   1      51.490  36.465  23.906  1.00  0.00     0.002 A 
ATOM     90  C   UNL A   1      52.193  37.426  26.020  1.00  0.00     0.091 A 
ATOM     91  F   UNL A   1      51.038  36.815  28.016  1.00  0.00    -0.205 F 
ATOM     92  C   UNL A   1      52.354  37.282  24.633  1.00  0.00     0.022 A 
BRANCH  90  93
ATOM     93  S   UNL A   1      53.288  38.578  26.857  1.00  0.00     0.127 S 
ATOM     94  O   UNL A   1      54.043  37.687  27.735  1.00  0.00    -0.237 OA
ATOM     95  O   UNL A   1      54.058  39.135  25.744  1.00  0.00    -0.237 OA
ATOM     96  O   UNL A   1      52.425  39.536  27.535  1.00  0.00    -0.744 OA
ENDBRANCH  90  93
ENDBRANCH  63  86
ENDBRANCH  37  38
ENDBRANCH  30  32
ENDBRANCH  29  30
ENDBRANCH  28  29
ENDBRANCH  27  28
ENDBRANCH  26  27
ENDBRANCH  25  26
ENDBRANCH   1  25
TORSDOF 23
ENDMDL
