MODEL 1
REMARK VINA RESULT:      -9.6      0.000      0.000
REMARK SMILES CC[NH2+][C@]1(C(=O)OCCOCCOCCOC(=O)c2ccc(-c3c4nc(c(-c5cccc(S(=O)(=O)[O-])c5F)c5ccc([nH]5)c(-c5cccc(S(=O)(=O)[O-])c5F)c5nc(c(-c6cccc(S(=O)(=O)[O-])c6F)c6ccc3[nH]6)C=C5)C=C4)cc2)CCC[C@@H]1CCSc1ccccc1F
REMARK SMILES IDX 11 1 10 2 9 3 8 4 7 5 5 6 6 7 4 8 82 9 85 10 83 11 84 12
REMARK SMILES IDX 3 13 2 16 1 17 86 18 87 19 88 20 89 21 90 22 94 23 91 24
REMARK SMILES IDX 93 25 95 26 92 27 12 28 13 29 14 30 15 31 16 32 17 33 18 34
REMARK SMILES IDX 19 35 20 36 81 37 21 38 80 39 22 40 23 41 24 42 74 43 25 44
REMARK SMILES IDX 79 45 73 46 75 47 26 48 78 49 72 50 71 51 27 53 59 54 39 55
REMARK SMILES IDX 58 56 40 57 43 58 57 59 76 60 41 61 42 62 56 64 77 65 44 66
REMARK SMILES IDX 28 67 29 68 37 69 30 70 32 71 38 72 31 73 33 74 34 75 35 76
REMARK SMILES IDX 36 77 60 78 61 79 69 80 62 81 64 82 70 83 63 84 65 85 66 86
REMARK SMILES IDX 67 87 68 88 45 89 46 90 54 91 47 92 49 93 55 94 48 95 50 96
REMARK SMILES IDX 51 97 52 98 53 99
REMARK H PARENT 3 14 3 15 75 52 43 63
REMARK Flexibility Score: inf
ROOT
ATOM      1  C   UNL A   1      39.602  23.274  26.945  1.00  0.00     0.188 C 
ENDROOT
BRANCH   1   2
ATOM      2  O   UNL A   1      38.580  23.808  26.111  1.00  0.00    -0.376 OA
BRANCH   2   3
ATOM      3  C   UNL A   1      37.556  22.953  25.634  1.00  0.00     0.202 C 
BRANCH   3   4
ATOM      4  C   UNL A   1      36.123  23.350  25.989  1.00  0.00     0.261 C 
BRANCH   4   5
ATOM      5  O   UNL A   1      35.573  24.429  25.203  1.00  0.00    -0.459 OA
BRANCH   5   6
ATOM      6  C   UNL A   1      34.828  24.054  24.118  1.00  0.00     0.368 C 
ATOM      7  O   UNL A   1      35.299  23.461  23.155  1.00  0.00    -0.245 OA
BRANCH   6   8
ATOM      8  C   UNL A   1      33.349  24.556  24.195  1.00  0.00     0.197 C 
ATOM      9  C   UNL A   1      33.230  25.637  23.074  1.00  0.00     0.081 C 
ATOM     10  C   UNL A   1      32.270  23.520  23.720  1.00  0.00     0.063 C 
ATOM     11  C   UNL A   1      31.812  25.582  22.526  1.00  0.00     0.008 C 
ATOM     12  C   UNL A   1      31.133  24.440  23.255  1.00  0.00     0.011 C 
BRANCH   8  13
ATOM     13  N   UNL A   1      33.015  24.998  25.578  1.00  0.00    -0.332 N 
ATOM     14  H   UNL A   1      32.103  24.603  25.810  1.00  0.00     0.347 HD
ATOM     15  H   UNL A   1      33.797  24.672  26.145  1.00  0.00     0.347 HD
BRANCH  13  16
ATOM     16  C   UNL A   1      32.946  26.424  25.844  1.00  0.00     0.257 C 
ATOM     17  C   UNL A   1      31.523  26.787  26.239  1.00  0.00     0.071 C 
ENDBRANCH  13  16
ENDBRANCH   8  13
BRANCH  10  18
ATOM     18  C   UNL A   1      31.807  22.410  24.711  1.00  0.00     0.022 C 
BRANCH  18  19
ATOM     19  C   UNL A   1      32.210  20.945  24.426  1.00  0.00     0.075 C 
BRANCH  19  20
ATOM     20  S   UNL A   1      33.940  20.418  24.768  1.00  0.00    -0.123 SA
BRANCH  20  21
ATOM     21  C   UNL A   1      33.775  18.653  24.929  1.00  0.00     0.043 A 
ATOM     22  C   UNL A   1      32.567  18.056  25.304  1.00  0.00     0.018 A 
ATOM     23  C   UNL A   1      34.869  17.828  24.673  1.00  0.00     0.136 A 
ATOM     24  C   UNL A   1      32.461  16.659  25.362  1.00  0.00     0.001 A 
ATOM     25  C   UNL A   1      34.766  16.440  24.706  1.00  0.00     0.040 A 
ATOM     26  F   UNL A   1      36.033  18.380  24.305  1.00  0.00    -0.206 F 
ATOM     27  C   UNL A   1      33.556  15.852  25.052  1.00  0.00     0.003 A 
ENDBRANCH  20  21
ENDBRANCH  19  20
ENDBRANCH  18  19
ENDBRANCH  10  18
ENDBRANCH   6   8
ENDBRANCH   5   6
ENDBRANCH   4   5
ENDBRANCH   3   4
ENDBRANCH   2   3
ENDBRANCH   1   2
BRANCH   1  28
ATOM     28  C   UNL A   1      40.486  22.142  26.393  1.00  0.00     0.188 C 
BRANCH  28  29
ATOM     29  O   UNL A   1      39.874  20.865  26.229  1.00  0.00    -0.376 OA
BRANCH  29  30
ATOM     30  C   UNL A   1      40.742  19.738  26.329  1.00  0.00     0.202 C 
BRANCH  30  31
ATOM     31  C   UNL A   1      42.217  20.089  26.140  1.00  0.00     0.261 C 
BRANCH  31  32
ATOM     32  O   UNL A   1      42.706  19.486  24.930  1.00  0.00    -0.460 OA
BRANCH  32  33
ATOM     33  C   UNL A   1      44.051  19.436  24.825  1.00  0.00     0.338 C 
ATOM     34  O   UNL A   1      44.722  18.423  24.657  1.00  0.00    -0.246 OA
BRANCH  33  35
ATOM     35  C   UNL A   1      44.622  20.797  24.932  1.00  0.00     0.060 A 
ATOM     36  C   UNL A   1      45.338  21.185  26.061  1.00  0.00     0.016 A 
ATOM     37  C   UNL A   1      44.342  21.745  23.948  1.00  0.00     0.016 A 
ATOM     38  C   UNL A   1      45.685  22.524  26.252  1.00  0.00     0.010 A 
ATOM     39  C   UNL A   1      44.729  23.083  24.129  1.00  0.00     0.010 A 
ATOM     40  C   UNL A   1      45.342  23.507  25.322  1.00  0.00    -0.014 A 
BRANCH  40  41
ATOM     41  C   UNL A   1      45.446  24.963  25.663  1.00  0.00     0.031 A 
ATOM     42  C   UNL A   1      46.764  25.671  25.450  1.00  0.00     0.074 A 
ATOM     43  C   UNL A   1      44.399  25.709  26.074  1.00  0.00     0.049 A 
ATOM     44  N   UNL A   1      47.185  26.812  25.934  1.00  0.00    -0.248 NA
ATOM     45  C   UNL A   1      47.742  24.998  24.577  1.00  0.00     0.031 C 
ATOM     46  C   UNL A   1      43.017  25.253  26.200  1.00  0.00     0.029 A 
ATOM     47  N   UNL A   1      44.343  27.033  26.453  1.00  0.00    -0.354 N 
ATOM     48  C   UNL A   1      48.510  26.930  25.530  1.00  0.00     0.074 A 
ATOM     49  C   UNL A   1      48.810  25.770  24.717  1.00  0.00     0.031 C 
ATOM     50  C   UNL A   1      42.244  26.283  26.581  1.00  0.00     0.029 A 
ATOM     51  C   UNL A   1      43.090  27.442  26.854  1.00  0.00     0.049 A 
ATOM     52  H   UNL A   1      45.124  27.631  26.440  1.00  0.00     0.167 HD
ATOM     53  C   UNL A   1      49.402  27.908  25.817  1.00  0.00     0.034 A 
ATOM     54  C   UNL A   1      42.675  28.585  27.439  1.00  0.00     0.034 A 
ATOM     55  C   UNL A   1      49.081  29.115  26.527  1.00  0.00     0.049 A 
ATOM     56  C   UNL A   1      43.684  29.646  27.795  1.00  0.00     0.074 A 
ATOM     57  C   UNL A   1      49.924  30.148  26.900  1.00  0.00     0.029 A 
ATOM     58  N   UNL A   1      47.808  29.471  26.940  1.00  0.00    -0.354 N 
ATOM     59  N   UNL A   1      44.961  29.706  27.505  1.00  0.00    -0.248 NA
ATOM     60  C   UNL A   1      43.197  30.789  28.583  1.00  0.00     0.031 C 
ATOM     61  C   UNL A   1      49.159  31.129  27.541  1.00  0.00     0.029 A 
ATOM     62  C   UNL A   1      47.839  30.710  27.557  1.00  0.00     0.049 A 
ATOM     63  H   UNL A   1      47.000  28.922  26.815  1.00  0.00     0.167 HD
ATOM     64  C   UNL A   1      45.426  30.889  28.071  1.00  0.00     0.074 A 
ATOM     65  C   UNL A   1      44.286  31.537  28.685  1.00  0.00     0.031 C 
ATOM     66  C   UNL A   1      46.691  31.376  28.112  1.00  0.00     0.034 A 
BRANCH  53  67
ATOM     67  C   UNL A   1      50.827  27.699  25.383  1.00  0.00     0.023 A 
ATOM     68  C   UNL A   1      51.804  27.298  26.313  1.00  0.00     0.012 A 
ATOM     69  C   UNL A   1      51.182  27.863  24.029  1.00  0.00     0.148 A 
ATOM     70  C   UNL A   1      53.123  27.091  25.906  1.00  0.00     0.002 A 
ATOM     71  C   UNL A   1      52.487  27.615  23.624  1.00  0.00     0.091 A 
ATOM     72  F   UNL A   1      50.242  28.272  23.166  1.00  0.00    -0.205 F 
ATOM     73  C   UNL A   1      53.461  27.238  24.562  1.00  0.00     0.022 A 
BRANCH  71  74
ATOM     74  S   UNL A   1      52.988  27.710  21.901  1.00  0.00     0.127 S 
ATOM     75  O   UNL A   1      54.376  28.152  22.019  1.00  0.00    -0.237 OA
ATOM     76  O   UNL A   1      52.824  26.327  21.451  1.00  0.00    -0.237 OA
ATOM     77  O   UNL A   1      52.076  28.657  21.275  1.00  0.00    -0.744 OA
ENDBRANCH  71  74
ENDBRANCH  53  67
BRANCH  54  78
ATOM     78  C   UNL A   1      41.233  28.778  27.773  1.00  0.00     0.023 A 
ATOM     79  C   UNL A   1      40.334  29.180  26.764  1.00  0.00     0.012 A 
ATOM     80  C   UNL A   1      40.742  28.554  29.074  1.00  0.00     0.148 A 
ATOM     81  C   UNL A   1      38.980  29.362  27.049  1.00  0.00     0.002 A 
ATOM     82  C   UNL A   1      39.380  28.663  29.332  1.00  0.00     0.091 A 
ATOM     83  F   UNL A   1      41.614  28.227  30.038  1.00  0.00    -0.205 F 
ATOM     84  C   UNL A   1      38.499  29.085  28.327  1.00  0.00     0.022 A 
BRANCH  82  85
ATOM     85  S   UNL A   1      38.674  28.160  30.905  1.00  0.00     0.127 S 
ATOM     86  O   UNL A   1      37.374  28.825  30.878  1.00  0.00    -0.237 OA
ATOM     87  O   UNL A   1      38.625  26.703  30.766  1.00  0.00    -0.237 OA
ATOM     88  O   UNL A   1      39.614  28.629  31.914  1.00  0.00    -0.744 OA
ENDBRANCH  82  85
ENDBRANCH  54  78
BRANCH  66  89
ATOM     89  C   UNL A   1      46.918  32.682  28.827  1.00  0.00     0.023 A 
ATOM     90  C   UNL A   1      47.282  32.673  30.188  1.00  0.00     0.012 A 
ATOM     91  C   UNL A   1      46.849  33.909  28.138  1.00  0.00     0.148 A 
ATOM     92  C   UNL A   1      47.552  33.866  30.858  1.00  0.00     0.002 A 
ATOM     93  C   UNL A   1      47.157  35.091  28.802  1.00  0.00     0.091 A 
ATOM     94  F   UNL A   1      46.480  33.899  26.848  1.00  0.00    -0.205 F 
ATOM     95  C   UNL A   1      47.501  35.072  30.164  1.00  0.00     0.022 A 
BRANCH  93  96
ATOM     96  S   UNL A   1      47.198  36.681  27.965  1.00  0.00     0.127 S 
ATOM     97  O   UNL A   1      45.800  36.846  27.572  1.00  0.00    -0.237 OA
ATOM     98  O   UNL A   1      47.644  37.583  29.027  1.00  0.00    -0.237 OA
ATOM     99  O   UNL A   1      48.145  36.528  26.868  1.00  0.00    -0.744 OA
ENDBRANCH  93  96
ENDBRANCH  66  89
ENDBRANCH  40  41
ENDBRANCH  33  35
ENDBRANCH  32  33
ENDBRANCH  31  32
ENDBRANCH  30  31
ENDBRANCH  29  30
ENDBRANCH  28  29
ENDBRANCH   1  28
TORSDOF 26
ENDMDL
MODEL 2
REMARK VINA RESULT:      -8.8      3.686      5.164
REMARK SMILES CC[NH2+][C@]1(C(=O)OCCOCCOCCOC(=O)c2ccc(-c3c4nc(c(-c5cccc(S(=O)(=O)[O-])c5F)c5ccc([nH]5)c(-c5cccc(S(=O)(=O)[O-])c5F)c5nc(c(-c6cccc(S(=O)(=O)[O-])c6F)c6ccc3[nH]6)C=C5)C=C4)cc2)CCC[C@@H]1CCSc1ccccc1F
REMARK SMILES IDX 11 1 10 2 9 3 8 4 7 5 5 6 6 7 4 8 82 9 85 10 83 11 84 12
REMARK SMILES IDX 3 13 2 16 1 17 86 18 87 19 88 20 89 21 90 22 94 23 91 24
REMARK SMILES IDX 93 25 95 26 92 27 12 28 13 29 14 30 15 31 16 32 17 33 18 34
REMARK SMILES IDX 19 35 20 36 81 37 21 38 80 39 22 40 23 41 24 42 74 43 25 44
REMARK SMILES IDX 79 45 73 46 75 47 26 48 78 49 72 50 71 51 27 53 59 54 39 55
REMARK SMILES IDX 58 56 40 57 43 58 57 59 76 60 41 61 42 62 56 64 77 65 44 66
REMARK SMILES IDX 28 67 29 68 37 69 30 70 32 71 38 72 31 73 33 74 34 75 35 76
REMARK SMILES IDX 36 77 60 78 61 79 69 80 62 81 64 82 70 83 63 84 65 85 66 86
REMARK SMILES IDX 67 87 68 88 45 89 46 90 54 91 47 92 49 93 55 94 48 95 50 96
REMARK SMILES IDX 51 97 52 98 53 99
REMARK H PARENT 3 14 3 15 75 52 43 63
REMARK Flexibility Score: inf
ROOT
ATOM      1  C   UNL A   1      38.172  22.650  26.018  1.00  0.00     0.188 C 
ENDROOT
BRANCH   1   2
ATOM      2  O   UNL A   1      37.108  23.018  25.146  1.00  0.00    -0.376 OA
BRANCH   2   3
ATOM      3  C   UNL A   1      35.854  23.380  25.698  1.00  0.00     0.202 C 
BRANCH   3   4
ATOM      4  C   UNL A   1      35.376  24.805  25.414  1.00  0.00     0.261 C 
BRANCH   4   5
ATOM      5  O   UNL A   1      33.994  25.064  25.743  1.00  0.00    -0.459 OA
BRANCH   5   6
ATOM      6  C   UNL A   1      33.315  25.865  24.865  1.00  0.00     0.368 C 
ATOM      7  O   UNL A   1      33.826  26.338  23.857  1.00  0.00    -0.245 OA
BRANCH   6   8
ATOM      8  C   UNL A   1      31.862  26.191  25.342  1.00  0.00     0.197 C 
ATOM      9  C   UNL A   1      31.357  27.301  24.366  1.00  0.00     0.081 C 
ATOM     10  C   UNL A   1      30.805  25.062  25.075  1.00  0.00     0.063 C 
ATOM     11  C   UNL A   1      29.858  27.110  24.183  1.00  0.00     0.008 C 
ATOM     12  C   UNL A   1      29.502  25.867  24.973  1.00  0.00     0.011 C 
BRANCH   8  13
ATOM     13  N   UNL A   1      31.847  26.529  26.793  1.00  0.00    -0.332 N 
ATOM     14  H   UNL A   1      31.051  26.045  27.209  1.00  0.00     0.347 HD
ATOM     15  H   UNL A   1      32.766  26.243  27.129  1.00  0.00     0.347 HD
BRANCH  13  16
ATOM     16  C   UNL A   1      31.744  27.928  27.170  1.00  0.00     0.257 C 
ATOM     17  C   UNL A   1      33.142  28.490  27.378  1.00  0.00     0.071 C 
ENDBRANCH  13  16
ENDBRANCH   8  13
BRANCH  10  18
ATOM     18  C   UNL A   1      30.720  23.863  26.066  1.00  0.00     0.022 C 
BRANCH  18  19
ATOM     19  C   UNL A   1      31.090  22.451  25.558  1.00  0.00     0.075 C 
BRANCH  19  20
ATOM     20  S   UNL A   1      32.463  22.276  24.345  1.00  0.00    -0.123 SA
BRANCH  20  21
ATOM     21  C   UNL A   1      32.550  20.513  24.120  1.00  0.00     0.043 A 
ATOM     22  C   UNL A   1      32.196  19.905  22.911  1.00  0.00     0.018 A 
ATOM     23  C   UNL A   1      32.985  19.700  25.166  1.00  0.00     0.136 A 
ATOM     24  C   UNL A   1      32.334  18.518  22.754  1.00  0.00     0.001 A 
ATOM     25  C   UNL A   1      33.147  18.327  25.011  1.00  0.00     0.040 A 
ATOM     26  F   UNL A   1      33.336  20.264  26.330  1.00  0.00    -0.206 F 
ATOM     27  C   UNL A   1      32.820  17.731  23.798  1.00  0.00     0.003 A 
ENDBRANCH  20  21
ENDBRANCH  19  20
ENDBRANCH  18  19
ENDBRANCH  10  18
ENDBRANCH   6   8
ENDBRANCH   5   6
ENDBRANCH   4   5
ENDBRANCH   3   4
ENDBRANCH   2   3
ENDBRANCH   1   2
BRANCH   1  28
ATOM     28  C   UNL A   1      38.814  21.262  25.850  1.00  0.00     0.188 C 
BRANCH  28  29
ATOM     29  O   UNL A   1      39.762  20.865  26.839  1.00  0.00    -0.376 OA
BRANCH  29  30
ATOM     30  C   UNL A   1      40.543  21.913  27.410  1.00  0.00     0.202 C 
BRANCH  30  31
ATOM     31  C   UNL A   1      41.844  22.183  26.656  1.00  0.00     0.261 C 
BRANCH  31  32
ATOM     32  O   UNL A   1      41.778  23.473  26.025  1.00  0.00    -0.460 OA
BRANCH  32  33
ATOM     33  C   UNL A   1      42.927  23.880  25.446  1.00  0.00     0.338 C 
ATOM     34  O   UNL A   1      43.604  23.232  24.655  1.00  0.00    -0.246 OA
BRANCH  33  35
ATOM     35  C   UNL A   1      43.266  25.250  25.893  1.00  0.00     0.060 A 
ATOM     36  C   UNL A   1      43.975  25.460  27.073  1.00  0.00     0.016 A 
ATOM     37  C   UNL A   1      42.770  26.350  25.195  1.00  0.00     0.016 A 
ATOM     38  C   UNL A   1      44.103  26.747  27.600  1.00  0.00     0.010 A 
ATOM     39  C   UNL A   1      42.938  27.646  25.711  1.00  0.00     0.010 A 
ATOM     40  C   UNL A   1      43.543  27.856  26.964  1.00  0.00    -0.014 A 
BRANCH  40  41
ATOM     41  C   UNL A   1      43.421  29.172  27.670  1.00  0.00     0.031 A 
ATOM     42  C   UNL A   1      44.532  30.187  27.521  1.00  0.00     0.074 A 
ATOM     43  C   UNL A   1      42.329  29.545  28.369  1.00  0.00     0.049 A 
ATOM     44  N   UNL A   1      44.800  31.242  28.248  1.00  0.00    -0.248 NA
ATOM     45  C   UNL A   1      45.471  29.979  26.406  1.00  0.00     0.031 C 
ATOM     46  C   UNL A   1      41.095  28.776  28.509  1.00  0.00     0.029 A 
ATOM     47  N   UNL A   1      42.083  30.692  29.093  1.00  0.00    -0.354 N 
ATOM     48  C   UNL A   1      45.999  31.747  27.758  1.00  0.00     0.074 A 
ATOM     49  C   UNL A   1      46.382  30.914  26.638  1.00  0.00     0.031 C 
ATOM     50  C   UNL A   1      40.210  29.485  29.228  1.00  0.00     0.029 A 
ATOM     51  C   UNL A   1      40.853  30.702  29.714  1.00  0.00     0.049 A 
ATOM     52  H   UNL A   1      42.725  31.434  29.162  1.00  0.00     0.167 HD
ATOM     53  C   UNL A   1      46.722  32.801  28.204  1.00  0.00     0.034 A 
ATOM     54  C   UNL A   1      40.326  31.550  30.623  1.00  0.00     0.034 A 
ATOM     55  C   UNL A   1      46.293  33.698  29.240  1.00  0.00     0.049 A 
ATOM     56  C   UNL A   1      41.158  32.691  31.146  1.00  0.00     0.074 A 
ATOM     57  C   UNL A   1      46.974  34.773  29.789  1.00  0.00     0.029 A 
ATOM     58  N   UNL A   1      45.056  33.651  29.861  1.00  0.00    -0.354 N 
ATOM     59  N   UNL A   1      42.340  33.102  30.754  1.00  0.00    -0.248 NA
ATOM     60  C   UNL A   1      40.592  33.472  32.256  1.00  0.00     0.031 C 
ATOM     61  C   UNL A   1      46.145  35.374  30.743  1.00  0.00     0.029 A 
ATOM     62  C   UNL A   1      44.948  34.680  30.781  1.00  0.00     0.049 A 
ATOM     63  H   UNL A   1      44.357  32.983  29.676  1.00  0.00     0.167 HD
ATOM     64  C   UNL A   1      42.654  34.187  31.566  1.00  0.00     0.074 A 
ATOM     65  C   UNL A   1      41.522  34.398  32.444  1.00  0.00     0.031 C 
ATOM     66  C   UNL A   1      43.795  34.920  31.608  1.00  0.00     0.034 A 
BRANCH  53  67
ATOM     67  C   UNL A   1      48.076  33.026  27.587  1.00  0.00     0.023 A 
ATOM     68  C   UNL A   1      48.214  33.838  26.446  1.00  0.00     0.012 A 
ATOM     69  C   UNL A   1      49.221  32.456  28.177  1.00  0.00     0.148 A 
ATOM     70  C   UNL A   1      49.472  34.057  25.884  1.00  0.00     0.002 A 
ATOM     71  C   UNL A   1      50.475  32.711  27.636  1.00  0.00     0.091 A 
ATOM     72  F   UNL A   1      49.064  31.662  29.246  1.00  0.00    -0.205 F 
ATOM     73  C   UNL A   1      50.602  33.504  26.484  1.00  0.00     0.022 A 
BRANCH  71  74
ATOM     74  S   UNL A   1      51.986  32.097  28.390  1.00  0.00     0.127 S 
ATOM     75  O   UNL A   1      53.002  32.586  27.460  1.00  0.00    -0.237 OA
ATOM     76  O   UNL A   1      51.979  32.765  29.692  1.00  0.00    -0.237 OA
ATOM     77  O   UNL A   1      51.835  30.650  28.456  1.00  0.00    -0.744 OA
ENDBRANCH  71  74
ENDBRANCH  53  67
BRANCH  54  78
ATOM     78  C   UNL A   1      38.942  31.329  31.141  1.00  0.00     0.023 A 
ATOM     79  C   UNL A   1      38.748  30.514  32.274  1.00  0.00     0.012 A 
ATOM     80  C   UNL A   1      37.823  31.928  30.532  1.00  0.00     0.148 A 
ATOM     81  C   UNL A   1      37.466  30.295  32.782  1.00  0.00     0.002 A 
ATOM     82  C   UNL A   1      36.559  31.768  31.089  1.00  0.00     0.091 A 
ATOM     83  F   UNL A   1      38.014  32.655  29.422  1.00  0.00    -0.205 F 
ATOM     84  C   UNL A   1      36.375  30.937  32.202  1.00  0.00     0.022 A 
BRANCH  82  85
ATOM     85  S   UNL A   1      35.142  32.698  30.495  1.00  0.00     0.127 S 
ATOM     86  O   UNL A   1      34.228  32.612  31.631  1.00  0.00    -0.237 OA
ATOM     87  O   UNL A   1      35.720  34.024  30.267  1.00  0.00    -0.237 OA
ATOM     88  O   UNL A   1      34.720  32.018  29.278  1.00  0.00    -0.744 OA
ENDBRANCH  82  85
ENDBRANCH  54  78
BRANCH  66  89
ATOM     89  C   UNL A   1      43.879  36.033  32.619  1.00  0.00     0.023 A 
ATOM     90  C   UNL A   1      44.119  35.722  33.973  1.00  0.00     0.012 A 
ATOM     91  C   UNL A   1      43.801  37.382  32.223  1.00  0.00     0.148 A 
ATOM     92  C   UNL A   1      44.256  36.736  34.920  1.00  0.00     0.002 A 
ATOM     93  C   UNL A   1      43.977  38.389  33.166  1.00  0.00     0.091 A 
ATOM     94  F   UNL A   1      43.551  37.657  30.934  1.00  0.00    -0.205 F 
ATOM     95  C   UNL A   1      44.196  38.067  34.516  1.00  0.00     0.022 A 
BRANCH  93  96
ATOM     96  S   UNL A   1      43.999  40.129  32.720  1.00  0.00     0.127 S 
ATOM     97  O   UNL A   1      42.636  40.330  32.234  1.00  0.00    -0.237 OA
ATOM     98  O   UNL A   1      44.293  40.777  33.999  1.00  0.00    -0.237 OA
ATOM     99  O   UNL A   1      45.049  40.269  31.719  1.00  0.00    -0.744 OA
ENDBRANCH  93  96
ENDBRANCH  66  89
ENDBRANCH  40  41
ENDBRANCH  33  35
ENDBRANCH  32  33
ENDBRANCH  31  32
ENDBRANCH  30  31
ENDBRANCH  29  30
ENDBRANCH  28  29
ENDBRANCH   1  28
TORSDOF 26
ENDMDL
MODEL 3
REMARK VINA RESULT:      -8.8      1.533      3.375
REMARK SMILES CC[NH2+][C@]1(C(=O)OCCOCCOCCOC(=O)c2ccc(-c3c4nc(c(-c5cccc(S(=O)(=O)[O-])c5F)c5ccc([nH]5)c(-c5cccc(S(=O)(=O)[O-])c5F)c5nc(c(-c6cccc(S(=O)(=O)[O-])c6F)c6ccc3[nH]6)C=C5)C=C4)cc2)CCC[C@@H]1CCSc1ccccc1F
REMARK SMILES IDX 11 1 10 2 9 3 8 4 7 5 5 6 6 7 4 8 82 9 85 10 83 11 84 12
REMARK SMILES IDX 3 13 2 16 1 17 86 18 87 19 88 20 89 21 90 22 94 23 91 24
REMARK SMILES IDX 93 25 95 26 92 27 12 28 13 29 14 30 15 31 16 32 17 33 18 34
REMARK SMILES IDX 19 35 20 36 81 37 21 38 80 39 22 40 23 41 24 42 74 43 25 44
REMARK SMILES IDX 79 45 73 46 75 47 26 48 78 49 72 50 71 51 27 53 59 54 39 55
REMARK SMILES IDX 58 56 40 57 43 58 57 59 76 60 41 61 42 62 56 64 77 65 44 66
REMARK SMILES IDX 28 67 29 68 37 69 30 70 32 71 38 72 31 73 33 74 34 75 35 76
REMARK SMILES IDX 36 77 60 78 61 79 69 80 62 81 64 82 70 83 63 84 65 85 66 86
REMARK SMILES IDX 67 87 68 88 45 89 46 90 54 91 47 92 49 93 55 94 48 95 50 96
REMARK SMILES IDX 51 97 52 98 53 99
REMARK H PARENT 3 14 3 15 75 52 43 63
REMARK Flexibility Score: inf
ROOT
ATOM      1  C   UNL A   1      39.747  23.405  27.122  1.00  0.00     0.188 C 
ENDROOT
BRANCH   1   2
ATOM      2  O   UNL A   1      38.673  23.681  26.228  1.00  0.00    -0.376 OA
BRANCH   2   3
ATOM      3  C   UNL A   1      38.186  22.648  25.391  1.00  0.00     0.202 C 
BRANCH   3   4
ATOM      4  C   UNL A   1      36.818  22.070  25.755  1.00  0.00     0.261 C 
BRANCH   4   5
ATOM      5  O   UNL A   1      35.827  23.043  26.151  1.00  0.00    -0.459 OA
BRANCH   5   6
ATOM      6  C   UNL A   1      34.624  22.533  26.561  1.00  0.00     0.368 C 
ATOM      7  O   UNL A   1      34.342  22.349  27.739  1.00  0.00    -0.245 OA
BRANCH   6   8
ATOM      8  C   UNL A   1      33.704  22.117  25.367  1.00  0.00     0.197 C 
ATOM      9  C   UNL A   1      34.317  20.784  24.830  1.00  0.00     0.081 C 
ATOM     10  C   UNL A   1      32.266  21.636  25.773  1.00  0.00     0.063 C 
ATOM     11  C   UNL A   1      33.174  19.923  24.314  1.00  0.00     0.008 C 
ATOM     12  C   UNL A   1      31.907  20.699  24.612  1.00  0.00     0.011 C 
BRANCH   8  13
ATOM     13  N   UNL A   1      33.579  23.230  24.385  1.00  0.00    -0.332 N 
ATOM     14  H   UNL A   1      32.587  23.333  24.169  1.00  0.00     0.347 HD
ATOM     15  H   UNL A   1      34.017  24.026  24.847  1.00  0.00     0.347 HD
BRANCH  13  16
ATOM     16  C   UNL A   1      34.284  23.112  23.122  1.00  0.00     0.257 C 
ATOM     17  C   UNL A   1      33.274  23.125  21.986  1.00  0.00     0.071 C 
ENDBRANCH  13  16
ENDBRANCH   8  13
BRANCH  10  18
ATOM     18  C   UNL A   1      31.173  22.705  26.071  1.00  0.00     0.022 C 
BRANCH  18  19
ATOM     19  C   UNL A   1      31.618  24.129  26.479  1.00  0.00     0.075 C 
BRANCH  19  20
ATOM     20  S   UNL A   1      30.883  25.572  25.605  1.00  0.00    -0.123 SA
BRANCH  20  21
ATOM     21  C   UNL A   1      31.917  26.914  26.151  1.00  0.00     0.043 A 
ATOM     22  C   UNL A   1      31.491  27.824  27.124  1.00  0.00     0.018 A 
ATOM     23  C   UNL A   1      33.191  27.074  25.608  1.00  0.00     0.136 A 
ATOM     24  C   UNL A   1      32.357  28.834  27.570  1.00  0.00     0.001 A 
ATOM     25  C   UNL A   1      34.064  28.058  26.062  1.00  0.00     0.040 A 
ATOM     26  F   UNL A   1      33.620  26.208  24.680  1.00  0.00    -0.206 F 
ATOM     27  C   UNL A   1      33.646  28.943  27.049  1.00  0.00     0.003 A 
ENDBRANCH  20  21
ENDBRANCH  19  20
ENDBRANCH  18  19
ENDBRANCH  10  18
ENDBRANCH   6   8
ENDBRANCH   5   6
ENDBRANCH   4   5
ENDBRANCH   3   4
ENDBRANCH   2   3
ENDBRANCH   1   2
BRANCH   1  28
ATOM     28  C   UNL A   1      40.671  22.214  26.816  1.00  0.00     0.188 C 
BRANCH  28  29
ATOM     29  O   UNL A   1      40.064  21.054  26.250  1.00  0.00    -0.376 OA
BRANCH  29  30
ATOM     30  C   UNL A   1      40.789  19.835  26.399  1.00  0.00     0.202 C 
BRANCH  30  31
ATOM     31  C   UNL A   1      42.299  20.002  26.242  1.00  0.00     0.261 C 
BRANCH  31  32
ATOM     32  O   UNL A   1      42.719  19.443  24.985  1.00  0.00    -0.460 OA
BRANCH  32  33
ATOM     33  C   UNL A   1      44.055  19.406  24.799  1.00  0.00     0.338 C 
ATOM     34  O   UNL A   1      44.722  18.403  24.569  1.00  0.00    -0.246 OA
BRANCH  33  35
ATOM     35  C   UNL A   1      44.623  20.769  24.902  1.00  0.00     0.060 A 
ATOM     36  C   UNL A   1      45.353  21.156  26.022  1.00  0.00     0.016 A 
ATOM     37  C   UNL A   1      44.326  21.719  23.925  1.00  0.00     0.016 A 
ATOM     38  C   UNL A   1      45.699  22.495  26.213  1.00  0.00     0.010 A 
ATOM     39  C   UNL A   1      44.711  23.058  24.105  1.00  0.00     0.010 A 
ATOM     40  C   UNL A   1      45.339  23.480  25.291  1.00  0.00    -0.014 A 
BRANCH  40  41
ATOM     41  C   UNL A   1      45.443  24.935  25.635  1.00  0.00     0.031 A 
ATOM     42  C   UNL A   1      46.760  25.646  25.419  1.00  0.00     0.074 A 
ATOM     43  C   UNL A   1      44.397  25.680  26.051  1.00  0.00     0.049 A 
ATOM     44  N   UNL A   1      47.182  26.785  25.905  1.00  0.00    -0.248 NA
ATOM     45  C   UNL A   1      47.735  24.975  24.542  1.00  0.00     0.031 C 
ATOM     46  C   UNL A   1      43.015  25.222  26.181  1.00  0.00     0.029 A 
ATOM     47  N   UNL A   1      44.341  27.003  26.434  1.00  0.00    -0.354 N 
ATOM     48  C   UNL A   1      48.505  26.905  25.496  1.00  0.00     0.074 A 
ATOM     49  C   UNL A   1      48.803  25.748  24.680  1.00  0.00     0.031 C 
ATOM     50  C   UNL A   1      42.243  26.250  26.567  1.00  0.00     0.029 A 
ATOM     51  C   UNL A   1      43.089  27.409  26.840  1.00  0.00     0.049 A 
ATOM     52  H   UNL A   1      45.121  27.601  26.420  1.00  0.00     0.167 HD
ATOM     53  C   UNL A   1      49.397  27.884  25.783  1.00  0.00     0.034 A 
ATOM     54  C   UNL A   1      42.675  28.551  27.429  1.00  0.00     0.034 A 
ATOM     55  C   UNL A   1      49.077  29.088  26.497  1.00  0.00     0.049 A 
ATOM     56  C   UNL A   1      43.684  29.612  27.784  1.00  0.00     0.074 A 
ATOM     57  C   UNL A   1      49.921  30.121  26.869  1.00  0.00     0.029 A 
ATOM     58  N   UNL A   1      47.805  29.442  26.915  1.00  0.00    -0.354 N 
ATOM     59  N   UNL A   1      44.960  29.673  27.490  1.00  0.00    -0.248 NA
ATOM     60  C   UNL A   1      43.198  30.752  28.576  1.00  0.00     0.031 C 
ATOM     61  C   UNL A   1      49.156  31.100  27.515  1.00  0.00     0.029 A 
ATOM     62  C   UNL A   1      47.837  30.680  27.535  1.00  0.00     0.049 A 
ATOM     63  H   UNL A   1      46.997  28.893  26.792  1.00  0.00     0.167 HD
ATOM     64  C   UNL A   1      45.426  30.856  28.057  1.00  0.00     0.074 A 
ATOM     65  C   UNL A   1      44.287  31.501  28.676  1.00  0.00     0.031 C 
ATOM     66  C   UNL A   1      46.690  31.344  28.095  1.00  0.00     0.034 A 
BRANCH  53  67
ATOM     67  C   UNL A   1      50.820  27.677  25.343  1.00  0.00     0.023 A 
ATOM     68  C   UNL A   1      51.793  27.233  26.260  1.00  0.00     0.012 A 
ATOM     69  C   UNL A   1      51.180  27.886  23.997  1.00  0.00     0.148 A 
ATOM     70  C   UNL A   1      53.109  27.029  25.847  1.00  0.00     0.002 A 
ATOM     71  C   UNL A   1      52.483  27.641  23.585  1.00  0.00     0.091 A 
ATOM     72  F   UNL A   1      50.245  28.336  23.148  1.00  0.00    -0.205 F 
ATOM     73  C   UNL A   1      53.452  27.221  24.510  1.00  0.00     0.022 A 
BRANCH  71  74
ATOM     74  S   UNL A   1      52.988  27.794  21.867  1.00  0.00     0.127 S 
ATOM     75  O   UNL A   1      52.050  26.894  21.201  1.00  0.00    -0.237 OA
ATOM     76  O   UNL A   1      52.764  29.216  21.601  1.00  0.00    -0.237 OA
ATOM     77  O   UNL A   1      54.387  27.390  21.828  1.00  0.00    -0.744 OA
ENDBRANCH  71  74
ENDBRANCH  53  67
BRANCH  54  78
ATOM     78  C   UNL A   1      41.233  28.741  27.768  1.00  0.00     0.023 A 
ATOM     79  C   UNL A   1      40.331  29.142  26.763  1.00  0.00     0.012 A 
ATOM     80  C   UNL A   1      40.748  28.517  29.071  1.00  0.00     0.148 A 
ATOM     81  C   UNL A   1      38.977  29.322  27.053  1.00  0.00     0.002 A 
ATOM     82  C   UNL A   1      39.386  28.624  29.334  1.00  0.00     0.091 A 
ATOM     83  F   UNL A   1      41.624  28.191  30.031  1.00  0.00    -0.205 F 
ATOM     84  C   UNL A   1      38.501  29.045  28.332  1.00  0.00     0.022 A 
BRANCH  82  85
ATOM     85  S   UNL A   1      38.687  28.119  30.910  1.00  0.00     0.127 S 
ATOM     86  O   UNL A   1      37.395  28.800  30.897  1.00  0.00    -0.237 OA
ATOM     87  O   UNL A   1      38.620  26.665  30.762  1.00  0.00    -0.237 OA
ATOM     88  O   UNL A   1      39.641  28.571  31.914  1.00  0.00    -0.744 OA
ENDBRANCH  82  85
ENDBRANCH  54  78
BRANCH  66  89
ATOM     89  C   UNL A   1      46.919  32.649  28.812  1.00  0.00     0.023 A 
ATOM     90  C   UNL A   1      47.303  32.636  30.168  1.00  0.00     0.012 A 
ATOM     91  C   UNL A   1      46.831  33.877  28.130  1.00  0.00     0.148 A 
ATOM     92  C   UNL A   1      47.574  33.827  30.840  1.00  0.00     0.002 A 
ATOM     93  C   UNL A   1      47.140  35.059  28.795  1.00  0.00     0.091 A 
ATOM     94  F   UNL A   1      46.443  33.870  26.846  1.00  0.00    -0.205 F 
ATOM     95  C   UNL A   1      47.504  35.036  30.151  1.00  0.00     0.022 A 
BRANCH  93  96
ATOM     96  S   UNL A   1      47.158  36.652  27.964  1.00  0.00     0.127 S 
ATOM     97  O   UNL A   1      47.332  37.572  29.086  1.00  0.00    -0.237 OA
ATOM     98  O   UNL A   1      48.322  36.534  27.085  1.00  0.00    -0.237 OA
ATOM     99  O   UNL A   1      45.883  36.750  27.265  1.00  0.00    -0.744 OA
ENDBRANCH  93  96
ENDBRANCH  66  89
ENDBRANCH  40  41
ENDBRANCH  33  35
ENDBRANCH  32  33
ENDBRANCH  31  32
ENDBRANCH  30  31
ENDBRANCH  29  30
ENDBRANCH  28  29
ENDBRANCH   1  28
TORSDOF 26
ENDMDL
