MODEL 1
REMARK VINA RESULT:     -10.4      0.000      0.000
REMARK SMILES Cc1ccc(NC(=O)c2cccn2CC(=O)OCCOCCOCCOC(=O)c2ccc(-c3c4nc(c(-c5cccc(S(=O)(=O)[O-])c5F)c5ccc([nH]5)c(-c5cccc(S(=O)(=O)[O-])c5F)c5nc(c(-c6cccc(S(=O)(=O)[O-])c6F)c6ccc3[nH]6)C=C5)C=C4)cc2)cc1
REMARK SMILES IDX 21 1 20 2 19 3 18 4 17 5 15 6 16 7 14 8 13 9 9 10 10 11
REMARK SMILES IDX 11 12 12 13 7 14 6 15 8 17 5 18 1 19 2 20 3 21 93 22 4 23
REMARK SMILES IDX 92 24 22 25 23 26 24 27 25 28 26 29 27 30 28 31 29 32 30 33
REMARK SMILES IDX 91 34 31 35 90 36 32 37 33 38 34 39 84 40 35 41 89 42 83 43
REMARK SMILES IDX 85 44 36 45 88 46 82 47 81 48 37 50 69 51 49 52 68 53 50 54
REMARK SMILES IDX 53 55 67 56 86 57 51 58 52 59 66 61 87 62 54 63 38 64 39 65
REMARK SMILES IDX 47 66 40 67 42 68 48 69 41 70 43 71 44 72 45 73 46 74 70 75
REMARK SMILES IDX 71 76 79 77 72 78 74 79 80 80 73 81 75 82 76 83 77 84 78 85
REMARK SMILES IDX 55 86 56 87 64 88 57 89 59 90 65 91 58 92 60 93 61 94 62 95
REMARK SMILES IDX 63 96
REMARK H PARENT 6 16 85 49 53 60
REMARK Flexibility Score: inf
ROOT
ATOM      1  C   UNL A   1      39.287  21.089  26.081  1.00  0.00     0.188 C 
ENDROOT
BRANCH   1   2
ATOM      2  O   UNL A   1      38.165  21.770  25.540  1.00  0.00    -0.376 OA
BRANCH   2   3
ATOM      3  C   UNL A   1      37.335  21.051  24.623  1.00  0.00     0.202 C 
BRANCH   3   4
ATOM      4  C   UNL A   1      35.898  21.542  24.346  1.00  0.00     0.261 C 
BRANCH   4   5
ATOM      5  O   UNL A   1      35.840  22.914  23.889  1.00  0.00    -0.462 OA
BRANCH   5   6
ATOM      6  C   UNL A   1      35.486  23.841  24.833  1.00  0.00     0.326 C 
ATOM      7  O   UNL A   1      36.159  24.093  25.831  1.00  0.00    -0.250 OA
BRANCH   6   8
ATOM      8  C   UNL A   1      34.288  24.866  24.375  1.00  0.00     0.244 C 
BRANCH   8   9
ATOM      9  N   UNL A   1      32.850  26.091  25.213  1.00  0.00    -0.332 N 
ATOM     10  C   UNL A   1      31.446  26.735  24.804  1.00  0.00     0.107 A 
ATOM     11  C   UNL A   1      31.259  27.986  25.397  1.00  0.00     0.033 A 
ATOM     12  C   UNL A   1      32.244  28.270  26.297  1.00  0.00     0.020 A 
ATOM     13  C   UNL A   1      32.863  27.071  26.513  1.00  0.00     0.087 A 
BRANCH  10  14
ATOM     14  C   UNL A   1      30.313  26.258  24.028  1.00  0.00     0.272 C 
ATOM     15  N   UNL A   1      30.207  24.912  23.686  1.00  0.00    -0.321 N 
ATOM     16  H   UNL A   1      29.454  24.736  23.076  1.00  0.00     0.170 HD
ATOM     17  O   UNL A   1      29.547  27.053  23.477  1.00  0.00    -0.267 OA
BRANCH  15  18
ATOM     18  C   UNL A   1      30.929  23.736  24.008  1.00  0.00     0.041 A 
ATOM     19  C   UNL A   1      32.760  19.982  25.182  1.00  0.00     0.044 C 
ATOM     20  C   UNL A   1      32.164  21.304  24.810  1.00  0.00    -0.051 A 
ATOM     21  C   UNL A   1      32.281  21.765  23.502  1.00  0.00     0.005 A 
ATOM     22  C   UNL A   1      31.462  22.087  25.729  1.00  0.00     0.005 A 
ATOM     23  C   UNL A   1      31.673  22.966  23.120  1.00  0.00     0.026 A 
ATOM     24  C   UNL A   1      30.865  23.295  25.335  1.00  0.00     0.026 A 
ENDBRANCH  15  18
ENDBRANCH  10  14
ENDBRANCH   8   9
ENDBRANCH   6   8
ENDBRANCH   5   6
ENDBRANCH   4   5
ENDBRANCH   3   4
ENDBRANCH   2   3
ENDBRANCH   1   2
BRANCH   1  25
ATOM     25  C   UNL A   1      40.142  22.011  26.934  1.00  0.00     0.188 C 
BRANCH  25  26
ATOM     26  O   UNL A   1      41.524  21.715  26.764  1.00  0.00    -0.376 OA
BRANCH  26  27
ATOM     27  C   UNL A   1      41.799  20.444  26.195  1.00  0.00     0.202 C 
BRANCH  27  28
ATOM     28  C   UNL A   1      43.289  20.292  25.894  1.00  0.00     0.261 C 
BRANCH  28  29
ATOM     29  O   UNL A   1      43.714  21.462  25.166  1.00  0.00    -0.460 OA
BRANCH  29  30
ATOM     30  C   UNL A   1      44.838  22.090  25.607  1.00  0.00     0.338 C 
ATOM     31  O   UNL A   1      45.970  21.643  25.615  1.00  0.00    -0.246 OA
BRANCH  30  32
ATOM     32  C   UNL A   1      44.438  23.419  26.129  1.00  0.00     0.060 A 
ATOM     33  C   UNL A   1      43.208  24.562  25.328  1.00  0.00     0.016 A 
ATOM     34  C   UNL A   1      45.177  23.929  27.695  1.00  0.00     0.016 A 
ATOM     35  C   UNL A   1      42.619  26.081  26.198  1.00  0.00     0.010 A 
ATOM     36  C   UNL A   1      44.707  25.516  28.463  1.00  0.00     0.010 A 
ATOM     37  C   UNL A   1      43.444  26.642  27.721  1.00  0.00    -0.014 A 
BRANCH  37  38
ATOM     38  C   UNL A   1      43.496  28.116  28.362  1.00  0.00     0.031 A 
ATOM     39  C   UNL A   1      42.173  28.707  28.228  1.00  0.00     0.074 A 
ATOM     40  C   UNL A   1      44.103  29.037  29.209  1.00  0.00     0.049 A 
ATOM     41  N   UNL A   1      41.249  28.430  29.086  1.00  0.00    -0.248 NA
ATOM     42  C   UNL A   1      41.784  29.546  27.111  1.00  0.00     0.031 C 
ATOM     43  C   UNL A   1      45.321  28.892  29.992  1.00  0.00     0.029 A 
ATOM     44  N   UNL A   1      43.587  30.327  29.702  1.00  0.00    -0.354 N 
ATOM     45  C   UNL A   1      40.230  29.259  28.746  1.00  0.00     0.074 A 
ATOM     46  C   UNL A   1      40.474  29.591  27.360  1.00  0.00     0.031 C 
ATOM     47  C   UNL A   1      45.384  29.872  30.929  1.00  0.00     0.029 A 
ATOM     48  C   UNL A   1      44.213  30.790  30.868  1.00  0.00     0.049 A 
ATOM     49  H   UNL A   1      42.866  30.822  29.250  1.00  0.00     0.167 HD
ATOM     50  C   UNL A   1      39.484  29.841  29.718  1.00  0.00     0.034 A 
ATOM     51  C   UNL A   1      43.782  31.537  31.960  1.00  0.00     0.034 A 
ATOM     52  C   UNL A   1      39.503  29.116  31.014  1.00  0.00     0.049 A 
ATOM     53  C   UNL A   1      43.635  30.451  32.955  1.00  0.00     0.074 A 
ATOM     54  C   UNL A   1      38.549  28.527  31.825  1.00  0.00     0.029 A 
ATOM     55  N   UNL A   1      40.710  28.749  31.614  1.00  0.00    -0.354 N 
ATOM     56  N   UNL A   1      42.741  29.564  32.703  1.00  0.00    -0.248 NA
ATOM     57  C   UNL A   1      44.311  30.305  34.226  1.00  0.00     0.031 C 
ATOM     58  C   UNL A   1      39.205  27.855  32.916  1.00  0.00     0.029 A 
ATOM     59  C   UNL A   1      40.578  28.011  32.797  1.00  0.00     0.049 A 
ATOM     60  H   UNL A   1      41.585  28.988  31.233  1.00  0.00     0.167 HD
ATOM     61  C   UNL A   1      42.663  28.717  33.756  1.00  0.00     0.074 A 
ATOM     62  C   UNL A   1      43.695  29.197  34.673  1.00  0.00     0.031 C 
ATOM     63  C   UNL A   1      41.765  27.698  33.669  1.00  0.00     0.034 A 
BRANCH  50  64
ATOM     64  C   UNL A   1      38.716  31.110  29.370  1.00  0.00     0.023 A 
ATOM     65  C   UNL A   1      39.273  32.362  29.637  1.00  0.00     0.012 A 
ATOM     66  C   UNL A   1      37.436  31.151  28.745  1.00  0.00     0.148 A 
ATOM     67  C   UNL A   1      38.528  33.544  29.463  1.00  0.00     0.002 A 
ATOM     68  C   UNL A   1      36.628  32.280  28.756  1.00  0.00     0.091 A 
ATOM     69  F   UNL A   1      37.026  30.152  27.948  1.00  0.00    -0.205 F 
ATOM     70  C   UNL A   1      37.178  33.500  29.110  1.00  0.00     0.022 A 
BRANCH  68  71
ATOM     71  S   UNL A   1      34.854  32.102  28.486  1.00  0.00     0.127 S 
ATOM     72  O   UNL A   1      34.308  32.176  29.842  1.00  0.00    -0.237 OA
ATOM     73  O   UNL A   1      34.529  33.240  27.634  1.00  0.00    -0.237 OA
ATOM     74  O   UNL A   1      34.701  30.784  27.868  1.00  0.00    -0.744 OA
ENDBRANCH  68  71
ENDBRANCH  50  64
BRANCH  51  75
ATOM     75  C   UNL A   1      42.779  32.669  32.349  1.00  0.00     0.023 A 
ATOM     76  C   UNL A   1      43.333  33.903  32.750  1.00  0.00     0.012 A 
ATOM     77  C   UNL A   1      41.391  32.480  32.710  1.00  0.00     0.148 A 
ATOM     78  C   UNL A   1      42.583  34.869  33.463  1.00  0.00     0.002 A 
ATOM     79  C   UNL A   1      40.657  33.437  33.441  1.00  0.00     0.091 A 
ATOM     80  F   UNL A   1      40.767  31.349  32.380  1.00  0.00    -0.205 F 
ATOM     81  C   UNL A   1      41.259  34.634  33.820  1.00  0.00     0.022 A 
BRANCH  79  82
ATOM     82  S   UNL A   1      38.976  33.139  34.074  1.00  0.00     0.127 S 
ATOM     83  O   UNL A   1      38.335  32.439  32.955  1.00  0.00    -0.237 OA
ATOM     84  O   UNL A   1      39.223  32.297  35.241  1.00  0.00    -0.237 OA
ATOM     85  O   UNL A   1      38.409  34.455  34.329  1.00  0.00    -0.744 OA
ENDBRANCH  79  82
ENDBRANCH  51  75
BRANCH  63  86
ATOM     86  C   UNL A   1      42.024  26.376  34.392  1.00  0.00     0.023 A 
ATOM     87  C   UNL A   1      41.281  25.965  35.530  1.00  0.00     0.012 A 
ATOM     88  C   UNL A   1      43.141  25.570  34.093  1.00  0.00     0.148 A 
ATOM     89  C   UNL A   1      41.579  24.832  36.294  1.00  0.00     0.002 A 
ATOM     90  C   UNL A   1      43.462  24.454  34.876  1.00  0.00     0.091 A 
ATOM     91  F   UNL A   1      43.936  25.900  33.073  1.00  0.00    -0.205 F 
ATOM     92  C   UNL A   1      42.681  24.075  35.970  1.00  0.00     0.022 A 
BRANCH  90  93
ATOM     93  S   UNL A   1      44.914  23.451  34.566  1.00  0.00     0.127 S 
ATOM     94  O   UNL A   1      45.987  24.407  34.838  1.00  0.00    -0.237 OA
ATOM     95  O   UNL A   1      44.791  22.392  35.570  1.00  0.00    -0.237 OA
ATOM     96  O   UNL A   1      44.777  22.982  33.196  1.00  0.00    -0.744 OA
ENDBRANCH  90  93
ENDBRANCH  63  86
ENDBRANCH  37  38
ENDBRANCH  30  32
ENDBRANCH  29  30
ENDBRANCH  28  29
ENDBRANCH  27  28
ENDBRANCH  26  27
ENDBRANCH  25  26
ENDBRANCH   1  25
TORSDOF 23
ENDMDL
MODEL 2
REMARK VINA RESULT:     -10.3      3.692      8.506
REMARK SMILES Cc1ccc(NC(=O)c2cccn2CC(=O)OCCOCCOCCOC(=O)c2ccc(-c3c4nc(c(-c5cccc(S(=O)(=O)[O-])c5F)c5ccc([nH]5)c(-c5cccc(S(=O)(=O)[O-])c5F)c5nc(c(-c6cccc(S(=O)(=O)[O-])c6F)c6ccc3[nH]6)C=C5)C=C4)cc2)cc1
REMARK SMILES IDX 21 1 20 2 19 3 18 4 17 5 15 6 16 7 14 8 13 9 9 10 10 11
REMARK SMILES IDX 11 12 12 13 7 14 6 15 8 17 5 18 1 19 2 20 3 21 93 22 4 23
REMARK SMILES IDX 92 24 22 25 23 26 24 27 25 28 26 29 27 30 28 31 29 32 30 33
REMARK SMILES IDX 91 34 31 35 90 36 32 37 33 38 34 39 84 40 35 41 89 42 83 43
REMARK SMILES IDX 85 44 36 45 88 46 82 47 81 48 37 50 69 51 49 52 68 53 50 54
REMARK SMILES IDX 53 55 67 56 86 57 51 58 52 59 66 61 87 62 54 63 38 64 39 65
REMARK SMILES IDX 47 66 40 67 42 68 48 69 41 70 43 71 44 72 45 73 46 74 70 75
REMARK SMILES IDX 71 76 79 77 72 78 74 79 80 80 73 81 75 82 76 83 77 84 78 85
REMARK SMILES IDX 55 86 56 87 64 88 57 89 59 90 65 91 58 92 60 93 61 94 62 95
REMARK SMILES IDX 63 96
REMARK H PARENT 6 16 85 49 53 60
REMARK Flexibility Score: inf
ROOT
ATOM      1  C   UNL A   1      32.913  27.370  23.091  1.00  0.00     0.188 C 
ENDROOT
BRANCH   1   2
ATOM      2  O   UNL A   1      33.549  28.635  23.189  1.00  0.00    -0.376 OA
BRANCH   2   3
ATOM      3  C   UNL A   1      33.597  29.252  24.478  1.00  0.00     0.202 C 
BRANCH   3   4
ATOM      4  C   UNL A   1      33.795  28.380  25.736  1.00  0.00     0.261 C 
BRANCH   4   5
ATOM      5  O   UNL A   1      32.952  28.775  26.844  1.00  0.00    -0.462 OA
BRANCH   5   6
ATOM      6  C   UNL A   1      31.948  27.902  27.169  1.00  0.00     0.326 C 
ATOM      7  O   UNL A   1      31.107  28.118  28.040  1.00  0.00    -0.250 OA
BRANCH   6   8
ATOM      8  C   UNL A   1      31.704  26.698  26.079  1.00  0.00     0.244 C 
BRANCH   8   9
ATOM      9  N   UNL A   1      31.554  24.638  26.006  1.00  0.00    -0.332 N 
ATOM     10  C   UNL A   1      31.040  23.514  24.992  1.00  0.00     0.107 A 
ATOM     11  C   UNL A   1      30.507  22.414  25.668  1.00  0.00     0.033 A 
ATOM     12  C   UNL A   1      30.704  22.505  27.014  1.00  0.00     0.020 A 
ATOM     13  C   UNL A   1      31.642  23.488  27.155  1.00  0.00     0.087 A 
BRANCH  10  14
ATOM     14  C   UNL A   1      31.092  23.370  23.547  1.00  0.00     0.272 C 
ATOM     15  N   UNL A   1      31.784  22.309  22.967  1.00  0.00    -0.321 N 
ATOM     16  H   UNL A   1      31.831  22.381  21.986  1.00  0.00     0.170 HD
ATOM     17  O   UNL A   1      30.718  24.284  22.808  1.00  0.00    -0.267 OA
BRANCH  15  18
ATOM     18  C   UNL A   1      32.438  21.151  23.457  1.00  0.00     0.041 A 
ATOM     19  C   UNL A   1      34.516  17.497  24.530  1.00  0.00     0.044 C 
ATOM     20  C   UNL A   1      33.754  18.738  24.183  1.00  0.00    -0.051 A 
ATOM     21  C   UNL A   1      34.108  19.948  24.772  1.00  0.00     0.005 A 
ATOM     22  C   UNL A   1      32.706  18.732  23.260  1.00  0.00     0.005 A 
ATOM     23  C   UNL A   1      33.451  21.129  24.410  1.00  0.00     0.026 A 
ATOM     24  C   UNL A   1      32.047  19.923  22.913  1.00  0.00     0.026 A 
ENDBRANCH  15  18
ENDBRANCH  10  14
ENDBRANCH   8   9
ENDBRANCH   6   8
ENDBRANCH   5   6
ENDBRANCH   4   5
ENDBRANCH   3   4
ENDBRANCH   2   3
ENDBRANCH   1   2
BRANCH   1  25
ATOM     25  C   UNL A   1      33.717  26.404  22.236  1.00  0.00     0.188 C 
BRANCH  25  26
ATOM     26  O   UNL A   1      33.721  25.104  22.816  1.00  0.00    -0.376 OA
BRANCH  26  27
ATOM     27  C   UNL A   1      34.681  24.907  23.842  1.00  0.00     0.202 C 
BRANCH  27  28
ATOM     28  C   UNL A   1      35.350  23.540  23.710  1.00  0.00     0.261 C 
BRANCH  28  29
ATOM     29  O   UNL A   1      36.630  23.609  24.370  1.00  0.00    -0.460 OA
BRANCH  29  30
ATOM     30  C   UNL A   1      36.685  23.181  25.661  1.00  0.00     0.338 C 
ATOM     31  O   UNL A   1      35.742  22.913  26.382  1.00  0.00    -0.246 OA
BRANCH  30  32
ATOM     32  C   UNL A   1      38.111  23.140  26.064  1.00  0.00     0.060 A 
ATOM     33  C   UNL A   1      39.211  21.643  25.971  1.00  0.00     0.016 A 
ATOM     34  C   UNL A   1      38.834  24.690  26.639  1.00  0.00     0.016 A 
ATOM     35  C   UNL A   1      41.027  21.779  26.278  1.00  0.00     0.010 A 
ATOM     36  C   UNL A   1      40.599  24.771  27.099  1.00  0.00     0.010 A 
ATOM     37  C   UNL A   1      41.728  23.315  26.959  1.00  0.00    -0.014 A 
BRANCH  37  38
ATOM     38  C   UNL A   1      43.096  23.531  27.775  1.00  0.00     0.031 A 
ATOM     39  C   UNL A   1      44.060  24.146  26.875  1.00  0.00     0.074 A 
ATOM     40  C   UNL A   1      43.765  23.655  28.989  1.00  0.00     0.049 A 
ATOM     41  N   UNL A   1      44.043  25.422  26.680  1.00  0.00    -0.248 NA
ATOM     42  C   UNL A   1      45.014  23.388  26.089  1.00  0.00     0.031 C 
ATOM     43  C   UNL A   1      43.236  23.530  30.339  1.00  0.00     0.029 A 
ATOM     44  N   UNL A   1      45.133  24.138  29.251  1.00  0.00    -0.354 N 
ATOM     45  C   UNL A   1      45.149  25.651  25.929  1.00  0.00     0.074 A 
ATOM     46  C   UNL A   1      45.440  24.379  25.305  1.00  0.00     0.031 C 
ATOM     47  C   UNL A   1      44.121  24.049  31.228  1.00  0.00     0.029 A 
ATOM     48  C   UNL A   1      45.348  24.572  30.566  1.00  0.00     0.049 A 
ATOM     49  H   UNL A   1      45.836  24.153  28.561  1.00  0.00     0.167 HD
ATOM     50  C   UNL A   1      45.895  26.762  26.151  1.00  0.00     0.034 A 
ATOM     51  C   UNL A   1      46.154  25.554  31.136  1.00  0.00     0.034 A 
ATOM     52  C   UNL A   1      45.154  27.868  26.811  1.00  0.00     0.049 A 
ATOM     53  C   UNL A   1      45.129  26.590  31.392  1.00  0.00     0.074 A 
ATOM     54  C   UNL A   1      44.850  29.178  26.486  1.00  0.00     0.029 A 
ATOM     55  N   UNL A   1      44.423  27.646  27.980  1.00  0.00    -0.354 N 
ATOM     56  N   UNL A   1      44.557  27.096  30.358  1.00  0.00    -0.248 NA
ATOM     57  C   UNL A   1      44.745  27.175  32.658  1.00  0.00     0.031 C 
ATOM     58  C   UNL A   1      43.977  29.725  27.491  1.00  0.00     0.029 A 
ATOM     59  C   UNL A   1      43.720  28.761  28.454  1.00  0.00     0.049 A 
ATOM     60  H   UNL A   1      44.403  26.774  28.435  1.00  0.00     0.167 HD
ATOM     61  C   UNL A   1      43.738  28.094  30.761  1.00  0.00     0.074 A 
ATOM     62  C   UNL A   1      43.857  28.083  32.217  1.00  0.00     0.031 C 
ATOM     63  C   UNL A   1      43.037  28.751  29.796  1.00  0.00     0.034 A 
BRANCH  50  64
ATOM     64  C   UNL A   1      47.347  26.758  25.688  1.00  0.00     0.023 A 
ATOM     65  C   UNL A   1      47.657  27.033  24.355  1.00  0.00     0.012 A 
ATOM     66  C   UNL A   1      48.476  26.516  26.523  1.00  0.00     0.148 A 
ATOM     67  C   UNL A   1      48.971  26.891  23.868  1.00  0.00     0.002 A 
ATOM     68  C   UNL A   1      49.726  26.182  26.021  1.00  0.00     0.091 A 
ATOM     69  F   UNL A   1      48.430  26.784  27.837  1.00  0.00    -0.205 F 
ATOM     70  C   UNL A   1      49.987  26.379  24.676  1.00  0.00     0.022 A 
BRANCH  68  71
ATOM     71  S   UNL A   1      50.911  25.338  27.086  1.00  0.00     0.127 S 
ATOM     72  O   UNL A   1      50.088  24.329  27.756  1.00  0.00    -0.237 OA
ATOM     73  O   UNL A   1      51.887  24.802  26.143  1.00  0.00    -0.237 OA
ATOM     74  O   UNL A   1      51.408  26.377  27.989  1.00  0.00    -0.744 OA
ENDBRANCH  68  71
ENDBRANCH  50  64
BRANCH  51  75
ATOM     75  C   UNL A   1      47.519  26.284  30.938  1.00  0.00     0.023 A 
ATOM     76  C   UNL A   1      48.662  25.657  31.477  1.00  0.00     0.012 A 
ATOM     77  C   UNL A   1      47.690  27.683  30.613  1.00  0.00     0.148 A 
ATOM     78  C   UNL A   1      49.875  26.357  31.693  1.00  0.00     0.002 A 
ATOM     79  C   UNL A   1      48.892  28.380  30.853  1.00  0.00     0.091 A 
ATOM     80  F   UNL A   1      46.673  28.374  30.097  1.00  0.00    -0.205 F 
ATOM     81  C   UNL A   1      49.987  27.712  31.396  1.00  0.00     0.022 A 
BRANCH  79  82
ATOM     82  S   UNL A   1      49.067  30.179  30.636  1.00  0.00     0.127 S 
ATOM     83  O   UNL A   1      48.154  30.712  31.653  1.00  0.00    -0.237 OA
ATOM     84  O   UNL A   1      50.481  30.396  30.931  1.00  0.00    -0.237 OA
ATOM     85  O   UNL A   1      48.637  30.459  29.274  1.00  0.00    -0.744 OA
ENDBRANCH  79  82
ENDBRANCH  51  75
BRANCH  63  86
ATOM     86  C   UNL A   1      41.675  29.367  30.116  1.00  0.00     0.023 A 
ATOM     87  C   UNL A   1      40.449  28.706  29.838  1.00  0.00     0.012 A 
ATOM     88  C   UNL A   1      41.543  30.707  30.532  1.00  0.00     0.148 A 
ATOM     89  C   UNL A   1      39.189  29.294  29.993  1.00  0.00     0.002 A 
ATOM     90  C   UNL A   1      40.284  31.310  30.654  1.00  0.00     0.091 A 
ATOM     91  F   UNL A   1      42.638  31.434  30.768  1.00  0.00    -0.205 F 
ATOM     92  C   UNL A   1      39.106  30.607  30.396  1.00  0.00     0.022 A 
BRANCH  90  93
ATOM     93  S   UNL A   1      40.085  33.031  31.110  1.00  0.00     0.127 S 
ATOM     94  O   UNL A   1      40.562  33.018  32.494  1.00  0.00    -0.237 OA
ATOM     95  O   UNL A   1      40.984  33.714  30.177  1.00  0.00    -0.237 OA
ATOM     96  O   UNL A   1      38.678  33.328  30.898  1.00  0.00    -0.744 OA
ENDBRANCH  90  93
ENDBRANCH  63  86
ENDBRANCH  37  38
ENDBRANCH  30  32
ENDBRANCH  29  30
ENDBRANCH  28  29
ENDBRANCH  27  28
ENDBRANCH  26  27
ENDBRANCH  25  26
ENDBRANCH   1  25
TORSDOF 23
ENDMDL
MODEL 3
REMARK VINA RESULT:     -10.1      4.133      8.677
REMARK SMILES Cc1ccc(NC(=O)c2cccn2CC(=O)OCCOCCOCCOC(=O)c2ccc(-c3c4nc(c(-c5cccc(S(=O)(=O)[O-])c5F)c5ccc([nH]5)c(-c5cccc(S(=O)(=O)[O-])c5F)c5nc(c(-c6cccc(S(=O)(=O)[O-])c6F)c6ccc3[nH]6)C=C5)C=C4)cc2)cc1
REMARK SMILES IDX 21 1 20 2 19 3 18 4 17 5 15 6 16 7 14 8 13 9 9 10 10 11
REMARK SMILES IDX 11 12 12 13 7 14 6 15 8 17 5 18 1 19 2 20 3 21 93 22 4 23
REMARK SMILES IDX 92 24 22 25 23 26 24 27 25 28 26 29 27 30 28 31 29 32 30 33
REMARK SMILES IDX 91 34 31 35 90 36 32 37 33 38 34 39 84 40 35 41 89 42 83 43
REMARK SMILES IDX 85 44 36 45 88 46 82 47 81 48 37 50 69 51 49 52 68 53 50 54
REMARK SMILES IDX 53 55 67 56 86 57 51 58 52 59 66 61 87 62 54 63 38 64 39 65
REMARK SMILES IDX 47 66 40 67 42 68 48 69 41 70 43 71 44 72 45 73 46 74 70 75
REMARK SMILES IDX 71 76 79 77 72 78 74 79 80 80 73 81 75 82 76 83 77 84 78 85
REMARK SMILES IDX 55 86 56 87 64 88 57 89 59 90 65 91 58 92 60 93 61 94 62 95
REMARK SMILES IDX 63 96
REMARK H PARENT 6 16 85 49 53 60
REMARK Flexibility Score: inf
ROOT
ATOM      1  C   UNL A   1      32.615  25.883  21.696  1.00  0.00     0.188 C 
ENDROOT
BRANCH   1   2
ATOM      2  O   UNL A   1      33.566  26.935  21.649  1.00  0.00    -0.376 OA
BRANCH   2   3
ATOM      3  C   UNL A   1      33.435  27.988  22.608  1.00  0.00     0.202 C 
BRANCH   3   4
ATOM      4  C   UNL A   1      34.035  27.815  24.020  1.00  0.00     0.261 C 
BRANCH   4   5
ATOM      5  O   UNL A   1      33.399  28.648  25.018  1.00  0.00    -0.462 OA
BRANCH   5   6
ATOM      6  C   UNL A   1      33.163  28.051  26.228  1.00  0.00     0.326 C 
ATOM      7  O   UNL A   1      32.708  28.642  27.206  1.00  0.00    -0.250 OA
BRANCH   6   8
ATOM      8  C   UNL A   1      33.180  26.409  26.200  1.00  0.00     0.244 C 
BRANCH   8   9
ATOM      9  N   UNL A   1      31.921  24.809  26.555  1.00  0.00    -0.332 N 
ATOM     10  C   UNL A   1      32.034  23.235  26.806  1.00  0.00     0.107 A 
ATOM     11  C   UNL A   1      30.934  22.548  26.285  1.00  0.00     0.033 A 
ATOM     12  C   UNL A   1      29.971  23.405  25.838  1.00  0.00     0.020 A 
ATOM     13  C   UNL A   1      30.315  24.613  26.374  1.00  0.00     0.087 A 
BRANCH  10  14
ATOM     14  C   UNL A   1      32.982  22.401  27.525  1.00  0.00     0.272 C 
ATOM     15  N   UNL A   1      33.387  21.175  26.999  1.00  0.00    -0.321 N 
ATOM     16  H   UNL A   1      33.947  20.663  27.625  1.00  0.00     0.170 HD
ATOM     17  O   UNL A   1      33.278  22.649  28.696  1.00  0.00    -0.267 OA
BRANCH  15  18
ATOM     18  C   UNL A   1      33.180  20.493  25.775  1.00  0.00     0.041 A 
ATOM     19  C   UNL A   1      32.172  18.235  22.209  1.00  0.00     0.044 C 
ATOM     20  C   UNL A   1      32.566  18.985  23.444  1.00  0.00    -0.051 A 
ATOM     21  C   UNL A   1      32.867  20.341  23.357  1.00  0.00     0.005 A 
ATOM     22  C   UNL A   1      32.616  18.374  24.699  1.00  0.00     0.005 A 
ATOM     23  C   UNL A   1      33.172  21.072  24.509  1.00  0.00     0.026 A 
ATOM     24  C   UNL A   1      32.934  19.117  25.847  1.00  0.00     0.026 A 
ENDBRANCH  15  18
ENDBRANCH  10  14
ENDBRANCH   8   9
ENDBRANCH   6   8
ENDBRANCH   5   6
ENDBRANCH   4   5
ENDBRANCH   3   4
ENDBRANCH   2   3
ENDBRANCH   1   2
BRANCH   1  25
ATOM     25  C   UNL A   1      33.285  24.531  21.872  1.00  0.00     0.188 C 
BRANCH  25  26
ATOM     26  O   UNL A   1      33.592  24.296  23.243  1.00  0.00    -0.376 OA
BRANCH  26  27
ATOM     27  C   UNL A   1      34.962  24.436  23.583  1.00  0.00     0.202 C 
BRANCH  27  28
ATOM     28  C   UNL A   1      35.637  23.071  23.704  1.00  0.00     0.261 C 
BRANCH  28  29
ATOM     29  O   UNL A   1      36.919  23.266  24.334  1.00  0.00    -0.460 OA
BRANCH  29  30
ATOM     30  C   UNL A   1      36.967  23.149  25.689  1.00  0.00     0.338 C 
ATOM     31  O   UNL A   1      36.021  23.105  26.453  1.00  0.00    -0.246 OA
BRANCH  30  32
ATOM     32  C   UNL A   1      38.394  23.128  26.091  1.00  0.00     0.060 A 
ATOM     33  C   UNL A   1      39.535  21.668  25.931  1.00  0.00     0.016 A 
ATOM     34  C   UNL A   1      39.075  24.670  26.736  1.00  0.00     0.016 A 
ATOM     35  C   UNL A   1      41.347  21.839  26.245  1.00  0.00     0.010 A 
ATOM     36  C   UNL A   1      40.837  24.779  27.201  1.00  0.00     0.010 A 
ATOM     37  C   UNL A   1      42.005  23.362  26.996  1.00  0.00    -0.014 A 
BRANCH  37  38
ATOM     38  C   UNL A   1      43.368  23.578  27.822  1.00  0.00     0.031 A 
ATOM     39  C   UNL A   1      44.386  24.037  26.890  1.00  0.00     0.074 A 
ATOM     40  C   UNL A   1      44.018  23.786  29.034  1.00  0.00     0.049 A 
ATOM     41  N   UNL A   1      44.454  25.284  26.565  1.00  0.00    -0.248 NA
ATOM     42  C   UNL A   1      45.306  23.145  26.211  1.00  0.00     0.031 C 
ATOM     43  C   UNL A   1      43.455  23.834  30.375  1.00  0.00     0.029 A 
ATOM     44  N   UNL A   1      45.408  24.210  29.282  1.00  0.00    -0.354 N 
ATOM     45  C   UNL A   1      45.587  25.367  25.824  1.00  0.00     0.074 A 
ATOM     46  C   UNL A   1      45.810  24.022  25.342  1.00  0.00     0.031 C 
ATOM     47  C   UNL A   1      44.352  24.389  31.230  1.00  0.00     0.029 A 
ATOM     48  C   UNL A   1      45.624  24.765  30.551  1.00  0.00     0.049 A 
ATOM     49  H   UNL A   1      46.124  24.112  28.613  1.00  0.00     0.167 HD
ATOM     50  C   UNL A   1      46.397  26.448  25.951  1.00  0.00     0.034 A 
ATOM     51  C   UNL A   1      46.477  25.750  31.039  1.00  0.00     0.034 A 
ATOM     52  C   UNL A   1      45.714  27.659  26.474  1.00  0.00     0.049 A 
ATOM     53  C   UNL A   1      45.514  26.868  31.160  1.00  0.00     0.074 A 
ATOM     54  C   UNL A   1      45.499  28.945  26.009  1.00  0.00     0.029 A 
ATOM     55  N   UNL A   1      44.947  27.604  27.640  1.00  0.00    -0.354 N 
ATOM     56  N   UNL A   1      44.997  27.297  30.065  1.00  0.00    -0.248 NA
ATOM     57  C   UNL A   1      45.143  27.603  32.349  1.00  0.00     0.031 C 
ATOM     58  C   UNL A   1      44.642  29.644  26.929  1.00  0.00     0.029 A 
ATOM     59  C   UNL A   1      44.306  28.803  27.979  1.00  0.00     0.049 A 
ATOM     60  H   UNL A   1      44.862  26.787  28.181  1.00  0.00     0.167 HD
ATOM     61  C   UNL A   1      44.235  28.379  30.341  1.00  0.00     0.074 A 
ATOM     62  C   UNL A   1      44.323  28.513  31.793  1.00  0.00     0.031 C 
ATOM     63  C   UNL A   1      43.596  28.974  29.296  1.00  0.00     0.034 A 
BRANCH  50  64
ATOM     64  C   UNL A   1      47.854  26.307  25.530  1.00  0.00     0.023 A 
ATOM     65  C   UNL A   1      48.804  25.833  26.437  1.00  0.00     0.012 A 
ATOM     66  C   UNL A   1      48.367  26.599  24.232  1.00  0.00     0.148 A 
ATOM     67  C   UNL A   1      50.176  25.833  26.123  1.00  0.00     0.002 A 
ATOM     68  C   UNL A   1      49.719  26.790  23.983  1.00  0.00     0.091 A 
ATOM     69  F   UNL A   1      47.581  26.518  23.148  1.00  0.00    -0.205 F 
ATOM     70  C   UNL A   1      50.643  26.394  24.934  1.00  0.00     0.022 A 
BRANCH  68  71
ATOM     71  S   UNL A   1      50.227  27.706  22.515  1.00  0.00     0.127 S 
ATOM     72  O   UNL A   1      51.354  28.504  23.000  1.00  0.00    -0.237 OA
ATOM     73  O   UNL A   1      50.586  26.653  21.570  1.00  0.00    -0.237 OA
ATOM     74  O   UNL A   1      49.058  28.509  22.152  1.00  0.00    -0.744 OA
ENDBRANCH  68  71
ENDBRANCH  50  64
BRANCH  51  75
ATOM     75  C   UNL A   1      47.890  26.372  30.804  1.00  0.00     0.023 A 
ATOM     76  C   UNL A   1      48.708  25.750  29.837  1.00  0.00     0.012 A 
ATOM     77  C   UNL A   1      48.588  27.252  31.714  1.00  0.00     0.148 A 
ATOM     78  C   UNL A   1      50.106  25.967  29.781  1.00  0.00     0.002 A 
ATOM     79  C   UNL A   1      49.984  27.445  31.668  1.00  0.00     0.091 A 
ATOM     80  F   UNL A   1      47.911  27.893  32.669  1.00  0.00    -0.205 F 
ATOM     81  C   UNL A   1      50.744  26.797  30.698  1.00  0.00     0.022 A 
BRANCH  79  82
ATOM     82  S   UNL A   1      50.907  28.391  32.922  1.00  0.00     0.127 S 
ATOM     83  O   UNL A   1      50.265  29.709  32.861  1.00  0.00    -0.237 OA
ATOM     84  O   UNL A   1      50.626  27.647  34.147  1.00  0.00    -0.237 OA
ATOM     85  O   UNL A   1      52.290  28.404  32.471  1.00  0.00    -0.744 OA
ENDBRANCH  79  82
ENDBRANCH  51  75
BRANCH  63  86
ATOM     86  C   UNL A   1      42.269  29.701  29.514  1.00  0.00     0.023 A 
ATOM     87  C   UNL A   1      42.195  31.034  29.999  1.00  0.00     0.012 A 
ATOM     88  C   UNL A   1      41.031  29.033  29.428  1.00  0.00     0.148 A 
ATOM     89  C   UNL A   1      41.001  31.680  30.336  1.00  0.00     0.002 A 
ATOM     90  C   UNL A   1      39.837  29.666  29.798  1.00  0.00     0.091 A 
ATOM     91  F   UNL A   1      40.997  27.759  29.033  1.00  0.00    -0.205 F 
ATOM     92  C   UNL A   1      39.815  30.989  30.242  1.00  0.00     0.022 A 
BRANCH  90  93
ATOM     93  S   UNL A   1      38.256  28.823  29.769  1.00  0.00     0.127 S 
ATOM     94  O   UNL A   1      37.360  29.876  30.246  1.00  0.00    -0.237 OA
ATOM     95  O   UNL A   1      38.093  28.500  28.350  1.00  0.00    -0.237 OA
ATOM     96  O   UNL A   1      38.422  27.658  30.623  1.00  0.00    -0.744 OA
ENDBRANCH  90  93
ENDBRANCH  63  86
ENDBRANCH  37  38
ENDBRANCH  30  32
ENDBRANCH  29  30
ENDBRANCH  28  29
ENDBRANCH  27  28
ENDBRANCH  26  27
ENDBRANCH  25  26
ENDBRANCH   1  25
TORSDOF 23
ENDMDL
