MODEL 1
REMARK VINA RESULT:     -10.5      0.000      0.000
REMARK SMILES CS(=O)(=O)c1ccc(/C=C(/C(=O)OCCOCCOCCOC(=O)c2ccc(-c3c4nc(c(-c5cccc(S(=O)(=O)[O-])c5F)c5ccc([nH]5)c(-c5cccc(S(=O)(=O)[O-])c5F)c5nc(c(-c6cccc(S(=O)(=O)[O-])c6F)c6ccc3[nH]6)C=C5)C=C4)cc2)c2ccc(O)cc2)cc1
REMARK SMILES IDX 18 1 17 2 16 3 15 4 14 5 13 6 11 7 12 8 10 9 9 10 8 11 5 12
REMARK SMILES IDX 6 13 96 14 7 15 95 16 2 17 1 18 3 19 4 20 88 21 89 22 94 23
REMARK SMILES IDX 90 24 93 25 91 26 92 27 19 29 20 30 21 31 22 32 23 33 24 34
REMARK SMILES IDX 25 35 26 36 87 37 27 38 86 39 28 40 29 41 30 42 80 43 31 44
REMARK SMILES IDX 85 45 79 46 81 47 32 48 84 49 78 50 77 51 33 53 65 54 45 55
REMARK SMILES IDX 64 56 46 57 49 58 63 59 82 60 47 61 48 62 62 64 83 65 50 66
REMARK SMILES IDX 34 67 35 68 43 69 36 70 38 71 44 72 37 73 39 74 40 75 41 76
REMARK SMILES IDX 42 77 66 78 67 79 75 80 68 81 70 82 76 83 69 84 71 85 72 86
REMARK SMILES IDX 73 87 74 88 51 89 52 90 60 91 53 92 55 93 61 94 54 95 56 96
REMARK SMILES IDX 57 97 58 98 59 99
REMARK H PARENT 92 28 81 52 49 63
REMARK Flexibility Score: inf
ROOT
ATOM      1  C   UNL A   1      36.916  22.165  24.422  1.00  0.00     0.188 C 
ENDROOT
BRANCH   1   2
ATOM      2  C   UNL A   1      36.356  22.824  23.144  1.00  0.00     0.188 C 
BRANCH   2   3
ATOM      3  O   UNL A   1      35.250  23.680  23.387  1.00  0.00    -0.376 OA
BRANCH   3   4
ATOM      4  C   UNL A   1      33.982  23.045  23.440  1.00  0.00     0.202 C 
BRANCH   4   5
ATOM      5  C   UNL A   1      33.559  22.570  24.837  1.00  0.00     0.261 C 
BRANCH   5   6
ATOM      6  O   UNL A   1      33.541  23.593  25.848  1.00  0.00    -0.460 OA
BRANCH   6   7
ATOM      7  C   UNL A   1      32.337  23.957  26.355  1.00  0.00     0.338 C 
ATOM      8  O   UNL A   1      31.734  23.357  27.229  1.00  0.00    -0.246 OA
BRANCH   7   9
ATOM      9  C   UNL A   1      31.872  25.250  25.739  1.00  0.00     0.067 C 
ATOM     10  C   UNL A   1      31.111  25.211  24.616  1.00  0.00     0.024 C 
BRANCH  10  11
ATOM     11  C   UNL A   1      30.425  26.324  23.913  1.00  0.00    -0.025 A 
ATOM     12  C   UNL A   1      28.990  28.550  22.980  1.00  0.00     0.067 A 
ATOM     13  C   UNL A   1      30.377  28.516  22.846  1.00  0.00     0.021 A 
ATOM     14  C   UNL A   1      28.301  27.435  23.453  1.00  0.00     0.021 A 
ATOM     15  C   UNL A   1      31.082  27.392  23.285  1.00  0.00     0.009 A 
ATOM     16  C   UNL A   1      29.020  26.330  23.919  1.00  0.00     0.009 A 
BRANCH  12  17
ATOM     17  S   UNL A   1      28.113  30.044  22.592  1.00  0.00     0.175 S 
ATOM     18  C   UNL A   1      29.262  31.316  23.065  1.00  0.00     0.163 C 
ATOM     19  O   UNL A   1      26.970  30.133  23.484  1.00  0.00    -0.224 OA
ATOM     20  O   UNL A   1      27.939  30.092  21.155  1.00  0.00    -0.224 OA
ENDBRANCH  12  17
ENDBRANCH  10  11
BRANCH   9  21
ATOM     21  C   UNL A   1      32.258  26.516  26.394  1.00  0.00    -0.011 A 
ATOM     22  C   UNL A   1      33.506  27.088  26.096  1.00  0.00     0.013 A 
ATOM     23  C   UNL A   1      31.352  27.236  27.188  1.00  0.00     0.013 A 
ATOM     24  C   UNL A   1      33.819  28.374  26.535  1.00  0.00     0.047 A 
ATOM     25  C   UNL A   1      31.665  28.528  27.622  1.00  0.00     0.047 A 
ATOM     26  C   UNL A   1      32.890  29.090  27.276  1.00  0.00     0.115 A 
BRANCH  26  27
ATOM     27  O   UNL A   1      33.216  30.367  27.618  1.00  0.00    -0.508 OA
ATOM     28  H   UNL A   1      33.171  31.049  26.978  1.00  0.00     0.293 HD
ENDBRANCH  26  27
ENDBRANCH   9  21
ENDBRANCH   7   9
ENDBRANCH   6   7
ENDBRANCH   5   6
ENDBRANCH   4   5
ENDBRANCH   3   4
ENDBRANCH   2   3
ENDBRANCH   1   2
BRANCH   1  29
ATOM     29  O   UNL A   1      36.843  20.756  24.607  1.00  0.00    -0.376 OA
BRANCH  29  30
ATOM     30  C   UNL A   1      37.998  20.049  25.027  1.00  0.00     0.202 C 
BRANCH  30  31
ATOM     31  C   UNL A   1      39.126  20.822  25.724  1.00  0.00     0.261 C 
BRANCH  31  32
ATOM     32  O   UNL A   1      40.036  20.022  26.494  1.00  0.00    -0.460 OA
BRANCH  32  33
ATOM     33  C   UNL A   1      41.325  20.043  26.072  1.00  0.00     0.338 C 
ATOM     34  O   UNL A   1      41.895  19.193  25.409  1.00  0.00    -0.246 OA
BRANCH  33  35
ATOM     35  C   UNL A   1      41.930  21.356  26.382  1.00  0.00     0.060 A 
ATOM     36  C   UNL A   1      42.143  21.685  27.728  1.00  0.00     0.016 A 
ATOM     37  C   UNL A   1      42.234  22.275  25.375  1.00  0.00     0.016 A 
ATOM     38  C   UNL A   1      42.642  22.940  28.074  1.00  0.00     0.010 A 
ATOM     39  C   UNL A   1      42.709  23.544  25.726  1.00  0.00     0.010 A 
ATOM     40  C   UNL A   1      42.891  23.891  27.077  1.00  0.00    -0.014 A 
BRANCH  40  41
ATOM     41  C   UNL A   1      43.176  25.296  27.455  1.00  0.00     0.031 A 
ATOM     42  C   UNL A   1      44.582  25.810  27.315  1.00  0.00     0.074 A 
ATOM     43  C   UNL A   1      42.208  26.101  27.928  1.00  0.00     0.049 A 
ATOM     44  N   UNL A   1      45.067  26.987  27.607  1.00  0.00    -0.248 NA
ATOM     45  C   UNL A   1      45.574  24.866  26.774  1.00  0.00     0.031 C 
ATOM     46  C   UNL A   1      40.808  25.725  28.105  1.00  0.00     0.029 A 
ATOM     47  N   UNL A   1      42.268  27.402  28.365  1.00  0.00    -0.354 N 
ATOM     48  C   UNL A   1      46.423  26.922  27.311  1.00  0.00     0.074 A 
ATOM     49  C   UNL A   1      46.685  25.587  26.816  1.00  0.00     0.031 C 
ATOM     50  C   UNL A   1      40.141  26.767  28.634  1.00  0.00     0.029 A 
ATOM     51  C   UNL A   1      41.074  27.870  28.862  1.00  0.00     0.049 A 
ATOM     52  H   UNL A   1      43.087  27.946  28.327  1.00  0.00     0.167 HD
ATOM     53  C   UNL A   1      47.365  27.886  27.430  1.00  0.00     0.034 A 
ATOM     54  C   UNL A   1      40.778  29.044  29.455  1.00  0.00     0.034 A 
ATOM     55  C   UNL A   1      47.110  29.212  27.923  1.00  0.00     0.049 A 
ATOM     56  C   UNL A   1      41.856  30.088  29.614  1.00  0.00     0.074 A 
ATOM     57  C   UNL A   1      47.996  30.267  28.052  1.00  0.00     0.029 A 
ATOM     58  N   UNL A   1      45.883  29.661  28.387  1.00  0.00    -0.354 N 
ATOM     59  N   UNL A   1      43.104  30.056  29.216  1.00  0.00    -0.248 NA
ATOM     60  C   UNL A   1      41.476  31.342  30.283  1.00  0.00     0.031 C 
ATOM     61  C   UNL A   1      47.311  31.344  28.623  1.00  0.00     0.029 A 
ATOM     62  C   UNL A   1      45.991  30.971  28.819  1.00  0.00     0.049 A 
ATOM     63  H   UNL A   1      45.057  29.126  28.407  1.00  0.00     0.167 HD
ATOM     64  C   UNL A   1      43.647  31.292  29.551  1.00  0.00     0.074 A 
ATOM     65  C   UNL A   1      42.586  32.059  30.169  1.00  0.00     0.031 C 
ATOM     66  C   UNL A   1      44.914  31.746  29.378  1.00  0.00     0.034 A 
BRANCH  53  67
ATOM     67  C   UNL A   1      48.767  27.540  27.008  1.00  0.00     0.023 A 
ATOM     68  C   UNL A   1      49.673  27.024  27.956  1.00  0.00     0.012 A 
ATOM     69  C   UNL A   1      49.175  27.687  25.668  1.00  0.00     0.148 A 
ATOM     70  C   UNL A   1      50.974  26.686  27.584  1.00  0.00     0.002 A 
ATOM     71  C   UNL A   1      50.460  27.309  25.296  1.00  0.00     0.091 A 
ATOM     72  F   UNL A   1      48.307  28.203  24.788  1.00  0.00    -0.205 F 
ATOM     73  C   UNL A   1      51.363  26.820  26.254  1.00  0.00     0.022 A 
BRANCH  71  74
ATOM     74  S   UNL A   1      51.031  27.375  23.594  1.00  0.00     0.127 S 
ATOM     75  O   UNL A   1      52.325  26.701  23.691  1.00  0.00    -0.237 OA
ATOM     76  O   UNL A   1      49.997  26.613  22.893  1.00  0.00    -0.237 OA
ATOM     77  O   UNL A   1      51.086  28.788  23.245  1.00  0.00    -0.744 OA
ENDBRANCH  71  74
ENDBRANCH  53  67
BRANCH  54  78
ATOM     78  C   UNL A   1      39.390  29.314  29.929  1.00  0.00     0.023 A 
ATOM     79  C   UNL A   1      38.928  28.700  31.109  1.00  0.00     0.012 A 
ATOM     80  C   UNL A   1      38.527  30.169  29.217  1.00  0.00     0.148 A 
ATOM     81  C   UNL A   1      37.622  28.907  31.555  1.00  0.00     0.002 A 
ATOM     82  C   UNL A   1      37.244  30.413  29.695  1.00  0.00     0.091 A 
ATOM     83  F   UNL A   1      38.976  30.727  28.084  1.00  0.00    -0.205 F 
ATOM     84  C   UNL A   1      36.784  29.769  30.854  1.00  0.00     0.022 A 
BRANCH  82  85
ATOM     85  S   UNL A   1      36.136  31.598  28.923  1.00  0.00     0.127 S 
ATOM     86  O   UNL A   1      35.857  30.955  27.642  1.00  0.00    -0.237 OA
ATOM     87  O   UNL A   1      35.012  31.614  29.862  1.00  0.00    -0.237 OA
ATOM     88  O   UNL A   1      36.881  32.847  28.857  1.00  0.00    -0.744 OA
ENDBRANCH  82  85
ENDBRANCH  54  78
BRANCH  66  89
ATOM     89  C   UNL A   1      45.228  33.153  29.821  1.00  0.00     0.023 A 
ATOM     90  C   UNL A   1      45.739  33.385  31.114  1.00  0.00     0.012 A 
ATOM     91  C   UNL A   1      45.104  34.234  28.925  1.00  0.00     0.148 A 
ATOM     92  C   UNL A   1      46.095  34.672  31.516  1.00  0.00     0.002 A 
ATOM     93  C   UNL A   1      45.506  35.506  29.316  1.00  0.00     0.091 A 
ATOM     94  F   UNL A   1      44.600  33.997  27.705  1.00  0.00    -0.205 F 
ATOM     95  C   UNL A   1      45.991  35.728  30.615  1.00  0.00     0.022 A 
BRANCH  93  96
ATOM     96  S   UNL A   1      45.499  36.908  28.191  1.00  0.00     0.127 S 
ATOM     97  O   UNL A   1      45.703  38.026  29.109  1.00  0.00    -0.237 OA
ATOM     98  O   UNL A   1      46.640  36.615  27.323  1.00  0.00    -0.237 OA
ATOM     99  O   UNL A   1      44.206  36.878  27.520  1.00  0.00    -0.744 OA
ENDBRANCH  93  96
ENDBRANCH  66  89
ENDBRANCH  40  41
ENDBRANCH  33  35
ENDBRANCH  32  33
ENDBRANCH  31  32
ENDBRANCH  30  31
ENDBRANCH  29  30
ENDBRANCH   1  29
TORSDOF 24
ENDMDL
MODEL 2
REMARK VINA RESULT:     -10.5      1.897      7.580
REMARK SMILES CS(=O)(=O)c1ccc(/C=C(/C(=O)OCCOCCOCCOC(=O)c2ccc(-c3c4nc(c(-c5cccc(S(=O)(=O)[O-])c5F)c5ccc([nH]5)c(-c5cccc(S(=O)(=O)[O-])c5F)c5nc(c(-c6cccc(S(=O)(=O)[O-])c6F)c6ccc3[nH]6)C=C5)C=C4)cc2)c2ccc(O)cc2)cc1
REMARK SMILES IDX 18 1 17 2 16 3 15 4 14 5 13 6 11 7 12 8 10 9 9 10 8 11 5 12
REMARK SMILES IDX 6 13 96 14 7 15 95 16 2 17 1 18 3 19 4 20 88 21 89 22 94 23
REMARK SMILES IDX 90 24 93 25 91 26 92 27 19 29 20 30 21 31 22 32 23 33 24 34
REMARK SMILES IDX 25 35 26 36 87 37 27 38 86 39 28 40 29 41 30 42 80 43 31 44
REMARK SMILES IDX 85 45 79 46 81 47 32 48 84 49 78 50 77 51 33 53 65 54 45 55
REMARK SMILES IDX 64 56 46 57 49 58 63 59 82 60 47 61 48 62 62 64 83 65 50 66
REMARK SMILES IDX 34 67 35 68 43 69 36 70 38 71 44 72 37 73 39 74 40 75 41 76
REMARK SMILES IDX 42 77 66 78 67 79 75 80 68 81 70 82 76 83 69 84 71 85 72 86
REMARK SMILES IDX 73 87 74 88 51 89 52 90 60 91 53 92 55 93 61 94 54 95 56 96
REMARK SMILES IDX 57 97 58 98 59 99
REMARK H PARENT 92 28 81 52 49 63
REMARK Flexibility Score: inf
ROOT
ATOM      1  C   UNL A   1      36.256  21.375  25.485  1.00  0.00     0.188 C 
ENDROOT
BRANCH   1   2
ATOM      2  C   UNL A   1      34.828  21.274  26.061  1.00  0.00     0.188 C 
BRANCH   2   3
ATOM      3  O   UNL A   1      34.653  21.994  27.271  1.00  0.00    -0.376 OA
BRANCH   3   4
ATOM      4  C   UNL A   1      33.319  22.073  27.751  1.00  0.00     0.202 C 
BRANCH   4   5
ATOM      5  C   UNL A   1      32.348  22.825  26.832  1.00  0.00     0.261 C 
BRANCH   5   6
ATOM      6  O   UNL A   1      32.825  24.095  26.352  1.00  0.00    -0.460 OA
BRANCH   6   7
ATOM      7  C   UNL A   1      32.738  24.338  25.020  1.00  0.00     0.338 C 
ATOM      8  O   UNL A   1      33.017  23.539  24.142  1.00  0.00    -0.246 OA
BRANCH   7   9
ATOM      9  C   UNL A   1      32.179  25.714  24.769  1.00  0.00     0.067 C 
ATOM     10  C   UNL A   1      31.410  25.923  23.670  1.00  0.00     0.024 C 
BRANCH  10  11
ATOM     11  C   UNL A   1      30.642  27.133  23.285  1.00  0.00    -0.025 A 
ATOM     12  C   UNL A   1      29.128  29.478  22.984  1.00  0.00     0.067 A 
ATOM     13  C   UNL A   1      30.467  29.467  22.598  1.00  0.00     0.021 A 
ATOM     14  C   UNL A   1      28.503  28.303  23.395  1.00  0.00     0.021 A 
ATOM     15  C   UNL A   1      31.207  28.287  22.722  1.00  0.00     0.009 A 
ATOM     16  C   UNL A   1      29.262  27.138  23.545  1.00  0.00     0.009 A 
BRANCH  12  17
ATOM     17  S   UNL A   1      28.238  31.015  22.997  1.00  0.00     0.175 S 
ATOM     18  C   UNL A   1      27.973  31.338  21.270  1.00  0.00     0.163 C 
ATOM     19  O   UNL A   1      29.134  32.042  23.502  1.00  0.00    -0.224 OA
ATOM     20  O   UNL A   1      26.955  30.776  23.624  1.00  0.00    -0.224 OA
ENDBRANCH  12  17
ENDBRANCH  10  11
BRANCH   9  21
ATOM     21  C   UNL A   1      32.485  26.783  25.740  1.00  0.00    -0.011 A 
ATOM     22  C   UNL A   1      33.753  27.388  25.716  1.00  0.00     0.013 A 
ATOM     23  C   UNL A   1      31.496  27.310  26.585  1.00  0.00     0.013 A 
ATOM     24  C   UNL A   1      34.007  28.529  26.477  1.00  0.00     0.047 A 
ATOM     25  C   UNL A   1      31.752  28.457  27.343  1.00  0.00     0.047 A 
ATOM     26  C   UNL A   1      33.001  29.065  27.266  1.00  0.00     0.115 A 
BRANCH  26  27
ATOM     27  O   UNL A   1      33.279  30.219  27.932  1.00  0.00    -0.508 OA
ATOM     28  H   UNL A   1      32.741  30.975  27.803  1.00  0.00     0.293 HD
ENDBRANCH  26  27
ENDBRANCH   9  21
ENDBRANCH   7   9
ENDBRANCH   6   7
ENDBRANCH   5   6
ENDBRANCH   4   5
ENDBRANCH   3   4
ENDBRANCH   2   3
ENDBRANCH   1   2
BRANCH   1  29
ATOM     29  O   UNL A   1      36.841  20.279  24.791  1.00  0.00    -0.376 OA
BRANCH  29  30
ATOM     30  C   UNL A   1      38.203  19.957  25.022  1.00  0.00     0.202 C 
BRANCH  30  31
ATOM     31  C   UNL A   1      39.068  20.935  25.828  1.00  0.00     0.261 C 
BRANCH  31  32
ATOM     32  O   UNL A   1      39.945  20.331  26.791  1.00  0.00    -0.460 OA
BRANCH  32  33
ATOM     33  C   UNL A   1      41.218  20.126  26.367  1.00  0.00     0.338 C 
ATOM     34  O   UNL A   1      41.643  19.161  25.757  1.00  0.00    -0.246 OA
BRANCH  33  35
ATOM     35  C   UNL A   1      42.021  21.348  26.594  1.00  0.00     0.060 A 
ATOM     36  C   UNL A   1      42.365  21.677  27.913  1.00  0.00     0.016 A 
ATOM     37  C   UNL A   1      42.386  22.187  25.540  1.00  0.00     0.016 A 
ATOM     38  C   UNL A   1      43.058  22.856  28.185  1.00  0.00     0.010 A 
ATOM     39  C   UNL A   1      43.057  23.384  25.818  1.00  0.00     0.010 A 
ATOM     40  C   UNL A   1      43.373  23.735  27.142  1.00  0.00    -0.014 A 
BRANCH  40  41
ATOM     41  C   UNL A   1      43.877  25.095  27.454  1.00  0.00     0.031 A 
ATOM     42  C   UNL A   1      42.901  26.134  27.930  1.00  0.00     0.074 A 
ATOM     43  C   UNL A   1      45.177  25.407  27.305  1.00  0.00     0.049 A 
ATOM     44  N   UNL A   1      43.108  27.388  28.235  1.00  0.00    -0.248 NA
ATOM     45  C   UNL A   1      41.502  25.700  28.080  1.00  0.00     0.031 C 
ATOM     46  C   UNL A   1      46.221  24.490  26.859  1.00  0.00     0.029 A 
ATOM     47  N   UNL A   1      45.832  26.599  27.498  1.00  0.00    -0.354 N 
ATOM     48  C   UNL A   1      41.867  27.901  28.588  1.00  0.00     0.074 A 
ATOM     49  C   UNL A   1      40.910  26.823  28.459  1.00  0.00     0.031 C 
ATOM     50  C   UNL A   1      47.387  25.158  26.791  1.00  0.00     0.029 A 
ATOM     51  C   UNL A   1      47.164  26.555  27.159  1.00  0.00     0.049 A 
ATOM     52  H   UNL A   1      45.390  27.408  27.846  1.00  0.00     0.167 HD
ATOM     53  C   UNL A   1      41.550  29.154  28.992  1.00  0.00     0.034 A 
ATOM     54  C   UNL A   1      48.088  27.537  27.125  1.00  0.00     0.034 A 
ATOM     55  C   UNL A   1      42.497  30.228  29.119  1.00  0.00     0.049 A 
ATOM     56  C   UNL A   1      47.700  28.934  27.542  1.00  0.00     0.074 A 
ATOM     57  C   UNL A   1      42.275  31.524  29.550  1.00  0.00     0.029 A 
ATOM     58  N   UNL A   1      43.843  30.138  28.798  1.00  0.00    -0.354 N 
ATOM     59  N   UNL A   1      46.550  29.375  27.991  1.00  0.00    -0.248 NA
ATOM     60  C   UNL A   1      48.747  29.966  27.469  1.00  0.00     0.031 C 
ATOM     61  C   UNL A   1      43.481  32.226  29.460  1.00  0.00     0.029 A 
ATOM     62  C   UNL A   1      44.461  31.359  29.004  1.00  0.00     0.049 A 
ATOM     63  H   UNL A   1      44.292  29.326  28.470  1.00  0.00     0.167 HD
ATOM     64  C   UNL A   1      46.744  30.721  28.289  1.00  0.00     0.074 A 
ATOM     65  C   UNL A   1      48.128  31.020  27.986  1.00  0.00     0.031 C 
ATOM     66  C   UNL A   1      45.853  31.631  28.755  1.00  0.00     0.034 A 
BRANCH  53  67
ATOM     67  C   UNL A   1      40.112  29.428  29.338  1.00  0.00     0.023 A 
ATOM     68  C   UNL A   1      39.188  29.698  28.309  1.00  0.00     0.012 A 
ATOM     69  C   UNL A   1      39.667  29.376  30.673  1.00  0.00     0.148 A 
ATOM     70  C   UNL A   1      37.847  29.943  28.606  1.00  0.00     0.002 A 
ATOM     71  C   UNL A   1      38.322  29.580  30.957  1.00  0.00     0.091 A 
ATOM     72  F   UNL A   1      40.567  29.142  31.638  1.00  0.00    -0.205 F 
ATOM     73  C   UNL A   1      37.414  29.874  29.927  1.00  0.00     0.022 A 
BRANCH  71  74
ATOM     74  S   UNL A   1      37.654  29.440  32.619  1.00  0.00     0.127 S 
ATOM     75  O   UNL A   1      36.306  29.979  32.441  1.00  0.00    -0.237 OA
ATOM     76  O   UNL A   1      37.708  27.997  32.852  1.00  0.00    -0.237 OA
ATOM     77  O   UNL A   1      38.535  30.226  33.472  1.00  0.00    -0.744 OA
ENDBRANCH  71  74
ENDBRANCH  53  67
BRANCH  54  78
ATOM     78  C   UNL A   1      49.485  27.236  26.702  1.00  0.00     0.023 A 
ATOM     79  C   UNL A   1      49.760  26.992  25.342  1.00  0.00     0.012 A 
ATOM     80  C   UNL A   1      50.538  27.184  27.635  1.00  0.00     0.148 A 
ATOM     81  C   UNL A   1      51.053  26.672  24.924  1.00  0.00     0.002 A 
ATOM     82  C   UNL A   1      51.833  26.917  27.204  1.00  0.00     0.091 A 
ATOM     83  F   UNL A   1      50.254  27.397  28.928  1.00  0.00    -0.205 F 
ATOM     84  C   UNL A   1      52.090  26.644  25.853  1.00  0.00     0.022 A 
BRANCH  82  85
ATOM     85  S   UNL A   1      53.248  26.975  28.310  1.00  0.00     0.127 S 
ATOM     86  O   UNL A   1      53.353  28.404  28.588  1.00  0.00    -0.237 OA
ATOM     87  O   UNL A   1      52.785  26.160  29.434  1.00  0.00    -0.237 OA
ATOM     88  O   UNL A   1      54.355  26.393  27.562  1.00  0.00    -0.744 OA
ENDBRANCH  82  85
ENDBRANCH  54  78
BRANCH  66  89
ATOM     89  C   UNL A   1      46.343  33.034  29.013  1.00  0.00     0.023 A 
ATOM     90  C   UNL A   1      46.791  33.396  30.299  1.00  0.00     0.012 A 
ATOM     91  C   UNL A   1      46.448  33.964  27.959  1.00  0.00     0.148 A 
ATOM     92  C   UNL A   1      47.308  34.669  30.538  1.00  0.00     0.002 A 
ATOM     93  C   UNL A   1      47.008  35.214  28.193  1.00  0.00     0.091 A 
ATOM     94  F   UNL A   1      46.002  33.607  26.745  1.00  0.00    -0.205 F 
ATOM     95  C   UNL A   1      47.428  35.573  29.484  1.00  0.00     0.022 A 
BRANCH  93  96
ATOM     96  S   UNL A   1      47.293  36.405  26.878  1.00  0.00     0.127 S 
ATOM     97  O   UNL A   1      48.106  35.629  25.944  1.00  0.00    -0.237 OA
ATOM     98  O   UNL A   1      45.933  36.686  26.414  1.00  0.00    -0.237 OA
ATOM     99  O   UNL A   1      47.964  37.539  27.500  1.00  0.00    -0.744 OA
ENDBRANCH  93  96
ENDBRANCH  66  89
ENDBRANCH  40  41
ENDBRANCH  33  35
ENDBRANCH  32  33
ENDBRANCH  31  32
ENDBRANCH  30  31
ENDBRANCH  29  30
ENDBRANCH   1  29
TORSDOF 24
ENDMDL
MODEL 3
REMARK VINA RESULT:     -10.4      2.171      3.090
REMARK SMILES CS(=O)(=O)c1ccc(/C=C(/C(=O)OCCOCCOCCOC(=O)c2ccc(-c3c4nc(c(-c5cccc(S(=O)(=O)[O-])c5F)c5ccc([nH]5)c(-c5cccc(S(=O)(=O)[O-])c5F)c5nc(c(-c6cccc(S(=O)(=O)[O-])c6F)c6ccc3[nH]6)C=C5)C=C4)cc2)c2ccc(O)cc2)cc1
REMARK SMILES IDX 18 1 17 2 16 3 15 4 14 5 13 6 11 7 12 8 10 9 9 10 8 11 5 12
REMARK SMILES IDX 6 13 96 14 7 15 95 16 2 17 1 18 3 19 4 20 88 21 89 22 94 23
REMARK SMILES IDX 90 24 93 25 91 26 92 27 19 29 20 30 21 31 22 32 23 33 24 34
REMARK SMILES IDX 25 35 26 36 87 37 27 38 86 39 28 40 29 41 30 42 80 43 31 44
REMARK SMILES IDX 85 45 79 46 81 47 32 48 84 49 78 50 77 51 33 53 65 54 45 55
REMARK SMILES IDX 64 56 46 57 49 58 63 59 82 60 47 61 48 62 62 64 83 65 50 66
REMARK SMILES IDX 34 67 35 68 43 69 36 70 38 71 44 72 37 73 39 74 40 75 41 76
REMARK SMILES IDX 42 77 66 78 67 79 75 80 68 81 70 82 76 83 69 84 71 85 72 86
REMARK SMILES IDX 73 87 74 88 51 89 52 90 60 91 53 92 55 93 61 94 54 95 56 96
REMARK SMILES IDX 57 97 58 98 59 99
REMARK H PARENT 92 28 81 52 49 63
REMARK Flexibility Score: inf
ROOT
ATOM      1  C   UNL A   1      36.144  21.931  26.106  1.00  0.00     0.188 C 
ENDROOT
BRANCH   1   2
ATOM      2  C   UNL A   1      34.741  21.469  26.551  1.00  0.00     0.188 C 
BRANCH   2   3
ATOM      3  O   UNL A   1      34.306  22.066  27.763  1.00  0.00    -0.376 OA
BRANCH   3   4
ATOM      4  C   UNL A   1      32.899  22.157  27.933  1.00  0.00     0.202 C 
BRANCH   4   5
ATOM      5  C   UNL A   1      32.160  22.876  26.797  1.00  0.00     0.261 C 
BRANCH   5   6
ATOM      6  O   UNL A   1      32.770  24.101  26.354  1.00  0.00    -0.460 OA
BRANCH   6   7
ATOM      7  C   UNL A   1      32.763  24.363  25.023  1.00  0.00     0.338 C 
ATOM      8  O   UNL A   1      33.109  23.581  24.153  1.00  0.00    -0.246 OA
BRANCH   7   9
ATOM      9  C   UNL A   1      32.201  25.733  24.756  1.00  0.00     0.067 C 
ATOM     10  C   UNL A   1      31.437  25.930  23.650  1.00  0.00     0.024 C 
BRANCH  10  11
ATOM     11  C   UNL A   1      30.667  27.133  23.250  1.00  0.00    -0.025 A 
ATOM     12  C   UNL A   1      29.156  29.477  22.919  1.00  0.00     0.067 A 
ATOM     13  C   UNL A   1      30.488  29.451  22.511  1.00  0.00     0.021 A 
ATOM     14  C   UNL A   1      28.534  28.314  23.369  1.00  0.00     0.021 A 
ATOM     15  C   UNL A   1      31.226  28.271  22.650  1.00  0.00     0.009 A 
ATOM     16  C   UNL A   1      29.291  27.150  23.533  1.00  0.00     0.009 A 
BRANCH  12  17
ATOM     17  S   UNL A   1      28.273  31.017  22.911  1.00  0.00     0.175 S 
ATOM     18  C   UNL A   1      28.094  31.366  21.177  1.00  0.00     0.163 C 
ATOM     19  O   UNL A   1      29.147  32.033  23.474  1.00  0.00    -0.224 OA
ATOM     20  O   UNL A   1      26.959  30.775  23.470  1.00  0.00    -0.224 OA
ENDBRANCH  12  17
ENDBRANCH  10  11
BRANCH   9  21
ATOM     21  C   UNL A   1      32.497  26.813  25.719  1.00  0.00    -0.011 A 
ATOM     22  C   UNL A   1      33.736  27.471  25.651  1.00  0.00     0.013 A 
ATOM     23  C   UNL A   1      31.518  27.296  26.601  1.00  0.00     0.013 A 
ATOM     24  C   UNL A   1      33.970  28.620  26.406  1.00  0.00     0.047 A 
ATOM     25  C   UNL A   1      31.753  28.452  27.353  1.00  0.00     0.047 A 
ATOM     26  C   UNL A   1      32.972  29.111  27.234  1.00  0.00     0.115 A 
BRANCH  26  27
ATOM     27  O   UNL A   1      33.226  30.274  27.893  1.00  0.00    -0.508 OA
ATOM     28  H   UNL A   1      34.105  30.499  28.125  1.00  0.00     0.293 HD
ENDBRANCH  26  27
ENDBRANCH   9  21
ENDBRANCH   7   9
ENDBRANCH   6   7
ENDBRANCH   5   6
ENDBRANCH   4   5
ENDBRANCH   3   4
ENDBRANCH   2   3
ENDBRANCH   1   2
BRANCH   1  29
ATOM     29  O   UNL A   1      36.894  21.176  25.162  1.00  0.00    -0.376 OA
BRANCH  29  30
ATOM     30  C   UNL A   1      38.311  21.209  25.213  1.00  0.00     0.202 C 
BRANCH  30  31
ATOM     31  C   UNL A   1      38.994  22.198  26.168  1.00  0.00     0.261 C 
BRANCH  31  32
ATOM     32  O   UNL A   1      40.288  21.800  26.645  1.00  0.00    -0.460 OA
BRANCH  32  33
ATOM     33  C   UNL A   1      41.324  22.562  26.214  1.00  0.00     0.338 C 
ATOM     34  O   UNL A   1      42.122  22.288  25.334  1.00  0.00    -0.246 OA
BRANCH  33  35
ATOM     35  C   UNL A   1      41.260  23.896  26.851  1.00  0.00     0.060 A 
ATOM     36  C   UNL A   1      41.208  25.024  26.019  1.00  0.00     0.016 A 
ATOM     37  C   UNL A   1      41.305  24.045  28.238  1.00  0.00     0.016 A 
ATOM     38  C   UNL A   1      41.220  26.304  26.570  1.00  0.00     0.010 A 
ATOM     39  C   UNL A   1      41.346  25.331  28.789  1.00  0.00     0.010 A 
ATOM     40  C   UNL A   1      41.329  26.465  27.957  1.00  0.00    -0.014 A 
BRANCH  40  41
ATOM     41  C   UNL A   1      41.597  27.810  28.522  1.00  0.00     0.031 A 
ATOM     42  C   UNL A   1      43.024  28.234  28.729  1.00  0.00     0.074 A 
ATOM     43  C   UNL A   1      40.591  28.637  28.859  1.00  0.00     0.049 A 
ATOM     44  N   UNL A   1      43.494  29.345  29.230  1.00  0.00    -0.248 NA
ATOM     45  C   UNL A   1      44.060  27.272  28.317  1.00  0.00     0.031 C 
ATOM     46  C   UNL A   1      39.169  28.347  28.703  1.00  0.00     0.029 A 
ATOM     47  N   UNL A   1      40.622  29.889  29.425  1.00  0.00    -0.354 N 
ATOM     48  C   UNL A   1      44.877  29.210  29.218  1.00  0.00     0.074 A 
ATOM     49  C   UNL A   1      45.171  27.907  28.661  1.00  0.00     0.031 C 
ATOM     50  C   UNL A   1      38.458  29.384  29.181  1.00  0.00     0.029 A 
ATOM     51  C   UNL A   1      39.375  30.396  29.706  1.00  0.00     0.049 A 
ATOM     52  H   UNL A   1      41.457  30.376  29.612  1.00  0.00     0.167 HD
ATOM     53  C   UNL A   1      45.819  30.092  29.625  1.00  0.00     0.034 A 
ATOM     54  C   UNL A   1      39.018  31.533  30.336  1.00  0.00     0.034 A 
ATOM     55  C   UNL A   1      45.531  31.386  30.182  1.00  0.00     0.049 A 
ATOM     56  C   UNL A   1      40.088  32.481  30.817  1.00  0.00     0.074 A 
ATOM     57  C   UNL A   1      46.421  32.361  30.596  1.00  0.00     0.029 A 
ATOM     58  N   UNL A   1      44.258  31.879  30.421  1.00  0.00    -0.354 N 
ATOM     59  N   UNL A   1      41.390  32.395  30.687  1.00  0.00    -0.248 NA
ATOM     60  C   UNL A   1      39.638  33.698  31.512  1.00  0.00     0.031 C 
ATOM     61  C   UNL A   1      45.685  33.432  31.114  1.00  0.00     0.029 A 
ATOM     62  C   UNL A   1      44.337  33.137  30.993  1.00  0.00     0.049 A 
ATOM     63  H   UNL A   1      43.421  31.403  30.216  1.00  0.00     0.167 HD
ATOM     64  C   UNL A   1      41.910  33.558  31.248  1.00  0.00     0.074 A 
ATOM     65  C   UNL A   1      40.781  34.342  31.704  1.00  0.00     0.031 C 
ATOM     66  C   UNL A   1      43.206  33.935  31.389  1.00  0.00     0.034 A 
BRANCH  53  67
ATOM     67  C   UNL A   1      47.260  29.686  29.473  1.00  0.00     0.023 A 
ATOM     68  C   UNL A   1      47.887  28.947  30.496  1.00  0.00     0.012 A 
ATOM     69  C   UNL A   1      47.979  29.999  28.303  1.00  0.00     0.148 A 
ATOM     70  C   UNL A   1      49.218  28.551  30.370  1.00  0.00     0.002 A 
ATOM     71  C   UNL A   1      49.292  29.565  28.168  1.00  0.00     0.091 A 
ATOM     72  F   UNL A   1      47.371  30.725  27.354  1.00  0.00    -0.205 F 
ATOM     73  C   UNL A   1      49.916  28.851  29.203  1.00  0.00     0.022 A 
BRANCH  71  74
ATOM     74  S   UNL A   1      50.250  29.840  26.673  1.00  0.00     0.127 S 
ATOM     75  O   UNL A   1      49.630  28.893  25.747  1.00  0.00    -0.237 OA
ATOM     76  O   UNL A   1      49.972  31.247  26.383  1.00  0.00    -0.237 OA
ATOM     77  O   UNL A   1      51.633  29.554  27.026  1.00  0.00    -0.744 OA
ENDBRANCH  71  74
ENDBRANCH  53  67
BRANCH  54  78
ATOM     78  C   UNL A   1      37.576  31.858  30.534  1.00  0.00     0.023 A 
ATOM     79  C   UNL A   1      36.939  31.482  31.733  1.00  0.00     0.012 A 
ATOM     80  C   UNL A   1      36.835  32.531  29.545  1.00  0.00     0.148 A 
ATOM     81  C   UNL A   1      35.582  31.742  31.928  1.00  0.00     0.002 A 
ATOM     82  C   UNL A   1      35.497  32.835  29.768  1.00  0.00     0.091 A 
ATOM     83  F   UNL A   1      37.453  32.862  28.402  1.00  0.00    -0.205 F 
ATOM     84  C   UNL A   1      34.864  32.426  30.951  1.00  0.00     0.022 A 
BRANCH  82  85
ATOM     85  S   UNL A   1      34.524  33.813  28.617  1.00  0.00     0.127 S 
ATOM     86  O   UNL A   1      34.444  32.924  27.461  1.00  0.00    -0.237 OA
ATOM     87  O   UNL A   1      33.270  33.983  29.352  1.00  0.00    -0.237 OA
ATOM     88  O   UNL A   1      35.275  35.045  28.417  1.00  0.00    -0.744 OA
ENDBRANCH  82  85
ENDBRANCH  54  78
BRANCH  66  89
ATOM     89  C   UNL A   1      43.488  35.273  32.023  1.00  0.00     0.023 A 
ATOM     90  C   UNL A   1      43.635  35.371  33.421  1.00  0.00     0.012 A 
ATOM     91  C   UNL A   1      43.700  36.416  31.226  1.00  0.00     0.148 A 
ATOM     92  C   UNL A   1      43.960  36.589  34.018  1.00  0.00     0.002 A 
ATOM     93  C   UNL A   1      44.071  37.616  31.823  1.00  0.00     0.091 A 
ATOM     94  F   UNL A   1      43.540  36.309  29.899  1.00  0.00    -0.205 F 
ATOM     95  C   UNL A   1      44.190  37.707  33.219  1.00  0.00     0.022 A 
BRANCH  93  96
ATOM     96  S   UNL A   1      44.483  39.082  30.868  1.00  0.00     0.127 S 
ATOM     97  O   UNL A   1      45.639  38.621  30.101  1.00  0.00    -0.237 OA
ATOM     98  O   UNL A   1      43.269  39.288  30.077  1.00  0.00    -0.237 OA
ATOM     99  O   UNL A   1      44.755  40.132  31.840  1.00  0.00    -0.744 OA
ENDBRANCH  93  96
ENDBRANCH  66  89
ENDBRANCH  40  41
ENDBRANCH  33  35
ENDBRANCH  32  33
ENDBRANCH  31  32
ENDBRANCH  30  31
ENDBRANCH  29  30
ENDBRANCH   1  29
TORSDOF 24
ENDMDL
