MODEL 1
REMARK VINA RESULT:      -8.1      0.000      0.000
REMARK SMILES CN1C(=O)/C(=C\c2ccc(-c3ccccc3C(=O)OCCOCCOCCOC(=O)c3ccc(-c4c5nc(c(-c6cccc(S(=O)(=O)[O-])c6F)c6ccc([nH]6)c(-c6cccc(S(=O)(=O)[O-])c6F)c6nc(c(-c7cccc(S(=O)(=O)[O-])c7F)c7ccc4[nH]7)C=C6)C=C5)cc3)o2)C(=O)[NH+]=C1S
REMARK SMILES IDX 23 1 22 2 21 3 20 4 19 5 17 6 18 7 16 8 11 9 12 10 13 11
REMARK SMILES IDX 15 12 14 13 10 14 7 15 8 16 94 17 9 18 6 19 1 20 2 21 3 22
REMARK SMILES IDX 98 23 4 24 5 25 97 26 95 27 96 29 99 30 24 32 25 33 26 34
REMARK SMILES IDX 27 35 28 36 29 37 30 38 31 39 32 40 93 41 33 42 92 43 34 44
REMARK SMILES IDX 35 45 36 46 86 47 37 48 91 49 85 50 87 51 38 52 90 53 84 54
REMARK SMILES IDX 83 55 39 57 71 58 51 59 70 60 52 61 55 62 69 63 88 64 53 65
REMARK SMILES IDX 54 66 68 68 89 69 56 70 40 71 41 72 49 73 42 74 44 75 50 76
REMARK SMILES IDX 43 77 45 78 46 79 47 80 48 81 72 82 73 83 81 84 74 85 76 86
REMARK SMILES IDX 82 87 75 88 77 89 78 90 79 91 80 92 57 93 58 94 66 95 59 96
REMARK SMILES IDX 61 97 67 98 60 99 62 100 63 101 64 102 65 103
REMARK H PARENT 97 28 99 31 87 56 55 67
REMARK Flexibility Score: inf
ROOT
ATOM      1  C   UNL A   1      38.060  31.979  36.055  1.00  0.00     0.188 C 
ENDROOT
BRANCH   1   2
ATOM      2  O   UNL A   1      37.002  32.326  35.173  1.00  0.00    -0.376 OA
BRANCH   2   3
ATOM      3  C   UNL A   1      36.895  33.665  34.706  1.00  0.00     0.202 C 
BRANCH   3   4
ATOM      4  C   UNL A   1      35.517  34.316  34.548  1.00  0.00     0.261 C 
BRANCH   4   5
ATOM      5  O   UNL A   1      35.238  34.675  33.190  1.00  0.00    -0.460 OA
BRANCH   5   6
ATOM      6  C   UNL A   1      34.534  33.794  32.445  1.00  0.00     0.338 C 
ATOM      7  O   UNL A   1      33.762  32.946  32.856  1.00  0.00    -0.246 OA
BRANCH   6   8
ATOM      8  C   UNL A   1      34.741  34.082  31.004  1.00  0.00     0.071 A 
ATOM      9  C   UNL A   1      35.977  33.921  30.343  1.00  0.00     0.032 A 
ATOM     10  C   UNL A   1      36.039  34.240  28.974  1.00  0.00     0.013 A 
ATOM     11  C   UNL A   1      34.923  34.737  28.292  1.00  0.00     0.001 A 
ATOM     12  C   UNL A   1      33.625  34.589  30.316  1.00  0.00     0.016 A 
ATOM     13  C   UNL A   1      33.720  34.925  28.967  1.00  0.00     0.001 A 
BRANCH   9  14
ATOM     14  C   UNL A   1      37.185  33.478  31.033  1.00  0.00     0.135 A 
ATOM     15  C   UNL A   1      38.536  31.903  31.808  1.00  0.00     0.128 A 
ATOM     16  C   UNL A   1      39.203  33.115  31.913  1.00  0.00     0.051 A 
ATOM     17  O   UNL A   1      37.321  32.130  31.215  1.00  0.00    -0.457 OA
ATOM     18  C   UNL A   1      38.302  34.122  31.523  1.00  0.00     0.051 A 
BRANCH  15  19
ATOM     19  C   UNL A   1      38.956  30.650  32.323  1.00  0.00     0.071 C 
ATOM     20  C   UNL A   1      40.230  29.313  27.868  1.00  0.00     0.301 C 
ATOM     21  N   UNL A   1      40.062  28.970  29.279  1.00  0.00    -0.189 N 
ATOM     22  C   UNL A   1      39.938  30.056  30.117  1.00  0.00     0.349 C 
ATOM     23  C   UNL A   1      40.122  27.712  29.815  1.00  0.00     0.318 C 
ATOM     24  O   UNL A   1      40.193  31.195  29.733  1.00  0.00    -0.240 OA
ATOM     25  C   UNL A   1      39.531  29.744  31.506  1.00  0.00     0.157 C 
ATOM     26  N   UNL A   1      39.977  27.414  31.057  1.00  0.00    -0.200 N 
ATOM     27  C   UNL A   1      39.685  28.361  31.996  1.00  0.00     0.347 C 
ATOM     28  H   UNL A   1      40.077  26.476  31.339  1.00  0.00     0.316 HD
ATOM     29  O   UNL A   1      39.505  28.072  33.175  1.00  0.00    -0.241 OA
BRANCH  23  30
ATOM     30  S   UNL A   1      40.445  26.359  28.757  1.00  0.00    -0.055 SA
ATOM     31  H   UNL A   1      41.230  25.456  29.403  1.00  0.00     0.116 HD
ENDBRANCH  23  30
ENDBRANCH  15  19
ENDBRANCH   9  14
ENDBRANCH   6   8
ENDBRANCH   5   6
ENDBRANCH   4   5
ENDBRANCH   3   4
ENDBRANCH   2   3
ENDBRANCH   1   2
BRANCH   1  32
ATOM     32  C   UNL A   1      37.775  31.854  37.569  1.00  0.00     0.188 C 
BRANCH  32  33
ATOM     33  O   UNL A   1      38.669  32.480  38.458  1.00  0.00    -0.376 OA
BRANCH  33  34
ATOM     34  C   UNL A   1      38.206  33.437  39.392  1.00  0.00     0.202 C 
BRANCH  34  35
ATOM     35  C   UNL A   1      38.988  34.658  39.919  1.00  0.00     0.261 C 
BRANCH  35  36
ATOM     36  O   UNL A   1      40.360  34.800  39.552  1.00  0.00    -0.460 OA
BRANCH  36  37
ATOM     37  C   UNL A   1      40.629  35.786  38.659  1.00  0.00     0.338 C 
ATOM     38  O   UNL A   1      40.621  36.987  38.861  1.00  0.00    -0.246 OA
BRANCH  37  39
ATOM     39  C   UNL A   1      41.138  35.166  37.421  1.00  0.00     0.060 A 
ATOM     40  C   UNL A   1      40.228  34.845  36.403  1.00  0.00     0.016 A 
ATOM     41  C   UNL A   1      42.499  34.899  37.269  1.00  0.00     0.016 A 
ATOM     42  C   UNL A   1      40.675  34.226  35.237  1.00  0.00     0.010 A 
ATOM     43  C   UNL A   1      42.941  34.255  36.111  1.00  0.00     0.010 A 
ATOM     44  C   UNL A   1      42.027  33.886  35.106  1.00  0.00    -0.014 A 
BRANCH  44  45
ATOM     45  C   UNL A   1      42.461  32.973  34.023  1.00  0.00     0.031 A 
ATOM     46  C   UNL A   1      42.655  33.545  32.647  1.00  0.00     0.074 A 
ATOM     47  C   UNL A   1      42.652  31.660  34.245  1.00  0.00     0.049 A 
ATOM     48  N   UNL A   1      42.948  32.937  31.528  1.00  0.00    -0.248 NA
ATOM     49  C   UNL A   1      42.485  35.003  32.515  1.00  0.00     0.031 C 
ATOM     50  C   UNL A   1      42.506  30.988  35.534  1.00  0.00     0.029 A 
ATOM     51  N   UNL A   1      42.979  30.652  33.372  1.00  0.00    -0.354 N 
ATOM     52  C   UNL A   1      42.963  33.929  30.554  1.00  0.00     0.074 A 
ATOM     53  C   UNL A   1      42.640  35.176  31.212  1.00  0.00     0.031 C 
ATOM     54  C   UNL A   1      42.703  29.670  35.360  1.00  0.00     0.029 A 
ATOM     55  C   UNL A   1      42.961  29.404  33.946  1.00  0.00     0.049 A 
ATOM     56  H   UNL A   1      43.205  30.809  32.427  1.00  0.00     0.167 HD
ATOM     57  C   UNL A   1      43.230  33.815  29.232  1.00  0.00     0.034 A 
ATOM     58  C   UNL A   1      43.102  28.185  33.385  1.00  0.00     0.034 A 
ATOM     59  C   UNL A   1      43.557  32.576  28.581  1.00  0.00     0.049 A 
ATOM     60  C   UNL A   1      43.367  28.078  31.904  1.00  0.00     0.074 A 
ATOM     61  C   UNL A   1      43.887  32.363  27.255  1.00  0.00     0.029 A 
ATOM     62  N   UNL A   1      43.576  31.338  29.203  1.00  0.00    -0.354 N 
ATOM     63  N   UNL A   1      43.491  29.034  31.014  1.00  0.00    -0.248 NA
ATOM     64  C   UNL A   1      43.544  26.726  31.356  1.00  0.00     0.031 C 
ATOM     65  C   UNL A   1      44.070  30.989  27.068  1.00  0.00     0.029 A 
ATOM     66  C   UNL A   1      43.898  30.353  28.287  1.00  0.00     0.049 A 
ATOM     67  H   UNL A   1      43.387  31.182  30.157  1.00  0.00     0.167 HD
ATOM     68  C   UNL A   1      43.799  28.402  29.812  1.00  0.00     0.074 A 
ATOM     69  C   UNL A   1      43.858  26.982  30.092  1.00  0.00     0.031 C 
ATOM     70  C   UNL A   1      44.005  28.947  28.587  1.00  0.00     0.034 A 
BRANCH  57  71
ATOM     71  C   UNL A   1      43.186  35.073  28.405  1.00  0.00     0.023 A 
ATOM     72  C   UNL A   1      41.967  35.497  27.837  1.00  0.00     0.012 A 
ATOM     73  C   UNL A   1      44.344  35.851  28.216  1.00  0.00     0.148 A 
ATOM     74  C   UNL A   1      41.909  36.654  27.061  1.00  0.00     0.002 A 
ATOM     75  C   UNL A   1      44.268  37.029  27.481  1.00  0.00     0.091 A 
ATOM     76  F   UNL A   1      45.499  35.419  28.742  1.00  0.00    -0.205 F 
ATOM     77  C   UNL A   1      43.057  37.424  26.892  1.00  0.00     0.022 A 
BRANCH  75  78
ATOM     78  S   UNL A   1      45.671  38.131  27.275  1.00  0.00     0.127 S 
ATOM     79  O   UNL A   1      45.199  39.014  26.210  1.00  0.00    -0.237 OA
ATOM     80  O   UNL A   1      45.764  38.760  28.593  1.00  0.00    -0.237 OA
ATOM     81  O   UNL A   1      46.802  37.282  26.928  1.00  0.00    -0.744 OA
ENDBRANCH  75  78
ENDBRANCH  57  71
BRANCH  58  82
ATOM     82  C   UNL A   1      43.020  26.962  34.233  1.00  0.00     0.023 A 
ATOM     83  C   UNL A   1      41.764  26.514  34.688  1.00  0.00     0.012 A 
ATOM     84  C   UNL A   1      44.176  26.235  34.580  1.00  0.00     0.148 A 
ATOM     85  C   UNL A   1      41.664  25.382  35.497  1.00  0.00     0.002 A 
ATOM     86  C   UNL A   1      44.062  25.077  35.340  1.00  0.00     0.091 A 
ATOM     87  F   UNL A   1      45.361  26.687  34.149  1.00  0.00    -0.205 F 
ATOM     88  C   UNL A   1      42.810  24.658  35.814  1.00  0.00     0.022 A 
BRANCH  86  89
ATOM     89  S   UNL A   1      45.466  24.015  35.701  1.00  0.00     0.127 S 
ATOM     90  O   UNL A   1      44.813  22.838  36.265  1.00  0.00    -0.237 OA
ATOM     91  O   UNL A   1      46.043  23.823  34.370  1.00  0.00    -0.237 OA
ATOM     92  O   UNL A   1      46.307  24.769  36.620  1.00  0.00    -0.744 OA
ENDBRANCH  86  89
ENDBRANCH  58  82
BRANCH  70  93
ATOM     93  C   UNL A   1      44.367  28.021  27.454  1.00  0.00     0.023 A 
ATOM     94  C   UNL A   1      43.356  27.413  26.684  1.00  0.00     0.012 A 
ATOM     95  C   UNL A   1      45.718  27.820  27.100  1.00  0.00     0.148 A 
ATOM     96  C   UNL A   1      43.683  26.596  25.602  1.00  0.00     0.002 A 
ATOM     97  C   UNL A   1      46.033  27.048  25.989  1.00  0.00     0.091 A 
ATOM     98  F   UNL A   1      46.668  28.394  27.853  1.00  0.00    -0.205 F 
ATOM     99  C   UNL A   1      45.018  26.424  25.247  1.00  0.00     0.022 A 
BRANCH  97 100
ATOM    100  S   UNL A   1      47.719  26.852  25.398  1.00  0.00     0.127 S 
ATOM    101  O   UNL A   1      47.515  26.111  24.154  1.00  0.00    -0.237 OA
ATOM    102  O   UNL A   1      48.147  28.240  25.216  1.00  0.00    -0.237 OA
ATOM    103  O   UNL A   1      48.432  26.131  26.443  1.00  0.00    -0.744 OA
ENDBRANCH  97 100
ENDBRANCH  70  93
ENDBRANCH  44  45
ENDBRANCH  37  39
ENDBRANCH  36  37
ENDBRANCH  35  36
ENDBRANCH  34  35
ENDBRANCH  33  34
ENDBRANCH  32  33
ENDBRANCH   1  32
TORSDOF 23
ENDMDL
MODEL 2
REMARK VINA RESULT:      -7.8      4.914     10.967
REMARK SMILES CN1C(=O)/C(=C\c2ccc(-c3ccccc3C(=O)OCCOCCOCCOC(=O)c3ccc(-c4c5nc(c(-c6cccc(S(=O)(=O)[O-])c6F)c6ccc([nH]6)c(-c6cccc(S(=O)(=O)[O-])c6F)c6nc(c(-c7cccc(S(=O)(=O)[O-])c7F)c7ccc4[nH]7)C=C6)C=C5)cc3)o2)C(=O)[NH+]=C1S
REMARK SMILES IDX 23 1 22 2 21 3 20 4 19 5 17 6 18 7 16 8 11 9 12 10 13 11
REMARK SMILES IDX 15 12 14 13 10 14 7 15 8 16 94 17 9 18 6 19 1 20 2 21 3 22
REMARK SMILES IDX 98 23 4 24 5 25 97 26 95 27 96 29 99 30 24 32 25 33 26 34
REMARK SMILES IDX 27 35 28 36 29 37 30 38 31 39 32 40 93 41 33 42 92 43 34 44
REMARK SMILES IDX 35 45 36 46 86 47 37 48 91 49 85 50 87 51 38 52 90 53 84 54
REMARK SMILES IDX 83 55 39 57 71 58 51 59 70 60 52 61 55 62 69 63 88 64 53 65
REMARK SMILES IDX 54 66 68 68 89 69 56 70 40 71 41 72 49 73 42 74 44 75 50 76
REMARK SMILES IDX 43 77 45 78 46 79 47 80 48 81 72 82 73 83 81 84 74 85 76 86
REMARK SMILES IDX 82 87 75 88 77 89 78 90 79 91 80 92 57 93 58 94 66 95 59 96
REMARK SMILES IDX 61 97 67 98 60 99 62 100 63 101 64 102 65 103
REMARK H PARENT 97 28 99 31 87 56 55 67
REMARK Flexibility Score: inf
ROOT
ATOM      1  C   UNL A   1      42.018  21.712  27.052  1.00  0.00     0.188 C 
ENDROOT
BRANCH   1   2
ATOM      2  O   UNL A   1      41.786  22.780  26.145  1.00  0.00    -0.376 OA
BRANCH   2   3
ATOM      3  C   UNL A   1      41.375  24.045  26.650  1.00  0.00     0.202 C 
BRANCH   3   4
ATOM      4  C   UNL A   1      41.530  25.303  25.788  1.00  0.00     0.261 C 
BRANCH   4   5
ATOM      5  O   UNL A   1      42.020  26.419  26.540  1.00  0.00    -0.460 OA
BRANCH   5   6
ATOM      6  C   UNL A   1      42.477  27.485  25.846  1.00  0.00     0.338 C 
ATOM      7  O   UNL A   1      42.286  27.722  24.666  1.00  0.00    -0.246 OA
BRANCH   6   8
ATOM      8  C   UNL A   1      43.165  28.423  26.767  1.00  0.00     0.071 A 
ATOM      9  C   UNL A   1      42.520  29.101  27.821  1.00  0.00     0.032 A 
ATOM     10  C   UNL A   1      43.289  29.972  28.615  1.00  0.00     0.013 A 
ATOM     11  C   UNL A   1      44.645  30.190  28.349  1.00  0.00     0.001 A 
ATOM     12  C   UNL A   1      44.527  28.652  26.499  1.00  0.00     0.016 A 
ATOM     13  C   UNL A   1      45.260  29.542  27.282  1.00  0.00     0.001 A 
BRANCH   9  14
ATOM     14  C   UNL A   1      41.090  28.962  28.086  1.00  0.00     0.135 A 
ATOM     15  C   UNL A   1      39.352  28.831  29.454  1.00  0.00     0.128 A 
ATOM     16  C   UNL A   1      38.861  28.969  28.163  1.00  0.00     0.051 A 
ATOM     17  O   UNL A   1      40.722  28.885  29.400  1.00  0.00    -0.457 OA
ATOM     18  C   UNL A   1      39.964  28.940  27.291  1.00  0.00     0.051 A 
BRANCH  15  19
ATOM     19  C   UNL A   1      38.606  28.560  30.628  1.00  0.00     0.071 C 
ATOM     20  C   UNL A   1      39.169  33.156  31.977  1.00  0.00     0.301 C 
ATOM     21  N   UNL A   1      38.686  31.811  32.283  1.00  0.00    -0.189 N 
ATOM     22  C   UNL A   1      38.577  30.983  31.187  1.00  0.00     0.349 C 
ATOM     23  C   UNL A   1      38.252  31.369  33.504  1.00  0.00     0.318 C 
ATOM     24  O   UNL A   1      38.649  31.422  30.041  1.00  0.00    -0.240 OA
ATOM     25  C   UNL A   1      38.321  29.556  31.491  1.00  0.00     0.157 C 
ATOM     26  N   UNL A   1      37.824  30.186  33.769  1.00  0.00    -0.200 N 
ATOM     27  C   UNL A   1      37.807  29.198  32.826  1.00  0.00     0.347 C 
ATOM     28  H   UNL A   1      37.500  29.986  34.677  1.00  0.00     0.316 HD
ATOM     29  O   UNL A   1      37.438  28.058  33.089  1.00  0.00    -0.241 OA
BRANCH  23  30
ATOM     30  S   UNL A   1      38.241  32.484  34.848  1.00  0.00    -0.055 SA
ATOM     31  H   UNL A   1      37.690  33.663  34.456  1.00  0.00     0.116 HD
ENDBRANCH  23  30
ENDBRANCH  15  19
ENDBRANCH   9  14
ENDBRANCH   6   8
ENDBRANCH   5   6
ENDBRANCH   4   5
ENDBRANCH   3   4
ENDBRANCH   2   3
ENDBRANCH   1   2
BRANCH   1  32
ATOM     32  C   UNL A   1      41.793  20.256  26.583  1.00  0.00     0.188 C 
BRANCH  32  33
ATOM     33  O   UNL A   1      42.387  19.859  25.371  1.00  0.00    -0.376 OA
BRANCH  33  34
ATOM     34  C   UNL A   1      43.626  19.174  25.364  1.00  0.00     0.202 C 
BRANCH  34  35
ATOM     35  C   UNL A   1      44.755  19.331  24.325  1.00  0.00     0.261 C 
BRANCH  35  36
ATOM     36  O   UNL A   1      45.581  20.494  24.384  1.00  0.00    -0.460 OA
BRANCH  36  37
ATOM     37  C   UNL A   1      45.007  21.644  23.949  1.00  0.00     0.338 C 
ATOM     38  O   UNL A   1      44.314  21.794  22.958  1.00  0.00    -0.246 OA
BRANCH  37  39
ATOM     39  C   UNL A   1      45.188  22.677  24.987  1.00  0.00     0.060 A 
ATOM     40  C   UNL A   1      44.980  24.021  24.644  1.00  0.00     0.016 A 
ATOM     41  C   UNL A   1      45.565  22.323  26.282  1.00  0.00     0.016 A 
ATOM     42  C   UNL A   1      45.179  25.022  25.594  1.00  0.00     0.010 A 
ATOM     43  C   UNL A   1      45.789  23.328  27.225  1.00  0.00     0.010 A 
ATOM     44  C   UNL A   1      45.629  24.682  26.876  1.00  0.00    -0.014 A 
BRANCH  44  45
ATOM     45  C   UNL A   1      46.127  25.736  27.791  1.00  0.00     0.031 A 
ATOM     46  C   UNL A   1      47.512  26.276  27.564  1.00  0.00     0.074 A 
ATOM     47  C   UNL A   1      45.383  26.187  28.816  1.00  0.00     0.049 A 
ATOM     48  N   UNL A   1      48.196  27.135  28.273  1.00  0.00    -0.248 NA
ATOM     49  C   UNL A   1      48.226  25.768  26.379  1.00  0.00     0.031 C 
ATOM     50  C   UNL A   1      44.026  25.751  29.134  1.00  0.00     0.029 A 
ATOM     51  N   UNL A   1      45.689  27.094  29.801  1.00  0.00    -0.354 N 
ATOM     52  C   UNL A   1      49.430  27.244  27.644  1.00  0.00     0.074 A 
ATOM     53  C   UNL A   1      49.405  26.358  26.501  1.00  0.00     0.031 C 
ATOM     54  C   UNL A   1      43.628  26.361  30.265  1.00  0.00     0.029 A 
ATOM     55  C   UNL A   1      44.713  27.207  30.762  1.00  0.00     0.049 A 
ATOM     56  H   UNL A   1      46.526  27.611  29.818  1.00  0.00     0.167 HD
ATOM     57  C   UNL A   1      50.488  28.020  27.979  1.00  0.00     0.034 A 
ATOM     58  C   UNL A   1      44.711  27.889  31.926  1.00  0.00     0.034 A 
ATOM     59  C   UNL A   1      50.508  28.905  29.111  1.00  0.00     0.049 A 
ATOM     60  C   UNL A   1      45.912  28.722  32.297  1.00  0.00     0.074 A 
ATOM     61  C   UNL A   1      51.515  29.766  29.511  1.00  0.00     0.029 A 
ATOM     62  N   UNL A   1      49.483  29.030  30.036  1.00  0.00    -0.354 N 
ATOM     63  N   UNL A   1      47.029  28.905  31.635  1.00  0.00    -0.248 NA
ATOM     64  C   UNL A   1      45.839  29.468  33.562  1.00  0.00     0.031 C 
ATOM     65  C   UNL A   1      51.112  30.384  30.699  1.00  0.00     0.029 A 
ATOM     66  C   UNL A   1      49.837  29.942  31.014  1.00  0.00     0.049 A 
ATOM     67  H   UNL A   1      48.629  28.541  30.002  1.00  0.00     0.167 HD
ATOM     68  C   UNL A   1      47.773  29.815  32.381  1.00  0.00     0.074 A 
ATOM     69  C   UNL A   1      46.972  30.157  33.538  1.00  0.00     0.031 C 
ATOM     70  C   UNL A   1      49.010  30.315  32.134  1.00  0.00     0.034 A 
BRANCH  57  71
ATOM     71  C   UNL A   1      51.708  27.947  27.100  1.00  0.00     0.023 A 
ATOM     72  C   UNL A   1      51.914  28.923  26.103  1.00  0.00     0.012 A 
ATOM     73  C   UNL A   1      52.666  26.931  27.281  1.00  0.00     0.148 A 
ATOM     74  C   UNL A   1      53.034  28.866  25.275  1.00  0.00     0.002 A 
ATOM     75  C   UNL A   1      53.803  26.909  26.483  1.00  0.00     0.091 A 
ATOM     76  F   UNL A   1      52.440  25.998  28.216  1.00  0.00    -0.205 F 
ATOM     77  C   UNL A   1      53.982  27.866  25.471  1.00  0.00     0.022 A 
BRANCH  75  78
ATOM     78  S   UNL A   1      55.121  25.710  26.711  1.00  0.00     0.127 S 
ATOM     79  O   UNL A   1      55.443  25.892  28.126  1.00  0.00    -0.237 OA
ATOM     80  O   UNL A   1      54.448  24.449  26.396  1.00  0.00    -0.237 OA
ATOM     81  O   UNL A   1      56.173  26.085  25.777  1.00  0.00    -0.744 OA
ENDBRANCH  75  78
ENDBRANCH  57  71
BRANCH  58  82
ATOM     82  C   UNL A   1      43.519  27.833  32.819  1.00  0.00     0.023 A 
ATOM     83  C   UNL A   1      42.449  28.726  32.609  1.00  0.00     0.012 A 
ATOM     84  C   UNL A   1      43.435  26.894  33.866  1.00  0.00     0.148 A 
ATOM     85  C   UNL A   1      41.331  28.703  33.444  1.00  0.00     0.002 A 
ATOM     86  C   UNL A   1      42.294  26.842  34.659  1.00  0.00     0.091 A 
ATOM     87  F   UNL A   1      44.470  26.065  34.058  1.00  0.00    -0.205 F 
ATOM     88  C   UNL A   1      41.249  27.756  34.461  1.00  0.00     0.022 A 
BRANCH  86  89
ATOM     89  S   UNL A   1      42.047  25.582  35.916  1.00  0.00     0.127 S 
ATOM     90  O   UNL A   1      42.161  24.354  35.134  1.00  0.00    -0.237 OA
ATOM     91  O   UNL A   1      43.165  25.842  36.822  1.00  0.00    -0.237 OA
ATOM     92  O   UNL A   1      40.733  25.844  36.486  1.00  0.00    -0.744 OA
ENDBRANCH  86  89
ENDBRANCH  58  82
BRANCH  70  93
ATOM     93  C   UNL A   1      49.568  31.329  33.101  1.00  0.00     0.023 A 
ATOM     94  C   UNL A   1      49.270  32.697  32.944  1.00  0.00     0.012 A 
ATOM     95  C   UNL A   1      50.321  30.911  34.218  1.00  0.00     0.148 A 
ATOM     96  C   UNL A   1      49.740  33.635  33.863  1.00  0.00     0.002 A 
ATOM     97  C   UNL A   1      50.740  31.845  35.157  1.00  0.00     0.091 A 
ATOM     98  F   UNL A   1      50.607  29.607  34.343  1.00  0.00    -0.205 F 
ATOM     99  C   UNL A   1      50.462  33.209  34.975  1.00  0.00     0.022 A 
BRANCH  97 100
ATOM    100  S   UNL A   1      51.589  31.376  36.670  1.00  0.00     0.127 S 
ATOM    101  O   UNL A   1      51.259  32.492  37.555  1.00  0.00    -0.237 OA
ATOM    102  O   UNL A   1      50.935  30.113  37.014  1.00  0.00    -0.237 OA
ATOM    103  O   UNL A   1      52.998  31.254  36.322  1.00  0.00    -0.744 OA
ENDBRANCH  97 100
ENDBRANCH  70  93
ENDBRANCH  44  45
ENDBRANCH  37  39
ENDBRANCH  36  37
ENDBRANCH  35  36
ENDBRANCH  34  35
ENDBRANCH  33  34
ENDBRANCH  32  33
ENDBRANCH   1  32
TORSDOF 23
ENDMDL
MODEL 3
REMARK VINA RESULT:      -7.5      4.926     11.067
REMARK SMILES CN1C(=O)/C(=C\c2ccc(-c3ccccc3C(=O)OCCOCCOCCOC(=O)c3ccc(-c4c5nc(c(-c6cccc(S(=O)(=O)[O-])c6F)c6ccc([nH]6)c(-c6cccc(S(=O)(=O)[O-])c6F)c6nc(c(-c7cccc(S(=O)(=O)[O-])c7F)c7ccc4[nH]7)C=C6)C=C5)cc3)o2)C(=O)[NH+]=C1S
REMARK SMILES IDX 23 1 22 2 21 3 20 4 19 5 17 6 18 7 16 8 11 9 12 10 13 11
REMARK SMILES IDX 15 12 14 13 10 14 7 15 8 16 94 17 9 18 6 19 1 20 2 21 3 22
REMARK SMILES IDX 98 23 4 24 5 25 97 26 95 27 96 29 99 30 24 32 25 33 26 34
REMARK SMILES IDX 27 35 28 36 29 37 30 38 31 39 32 40 93 41 33 42 92 43 34 44
REMARK SMILES IDX 35 45 36 46 86 47 37 48 91 49 85 50 87 51 38 52 90 53 84 54
REMARK SMILES IDX 83 55 39 57 71 58 51 59 70 60 52 61 55 62 69 63 88 64 53 65
REMARK SMILES IDX 54 66 68 68 89 69 56 70 40 71 41 72 49 73 42 74 44 75 50 76
REMARK SMILES IDX 43 77 45 78 46 79 47 80 48 81 72 82 73 83 81 84 74 85 76 86
REMARK SMILES IDX 82 87 75 88 77 89 78 90 79 91 80 92 57 93 58 94 66 95 59 96
REMARK SMILES IDX 61 97 67 98 60 99 62 100 63 101 64 102 65 103
REMARK H PARENT 97 28 99 31 87 56 55 67
REMARK Flexibility Score: inf
ROOT
ATOM      1  C   UNL A   1      41.245  23.812  28.212  1.00  0.00     0.188 C 
ENDROOT
BRANCH   1   2
ATOM      2  O   UNL A   1      40.015  24.299  27.694  1.00  0.00    -0.376 OA
BRANCH   2   3
ATOM      3  C   UNL A   1      40.010  25.490  26.917  1.00  0.00     0.202 C 
BRANCH   3   4
ATOM      4  C   UNL A   1      41.179  25.797  25.974  1.00  0.00     0.261 C 
BRANCH   4   5
ATOM      5  O   UNL A   1      42.133  26.687  26.562  1.00  0.00    -0.460 OA
BRANCH   5   6
ATOM      6  C   UNL A   1      42.471  27.791  25.859  1.00  0.00     0.338 C 
ATOM      7  O   UNL A   1      42.227  28.011  24.685  1.00  0.00    -0.246 OA
BRANCH   6   8
ATOM      8  C   UNL A   1      43.096  28.787  26.764  1.00  0.00     0.071 A 
ATOM      9  C   UNL A   1      42.403  29.448  27.800  1.00  0.00     0.032 A 
ATOM     10  C   UNL A   1      43.113  30.380  28.579  1.00  0.00     0.013 A 
ATOM     11  C   UNL A   1      44.456  30.673  28.317  1.00  0.00     0.001 A 
ATOM     12  C   UNL A   1      44.443  29.093  26.499  1.00  0.00     0.016 A 
ATOM     13  C   UNL A   1      45.116  30.041  27.267  1.00  0.00     0.001 A 
BRANCH   9  14
ATOM     14  C   UNL A   1      40.983  29.228  28.059  1.00  0.00     0.135 A 
ATOM     15  C   UNL A   1      39.248  29.011  29.420  1.00  0.00     0.128 A 
ATOM     16  C   UNL A   1      38.756  29.107  28.126  1.00  0.00     0.051 A 
ATOM     17  O   UNL A   1      40.612  29.144  29.372  1.00  0.00    -0.457 OA
ATOM     18  C   UNL A   1      39.864  29.134  27.259  1.00  0.00     0.051 A 
BRANCH  15  19
ATOM     19  C   UNL A   1      38.512  28.709  30.593  1.00  0.00     0.071 C 
ATOM     20  C   UNL A   1      38.810  33.341  31.903  1.00  0.00     0.301 C 
ATOM     21  N   UNL A   1      38.401  31.973  32.219  1.00  0.00    -0.189 N 
ATOM     22  C   UNL A   1      38.345  31.131  31.130  1.00  0.00     0.349 C 
ATOM     23  C   UNL A   1      37.987  31.519  33.442  1.00  0.00     0.318 C 
ATOM     24  O   UNL A   1      38.397  31.563  29.981  1.00  0.00    -0.240 OA
ATOM     25  C   UNL A   1      38.167  29.695  31.446  1.00  0.00     0.157 C 
ATOM     26  N   UNL A   1      37.625  30.316  33.715  1.00  0.00    -0.200 N 
ATOM     27  C   UNL A   1      37.668  29.320  32.782  1.00  0.00     0.347 C 
ATOM     28  H   UNL A   1      37.308  30.106  34.624  1.00  0.00     0.316 HD
ATOM     29  O   UNL A   1      37.363  28.163  33.053  1.00  0.00    -0.241 OA
BRANCH  23  30
ATOM     30  S   UNL A   1      37.907  32.643  34.776  1.00  0.00    -0.055 SA
ATOM     31  H   UNL A   1      38.041  33.913  34.308  1.00  0.00     0.116 HD
ENDBRANCH  23  30
ENDBRANCH  15  19
ENDBRANCH   9  14
ENDBRANCH   6   8
ENDBRANCH   5   6
ENDBRANCH   4   5
ENDBRANCH   3   4
ENDBRANCH   2   3
ENDBRANCH   1   2
BRANCH   1  32
ATOM     32  C   UNL A   1      41.406  22.300  28.489  1.00  0.00     0.188 C 
BRANCH  32  33
ATOM     33  O   UNL A   1      40.611  21.409  27.744  1.00  0.00    -0.376 OA
BRANCH  33  34
ATOM     34  C   UNL A   1      41.188  20.281  27.113  1.00  0.00     0.202 C 
BRANCH  34  35
ATOM     35  C   UNL A   1      42.175  20.298  25.928  1.00  0.00     0.261 C 
BRANCH  35  36
ATOM     36  O   UNL A   1      42.530  21.555  25.353  1.00  0.00    -0.460 OA
BRANCH  36  37
ATOM     37  C   UNL A   1      43.849  21.724  25.080  1.00  0.00     0.338 C 
ATOM     38  O   UNL A   1      44.493  21.191  24.194  1.00  0.00    -0.246 OA
BRANCH  37  39
ATOM     39  C   UNL A   1      44.360  22.827  25.915  1.00  0.00     0.060 A 
ATOM     40  C   UNL A   1      44.443  24.112  25.359  1.00  0.00     0.016 A 
ATOM     41  C   UNL A   1      44.760  22.594  27.231  1.00  0.00     0.016 A 
ATOM     42  C   UNL A   1      44.956  25.166  26.113  1.00  0.00     0.010 A 
ATOM     43  C   UNL A   1      45.297  23.646  27.976  1.00  0.00     0.010 A 
ATOM     44  C   UNL A   1      45.428  24.928  27.409  1.00  0.00    -0.014 A 
BRANCH  44  45
ATOM     45  C   UNL A   1      46.240  25.954  28.103  1.00  0.00     0.031 A 
ATOM     46  C   UNL A   1      45.592  26.746  29.205  1.00  0.00     0.074 A 
ATOM     47  C   UNL A   1      47.514  26.201  27.750  1.00  0.00     0.049 A 
ATOM     48  N   UNL A   1      46.067  27.747  29.899  1.00  0.00    -0.248 NA
ATOM     49  C   UNL A   1      44.216  26.362  29.564  1.00  0.00     0.031 C 
ATOM     50  C   UNL A   1      48.256  25.496  26.708  1.00  0.00     0.029 A 
ATOM     51  N   UNL A   1      48.396  27.145  28.216  1.00  0.00    -0.354 N 
ATOM     52  C   UNL A   1      45.039  28.135  30.751  1.00  0.00     0.074 A 
ATOM     53  C   UNL A   1      43.913  27.268  30.480  1.00  0.00     0.031 C 
ATOM     54  C   UNL A   1      49.471  26.059  26.584  1.00  0.00     0.029 A 
ATOM     55  C   UNL A   1      49.579  27.179  27.517  1.00  0.00     0.049 A 
ATOM     56  H   UNL A   1      48.200  27.739  28.975  1.00  0.00     0.167 HD
ATOM     57  C   UNL A   1      45.034  29.117  31.682  1.00  0.00     0.034 A 
ATOM     58  C   UNL A   1      50.616  28.039  27.601  1.00  0.00     0.034 A 
ATOM     59  C   UNL A   1      46.157  29.973  31.954  1.00  0.00     0.049 A 
ATOM     60  C   UNL A   1      50.577  29.147  28.624  1.00  0.00     0.074 A 
ATOM     61  C   UNL A   1      46.267  30.969  32.907  1.00  0.00     0.029 A 
ATOM     62  N   UNL A   1      47.356  29.947  31.259  1.00  0.00    -0.354 N 
ATOM     63  N   UNL A   1      49.644  29.432  29.501  1.00  0.00    -0.248 NA
ATOM     64  C   UNL A   1      51.748  30.033  28.689  1.00  0.00     0.031 C 
ATOM     65  C   UNL A   1      47.522  31.570  32.765  1.00  0.00     0.029 A 
ATOM     66  C   UNL A   1      48.208  30.920  31.752  1.00  0.00     0.049 A 
ATOM     67  H   UNL A   1      47.570  29.330  30.523  1.00  0.00     0.167 HD
ATOM     68  C   UNL A   1      50.132  30.502  30.247  1.00  0.00     0.074 A 
ATOM     69  C   UNL A   1      51.450  30.803  29.727  1.00  0.00     0.031 C 
ATOM     70  C   UNL A   1      49.540  31.177  31.263  1.00  0.00     0.034 A 
BRANCH  57  71
ATOM     71  C   UNL A   1      43.773  29.310  32.480  1.00  0.00     0.023 A 
ATOM     72  C   UNL A   1      42.750  30.145  31.985  1.00  0.00     0.012 A 
ATOM     73  C   UNL A   1      43.585  28.641  33.705  1.00  0.00     0.148 A 
ATOM     74  C   UNL A   1      41.578  30.342  32.714  1.00  0.00     0.002 A 
ATOM     75  C   UNL A   1      42.395  28.805  34.403  1.00  0.00     0.091 A 
ATOM     76  F   UNL A   1      44.578  27.871  34.172  1.00  0.00    -0.205 F 
ATOM     77  C   UNL A   1      41.397  29.665  33.917  1.00  0.00     0.022 A 
BRANCH  75  78
ATOM     78  S   UNL A   1      42.033  27.913  35.919  1.00  0.00     0.127 S 
ATOM     79  O   UNL A   1      42.094  26.524  35.467  1.00  0.00    -0.237 OA
ATOM     80  O   UNL A   1      43.139  28.322  36.787  1.00  0.00    -0.237 OA
ATOM     81  O   UNL A   1      40.721  28.373  36.353  1.00  0.00    -0.744 OA
ENDBRANCH  75  78
ENDBRANCH  57  71
BRANCH  58  82
ATOM     82  C   UNL A   1      51.794  27.874  26.704  1.00  0.00     0.023 A 
ATOM     83  C   UNL A   1      51.861  28.605  25.501  1.00  0.00     0.012 A 
ATOM     84  C   UNL A   1      52.852  27.006  27.040  1.00  0.00     0.148 A 
ATOM     85  C   UNL A   1      52.946  28.453  24.637  1.00  0.00     0.002 A 
ATOM     86  C   UNL A   1      53.955  26.901  26.201  1.00  0.00     0.091 A 
ATOM     87  F   UNL A   1      52.761  26.309  28.181  1.00  0.00    -0.205 F 
ATOM     88  C   UNL A   1      53.997  27.611  24.991  1.00  0.00     0.022 A 
BRANCH  86  89
ATOM     89  S   UNL A   1      55.407  25.933  26.628  1.00  0.00     0.127 S 
ATOM     90  O   UNL A   1      54.865  24.578  26.654  1.00  0.00    -0.237 OA
ATOM     91  O   UNL A   1      56.297  26.221  25.503  1.00  0.00    -0.237 OA
ATOM     92  O   UNL A   1      55.865  26.451  27.909  1.00  0.00    -0.744 OA
ENDBRANCH  86  89
ENDBRANCH  58  82
BRANCH  70  93
ATOM     93  C   UNL A   1      50.322  32.282  31.928  1.00  0.00     0.023 A 
ATOM     94  C   UNL A   1      51.158  31.998  33.025  1.00  0.00     0.012 A 
ATOM     95  C   UNL A   1      50.289  33.592  31.405  1.00  0.00     0.148 A 
ATOM     96  C   UNL A   1      51.923  33.005  33.613  1.00  0.00     0.002 A 
ATOM     97  C   UNL A   1      51.095  34.577  31.963  1.00  0.00     0.091 A 
ATOM     98  F   UNL A   1      49.477  33.847  30.370  1.00  0.00    -0.205 F 
ATOM     99  C   UNL A   1      51.902  34.289  33.074  1.00  0.00     0.022 A 
BRANCH  97 100
ATOM    100  S   UNL A   1      51.208  36.233  31.275  1.00  0.00     0.127 S 
ATOM    101  O   UNL A   1      52.167  36.867  32.179  1.00  0.00    -0.237 OA
ATOM    102  O   UNL A   1      51.720  35.975  29.928  1.00  0.00    -0.237 OA
ATOM    103  O   UNL A   1      49.859  36.781  31.315  1.00  0.00    -0.744 OA
ENDBRANCH  97 100
ENDBRANCH  70  93
ENDBRANCH  44  45
ENDBRANCH  37  39
ENDBRANCH  36  37
ENDBRANCH  35  36
ENDBRANCH  34  35
ENDBRANCH  33  34
ENDBRANCH  32  33
ENDBRANCH   1  32
TORSDOF 23
ENDMDL
