MODEL 1
REMARK VINA RESULT:     -10.4      0.000      0.000
REMARK SMILES Cc1ccc(NS(=O)(=O)N2CCCC[C@@H]2C(=O)OCCOCCOCCOC(=O)c2ccc(-c3c4nc(c(-c5cccc(S(=O)(=O)[O-])c5F)c5ccc([nH]5)c(-c5cccc(S(=O)(=O)[O-])c5F)c5nc(c(-c6cccc(S(=O)(=O)[O-])c6F)c6ccc3[nH]6)C=C5)C=C4)cc2)c(C)n1
REMARK SMILES IDX 22 1 21 2 20 3 19 4 18 5 16 6 17 7 15 8 10 9 11 10 12 11
REMARK SMILES IDX 14 12 13 13 7 14 8 15 9 16 6 17 5 19 1 20 2 21 3 22 95 23
REMARK SMILES IDX 4 24 93 25 94 26 23 27 24 28 25 29 26 30 27 31 28 32 29 33
REMARK SMILES IDX 30 34 31 35 92 36 32 37 91 38 33 39 34 40 35 41 85 42 36 43
REMARK SMILES IDX 90 44 84 45 86 46 37 47 89 48 83 49 82 50 38 52 70 53 50 54
REMARK SMILES IDX 69 55 51 56 54 57 68 58 87 59 52 60 53 61 67 63 88 64 55 65
REMARK SMILES IDX 39 66 40 67 48 68 41 69 43 70 49 71 42 72 44 73 45 74 46 75
REMARK SMILES IDX 47 76 71 77 72 78 80 79 73 80 75 81 81 82 74 83 76 84 77 85
REMARK SMILES IDX 78 86 79 87 56 88 57 89 65 90 58 91 60 92 66 93 59 94 61 95
REMARK SMILES IDX 62 96 63 97 64 98
REMARK H PARENT 6 18 86 51 54 62
REMARK Flexibility Score: inf
ROOT
ATOM      1  C   UNL A   1      34.449  32.770  29.056  1.00  0.00     0.188 C 
ENDROOT
BRANCH   1   2
ATOM      2  O   UNL A   1      34.810  31.489  28.574  1.00  0.00    -0.376 OA
BRANCH   2   3
ATOM      3  C   UNL A   1      34.167  31.004  27.420  1.00  0.00     0.202 C 
BRANCH   3   4
ATOM      4  C   UNL A   1      33.155  29.860  27.542  1.00  0.00     0.261 C 
BRANCH   4   5
ATOM      5  O   UNL A   1      32.741  29.128  26.367  1.00  0.00    -0.462 OA
BRANCH   5   6
ATOM      6  C   UNL A   1      31.669  28.298  26.515  1.00  0.00     0.324 C 
ATOM      7  O   UNL A   1      31.198  28.011  27.611  1.00  0.00    -0.250 OA
BRANCH   6   8
ATOM      8  C   UNL A   1      31.123  27.698  25.205  1.00  0.00     0.184 C 
ATOM      9  N   UNL A   1      31.844  26.510  24.636  1.00  0.00    -0.170 NA
ATOM     10  C   UNL A   1      30.950  25.803  23.674  1.00  0.00     0.105 C 
ATOM     11  C   UNL A   1      30.802  26.678  22.435  1.00  0.00     0.017 C 
ATOM     12  C   UNL A   1      30.948  28.692  24.033  1.00  0.00     0.032 C 
ATOM     13  C   UNL A   1      30.291  28.074  22.785  1.00  0.00     0.004 C 
BRANCH   9  14
ATOM     14  S   UNL A   1      32.688  25.487  25.664  1.00  0.00     0.302 S 
ATOM     15  O   UNL A   1      31.849  25.141  26.784  1.00  0.00    -0.189 OA
ATOM     16  O   UNL A   1      33.988  26.072  25.894  1.00  0.00    -0.189 OA
BRANCH  14  17
ATOM     17  N   UNL A   1      32.920  24.118  24.772  1.00  0.00    -0.269 N 
ATOM     18  H   UNL A   1      33.054  24.261  23.807  1.00  0.00     0.181 HD
BRANCH  17  19
ATOM     19  C   UNL A   1      32.953  22.741  25.202  1.00  0.00     0.071 A 
ATOM     20  C   UNL A   1      33.128  18.547  24.507  1.00  0.00     0.067 C 
ATOM     21  C   UNL A   1      33.173  19.973  24.958  1.00  0.00     0.038 A 
ATOM     22  C   UNL A   1      34.314  20.739  24.836  1.00  0.00     0.026 A 
ATOM     23  N   UNL A   1      32.002  20.513  25.343  1.00  0.00    -0.256 NA
ATOM     24  C   UNL A   1      34.198  22.125  24.975  1.00  0.00     0.030 A 
ATOM     25  C   UNL A   1      31.893  21.871  25.478  1.00  0.00     0.062 A 
ATOM     26  C   UNL A   1      30.513  22.247  25.889  1.00  0.00     0.069 C 
ENDBRANCH  17  19
ENDBRANCH  14  17
ENDBRANCH   9  14
ENDBRANCH   6   8
ENDBRANCH   5   6
ENDBRANCH   4   5
ENDBRANCH   3   4
ENDBRANCH   2   3
ENDBRANCH   1   2
BRANCH   1  27
ATOM     27  C   UNL A   1      35.220  34.008  28.557  1.00  0.00     0.188 C 
BRANCH  27  28
ATOM     28  O   UNL A   1      34.413  35.146  28.311  1.00  0.00    -0.376 OA
BRANCH  28  29
ATOM     29  C   UNL A   1      33.110  35.069  28.865  1.00  0.00     0.202 C 
BRANCH  29  30
ATOM     30  C   UNL A   1      32.802  36.217  29.834  1.00  0.00     0.261 C 
BRANCH  30  31
ATOM     31  O   UNL A   1      32.093  35.859  31.038  1.00  0.00    -0.460 OA
BRANCH  31  32
ATOM     32  C   UNL A   1      32.664  36.118  32.240  1.00  0.00     0.338 C 
ATOM     33  O   UNL A   1      32.203  36.822  33.120  1.00  0.00    -0.246 OA
BRANCH  32  34
ATOM     34  C   UNL A   1      33.811  35.179  32.408  1.00  0.00     0.060 A 
ATOM     35  C   UNL A   1      33.583  33.901  32.947  1.00  0.00     0.016 A 
ATOM     36  C   UNL A   1      35.086  35.515  31.947  1.00  0.00     0.016 A 
ATOM     37  C   UNL A   1      34.633  32.975  33.050  1.00  0.00     0.010 A 
ATOM     38  C   UNL A   1      36.138  34.597  32.069  1.00  0.00     0.010 A 
ATOM     39  C   UNL A   1      35.928  33.333  32.653  1.00  0.00    -0.014 A 
BRANCH  39  40
ATOM     40  C   UNL A   1      37.106  32.518  33.066  1.00  0.00     0.031 A 
ATOM     41  C   UNL A   1      37.804  32.908  34.346  1.00  0.00     0.074 A 
ATOM     42  C   UNL A   1      37.574  31.483  32.341  1.00  0.00     0.049 A 
ATOM     43  N   UNL A   1      38.901  32.434  34.876  1.00  0.00    -0.248 NA
ATOM     44  C   UNL A   1      37.178  33.988  35.128  1.00  0.00     0.031 C 
ATOM     45  C   UNL A   1      36.997  30.982  31.096  1.00  0.00     0.029 A 
ATOM     46  N   UNL A   1      38.678  30.685  32.543  1.00  0.00    -0.354 N 
ATOM     47  C   UNL A   1      39.107  33.170  36.038  1.00  0.00     0.074 A 
ATOM     48  C   UNL A   1      38.035  34.136  36.125  1.00  0.00     0.031 C 
ATOM     49  C   UNL A   1      37.771  29.985  30.625  1.00  0.00     0.029 A 
ATOM     50  C   UNL A   1      38.916  29.797  31.518  1.00  0.00     0.049 A 
ATOM     51  H   UNL A   1      39.246  30.745  33.345  1.00  0.00     0.167 HD
ATOM     52  C   UNL A   1      40.085  33.045  36.966  1.00  0.00     0.034 A 
ATOM     53  C   UNL A   1      39.952  28.955  31.310  1.00  0.00     0.034 A 
ATOM     54  C   UNL A   1      41.153  32.088  36.892  1.00  0.00     0.049 A 
ATOM     55  C   UNL A   1      41.066  28.878  32.331  1.00  0.00     0.074 A 
ATOM     56  C   UNL A   1      42.186  31.883  37.789  1.00  0.00     0.029 A 
ATOM     57  N   UNL A   1      41.333  31.183  35.860  1.00  0.00    -0.354 N 
ATOM     58  N   UNL A   1      41.194  29.514  33.471  1.00  0.00    -0.248 NA
ATOM     59  C   UNL A   1      42.168  27.941  32.048  1.00  0.00     0.031 C 
ATOM     60  C   UNL A   1      43.005  30.868  37.287  1.00  0.00     0.029 A 
ATOM     61  C   UNL A   1      42.461  30.417  36.097  1.00  0.00     0.049 A 
ATOM     62  H   UNL A   1      40.746  31.098  35.074  1.00  0.00     0.167 HD
ATOM     63  C   UNL A   1      42.355  29.019  34.059  1.00  0.00     0.074 A 
ATOM     64  C   UNL A   1      42.885  28.018  33.160  1.00  0.00     0.031 C 
ATOM     65  C   UNL A   1      42.940  29.371  35.232  1.00  0.00     0.034 A 
BRANCH  52  66
ATOM     66  C   UNL A   1      40.022  33.951  38.167  1.00  0.00     0.023 A 
ATOM     67  C   UNL A   1      40.718  35.177  38.147  1.00  0.00     0.012 A 
ATOM     68  C   UNL A   1      39.234  33.621  39.287  1.00  0.00     0.148 A 
ATOM     69  C   UNL A   1      40.657  36.048  39.233  1.00  0.00     0.002 A 
ATOM     70  C   UNL A   1      39.140  34.515  40.347  1.00  0.00     0.091 A 
ATOM     71  F   UNL A   1      38.597  32.442  39.295  1.00  0.00    -0.205 F 
ATOM     72  C   UNL A   1      39.859  35.722  40.327  1.00  0.00     0.022 A 
BRANCH  70  73
ATOM     73  S   UNL A   1      38.082  34.229  41.769  1.00  0.00     0.127 S 
ATOM     74  O   UNL A   1      38.067  35.551  42.395  1.00  0.00    -0.237 OA
ATOM     75  O   UNL A   1      36.822  33.839  41.137  1.00  0.00    -0.237 OA
ATOM     76  O   UNL A   1      38.726  33.182  42.549  1.00  0.00    -0.744 OA
ENDBRANCH  70  73
ENDBRANCH  52  66
BRANCH  53  77
ATOM     77  C   UNL A   1      40.008  28.093  30.089  1.00  0.00     0.023 A 
ATOM     78  C   UNL A   1      39.220  26.926  30.022  1.00  0.00     0.012 A 
ATOM     79  C   UNL A   1      40.880  28.389  29.023  1.00  0.00     0.148 A 
ATOM     80  C   UNL A   1      39.336  26.047  28.942  1.00  0.00     0.002 A 
ATOM     81  C   UNL A   1      40.948  27.539  27.924  1.00  0.00     0.091 A 
ATOM     82  F   UNL A   1      41.643  29.488  29.112  1.00  0.00    -0.205 F 
ATOM     83  C   UNL A   1      40.193  26.357  27.891  1.00  0.00     0.022 A 
BRANCH  81  84
ATOM     84  S   UNL A   1      41.945  27.914  26.477  1.00  0.00     0.127 S 
ATOM     85  O   UNL A   1      41.588  29.308  26.221  1.00  0.00    -0.237 OA
ATOM     86  O   UNL A   1      43.302  27.709  26.983  1.00  0.00    -0.237 OA
ATOM     87  O   UNL A   1      41.532  26.958  25.458  1.00  0.00    -0.744 OA
ENDBRANCH  81  84
ENDBRANCH  53  77
BRANCH  65  88
ATOM     88  C   UNL A   1      44.181  28.628  35.658  1.00  0.00     0.023 A 
ATOM     89  C   UNL A   1      45.453  29.078  35.255  1.00  0.00     0.012 A 
ATOM     90  C   UNL A   1      44.086  27.523  36.531  1.00  0.00     0.148 A 
ATOM     91  C   UNL A   1      46.608  28.420  35.682  1.00  0.00     0.002 A 
ATOM     92  C   UNL A   1      45.241  26.906  36.994  1.00  0.00     0.091 A 
ATOM     93  F   UNL A   1      42.866  27.101  36.896  1.00  0.00    -0.205 F 
ATOM     94  C   UNL A   1      46.502  27.343  36.559  1.00  0.00     0.022 A 
BRANCH  92  95
ATOM     95  S   UNL A   1      45.210  25.577  38.203  1.00  0.00     0.127 S 
ATOM     96  O   UNL A   1      44.508  24.524  37.470  1.00  0.00    -0.237 OA
ATOM     97  O   UNL A   1      46.635  25.323  38.421  1.00  0.00    -0.237 OA
ATOM     98  O   UNL A   1      44.504  26.103  39.363  1.00  0.00    -0.744 OA
ENDBRANCH  92  95
ENDBRANCH  65  88
ENDBRANCH  39  40
ENDBRANCH  32  34
ENDBRANCH  31  32
ENDBRANCH  30  31
ENDBRANCH  29  30
ENDBRANCH  28  29
ENDBRANCH  27  28
ENDBRANCH   1  27
TORSDOF 23
ENDMDL
MODEL 2
REMARK VINA RESULT:     -10.1      1.728      8.225
REMARK SMILES Cc1ccc(NS(=O)(=O)N2CCCC[C@@H]2C(=O)OCCOCCOCCOC(=O)c2ccc(-c3c4nc(c(-c5cccc(S(=O)(=O)[O-])c5F)c5ccc([nH]5)c(-c5cccc(S(=O)(=O)[O-])c5F)c5nc(c(-c6cccc(S(=O)(=O)[O-])c6F)c6ccc3[nH]6)C=C5)C=C4)cc2)c(C)n1
REMARK SMILES IDX 22 1 21 2 20 3 19 4 18 5 16 6 17 7 15 8 10 9 11 10 12 11
REMARK SMILES IDX 14 12 13 13 7 14 8 15 9 16 6 17 5 19 1 20 2 21 3 22 95 23
REMARK SMILES IDX 4 24 93 25 94 26 23 27 24 28 25 29 26 30 27 31 28 32 29 33
REMARK SMILES IDX 30 34 31 35 92 36 32 37 91 38 33 39 34 40 35 41 85 42 36 43
REMARK SMILES IDX 90 44 84 45 86 46 37 47 89 48 83 49 82 50 38 52 70 53 50 54
REMARK SMILES IDX 69 55 51 56 54 57 68 58 87 59 52 60 53 61 67 63 88 64 55 65
REMARK SMILES IDX 39 66 40 67 48 68 41 69 43 70 49 71 42 72 44 73 45 74 46 75
REMARK SMILES IDX 47 76 71 77 72 78 80 79 73 80 75 81 81 82 74 83 76 84 77 85
REMARK SMILES IDX 78 86 79 87 56 88 57 89 65 90 58 91 60 92 66 93 59 94 61 95
REMARK SMILES IDX 62 96 63 97 64 98
REMARK H PARENT 6 18 86 51 54 62
REMARK Flexibility Score: inf
ROOT
ATOM      1  C   UNL A   1      34.055  29.111  26.986  1.00  0.00     0.188 C 
ENDROOT
BRANCH   1   2
ATOM      2  O   UNL A   1      32.897  28.483  27.506  1.00  0.00    -0.376 OA
BRANCH   2   3
ATOM      3  C   UNL A   1      32.026  27.840  26.608  1.00  0.00     0.202 C 
BRANCH   3   4
ATOM      4  C   UNL A   1      32.323  26.404  26.162  1.00  0.00     0.261 C 
BRANCH   4   5
ATOM      5  O   UNL A   1      31.740  25.288  26.871  1.00  0.00    -0.462 OA
BRANCH   5   6
ATOM      6  C   UNL A   1      32.220  24.051  26.557  1.00  0.00     0.324 C 
ATOM      7  O   UNL A   1      31.776  23.021  27.053  1.00  0.00    -0.250 OA
BRANCH   6   8
ATOM      8  C   UNL A   1      33.405  24.042  25.572  1.00  0.00     0.184 C 
ATOM      9  N   UNL A   1      33.237  23.271  24.295  1.00  0.00    -0.170 NA
ATOM     10  C   UNL A   1      34.247  23.734  23.301  1.00  0.00     0.105 C 
ATOM     11  C   UNL A   1      35.618  23.249  23.757  1.00  0.00     0.017 C 
ATOM     12  C   UNL A   1      34.765  23.598  26.162  1.00  0.00     0.032 C 
ATOM     13  C   UNL A   1      35.941  23.717  25.175  1.00  0.00     0.004 C 
BRANCH   9  14
ATOM     14  S   UNL A   1      31.699  23.055  23.659  1.00  0.00     0.302 S 
ATOM     15  O   UNL A   1      30.729  23.142  24.722  1.00  0.00    -0.189 OA
ATOM     16  O   UNL A   1      31.736  21.887  22.811  1.00  0.00    -0.189 OA
BRANCH  14  17
ATOM     17  N   UNL A   1      31.481  24.364  22.677  1.00  0.00    -0.269 N 
ATOM     18  H   UNL A   1      31.553  24.184  21.712  1.00  0.00     0.181 HD
BRANCH  17  19
ATOM     19  C   UNL A   1      31.200  25.735  23.029  1.00  0.00     0.071 A 
ATOM     20  C   UNL A   1      29.158  29.438  22.556  1.00  0.00     0.067 C 
ATOM     21  C   UNL A   1      29.897  28.197  22.951  1.00  0.00     0.038 A 
ATOM     22  C   UNL A   1      29.260  27.132  23.553  1.00  0.00     0.026 A 
ATOM     23  N   UNL A   1      31.177  28.113  22.548  1.00  0.00    -0.256 NA
ATOM     24  C   UNL A   1      29.926  25.905  23.602  1.00  0.00     0.030 A 
ATOM     25  C   UNL A   1      31.827  26.909  22.597  1.00  0.00     0.062 A 
ATOM     26  C   UNL A   1      33.218  27.043  22.086  1.00  0.00     0.069 C 
ENDBRANCH  17  19
ENDBRANCH  14  17
ENDBRANCH   9  14
ENDBRANCH   6   8
ENDBRANCH   5   6
ENDBRANCH   4   5
ENDBRANCH   3   4
ENDBRANCH   2   3
ENDBRANCH   1   2
BRANCH   1  27
ATOM     27  C   UNL A   1      34.296  30.606  27.275  1.00  0.00     0.188 C 
BRANCH  27  28
ATOM     28  O   UNL A   1      33.245  31.249  27.972  1.00  0.00    -0.376 OA
BRANCH  28  29
ATOM     29  C   UNL A   1      32.289  31.878  27.135  1.00  0.00     0.202 C 
BRANCH  29  30
ATOM     30  C   UNL A   1      32.454  33.401  27.076  1.00  0.00     0.261 C 
BRANCH  30  31
ATOM     31  O   UNL A   1      32.223  34.114  28.309  1.00  0.00    -0.460 OA
BRANCH  31  32
ATOM     32  C   UNL A   1      33.125  35.043  28.711  1.00  0.00     0.338 C 
ATOM     33  O   UNL A   1      32.936  36.244  28.789  1.00  0.00    -0.246 OA
BRANCH  32  34
ATOM     34  C   UNL A   1      34.288  34.319  29.301  1.00  0.00     0.060 A 
ATOM     35  C   UNL A   1      34.077  33.422  30.362  1.00  0.00     0.016 A 
ATOM     36  C   UNL A   1      35.566  34.446  28.750  1.00  0.00     0.016 A 
ATOM     37  C   UNL A   1      35.144  32.677  30.888  1.00  0.00     0.010 A 
ATOM     38  C   UNL A   1      36.634  33.717  29.289  1.00  0.00     0.010 A 
ATOM     39  C   UNL A   1      36.440  32.853  30.383  1.00  0.00    -0.014 A 
BRANCH  39  40
ATOM     40  C   UNL A   1      37.625  32.352  31.136  1.00  0.00     0.031 A 
ATOM     41  C   UNL A   1      38.362  31.167  30.559  1.00  0.00     0.074 A 
ATOM     42  C   UNL A   1      38.039  32.890  32.299  1.00  0.00     0.049 A 
ATOM     43  N   UNL A   1      39.354  30.478  31.058  1.00  0.00    -0.248 NA
ATOM     44  C   UNL A   1      37.906  30.695  29.239  1.00  0.00     0.031 C 
ATOM     45  C   UNL A   1      37.439  34.043  32.968  1.00  0.00     0.029 A 
ATOM     46  N   UNL A   1      39.055  32.505  33.144  1.00  0.00    -0.354 N 
ATOM     47  C   UNL A   1      39.627  29.481  30.127  1.00  0.00     0.074 A 
ATOM     48  C   UNL A   1      38.682  29.641  29.045  1.00  0.00     0.031 C 
ATOM     49  C   UNL A   1      38.075  34.249  34.138  1.00  0.00     0.029 A 
ATOM     50  C   UNL A   1      39.107  33.227  34.316  1.00  0.00     0.049 A 
ATOM     51  H   UNL A   1      39.687  31.781  32.931  1.00  0.00     0.167 HD
ATOM     52  C   UNL A   1      40.588  28.529  30.153  1.00  0.00     0.034 A 
ATOM     53  C   UNL A   1      39.875  33.061  35.415  1.00  0.00     0.034 A 
ATOM     54  C   UNL A   1      41.533  28.361  31.222  1.00  0.00     0.049 A 
ATOM     55  C   UNL A   1      40.900  31.948  35.446  1.00  0.00     0.074 A 
ATOM     56  C   UNL A   1      42.548  27.427  31.332  1.00  0.00     0.029 A 
ATOM     57  N   UNL A   1      41.575  29.137  32.367  1.00  0.00    -0.354 N 
ATOM     58  N   UNL A   1      41.208  31.076  34.517  1.00  0.00    -0.248 NA
ATOM     59  C   UNL A   1      41.708  31.818  36.672  1.00  0.00     0.031 C 
ATOM     60  C   UNL A   1      43.190  27.625  32.558  1.00  0.00     0.029 A 
ATOM     61  C   UNL A   1      42.599  28.704  33.192  1.00  0.00     0.049 A 
ATOM     62  H   UNL A   1      40.967  29.885  32.567  1.00  0.00     0.167 HD
ATOM     63  C   UNL A   1      42.271  30.333  35.024  1.00  0.00     0.074 A 
ATOM     64  C   UNL A   1      42.568  30.868  36.335  1.00  0.00     0.031 C 
ATOM     65  C   UNL A   1      42.934  29.290  34.463  1.00  0.00     0.034 A 
BRANCH  52  66
ATOM     66  C   UNL A   1      40.687  27.609  28.965  1.00  0.00     0.023 A 
ATOM     67  C   UNL A   1      39.777  26.538  28.840  1.00  0.00     0.012 A 
ATOM     68  C   UNL A   1      41.634  27.834  27.947  1.00  0.00     0.148 A 
ATOM     69  C   UNL A   1      39.828  25.687  27.738  1.00  0.00     0.002 A 
ATOM     70  C   UNL A   1      41.648  27.009  26.828  1.00  0.00     0.091 A 
ATOM     71  F   UNL A   1      42.502  28.845  28.095  1.00  0.00    -0.205 F 
ATOM     72  C   UNL A   1      40.754  25.930  26.728  1.00  0.00     0.022 A 
BRANCH  70  73
ATOM     73  S   UNL A   1      42.749  27.280  25.436  1.00  0.00     0.127 S 
ATOM     74  O   UNL A   1      44.036  27.455  26.109  1.00  0.00    -0.237 OA
ATOM     75  O   UNL A   1      42.614  26.027  24.693  1.00  0.00    -0.237 OA
ATOM     76  O   UNL A   1      42.246  28.459  24.746  1.00  0.00    -0.744 OA
ENDBRANCH  70  73
ENDBRANCH  52  66
BRANCH  53  77
ATOM     77  C   UNL A   1      39.731  33.965  36.597  1.00  0.00     0.023 A 
ATOM     78  C   UNL A   1      40.231  35.282  36.534  1.00  0.00     0.012 A 
ATOM     79  C   UNL A   1      39.156  33.512  37.801  1.00  0.00     0.148 A 
ATOM     80  C   UNL A   1      40.208  36.110  37.659  1.00  0.00     0.002 A 
ATOM     81  C   UNL A   1      39.084  34.362  38.899  1.00  0.00     0.091 A 
ATOM     82  F   UNL A   1      38.708  32.250  37.855  1.00  0.00    -0.205 F 
ATOM     83  C   UNL A   1      39.628  35.653  38.838  1.00  0.00     0.022 A 
BRANCH  81  84
ATOM     84  S   UNL A   1      38.259  33.894  40.426  1.00  0.00     0.127 S 
ATOM     85  O   UNL A   1      38.296  35.144  41.181  1.00  0.00    -0.237 OA
ATOM     86  O   UNL A   1      36.933  33.505  39.946  1.00  0.00    -0.237 OA
ATOM     87  O   UNL A   1      39.045  32.798  40.976  1.00  0.00    -0.744 OA
ENDBRANCH  81  84
ENDBRANCH  53  77
BRANCH  65  88
ATOM     88  C   UNL A   1      44.095  28.695  35.220  1.00  0.00     0.023 A 
ATOM     89  C   UNL A   1      45.397  29.198  35.036  1.00  0.00     0.012 A 
ATOM     90  C   UNL A   1      43.876  27.684  36.180  1.00  0.00     0.148 A 
ATOM     91  C   UNL A   1      46.468  28.679  35.765  1.00  0.00     0.002 A 
ATOM     92  C   UNL A   1      44.938  27.210  36.939  1.00  0.00     0.091 A 
ATOM     93  F   UNL A   1      42.631  27.208  36.334  1.00  0.00    -0.205 F 
ATOM     94  C   UNL A   1      46.237  27.696  36.724  1.00  0.00     0.022 A 
BRANCH  92  95
ATOM     95  S   UNL A   1      44.722  26.016  38.265  1.00  0.00     0.127 S 
ATOM     96  O   UNL A   1      46.100  25.805  38.705  1.00  0.00    -0.237 OA
ATOM     97  O   UNL A   1      43.885  26.755  39.213  1.00  0.00    -0.237 OA
ATOM     98  O   UNL A   1      44.076  24.857  37.664  1.00  0.00    -0.744 OA
ENDBRANCH  92  95
ENDBRANCH  65  88
ENDBRANCH  39  40
ENDBRANCH  32  34
ENDBRANCH  31  32
ENDBRANCH  30  31
ENDBRANCH  29  30
ENDBRANCH  28  29
ENDBRANCH  27  28
ENDBRANCH   1  27
TORSDOF 23
ENDMDL
MODEL 3
REMARK VINA RESULT:     -10.1      2.231      3.245
REMARK SMILES Cc1ccc(NS(=O)(=O)N2CCCC[C@@H]2C(=O)OCCOCCOCCOC(=O)c2ccc(-c3c4nc(c(-c5cccc(S(=O)(=O)[O-])c5F)c5ccc([nH]5)c(-c5cccc(S(=O)(=O)[O-])c5F)c5nc(c(-c6cccc(S(=O)(=O)[O-])c6F)c6ccc3[nH]6)C=C5)C=C4)cc2)c(C)n1
REMARK SMILES IDX 22 1 21 2 20 3 19 4 18 5 16 6 17 7 15 8 10 9 11 10 12 11
REMARK SMILES IDX 14 12 13 13 7 14 8 15 9 16 6 17 5 19 1 20 2 21 3 22 95 23
REMARK SMILES IDX 4 24 93 25 94 26 23 27 24 28 25 29 26 30 27 31 28 32 29 33
REMARK SMILES IDX 30 34 31 35 92 36 32 37 91 38 33 39 34 40 35 41 85 42 36 43
REMARK SMILES IDX 90 44 84 45 86 46 37 47 89 48 83 49 82 50 38 52 70 53 50 54
REMARK SMILES IDX 69 55 51 56 54 57 68 58 87 59 52 60 53 61 67 63 88 64 55 65
REMARK SMILES IDX 39 66 40 67 48 68 41 69 43 70 49 71 42 72 44 73 45 74 46 75
REMARK SMILES IDX 47 76 71 77 72 78 80 79 73 80 75 81 81 82 74 83 76 84 77 85
REMARK SMILES IDX 78 86 79 87 56 88 57 89 65 90 58 91 60 92 66 93 59 94 61 95
REMARK SMILES IDX 62 96 63 97 64 98
REMARK H PARENT 6 18 86 51 54 62
REMARK Flexibility Score: inf
ROOT
ATOM      1  C   UNL A   1      32.271  29.139  26.878  1.00  0.00     0.188 C 
ENDROOT
BRANCH   1   2
ATOM      2  O   UNL A   1      32.969  28.486  25.832  1.00  0.00    -0.376 OA
BRANCH   2   3
ATOM      3  C   UNL A   1      33.371  29.248  24.720  1.00  0.00     0.202 C 
BRANCH   3   4
ATOM      4  C   UNL A   1      33.051  28.750  23.306  1.00  0.00     0.261 C 
BRANCH   4   5
ATOM      5  O   UNL A   1      31.679  28.590  22.885  1.00  0.00    -0.462 OA
BRANCH   5   6
ATOM      6  C   UNL A   1      31.228  27.310  22.756  1.00  0.00     0.324 C 
ATOM      7  O   UNL A   1      30.941  26.813  21.672  1.00  0.00    -0.250 OA
BRANCH   6   8
ATOM      8  C   UNL A   1      31.050  26.545  24.082  1.00  0.00     0.184 C 
ATOM      9  N   UNL A   1      31.818  25.266  24.250  1.00  0.00    -0.170 NA
ATOM     10  C   UNL A   1      31.890  24.919  25.698  1.00  0.00     0.105 C 
ATOM     11  C   UNL A   1      30.500  24.489  26.153  1.00  0.00     0.017 C 
ATOM     12  C   UNL A   1      29.590  26.221  24.479  1.00  0.00     0.032 C 
ATOM     13  C   UNL A   1      29.452  25.562  25.864  1.00  0.00     0.004 C 
BRANCH   9  14
ATOM     14  S   UNL A   1      33.262  25.056  23.422  1.00  0.00     0.302 S 
ATOM     15  O   UNL A   1      34.279  25.882  24.025  1.00  0.00    -0.189 OA
ATOM     16  O   UNL A   1      32.980  25.176  22.011  1.00  0.00    -0.189 OA
BRANCH  14  17
ATOM     17  N   UNL A   1      33.666  23.481  23.707  1.00  0.00    -0.269 N 
ATOM     18  H   UNL A   1      33.025  22.814  23.371  1.00  0.00     0.181 HD
BRANCH  17  19
ATOM     19  C   UNL A   1      34.823  22.941  24.378  1.00  0.00     0.071 A 
ATOM     20  C   UNL A   1      37.858  20.015  24.960  1.00  0.00     0.067 C 
ATOM     21  C   UNL A   1      36.947  21.197  24.846  1.00  0.00     0.038 A 
ATOM     22  C   UNL A   1      37.047  22.095  23.802  1.00  0.00     0.026 A 
ATOM     23  N   UNL A   1      35.931  21.253  25.725  1.00  0.00    -0.256 NA
ATOM     24  C   UNL A   1      35.985  22.976  23.584  1.00  0.00     0.030 A 
ATOM     25  C   UNL A   1      34.892  22.117  25.507  1.00  0.00     0.062 A 
ATOM     26  C   UNL A   1      33.875  21.996  26.587  1.00  0.00     0.069 C 
ENDBRANCH  17  19
ENDBRANCH  14  17
ENDBRANCH   9  14
ENDBRANCH   6   8
ENDBRANCH   5   6
ENDBRANCH   4   5
ENDBRANCH   3   4
ENDBRANCH   2   3
ENDBRANCH   1   2
BRANCH   1  27
ATOM     27  C   UNL A   1      32.496  30.646  27.108  1.00  0.00     0.188 C 
BRANCH  27  28
ATOM     28  O   UNL A   1      31.559  31.488  26.461  1.00  0.00    -0.376 OA
BRANCH  28  29
ATOM     29  C   UNL A   1      31.658  32.856  26.820  1.00  0.00     0.202 C 
BRANCH  29  30
ATOM     30  C   UNL A   1      32.992  33.204  27.491  1.00  0.00     0.261 C 
BRANCH  30  31
ATOM     31  O   UNL A   1      33.217  34.601  27.770  1.00  0.00    -0.460 OA
BRANCH  31  32
ATOM     32  C   UNL A   1      33.694  34.960  28.988  1.00  0.00     0.338 C 
ATOM     33  O   UNL A   1      33.200  35.779  29.742  1.00  0.00    -0.246 OA
BRANCH  32  34
ATOM     34  C   UNL A   1      34.763  33.988  29.361  1.00  0.00     0.060 A 
ATOM     35  C   UNL A   1      34.438  32.881  30.162  1.00  0.00     0.016 A 
ATOM     36  C   UNL A   1      36.055  34.110  28.844  1.00  0.00     0.016 A 
ATOM     37  C   UNL A   1      35.410  31.915  30.469  1.00  0.00     0.010 A 
ATOM     38  C   UNL A   1      37.029  33.157  29.167  1.00  0.00     0.010 A 
ATOM     39  C   UNL A   1      36.725  32.071  30.010  1.00  0.00    -0.014 A 
BRANCH  39  40
ATOM     40  C   UNL A   1      37.837  31.269  30.596  1.00  0.00     0.031 A 
ATOM     41  C   UNL A   1      38.251  31.589  32.011  1.00  0.00     0.074 A 
ATOM     42  C   UNL A   1      38.489  30.308  29.914  1.00  0.00     0.049 A 
ATOM     43  N   UNL A   1      39.244  31.117  32.718  1.00  0.00    -0.248 NA
ATOM     44  C   UNL A   1      37.430  32.587  32.721  1.00  0.00     0.031 C 
ATOM     45  C   UNL A   1      38.192  29.878  28.549  1.00  0.00     0.029 A 
ATOM     46  N   UNL A   1      39.569  29.537  30.279  1.00  0.00    -0.354 N 
ATOM     47  C   UNL A   1      39.182  31.773  33.943  1.00  0.00     0.074 A 
ATOM     48  C   UNL A   1      38.067  32.691  33.877  1.00  0.00     0.031 C 
ATOM     49  C   UNL A   1      39.092  28.947  28.178  1.00  0.00     0.029 A 
ATOM     50  C   UNL A   1      40.047  28.735  29.267  1.00  0.00     0.049 A 
ATOM     51  H   UNL A   1      39.965  29.558  31.180  1.00  0.00     0.167 HD
ATOM     52  C   UNL A   1      39.963  31.615  35.037  1.00  0.00     0.034 A 
ATOM     53  C   UNL A   1      41.143  27.947  29.216  1.00  0.00     0.034 A 
ATOM     54  C   UNL A   1      41.071  30.705  35.115  1.00  0.00     0.049 A 
ATOM     55  C   UNL A   1      42.038  27.836  30.430  1.00  0.00     0.074 A 
ATOM     56  C   UNL A   1      41.917  30.471  36.185  1.00  0.00     0.029 A 
ATOM     57  N   UNL A   1      41.494  29.884  34.083  1.00  0.00    -0.354 N 
ATOM     58  N   UNL A   1      41.908  28.390  31.612  1.00  0.00    -0.248 NA
ATOM     59  C   UNL A   1      43.219  26.961  30.313  1.00  0.00     0.031 C 
ATOM     60  C   UNL A   1      42.867  29.525  35.792  1.00  0.00     0.029 A 
ATOM     61  C   UNL A   1      42.590  29.143  34.490  1.00  0.00     0.049 A 
ATOM     62  H   UNL A   1      41.078  29.836  33.192  1.00  0.00     0.167 HD
ATOM     63  C   UNL A   1      42.955  27.895  32.386  1.00  0.00     0.074 A 
ATOM     64  C   UNL A   1      43.699  26.981  31.548  1.00  0.00     0.031 C 
ATOM     65  C   UNL A   1      43.280  28.180  33.672  1.00  0.00     0.034 A 
BRANCH  52  66
ATOM     66  C   UNL A   1      39.622  32.428  36.257  1.00  0.00     0.023 A 
ATOM     67  C   UNL A   1      40.235  33.683  36.447  1.00  0.00     0.012 A 
ATOM     68  C   UNL A   1      38.657  31.982  37.182  1.00  0.00     0.148 A 
ATOM     69  C   UNL A   1      39.919  34.469  37.554  1.00  0.00     0.002 A 
ATOM     70  C   UNL A   1      38.312  32.793  38.258  1.00  0.00     0.091 A 
ATOM     71  F   UNL A   1      38.100  30.778  36.994  1.00  0.00    -0.205 F 
ATOM     72  C   UNL A   1      38.950  34.029  38.451  1.00  0.00     0.022 A 
BRANCH  70  73
ATOM     73  S   UNL A   1      37.023  32.356  39.429  1.00  0.00     0.127 S 
ATOM     74  O   UNL A   1      37.336  33.238  40.553  1.00  0.00    -0.237 OA
ATOM     75  O   UNL A   1      35.810  32.711  38.693  1.00  0.00    -0.237 OA
ATOM     76  O   UNL A   1      37.184  30.933  39.696  1.00  0.00    -0.744 OA
ENDBRANCH  70  73
ENDBRANCH  52  66
BRANCH  53  77
ATOM     77  C   UNL A   1      41.481  27.179  27.977  1.00  0.00     0.023 A 
ATOM     78  C   UNL A   1      41.966  27.862  26.843  1.00  0.00     0.012 A 
ATOM     79  C   UNL A   1      41.267  25.789  27.896  1.00  0.00     0.148 A 
ATOM     80  C   UNL A   1      42.185  27.185  25.641  1.00  0.00     0.002 A 
ATOM     81  C   UNL A   1      41.542  25.112  26.713  1.00  0.00     0.091 A 
ATOM     82  F   UNL A   1      40.781  25.157  28.974  1.00  0.00    -0.205 F 
ATOM     83  C   UNL A   1      41.980  25.810  25.577  1.00  0.00     0.022 A 
BRANCH  81  84
ATOM     84  S   UNL A   1      41.409  23.326  26.573  1.00  0.00     0.127 S 
ATOM     85  O   UNL A   1      39.982  23.152  26.309  1.00  0.00    -0.237 OA
ATOM     86  O   UNL A   1      42.283  23.045  25.434  1.00  0.00    -0.237 OA
ATOM     87  O   UNL A   1      41.886  22.796  27.843  1.00  0.00    -0.744 OA
ENDBRANCH  81  84
ENDBRANCH  53  77
BRANCH  65  88
ATOM     88  C   UNL A   1      44.448  27.453  34.289  1.00  0.00     0.023 A 
ATOM     89  C   UNL A   1      45.749  27.985  34.192  1.00  0.00     0.012 A 
ATOM     90  C   UNL A   1      44.240  26.275  35.037  1.00  0.00     0.148 A 
ATOM     91  C   UNL A   1      46.827  27.338  34.797  1.00  0.00     0.002 A 
ATOM     92  C   UNL A   1      45.310  25.666  35.680  1.00  0.00     0.091 A 
ATOM     93  F   UNL A   1      42.997  25.776  35.109  1.00  0.00    -0.205 F 
ATOM     94  C   UNL A   1      46.606  26.187  35.550  1.00  0.00     0.022 A 
BRANCH  92  95
ATOM     95  S   UNL A   1      45.108  24.238  36.753  1.00  0.00     0.127 S 
ATOM     96  O   UNL A   1      46.482  23.996  37.189  1.00  0.00    -0.237 OA
ATOM     97  O   UNL A   1      44.219  24.757  37.794  1.00  0.00    -0.237 OA
ATOM     98  O   UNL A   1      44.524  23.191  35.926  1.00  0.00    -0.744 OA
ENDBRANCH  92  95
ENDBRANCH  65  88
ENDBRANCH  39  40
ENDBRANCH  32  34
ENDBRANCH  31  32
ENDBRANCH  30  31
ENDBRANCH  29  30
ENDBRANCH  28  29
ENDBRANCH  27  28
ENDBRANCH   1  27
TORSDOF 23
ENDMDL
