MODEL 1
REMARK VINA RESULT:     -10.0      0.000      0.000
REMARK SMILES Cc1cccc([C@@H](CC(=O)OCCOCCOCCOC(=O)c2ccc(-c3c4nc(c(-c5cccc(S(=O)(=O)[O-])c5F)c5ccc([nH]5)c(-c5cccc(S(=O)(=O)[O-])c5F)c5nc(c(-c6cccc(S(=O)(=O)[O-])c6F)c6ccc3[nH]6)C=C5)C=C4)cc2)NC(=O)OC(C)(C)C)c1
REMARK SMILES IDX 15 1 14 2 13 3 12 4 11 5 9 6 10 7 8 8 7 9 6 10 1 11 2 12
REMARK SMILES IDX 3 13 94 14 4 15 5 16 86 17 87 18 88 20 89 21 90 22 91 23
REMARK SMILES IDX 92 24 93 25 16 26 17 27 18 28 19 29 20 30 21 31 22 32 23 33
REMARK SMILES IDX 24 34 85 35 25 36 84 37 26 38 27 39 28 40 78 41 29 42 83 43
REMARK SMILES IDX 77 44 79 45 30 46 82 47 76 48 75 49 31 51 63 52 43 53 62 54
REMARK SMILES IDX 44 55 47 56 61 57 80 58 45 59 46 60 60 62 81 63 48 64 32 65
REMARK SMILES IDX 33 66 41 67 34 68 36 69 42 70 35 71 37 72 38 73 39 74 40 75
REMARK SMILES IDX 64 76 65 77 73 78 66 79 68 80 74 81 67 82 69 83 70 84 71 85
REMARK SMILES IDX 72 86 49 87 50 88 58 89 51 90 53 91 59 92 52 93 54 94 55 95
REMARK SMILES IDX 56 96 57 97
REMARK H PARENT 86 19 79 50 47 61
REMARK Flexibility Score: inf
ROOT
ATOM      1  C   UNL A   1      32.244  29.659  24.901  1.00  0.00     0.188 C 
ENDROOT
BRANCH   1   2
ATOM      2  O   UNL A   1      30.936  29.166  24.633  1.00  0.00    -0.376 OA
BRANCH   2   3
ATOM      3  C   UNL A   1      30.823  27.891  24.031  1.00  0.00     0.202 C 
BRANCH   3   4
ATOM      4  C   UNL A   1      31.776  27.760  22.818  1.00  0.00     0.261 C 
BRANCH   4   5
ATOM      5  O   UNL A   1      31.398  26.781  21.777  1.00  0.00    -0.463 OA
BRANCH   5   6
ATOM      6  C   UNL A   1      32.249  25.716  21.691  1.00  0.00     0.308 C 
ATOM      7  O   UNL A   1      33.011  25.602  20.727  1.00  0.00    -0.252 OA
BRANCH   6   8
ATOM      8  C   UNL A   1      32.424  24.700  22.860  1.00  0.00     0.152 C 
BRANCH   8   9
ATOM      9  C   UNL A   1      32.542  24.641  24.398  1.00  0.00     0.127 C 
BRANCH   9  10
ATOM     10  C   UNL A   1      34.045  24.643  24.600  1.00  0.00    -0.025 A 
ATOM     11  C   UNL A   1      36.839  22.695  22.907  1.00  0.00     0.044 C 
ATOM     12  C   UNL A   1      36.023  23.408  23.943  1.00  0.00    -0.051 A 
ATOM     13  C   UNL A   1      36.400  23.353  25.290  1.00  0.00     0.003 A 
ATOM     14  C   UNL A   1      34.836  24.052  23.599  1.00  0.00     0.009 A 
ATOM     15  C   UNL A   1      35.664  24.022  26.269  1.00  0.00     0.001 A 
ATOM     16  C   UNL A   1      34.523  24.728  25.917  1.00  0.00     0.006 A 
ENDBRANCH   9  10
BRANCH   9  17
ATOM     17  N   UNL A   1      31.842  23.639  25.176  1.00  0.00    -0.314 N 
ATOM     18  C   UNL A   1      31.850  22.255  25.140  1.00  0.00     0.408 C 
ATOM     19  H   UNL A   1      31.245  24.014  25.862  1.00  0.00     0.167 HD
ATOM     20  O   UNL A   1      30.867  21.689  25.612  1.00  0.00    -0.225 OA
BRANCH  18  21
ATOM     21  O   UNL A   1      32.938  21.595  24.625  1.00  0.00    -0.444 OA
BRANCH  21  22
ATOM     22  C   UNL A   1      33.632  20.533  25.414  1.00  0.00     0.106 C 
ATOM     23  C   UNL A   1      32.800  19.243  25.522  1.00  0.00     0.056 C 
ATOM     24  C   UNL A   1      35.033  20.151  24.898  1.00  0.00     0.056 C 
ATOM     25  C   UNL A   1      33.808  21.061  26.852  1.00  0.00     0.056 C 
ENDBRANCH  21  22
ENDBRANCH  18  21
ENDBRANCH   9  17
ENDBRANCH   8   9
ENDBRANCH   6   8
ENDBRANCH   5   6
ENDBRANCH   4   5
ENDBRANCH   3   4
ENDBRANCH   2   3
ENDBRANCH   1   2
BRANCH   1  26
ATOM     26  C   UNL A   1      32.911  29.187  26.214  1.00  0.00     0.188 C 
BRANCH  26  27
ATOM     27  O   UNL A   1      34.028  30.002  26.537  1.00  0.00    -0.376 OA
BRANCH  27  28
ATOM     28  C   UNL A   1      34.778  29.705  27.705  1.00  0.00     0.202 C 
BRANCH  28  29
ATOM     29  C   UNL A   1      36.279  30.056  27.623  1.00  0.00     0.261 C 
BRANCH  29  30
ATOM     30  O   UNL A   1      37.034  29.072  28.360  1.00  0.00    -0.460 OA
BRANCH  30  31
ATOM     31  C   UNL A   1      38.045  29.517  29.177  1.00  0.00     0.338 C 
ATOM     32  O   UNL A   1      37.863  29.993  30.292  1.00  0.00    -0.246 OA
BRANCH  31  33
ATOM     33  C   UNL A   1      39.339  29.375  28.424  1.00  0.00     0.060 A 
ATOM     34  C   UNL A   1      39.590  28.870  27.143  1.00  0.00     0.016 A 
ATOM     35  C   UNL A   1      40.448  29.745  29.137  1.00  0.00     0.016 A 
ATOM     36  C   UNL A   1      40.915  28.856  26.570  1.00  0.00     0.010 A 
ATOM     37  C   UNL A   1      41.714  29.630  28.629  1.00  0.00     0.010 A 
ATOM     38  C   UNL A   1      42.016  29.281  27.314  1.00  0.00    -0.014 A 
BRANCH  38  39
ATOM     39  C   UNL A   1      43.495  29.217  27.102  1.00  0.00     0.031 A 
ATOM     40  C   UNL A   1      44.497  30.308  26.748  1.00  0.00     0.074 A 
ATOM     41  C   UNL A   1      43.989  28.198  27.854  1.00  0.00     0.049 A 
ATOM     42  N   UNL A   1      45.745  30.078  26.433  1.00  0.00    -0.248 NA
ATOM     43  C   UNL A   1      44.265  31.748  26.787  1.00  0.00     0.031 C 
ATOM     44  C   UNL A   1      45.259  28.103  28.552  1.00  0.00     0.029 A 
ATOM     45  N   UNL A   1      43.319  27.081  28.325  1.00  0.00    -0.354 N 
ATOM     46  C   UNL A   1      46.465  31.258  26.668  1.00  0.00     0.074 A 
ATOM     47  C   UNL A   1      45.484  32.288  26.733  1.00  0.00     0.031 C 
ATOM     48  C   UNL A   1      45.348  26.890  29.127  1.00  0.00     0.029 A 
ATOM     49  C   UNL A   1      44.201  26.101  28.719  1.00  0.00     0.049 A 
ATOM     50  H   UNL A   1      42.339  26.998  28.371  1.00  0.00     0.167 HD
ATOM     51  C   UNL A   1      47.770  31.264  27.086  1.00  0.00     0.034 A 
ATOM     52  C   UNL A   1      44.196  24.928  28.022  1.00  0.00     0.034 A 
ATOM     53  C   UNL A   1      48.225  29.884  27.324  1.00  0.00     0.049 A 
ATOM     54  C   UNL A   1      45.394  24.877  27.087  1.00  0.00     0.074 A 
ATOM     55  C   UNL A   1      48.592  29.157  28.447  1.00  0.00     0.029 A 
ATOM     56  N   UNL A   1      48.068  28.953  26.316  1.00  0.00    -0.354 N 
ATOM     57  N   UNL A   1      46.495  25.567  27.263  1.00  0.00    -0.248 NA
ATOM     58  C   UNL A   1      45.460  24.082  25.864  1.00  0.00     0.031 C 
ATOM     59  C   UNL A   1      48.618  27.772  28.095  1.00  0.00     0.029 A 
ATOM     60  C   UNL A   1      48.270  27.657  26.761  1.00  0.00     0.049 A 
ATOM     61  H   UNL A   1      47.839  29.185  25.386  1.00  0.00     0.167 HD
ATOM     62  C   UNL A   1      47.205  25.596  26.086  1.00  0.00     0.074 A 
ATOM     63  C   UNL A   1      46.622  24.503  25.328  1.00  0.00     0.031 C 
ATOM     64  C   UNL A   1      48.106  26.587  25.778  1.00  0.00     0.034 A 
BRANCH  51  65
ATOM     65  C   UNL A   1      48.569  32.491  27.604  1.00  0.00     0.023 A 
ATOM     66  C   UNL A   1      48.992  32.441  28.955  1.00  0.00     0.012 A 
ATOM     67  C   UNL A   1      48.943  33.680  26.915  1.00  0.00     0.148 A 
ATOM     68  C   UNL A   1      49.608  33.509  29.620  1.00  0.00     0.002 A 
ATOM     69  C   UNL A   1      49.519  34.776  27.592  1.00  0.00     0.091 A 
ATOM     70  F   UNL A   1      48.850  33.745  25.581  1.00  0.00    -0.205 F 
ATOM     71  C   UNL A   1      49.840  34.694  28.948  1.00  0.00     0.022 A 
BRANCH  69  72
ATOM     72  S   UNL A   1      49.797  36.383  26.804  1.00  0.00     0.127 S 
ATOM     73  O   UNL A   1      50.635  36.037  25.651  1.00  0.00    -0.237 OA
ATOM     74  O   UNL A   1      48.445  36.811  26.450  1.00  0.00    -0.237 OA
ATOM     75  O   UNL A   1      50.485  37.195  27.800  1.00  0.00    -0.744 OA
ENDBRANCH  69  72
ENDBRANCH  51  65
BRANCH  52  76
ATOM     76  C   UNL A   1      42.781  24.418  27.867  1.00  0.00     0.023 A 
ATOM     77  C   UNL A   1      41.873  25.402  27.387  1.00  0.00     0.012 A 
ATOM     78  C   UNL A   1      42.418  23.059  27.708  1.00  0.00     0.148 A 
ATOM     79  C   UNL A   1      40.720  25.061  26.672  1.00  0.00     0.002 A 
ATOM     80  C   UNL A   1      41.251  22.725  26.997  1.00  0.00     0.091 A 
ATOM     81  F   UNL A   1      43.246  22.113  28.169  1.00  0.00    -0.205 F 
ATOM     82  C   UNL A   1      40.427  23.725  26.450  1.00  0.00     0.022 A 
BRANCH  80  83
ATOM     83  S   UNL A   1      40.769  21.023  26.628  1.00  0.00     0.127 S 
ATOM     84  O   UNL A   1      40.715  20.438  27.965  1.00  0.00    -0.237 OA
ATOM     85  O   UNL A   1      39.464  21.195  25.989  1.00  0.00    -0.237 OA
ATOM     86  O   UNL A   1      41.804  20.507  25.745  1.00  0.00    -0.744 OA
ENDBRANCH  80  83
ENDBRANCH  52  76
BRANCH  64  87
ATOM     87  C   UNL A   1      48.832  26.790  24.442  1.00  0.00     0.023 A 
ATOM     88  C   UNL A   1      48.212  27.325  23.304  1.00  0.00     0.012 A 
ATOM     89  C   UNL A   1      50.247  26.609  24.361  1.00  0.00     0.148 A 
ATOM     90  C   UNL A   1      48.934  27.625  22.140  1.00  0.00     0.002 A 
ATOM     91  C   UNL A   1      50.976  27.050  23.261  1.00  0.00     0.091 A 
ATOM     92  F   UNL A   1      50.906  25.997  25.358  1.00  0.00    -0.205 F 
ATOM     93  C   UNL A   1      50.319  27.522  22.129  1.00  0.00     0.022 A 
BRANCH  91  94
ATOM     94  S   UNL A   1      52.767  27.211  23.358  1.00  0.00     0.127 S 
ATOM     95  O   UNL A   1      52.943  27.945  24.609  1.00  0.00    -0.237 OA
ATOM     96  O   UNL A   1      53.212  25.817  23.406  1.00  0.00    -0.237 OA
ATOM     97  O   UNL A   1      53.135  27.912  22.136  1.00  0.00    -0.744 OA
ENDBRANCH  91  94
ENDBRANCH  64  87
ENDBRANCH  38  39
ENDBRANCH  31  33
ENDBRANCH  30  31
ENDBRANCH  29  30
ENDBRANCH  28  29
ENDBRANCH  27  28
ENDBRANCH  26  27
ENDBRANCH   1  26
TORSDOF 25
ENDMDL
MODEL 2
REMARK VINA RESULT:      -9.7      3.913      8.866
REMARK SMILES Cc1cccc([C@@H](CC(=O)OCCOCCOCCOC(=O)c2ccc(-c3c4nc(c(-c5cccc(S(=O)(=O)[O-])c5F)c5ccc([nH]5)c(-c5cccc(S(=O)(=O)[O-])c5F)c5nc(c(-c6cccc(S(=O)(=O)[O-])c6F)c6ccc3[nH]6)C=C5)C=C4)cc2)NC(=O)OC(C)(C)C)c1
REMARK SMILES IDX 15 1 14 2 13 3 12 4 11 5 9 6 10 7 8 8 7 9 6 10 1 11 2 12
REMARK SMILES IDX 3 13 94 14 4 15 5 16 86 17 87 18 88 20 89 21 90 22 91 23
REMARK SMILES IDX 92 24 93 25 16 26 17 27 18 28 19 29 20 30 21 31 22 32 23 33
REMARK SMILES IDX 24 34 85 35 25 36 84 37 26 38 27 39 28 40 78 41 29 42 83 43
REMARK SMILES IDX 77 44 79 45 30 46 82 47 76 48 75 49 31 51 63 52 43 53 62 54
REMARK SMILES IDX 44 55 47 56 61 57 80 58 45 59 46 60 60 62 81 63 48 64 32 65
REMARK SMILES IDX 33 66 41 67 34 68 36 69 42 70 35 71 37 72 38 73 39 74 40 75
REMARK SMILES IDX 64 76 65 77 73 78 66 79 68 80 74 81 67 82 69 83 70 84 71 85
REMARK SMILES IDX 72 86 49 87 50 88 58 89 51 90 53 91 59 92 52 93 54 94 55 95
REMARK SMILES IDX 56 96 57 97
REMARK H PARENT 86 19 79 50 47 61
REMARK Flexibility Score: inf
ROOT
ATOM      1  C   UNL A   1      38.638  20.259  25.322  1.00  0.00     0.188 C 
ENDROOT
BRANCH   1   2
ATOM      2  O   UNL A   1      37.849  21.239  24.656  1.00  0.00    -0.376 OA
BRANCH   2   3
ATOM      3  C   UNL A   1      36.548  21.487  25.153  1.00  0.00     0.202 C 
BRANCH   3   4
ATOM      4  C   UNL A   1      36.539  22.706  26.107  1.00  0.00     0.261 C 
BRANCH   4   5
ATOM      5  O   UNL A   1      35.659  23.835  25.739  1.00  0.00    -0.463 OA
BRANCH   5   6
ATOM      6  C   UNL A   1      34.429  23.787  26.331  1.00  0.00     0.308 C 
ATOM      7  O   UNL A   1      34.174  22.919  27.171  1.00  0.00    -0.252 OA
BRANCH   6   8
ATOM      8  C   UNL A   1      33.360  24.900  26.112  1.00  0.00     0.152 C 
BRANCH   8   9
ATOM      9  C   UNL A   1      32.640  25.675  24.988  1.00  0.00     0.127 C 
BRANCH   9  10
ATOM     10  C   UNL A   1      32.539  27.068  25.579  1.00  0.00    -0.025 A 
ATOM     11  C   UNL A   1      35.103  29.291  27.298  1.00  0.00     0.044 C 
ATOM     12  C   UNL A   1      33.811  28.623  26.933  1.00  0.00    -0.051 A 
ATOM     13  C   UNL A   1      32.679  28.803  27.737  1.00  0.00     0.003 A 
ATOM     14  C   UNL A   1      33.740  27.746  25.851  1.00  0.00     0.009 A 
ATOM     15  C   UNL A   1      31.463  28.203  27.407  1.00  0.00     0.001 A 
ATOM     16  C   UNL A   1      31.372  27.390  26.287  1.00  0.00     0.006 A 
ENDBRANCH   9  10
BRANCH   9  17
ATOM     17  N   UNL A   1      31.407  25.191  24.401  1.00  0.00    -0.314 N 
ATOM     18  C   UNL A   1      31.044  23.966  23.868  1.00  0.00     0.408 C 
ATOM     19  H   UNL A   1      30.689  25.863  24.374  1.00  0.00     0.167 HD
ATOM     20  O   UNL A   1      30.103  23.968  23.078  1.00  0.00    -0.225 OA
BRANCH  18  21
ATOM     21  O   UNL A   1      31.709  22.831  24.260  1.00  0.00    -0.444 OA
BRANCH  21  22
ATOM     22  C   UNL A   1      32.628  22.119  23.321  1.00  0.00     0.106 C 
ATOM     23  C   UNL A   1      31.874  21.438  22.165  1.00  0.00     0.056 C 
ATOM     24  C   UNL A   1      33.738  22.995  22.710  1.00  0.00     0.056 C 
ATOM     25  C   UNL A   1      33.323  20.994  24.113  1.00  0.00     0.056 C 
ENDBRANCH  21  22
ENDBRANCH  18  21
ENDBRANCH   9  17
ENDBRANCH   8   9
ENDBRANCH   6   8
ENDBRANCH   5   6
ENDBRANCH   4   5
ENDBRANCH   3   4
ENDBRANCH   2   3
ENDBRANCH   1   2
BRANCH   1  26
ATOM     26  C   UNL A   1      39.845  20.775  26.138  1.00  0.00     0.188 C 
BRANCH  26  27
ATOM     27  O   UNL A   1      40.748  19.718  26.430  1.00  0.00    -0.376 OA
BRANCH  27  28
ATOM     28  C   UNL A   1      41.972  20.024  27.081  1.00  0.00     0.202 C 
BRANCH  28  29
ATOM     29  C   UNL A   1      43.128  20.431  26.140  1.00  0.00     0.261 C 
BRANCH  29  30
ATOM     30  O   UNL A   1      43.561  21.765  26.475  1.00  0.00    -0.460 OA
BRANCH  30  31
ATOM     31  C   UNL A   1      43.102  22.803  25.701  1.00  0.00     0.338 C 
ATOM     32  O   UNL A   1      43.121  22.801  24.474  1.00  0.00    -0.246 OA
BRANCH  31  33
ATOM     33  C   UNL A   1      42.668  23.907  26.625  1.00  0.00     0.060 A 
ATOM     34  C   UNL A   1      41.747  23.894  27.679  1.00  0.00     0.016 A 
ATOM     35  C   UNL A   1      43.223  25.127  26.343  1.00  0.00     0.016 A 
ATOM     36  C   UNL A   1      41.494  25.062  28.489  1.00  0.00     0.010 A 
ATOM     37  C   UNL A   1      42.899  26.255  27.048  1.00  0.00     0.010 A 
ATOM     38  C   UNL A   1      42.111  26.278  28.197  1.00  0.00    -0.014 A 
BRANCH  38  39
ATOM     39  C   UNL A   1      41.930  27.677  28.695  1.00  0.00     0.031 A 
ATOM     40  C   UNL A   1      40.818  28.687  28.442  1.00  0.00     0.074 A 
ATOM     41  C   UNL A   1      42.543  27.781  29.904  1.00  0.00     0.049 A 
ATOM     42  N   UNL A   1      40.871  29.938  28.817  1.00  0.00    -0.248 NA
ATOM     43  C   UNL A   1      39.516  28.414  27.842  1.00  0.00     0.031 C 
ATOM     44  C   UNL A   1      42.155  28.557  31.068  1.00  0.00     0.029 A 
ATOM     45  N   UNL A   1      43.575  27.006  30.408  1.00  0.00    -0.354 N 
ATOM     46  C   UNL A   1      39.553  30.413  28.890  1.00  0.00     0.074 A 
ATOM     47  C   UNL A   1      38.780  29.488  28.133  1.00  0.00     0.031 C 
ATOM     48  C   UNL A   1      43.086  28.399  32.025  1.00  0.00     0.029 A 
ATOM     49  C   UNL A   1      44.182  27.620  31.478  1.00  0.00     0.049 A 
ATOM     50  H   UNL A   1      43.841  26.129  30.047  1.00  0.00     0.167 HD
ATOM     51  C   UNL A   1      39.150  31.352  29.802  1.00  0.00     0.034 A 
ATOM     52  C   UNL A   1      45.487  27.993  31.337  1.00  0.00     0.034 A 
ATOM     53  C   UNL A   1      40.265  31.683  30.706  1.00  0.00     0.049 A 
ATOM     54  C   UNL A   1      45.573  29.495  31.115  1.00  0.00     0.074 A 
ATOM     55  C   UNL A   1      40.518  31.486  32.055  1.00  0.00     0.029 A 
ATOM     56  N   UNL A   1      41.471  32.066  30.154  1.00  0.00    -0.354 N 
ATOM     57  N   UNL A   1      44.650  30.350  31.488  1.00  0.00    -0.248 NA
ATOM     58  C   UNL A   1      46.674  30.172  30.435  1.00  0.00     0.031 C 
ATOM     59  C   UNL A   1      41.908  31.727  32.289  1.00  0.00     0.029 A 
ATOM     60  C   UNL A   1      42.496  32.071  31.085  1.00  0.00     0.049 A 
ATOM     61  H   UNL A   1      41.589  32.307  29.206  1.00  0.00     0.167 HD
ATOM     62  C   UNL A   1      44.838  31.538  30.825  1.00  0.00     0.074 A 
ATOM     63  C   UNL A   1      46.208  31.433  30.351  1.00  0.00     0.031 C 
ATOM     64  C   UNL A   1      43.826  32.441  30.602  1.00  0.00     0.034 A 
BRANCH  51  65
ATOM     65  C   UNL A   1      37.685  31.758  30.125  1.00  0.00     0.023 A 
ATOM     66  C   UNL A   1      37.136  31.229  31.319  1.00  0.00     0.012 A 
ATOM     67  C   UNL A   1      36.798  32.592  29.388  1.00  0.00     0.148 A 
ATOM     68  C   UNL A   1      35.795  31.385  31.696  1.00  0.00     0.002 A 
ATOM     69  C   UNL A   1      35.435  32.713  29.739  1.00  0.00     0.091 A 
ATOM     70  F   UNL A   1      37.262  33.367  28.400  1.00  0.00    -0.205 F 
ATOM     71  C   UNL A   1      34.933  32.099  30.887  1.00  0.00     0.022 A 
BRANCH  69  72
ATOM     72  S   UNL A   1      34.227  33.575  28.702  1.00  0.00     0.127 S 
ATOM     73  O   UNL A   1      33.647  32.487  27.907  1.00  0.00    -0.237 OA
ATOM     74  O   UNL A   1      33.309  34.152  29.681  1.00  0.00    -0.237 OA
ATOM     75  O   UNL A   1      34.998  34.526  27.910  1.00  0.00    -0.744 OA
ENDBRANCH  69  72
ENDBRANCH  51  65
BRANCH  52  76
ATOM     76  C   UNL A   1      46.300  26.848  30.778  1.00  0.00     0.023 A 
ATOM     77  C   UNL A   1      46.063  26.605  29.397  1.00  0.00     0.012 A 
ATOM     78  C   UNL A   1      47.511  26.365  31.328  1.00  0.00     0.148 A 
ATOM     79  C   UNL A   1      47.028  26.022  28.569  1.00  0.00     0.002 A 
ATOM     80  C   UNL A   1      48.472  25.770  30.491  1.00  0.00     0.091 A 
ATOM     81  F   UNL A   1      47.752  26.564  32.631  1.00  0.00    -0.205 F 
ATOM     82  C   UNL A   1      48.244  25.635  29.110  1.00  0.00     0.022 A 
BRANCH  80  83
ATOM     83  S   UNL A   1      50.100  25.240  31.071  1.00  0.00     0.127 S 
ATOM     84  O   UNL A   1      49.752  24.505  32.285  1.00  0.00    -0.237 OA
ATOM     85  O   UNL A   1      50.570  24.400  29.969  1.00  0.00    -0.237 OA
ATOM     86  O   UNL A   1      50.865  26.463  31.260  1.00  0.00    -0.744 OA
ENDBRANCH  80  83
ENDBRANCH  52  76
BRANCH  64  87
ATOM     87  C   UNL A   1      43.898  33.715  29.751  1.00  0.00     0.023 A 
ATOM     88  C   UNL A   1      43.915  35.006  30.298  1.00  0.00     0.012 A 
ATOM     89  C   UNL A   1      44.140  33.624  28.345  1.00  0.00     0.148 A 
ATOM     90  C   UNL A   1      44.118  36.143  29.504  1.00  0.00     0.002 A 
ATOM     91  C   UNL A   1      44.490  34.741  27.593  1.00  0.00     0.091 A 
ATOM     92  F   UNL A   1      44.027  32.443  27.717  1.00  0.00    -0.205 F 
ATOM     93  C   UNL A   1      44.441  36.010  28.159  1.00  0.00     0.022 A 
BRANCH  91  94
ATOM     94  S   UNL A   1      45.207  34.548  25.952  1.00  0.00     0.127 S 
ATOM     95  O   UNL A   1      46.021  33.345  26.110  1.00  0.00    -0.237 OA
ATOM     96  O   UNL A   1      44.024  34.372  25.105  1.00  0.00    -0.237 OA
ATOM     97  O   UNL A   1      45.925  35.794  25.720  1.00  0.00    -0.744 OA
ENDBRANCH  91  94
ENDBRANCH  64  87
ENDBRANCH  38  39
ENDBRANCH  31  33
ENDBRANCH  30  31
ENDBRANCH  29  30
ENDBRANCH  28  29
ENDBRANCH  27  28
ENDBRANCH  26  27
ENDBRANCH   1  26
TORSDOF 25
ENDMDL
MODEL 3
REMARK VINA RESULT:      -9.3      6.034     10.450
REMARK SMILES Cc1cccc([C@@H](CC(=O)OCCOCCOCCOC(=O)c2ccc(-c3c4nc(c(-c5cccc(S(=O)(=O)[O-])c5F)c5ccc([nH]5)c(-c5cccc(S(=O)(=O)[O-])c5F)c5nc(c(-c6cccc(S(=O)(=O)[O-])c6F)c6ccc3[nH]6)C=C5)C=C4)cc2)NC(=O)OC(C)(C)C)c1
REMARK SMILES IDX 15 1 14 2 13 3 12 4 11 5 9 6 10 7 8 8 7 9 6 10 1 11 2 12
REMARK SMILES IDX 3 13 94 14 4 15 5 16 86 17 87 18 88 20 89 21 90 22 91 23
REMARK SMILES IDX 92 24 93 25 16 26 17 27 18 28 19 29 20 30 21 31 22 32 23 33
REMARK SMILES IDX 24 34 85 35 25 36 84 37 26 38 27 39 28 40 78 41 29 42 83 43
REMARK SMILES IDX 77 44 79 45 30 46 82 47 76 48 75 49 31 51 63 52 43 53 62 54
REMARK SMILES IDX 44 55 47 56 61 57 80 58 45 59 46 60 60 62 81 63 48 64 32 65
REMARK SMILES IDX 33 66 41 67 34 68 36 69 42 70 35 71 37 72 38 73 39 74 40 75
REMARK SMILES IDX 64 76 65 77 73 78 66 79 68 80 74 81 67 82 69 83 70 84 71 85
REMARK SMILES IDX 72 86 49 87 50 88 58 89 51 90 53 91 59 92 52 93 54 94 55 95
REMARK SMILES IDX 56 96 57 97
REMARK H PARENT 86 19 79 50 47 61
REMARK Flexibility Score: inf
ROOT
ATOM      1  C   UNL A   1      36.267  22.905  26.003  1.00  0.00     0.188 C 
ENDROOT
BRANCH   1   2
ATOM      2  O   UNL A   1      35.261  23.766  25.482  1.00  0.00    -0.376 OA
BRANCH   2   3
ATOM      3  C   UNL A   1      35.272  24.027  24.092  1.00  0.00     0.202 C 
BRANCH   3   4
ATOM      4  C   UNL A   1      34.379  25.243  23.745  1.00  0.00     0.261 C 
BRANCH   4   5
ATOM      5  O   UNL A   1      33.756  25.252  22.405  1.00  0.00    -0.463 OA
BRANCH   5   6
ATOM      6  C   UNL A   1      32.959  24.169  22.163  1.00  0.00     0.308 C 
ATOM      7  O   UNL A   1      33.280  23.336  21.311  1.00  0.00    -0.252 OA
BRANCH   6   8
ATOM      8  C   UNL A   1      31.718  23.841  23.047  1.00  0.00     0.152 C 
BRANCH   8   9
ATOM      9  C   UNL A   1      31.314  23.606  24.518  1.00  0.00     0.127 C 
BRANCH   9  10
ATOM     10  C   UNL A   1      30.777  24.966  24.920  1.00  0.00    -0.025 A 
ATOM     11  C   UNL A   1      29.834  28.031  22.873  1.00  0.00     0.044 C 
ATOM     12  C   UNL A   1      30.339  27.156  23.981  1.00  0.00    -0.051 A 
ATOM     13  C   UNL A   1      31.022  27.723  25.064  1.00  0.00     0.003 A 
ATOM     14  C   UNL A   1      30.222  25.769  23.907  1.00  0.00     0.009 A 
ATOM     15  C   UNL A   1      31.487  26.930  26.114  1.00  0.00     0.001 A 
ATOM     16  C   UNL A   1      31.304  25.556  26.078  1.00  0.00     0.006 A 
ENDBRANCH   9  10
BRANCH   9  17
ATOM     17  N   UNL A   1      32.235  23.027  25.476  1.00  0.00    -0.314 N 
ATOM     18  C   UNL A   1      32.324  21.768  26.042  1.00  0.00     0.408 C 
ATOM     19  H   UNL A   1      32.931  23.651  25.784  1.00  0.00     0.167 HD
ATOM     20  O   UNL A   1      32.925  21.688  27.111  1.00  0.00    -0.225 OA
BRANCH  18  21
ATOM     21  O   UNL A   1      31.783  20.689  25.389  1.00  0.00    -0.444 OA
BRANCH  21  22
ATOM     22  C   UNL A   1      32.580  19.925  24.382  1.00  0.00     0.106 C 
ATOM     23  C   UNL A   1      32.525  18.405  24.619  1.00  0.00     0.056 C 
ATOM     24  C   UNL A   1      32.196  20.189  22.913  1.00  0.00     0.056 C 
ATOM     25  C   UNL A   1      34.057  20.340  24.545  1.00  0.00     0.056 C 
ENDBRANCH  21  22
ENDBRANCH  18  21
ENDBRANCH   9  17
ENDBRANCH   8   9
ENDBRANCH   6   8
ENDBRANCH   5   6
ENDBRANCH   4   5
ENDBRANCH   3   4
ENDBRANCH   2   3
ENDBRANCH   1   2
BRANCH   1  26
ATOM     26  C   UNL A   1      37.719  23.433  25.972  1.00  0.00     0.188 C 
BRANCH  26  27
ATOM     27  O   UNL A   1      38.647  22.377  26.172  1.00  0.00    -0.376 OA
BRANCH  27  28
ATOM     28  C   UNL A   1      39.889  22.666  26.796  1.00  0.00     0.202 C 
BRANCH  28  29
ATOM     29  C   UNL A   1      40.307  24.152  26.762  1.00  0.00     0.261 C 
BRANCH  29  30
ATOM     30  O   UNL A   1      41.003  24.475  27.983  1.00  0.00    -0.460 OA
BRANCH  30  31
ATOM     31  C   UNL A   1      42.197  25.148  27.884  1.00  0.00     0.338 C 
ATOM     32  O   UNL A   1      43.152  24.751  27.224  1.00  0.00    -0.246 OA
BRANCH  31  33
ATOM     33  C   UNL A   1      42.114  26.362  28.766  1.00  0.00     0.060 A 
ATOM     34  C   UNL A   1      43.112  27.026  29.488  1.00  0.00     0.016 A 
ATOM     35  C   UNL A   1      40.845  26.852  28.929  1.00  0.00     0.016 A 
ATOM     36  C   UNL A   1      42.839  28.219  30.254  1.00  0.00     0.010 A 
ATOM     37  C   UNL A   1      40.575  27.920  29.742  1.00  0.00     0.010 A 
ATOM     38  C   UNL A   1      41.539  28.712  30.363  1.00  0.00    -0.014 A 
BRANCH  38  39
ATOM     39  C   UNL A   1      40.901  29.773  31.204  1.00  0.00     0.031 A 
ATOM     40  C   UNL A   1      40.061  30.981  30.813  1.00  0.00     0.074 A 
ATOM     41  C   UNL A   1      40.614  29.236  32.420  1.00  0.00     0.049 A 
ATOM     42  N   UNL A   1      39.701  31.920  31.648  1.00  0.00    -0.248 NA
ATOM     43  C   UNL A   1      39.462  31.237  29.507  1.00  0.00     0.031 C 
ATOM     44  C   UNL A   1      39.488  29.500  33.297  1.00  0.00     0.029 A 
ATOM     45  N   UNL A   1      41.205  28.143  33.032  1.00  0.00    -0.354 N 
ATOM     46  C   UNL A   1      38.572  32.555  31.110  1.00  0.00     0.074 A 
ATOM     47  C   UNL A   1      38.567  32.201  29.731  1.00  0.00     0.031 C 
ATOM     48  C   UNL A   1      39.638  28.779  34.424  1.00  0.00     0.029 A 
ATOM     49  C   UNL A   1      40.930  28.118  34.380  1.00  0.00     0.049 A 
ATOM     50  H   UNL A   1      41.752  27.471  32.565  1.00  0.00     0.167 HD
ATOM     51  C   UNL A   1      37.569  33.073  31.886  1.00  0.00     0.034 A 
ATOM     52  C   UNL A   1      41.976  28.266  35.242  1.00  0.00     0.034 A 
ATOM     53  C   UNL A   1      37.827  32.773  33.304  1.00  0.00     0.049 A 
ATOM     54  C   UNL A   1      41.978  29.675  35.816  1.00  0.00     0.074 A 
ATOM     55  C   UNL A   1      37.215  31.978  34.261  1.00  0.00     0.029 A 
ATOM     56  N   UNL A   1      39.051  33.123  33.840  1.00  0.00    -0.354 N 
ATOM     57  N   UNL A   1      40.917  30.444  35.883  1.00  0.00    -0.248 NA
ATOM     58  C   UNL A   1      43.159  30.358  36.334  1.00  0.00     0.031 C 
ATOM     59  C   UNL A   1      38.114  31.833  35.364  1.00  0.00     0.029 A 
ATOM     60  C   UNL A   1      39.267  32.541  35.078  1.00  0.00     0.049 A 
ATOM     61  H   UNL A   1      39.696  33.718  33.393  1.00  0.00     0.167 HD
ATOM     62  C   UNL A   1      41.313  31.744  36.087  1.00  0.00     0.074 A 
ATOM     63  C   UNL A   1      42.680  31.598  36.557  1.00  0.00     0.031 C 
ATOM     64  C   UNL A   1      40.546  32.827  35.729  1.00  0.00     0.034 A 
BRANCH  51  65
ATOM     65  C   UNL A   1      36.181  33.567  31.392  1.00  0.00     0.023 A 
ATOM     66  C   UNL A   1      35.759  33.091  30.126  1.00  0.00     0.012 A 
ATOM     67  C   UNL A   1      35.256  34.441  32.029  1.00  0.00     0.148 A 
ATOM     68  C   UNL A   1      34.600  33.532  29.473  1.00  0.00     0.002 A 
ATOM     69  C   UNL A   1      34.113  34.926  31.356  1.00  0.00     0.091 A 
ATOM     70  F   UNL A   1      35.396  34.745  33.325  1.00  0.00    -0.205 F 
ATOM     71  C   UNL A   1      33.793  34.479  30.073  1.00  0.00     0.022 A 
BRANCH  69  72
ATOM     72  S   UNL A   1      33.040  36.212  32.044  1.00  0.00     0.127 S 
ATOM     73  O   UNL A   1      31.801  35.481  32.331  1.00  0.00    -0.237 OA
ATOM     74  O   UNL A   1      33.768  36.642  33.236  1.00  0.00    -0.237 OA
ATOM     75  O   UNL A   1      32.896  37.208  30.988  1.00  0.00    -0.744 OA
ENDBRANCH  69  72
ENDBRANCH  51  65
BRANCH  52  76
ATOM     76  C   UNL A   1      43.107  27.339  34.857  1.00  0.00     0.023 A 
ATOM     77  C   UNL A   1      42.766  25.961  34.946  1.00  0.00     0.012 A 
ATOM     78  C   UNL A   1      44.201  27.691  34.032  1.00  0.00     0.148 A 
ATOM     79  C   UNL A   1      43.396  24.989  34.163  1.00  0.00     0.002 A 
ATOM     80  C   UNL A   1      44.837  26.705  33.255  1.00  0.00     0.091 A 
ATOM     81  F   UNL A   1      44.556  28.979  33.945  1.00  0.00    -0.205 F 
ATOM     82  C   UNL A   1      44.409  25.366  33.294  1.00  0.00     0.022 A 
BRANCH  80  83
ATOM     83  S   UNL A   1      46.155  27.071  32.075  1.00  0.00     0.127 S 
ATOM     84  O   UNL A   1      45.994  25.986  31.110  1.00  0.00    -0.237 OA
ATOM     85  O   UNL A   1      45.773  28.391  31.571  1.00  0.00    -0.237 OA
ATOM     86  O   UNL A   1      47.387  27.060  32.850  1.00  0.00    -0.744 OA
ENDBRANCH  80  83
ENDBRANCH  52  76
BRANCH  64  87
ATOM     87  C   UNL A   1      40.956  34.304  35.776  1.00  0.00     0.023 A 
ATOM     88  C   UNL A   1      40.627  35.160  36.838  1.00  0.00     0.012 A 
ATOM     89  C   UNL A   1      41.865  34.826  34.806  1.00  0.00     0.148 A 
ATOM     90  C   UNL A   1      41.131  36.465  36.918  1.00  0.00     0.002 A 
ATOM     91  C   UNL A   1      42.477  36.064  34.974  1.00  0.00     0.091 A 
ATOM     92  F   UNL A   1      42.145  34.122  33.697  1.00  0.00    -0.205 F 
ATOM     93  C   UNL A   1      42.083  36.907  36.008  1.00  0.00     0.022 A 
BRANCH  91  94
ATOM     94  S   UNL A   1      43.921  36.509  33.992  1.00  0.00     0.127 S 
ATOM     95  O   UNL A   1      44.343  37.762  34.614  1.00  0.00    -0.237 OA
ATOM     96  O   UNL A   1      44.826  35.381  34.225  1.00  0.00    -0.237 OA
ATOM     97  O   UNL A   1      43.418  36.597  32.627  1.00  0.00    -0.744 OA
ENDBRANCH  91  94
ENDBRANCH  64  87
ENDBRANCH  38  39
ENDBRANCH  31  33
ENDBRANCH  30  31
ENDBRANCH  29  30
ENDBRANCH  28  29
ENDBRANCH  27  28
ENDBRANCH  26  27
ENDBRANCH   1  26
TORSDOF 25
ENDMDL
