MODEL 1
REMARK VINA RESULT:     -10.9      0.000      0.000
REMARK SMILES NC(=O)c1cc(NC(=O)/C=C\C(=O)OCCOCCOCCOC(=O)c2ccc(-c3c4nc(c(-c5cccc(S(=O)(=O)[O-])c5F)c5ccc([nH]5)c(-c5cccc(S(=O)(=O)[O-])c5F)c5nc(c(-c6cccc(S(=O)(=O)[O-])c6F)c6ccc3[nH]6)C=C5)C=C4)cc2)ccc1N1CCOCC1
REMARK SMILES IDX 18 1 17 2 16 3 15 4 14 5 12 6 13 7 11 8 10 9 8 10 7 11 9 13
REMARK SMILES IDX 6 14 4 15 5 16 91 17 90 18 89 19 2 20 1 21 3 24 92 25 93 26
REMARK SMILES IDX 97 27 94 28 96 29 95 30 19 31 20 32 21 33 22 34 23 35 24 36
REMARK SMILES IDX 25 37 26 38 27 39 88 40 28 41 87 42 29 43 30 44 31 45 81 46
REMARK SMILES IDX 32 47 86 48 80 49 82 50 33 51 85 52 79 53 78 54 34 56 66 57
REMARK SMILES IDX 46 58 65 59 47 60 50 61 64 62 83 63 48 64 49 65 63 67 84 68
REMARK SMILES IDX 51 69 35 70 36 71 44 72 37 73 39 74 45 75 38 76 40 77 41 78
REMARK SMILES IDX 42 79 43 80 67 81 68 82 76 83 69 84 71 85 77 86 70 87 72 88
REMARK SMILES IDX 73 89 74 90 75 91 52 92 53 93 61 94 54 95 56 96 62 97 55 98
REMARK SMILES IDX 57 99 58 100 59 101 60 102
REMARK H PARENT 7 12 1 22 1 23 82 55 50 66
REMARK Flexibility Score: inf
ROOT
ATOM      1  C   UNL A   1      37.465  22.442  25.069  1.00  0.00     0.188 C 
ENDROOT
BRANCH   1   2
ATOM      2  O   UNL A   1      36.658  23.092  26.048  1.00  0.00    -0.376 OA
BRANCH   2   3
ATOM      3  C   UNL A   1      35.574  23.860  25.542  1.00  0.00     0.202 C 
BRANCH   3   4
ATOM      4  C   UNL A   1      34.198  23.267  25.854  1.00  0.00     0.261 C 
BRANCH   4   5
ATOM      5  O   UNL A   1      33.239  24.016  26.643  1.00  0.00    -0.460 OA
BRANCH   5   6
ATOM      6  C   UNL A   1      32.293  24.820  26.125  1.00  0.00     0.331 C 
ATOM      7  O   UNL A   1      32.354  26.017  25.908  1.00  0.00    -0.247 OA
BRANCH   6   8
ATOM      8  C   UNL A   1      31.101  24.060  25.741  1.00  0.00     0.099 C 
ATOM      9  C   UNL A   1      30.829  23.621  24.506  1.00  0.00     0.079 C 
BRANCH   9  10
ATOM     10  C   UNL A   1      31.594  23.889  23.267  1.00  0.00     0.248 C 
ATOM     11  N   UNL A   1      31.552  25.078  22.595  1.00  0.00    -0.322 N 
ATOM     12  H   UNL A   1      32.030  25.063  21.734  1.00  0.00     0.170 HD
ATOM     13  O   UNL A   1      32.278  22.969  22.813  1.00  0.00    -0.270 OA
BRANCH  11  14
ATOM     14  C   UNL A   1      30.960  26.320  22.887  1.00  0.00     0.042 A 
ATOM     15  C   UNL A   1      29.013  27.718  23.311  1.00  0.00     0.064 A 
ATOM     16  C   UNL A   1      29.671  26.471  23.385  1.00  0.00     0.042 A 
ATOM     17  C   UNL A   1      29.684  28.867  22.827  1.00  0.00     0.050 A 
ATOM     18  C   UNL A   1      31.050  28.716  22.522  1.00  0.00     0.029 A 
ATOM     19  C   UNL A   1      31.681  27.464  22.550  1.00  0.00     0.028 A 
BRANCH  15  20
ATOM     20  C   UNL A   1      27.547  27.648  23.589  1.00  0.00     0.250 C 
ATOM     21  N   UNL A   1      27.079  26.508  24.169  1.00  0.00    -0.366 N 
ATOM     22  H   UNL A   1      26.119  26.416  24.370  1.00  0.00     0.159 HD
ATOM     23  H   UNL A   1      27.700  25.775  24.385  1.00  0.00     0.159 HD
ATOM     24  O   UNL A   1      26.814  28.608  23.376  1.00  0.00    -0.269 OA
ENDBRANCH  15  20
BRANCH  17  25
ATOM     25  N   UNL A   1      29.039  30.083  22.597  1.00  0.00    -0.366 N 
ATOM     26  C   UNL A   1      29.159  31.125  23.649  1.00  0.00     0.145 C 
ATOM     27  C   UNL A   1      28.937  30.630  21.229  1.00  0.00     0.145 C 
ATOM     28  C   UNL A   1      28.075  32.205  23.459  1.00  0.00     0.181 C 
ATOM     29  C   UNL A   1      27.838  31.699  21.171  1.00  0.00     0.181 C 
ATOM     30  O   UNL A   1      28.107  32.736  22.119  1.00  0.00    -0.378 OA
ENDBRANCH  17  25
ENDBRANCH  11  14
ENDBRANCH   9  10
ENDBRANCH   6   8
ENDBRANCH   5   6
ENDBRANCH   4   5
ENDBRANCH   3   4
ENDBRANCH   2   3
ENDBRANCH   1   2
BRANCH   1  31
ATOM     31  C   UNL A   1      37.118  20.958  24.850  1.00  0.00     0.188 C 
BRANCH  31  32
ATOM     32  O   UNL A   1      38.164  19.996  24.962  1.00  0.00    -0.376 OA
BRANCH  32  33
ATOM     33  C   UNL A   1      39.274  20.326  25.785  1.00  0.00     0.202 C 
BRANCH  33  34
ATOM     34  C   UNL A   1      40.306  19.213  26.003  1.00  0.00     0.261 C 
BRANCH  34  35
ATOM     35  O   UNL A   1      41.342  19.582  26.931  1.00  0.00    -0.460 OA
BRANCH  35  36
ATOM     36  C   UNL A   1      42.305  20.405  26.432  1.00  0.00     0.338 C 
ATOM     37  O   UNL A   1      43.127  20.132  25.587  1.00  0.00    -0.246 OA
BRANCH  36  38
ATOM     38  C   UNL A   1      42.075  21.794  26.913  1.00  0.00     0.060 A 
ATOM     39  C   UNL A   1      41.647  22.741  25.969  1.00  0.00     0.016 A 
ATOM     40  C   UNL A   1      42.315  22.178  28.232  1.00  0.00     0.016 A 
ATOM     41  C   UNL A   1      41.514  24.084  26.323  1.00  0.00     0.010 A 
ATOM     42  C   UNL A   1      42.217  23.532  28.580  1.00  0.00     0.010 A 
ATOM     43  C   UNL A   1      41.865  24.494  27.614  1.00  0.00    -0.014 A 
BRANCH  43  44
ATOM     44  C   UNL A   1      42.159  25.927  27.861  1.00  0.00     0.031 A 
ATOM     45  C   UNL A   1      43.532  26.428  27.487  1.00  0.00     0.074 A 
ATOM     46  C   UNL A   1      41.260  26.767  28.403  1.00  0.00     0.049 A 
ATOM     47  N   UNL A   1      44.065  27.606  27.671  1.00  0.00    -0.248 NA
ATOM     48  C   UNL A   1      44.420  25.462  26.816  1.00  0.00     0.031 C 
ATOM     49  C   UNL A   1      39.892  26.421  28.780  1.00  0.00     0.029 A 
ATOM     50  N   UNL A   1      41.386  28.089  28.757  1.00  0.00    -0.354 N 
ATOM     51  C   UNL A   1      45.358  27.514  27.169  1.00  0.00     0.074 A 
ATOM     52  C   UNL A   1      45.530  26.168  26.672  1.00  0.00     0.031 C 
ATOM     53  C   UNL A   1      39.315  27.494  29.350  1.00  0.00     0.029 A 
ATOM     54  C   UNL A   1      40.280  28.592  29.402  1.00  0.00     0.049 A 
ATOM     55  H   UNL A   1      42.190  28.623  28.566  1.00  0.00     0.167 HD
ATOM     56  C   UNL A   1      46.319  28.465  27.115  1.00  0.00     0.034 A 
ATOM     57  C   UNL A   1      40.090  29.790  29.993  1.00  0.00     0.034 A 
ATOM     58  C   UNL A   1      46.153  29.808  27.592  1.00  0.00     0.049 A 
ATOM     59  C   UNL A   1      41.195  30.820  29.963  1.00  0.00     0.074 A 
ATOM     60  C   UNL A   1      47.059  30.852  27.553  1.00  0.00     0.029 A 
ATOM     61  N   UNL A   1      45.009  30.290  28.207  1.00  0.00    -0.354 N 
ATOM     62  N   UNL A   1      42.373  30.756  29.389  1.00  0.00    -0.248 NA
ATOM     63  C   UNL A   1      40.935  32.098  30.647  1.00  0.00     0.031 C 
ATOM     64  C   UNL A   1      46.469  31.963  28.164  1.00  0.00     0.029 A 
ATOM     65  C   UNL A   1      45.189  31.613  28.566  1.00  0.00     0.049 A 
ATOM     66  H   UNL A   1      44.190  29.767  28.366  1.00  0.00     0.167 HD
ATOM     67  C   UNL A   1      42.976  31.991  29.611  1.00  0.00     0.074 A 
ATOM     68  C   UNL A   1      42.028  32.792  30.355  1.00  0.00     0.031 C 
ATOM     69  C   UNL A   1      44.211  32.419  29.249  1.00  0.00     0.034 A 
BRANCH  56  70
ATOM     70  C   UNL A   1      47.635  28.084  26.499  1.00  0.00     0.023 A 
ATOM     71  C   UNL A   1      48.740  27.812  27.331  1.00  0.00     0.012 A 
ATOM     72  C   UNL A   1      47.769  27.956  25.103  1.00  0.00     0.148 A 
ATOM     73  C   UNL A   1      49.966  27.443  26.781  1.00  0.00     0.002 A 
ATOM     74  C   UNL A   1      48.983  27.550  24.564  1.00  0.00     0.091 A 
ATOM     75  F   UNL A   1      46.713  28.250  24.330  1.00  0.00    -0.205 F 
ATOM     76  C   UNL A   1      50.085  27.302  25.401  1.00  0.00     0.022 A 
BRANCH  74  77
ATOM     77  S   UNL A   1      49.215  27.275  22.805  1.00  0.00     0.127 S 
ATOM     78  O   UNL A   1      50.650  27.004  22.736  1.00  0.00    -0.237 OA
ATOM     79  O   UNL A   1      48.361  26.111  22.560  1.00  0.00    -0.237 OA
ATOM     80  O   UNL A   1      48.776  28.497  22.147  1.00  0.00    -0.744 OA
ENDBRANCH  74  77
ENDBRANCH  56  70
BRANCH  57  81
ATOM     81  C   UNL A   1      38.793  30.100  30.663  1.00  0.00     0.023 A 
ATOM     82  C   UNL A   1      38.536  29.594  31.951  1.00  0.00     0.012 A 
ATOM     83  C   UNL A   1      37.812  30.885  30.026  1.00  0.00     0.148 A 
ATOM     84  C   UNL A   1      37.313  29.835  32.580  1.00  0.00     0.002 A 
ATOM     85  C   UNL A   1      36.620  31.171  30.682  1.00  0.00     0.091 A 
ATOM     86  F   UNL A   1      38.066  31.341  28.792  1.00  0.00    -0.205 F 
ATOM     87  C   UNL A   1      36.360  30.631  31.951  1.00  0.00     0.022 A 
BRANCH  85  88
ATOM     88  S   UNL A   1      35.394  32.298  30.009  1.00  0.00     0.127 S 
ATOM     89  O   UNL A   1      34.916  31.560  28.842  1.00  0.00    -0.237 OA
ATOM     90  O   UNL A   1      34.440  32.396  31.115  1.00  0.00    -0.237 OA
ATOM     91  O   UNL A   1      36.111  33.533  29.726  1.00  0.00    -0.744 OA
ENDBRANCH  85  88
ENDBRANCH  57  81
BRANCH  69  92
ATOM     92  C   UNL A   1      44.612  33.824  29.617  1.00  0.00     0.023 A 
ATOM     93  C   UNL A   1      45.359  34.052  30.789  1.00  0.00     0.012 A 
ATOM     94  C   UNL A   1      44.334  34.903  28.753  1.00  0.00     0.148 A 
ATOM     95  C   UNL A   1      45.803  35.335  31.109  1.00  0.00     0.002 A 
ATOM     96  C   UNL A   1      44.818  36.171  29.054  1.00  0.00     0.091 A 
ATOM     97  F   UNL A   1      43.608  34.668  27.650  1.00  0.00    -0.205 F 
ATOM     98  C   UNL A   1      45.543  36.390  30.237  1.00  0.00     0.022 A 
BRANCH  96  99
ATOM     99  S   UNL A   1      44.615  37.567  27.942  1.00  0.00     0.127 S 
ATOM    100  O   UNL A   1      45.221  38.652  28.710  1.00  0.00    -0.237 OA
ATOM    101  O   UNL A   1      45.383  37.147  26.769  1.00  0.00    -0.237 OA
ATOM    102  O   UNL A   1      43.182  37.686  27.710  1.00  0.00    -0.744 OA
ENDBRANCH  96  99
ENDBRANCH  69  92
ENDBRANCH  43  44
ENDBRANCH  36  38
ENDBRANCH  35  36
ENDBRANCH  34  35
ENDBRANCH  33  34
ENDBRANCH  32  33
ENDBRANCH  31  32
ENDBRANCH   1  31
TORSDOF 24
ENDMDL
MODEL 2
REMARK VINA RESULT:     -10.7      2.259      4.717
REMARK SMILES NC(=O)c1cc(NC(=O)/C=C\C(=O)OCCOCCOCCOC(=O)c2ccc(-c3c4nc(c(-c5cccc(S(=O)(=O)[O-])c5F)c5ccc([nH]5)c(-c5cccc(S(=O)(=O)[O-])c5F)c5nc(c(-c6cccc(S(=O)(=O)[O-])c6F)c6ccc3[nH]6)C=C5)C=C4)cc2)ccc1N1CCOCC1
REMARK SMILES IDX 18 1 17 2 16 3 15 4 14 5 12 6 13 7 11 8 10 9 8 10 7 11 9 13
REMARK SMILES IDX 6 14 4 15 5 16 91 17 90 18 89 19 2 20 1 21 3 24 92 25 93 26
REMARK SMILES IDX 97 27 94 28 96 29 95 30 19 31 20 32 21 33 22 34 23 35 24 36
REMARK SMILES IDX 25 37 26 38 27 39 88 40 28 41 87 42 29 43 30 44 31 45 81 46
REMARK SMILES IDX 32 47 86 48 80 49 82 50 33 51 85 52 79 53 78 54 34 56 66 57
REMARK SMILES IDX 46 58 65 59 47 60 50 61 64 62 83 63 48 64 49 65 63 67 84 68
REMARK SMILES IDX 51 69 35 70 36 71 44 72 37 73 39 74 45 75 38 76 40 77 41 78
REMARK SMILES IDX 42 79 43 80 67 81 68 82 76 83 69 84 71 85 77 86 70 87 72 88
REMARK SMILES IDX 73 89 74 90 75 91 52 92 53 93 61 94 54 95 56 96 62 97 55 98
REMARK SMILES IDX 57 99 58 100 59 101 60 102
REMARK H PARENT 7 12 1 22 1 23 82 55 50 66
REMARK Flexibility Score: inf
ROOT
ATOM      1  C   UNL A   1      37.771  22.678  25.048  1.00  0.00     0.188 C 
ENDROOT
BRANCH   1   2
ATOM      2  O   UNL A   1      37.097  23.366  26.099  1.00  0.00    -0.376 OA
BRANCH   2   3
ATOM      3  C   UNL A   1      36.184  24.376  25.688  1.00  0.00     0.202 C 
BRANCH   3   4
ATOM      4  C   UNL A   1      34.714  23.984  25.854  1.00  0.00     0.261 C 
BRANCH   4   5
ATOM      5  O   UNL A   1      33.709  25.001  26.102  1.00  0.00    -0.460 OA
BRANCH   5   6
ATOM      6  C   UNL A   1      33.598  26.144  25.402  1.00  0.00     0.331 C 
ATOM      7  O   UNL A   1      33.905  27.273  25.745  1.00  0.00    -0.247 OA
BRANCH   6   8
ATOM      8  C   UNL A   1      33.100  25.894  24.047  1.00  0.00     0.099 C 
ATOM      9  C   UNL A   1      31.896  25.392  23.748  1.00  0.00     0.079 C 
BRANCH   9  10
ATOM     10  C   UNL A   1      30.870  24.890  24.691  1.00  0.00     0.248 C 
ATOM     11  N   UNL A   1      30.785  23.586  25.092  1.00  0.00    -0.322 N 
ATOM     12  H   UNL A   1      29.986  23.391  25.634  1.00  0.00     0.170 HD
ATOM     13  O   UNL A   1      30.036  25.699  25.103  1.00  0.00    -0.270 OA
BRANCH  11  14
ATOM     14  C   UNL A   1      31.610  22.467  24.883  1.00  0.00     0.042 A 
ATOM     15  C   UNL A   1      32.278  20.507  23.604  1.00  0.00     0.064 A 
ATOM     16  C   UNL A   1      31.740  21.811  23.665  1.00  0.00     0.042 A 
ATOM     17  C   UNL A   1      32.794  19.879  24.762  1.00  0.00     0.050 A 
ATOM     18  C   UNL A   1      32.829  20.654  25.936  1.00  0.00     0.029 A 
ATOM     19  C   UNL A   1      32.247  21.928  25.999  1.00  0.00     0.028 A 
BRANCH  15  20
ATOM     20  C   UNL A   1      32.062  19.822  22.294  1.00  0.00     0.250 C 
ATOM     21  N   UNL A   1      31.699  20.603  21.238  1.00  0.00    -0.366 N 
ATOM     22  H   UNL A   1      31.545  20.195  20.354  1.00  0.00     0.159 HD
ATOM     23  H   UNL A   1      31.589  21.574  21.358  1.00  0.00     0.159 HD
ATOM     24  O   UNL A   1      32.281  18.623  22.161  1.00  0.00    -0.269 OA
ENDBRANCH  15  20
BRANCH  17  25
ATOM     25  N   UNL A   1      33.201  18.544  24.785  1.00  0.00    -0.366 N 
ATOM     26  C   UNL A   1      34.639  18.266  24.538  1.00  0.00     0.145 C 
ATOM     27  C   UNL A   1      32.561  17.582  25.705  1.00  0.00     0.145 C 
ATOM     28  C   UNL A   1      34.844  16.782  24.174  1.00  0.00     0.181 C 
ATOM     29  C   UNL A   1      32.846  16.146  25.246  1.00  0.00     0.181 C 
ATOM     30  O   UNL A   1      34.257  15.922  25.170  1.00  0.00    -0.378 OA
ENDBRANCH  17  25
ENDBRANCH  11  14
ENDBRANCH   9  10
ENDBRANCH   6   8
ENDBRANCH   5   6
ENDBRANCH   4   5
ENDBRANCH   3   4
ENDBRANCH   2   3
ENDBRANCH   1   2
BRANCH   1  31
ATOM     31  C   UNL A   1      37.135  21.328  24.669  1.00  0.00     0.188 C 
BRANCH  31  32
ATOM     32  O   UNL A   1      37.893  20.140  24.883  1.00  0.00    -0.376 OA
BRANCH  32  33
ATOM     33  C   UNL A   1      38.853  20.152  25.930  1.00  0.00     0.202 C 
BRANCH  33  34
ATOM     34  C   UNL A   1      40.043  19.200  25.766  1.00  0.00     0.261 C 
BRANCH  34  35
ATOM     35  O   UNL A   1      41.076  19.418  26.744  1.00  0.00    -0.460 OA
BRANCH  35  36
ATOM     36  C   UNL A   1      42.115  20.194  26.330  1.00  0.00     0.338 C 
ATOM     37  O   UNL A   1      42.993  19.880  25.561  1.00  0.00    -0.246 OA
BRANCH  36  38
ATOM     38  C   UNL A   1      41.909  21.594  26.789  1.00  0.00     0.060 A 
ATOM     39  C   UNL A   1      41.531  22.541  25.824  1.00  0.00     0.016 A 
ATOM     40  C   UNL A   1      42.124  21.987  28.111  1.00  0.00     0.016 A 
ATOM     41  C   UNL A   1      41.425  23.891  26.159  1.00  0.00     0.010 A 
ATOM     42  C   UNL A   1      42.053  23.347  28.440  1.00  0.00     0.010 A 
ATOM     43  C   UNL A   1      41.752  24.307  27.454  1.00  0.00    -0.014 A 
BRANCH  43  44
ATOM     44  C   UNL A   1      42.077  25.735  27.693  1.00  0.00     0.031 A 
ATOM     45  C   UNL A   1      43.449  26.212  27.286  1.00  0.00     0.074 A 
ATOM     46  C   UNL A   1      41.206  26.591  28.256  1.00  0.00     0.049 A 
ATOM     47  N   UNL A   1      44.007  27.380  27.456  1.00  0.00    -0.248 NA
ATOM     48  C   UNL A   1      44.304  25.229  26.595  1.00  0.00     0.031 C 
ATOM     49  C   UNL A   1      39.841  26.269  28.664  1.00  0.00     0.029 A 
ATOM     50  N   UNL A   1      41.363  27.910  28.605  1.00  0.00    -0.354 N 
ATOM     51  C   UNL A   1      45.286  27.265  26.924  1.00  0.00     0.074 A 
ATOM     52  C   UNL A   1      45.423  25.915  26.424  1.00  0.00     0.031 C 
ATOM     53  C   UNL A   1      39.297  27.353  29.247  1.00  0.00     0.029 A 
ATOM     54  C   UNL A   1      40.283  28.434  29.276  1.00  0.00     0.049 A 
ATOM     55  H   UNL A   1      42.172  28.430  28.395  1.00  0.00     0.167 HD
ATOM     56  C   UNL A   1      46.262  28.199  26.847  1.00  0.00     0.034 A 
ATOM     57  C   UNL A   1      40.127  29.635  29.870  1.00  0.00     0.034 A 
ATOM     58  C   UNL A   1      46.132  29.544  27.327  1.00  0.00     0.049 A 
ATOM     59  C   UNL A   1      41.249  30.645  29.813  1.00  0.00     0.074 A 
ATOM     60  C   UNL A   1      47.054  30.572  27.265  1.00  0.00     0.029 A 
ATOM     61  N   UNL A   1      45.011  30.046  27.968  1.00  0.00    -0.354 N 
ATOM     62  N   UNL A   1      42.412  30.560  29.212  1.00  0.00    -0.248 NA
ATOM     63  C   UNL A   1      41.029  31.928  30.501  1.00  0.00     0.031 C 
ATOM     64  C   UNL A   1      46.499  31.693  27.889  1.00  0.00     0.029 A 
ATOM     65  C   UNL A   1      45.223  31.367  28.321  1.00  0.00     0.049 A 
ATOM     66  H   UNL A   1      44.187  29.538  28.147  1.00  0.00     0.167 HD
ATOM     67  C   UNL A   1      43.042  31.785  29.418  1.00  0.00     0.074 A 
ATOM     68  C   UNL A   1      42.126  32.602  30.183  1.00  0.00     0.031 C 
ATOM     69  C   UNL A   1      44.276  32.190  29.026  1.00  0.00     0.034 A 
BRANCH  56  70
ATOM     70  C   UNL A   1      47.557  27.793  26.200  1.00  0.00     0.023 A 
ATOM     71  C   UNL A   1      48.619  27.328  27.001  1.00  0.00     0.012 A 
ATOM     72  C   UNL A   1      47.709  27.836  24.800  1.00  0.00     0.148 A 
ATOM     73  C   UNL A   1      49.823  26.934  26.421  1.00  0.00     0.002 A 
ATOM     74  C   UNL A   1      48.898  27.405  24.226  1.00  0.00     0.091 A 
ATOM     75  F   UNL A   1      46.696  28.313  24.061  1.00  0.00    -0.205 F 
ATOM     76  C   UNL A   1      49.959  26.962  25.035  1.00  0.00     0.022 A 
BRANCH  74  77
ATOM     77  S   UNL A   1      49.144  27.342  22.449  1.00  0.00     0.127 S 
ATOM     78  O   UNL A   1      50.602  27.284  22.355  1.00  0.00    -0.237 OA
ATOM     79  O   UNL A   1      48.459  26.100  22.087  1.00  0.00    -0.237 OA
ATOM     80  O   UNL A   1      48.530  28.549  21.916  1.00  0.00    -0.744 OA
ENDBRANCH  74  77
ENDBRANCH  56  70
BRANCH  57  81
ATOM     81  C   UNL A   1      38.852  29.967  30.570  1.00  0.00     0.023 A 
ATOM     82  C   UNL A   1      38.622  29.478  31.869  1.00  0.00     0.012 A 
ATOM     83  C   UNL A   1      37.865  30.759  29.951  1.00  0.00     0.148 A 
ATOM     84  C   UNL A   1      37.419  29.740  32.527  1.00  0.00     0.002 A 
ATOM     85  C   UNL A   1      36.695  31.067  30.635  1.00  0.00     0.091 A 
ATOM     86  F   UNL A   1      38.093  31.200  28.706  1.00  0.00    -0.205 F 
ATOM     87  C   UNL A   1      36.460  30.542  31.915  1.00  0.00     0.022 A 
BRANCH  85  88
ATOM     88  S   UNL A   1      35.466  32.203  29.982  1.00  0.00     0.127 S 
ATOM     89  O   UNL A   1      34.536  32.317  31.103  1.00  0.00    -0.237 OA
ATOM     90  O   UNL A   1      36.272  33.396  29.721  1.00  0.00    -0.237 OA
ATOM     91  O   UNL A   1      34.938  31.563  28.785  1.00  0.00    -0.744 OA
ENDBRANCH  85  88
ENDBRANCH  57  81
BRANCH  69  92
ATOM     92  C   UNL A   1      44.710  33.588  29.383  1.00  0.00     0.023 A 
ATOM     93  C   UNL A   1      45.366  33.823  30.607  1.00  0.00     0.012 A 
ATOM     94  C   UNL A   1      44.555  34.648  28.467  1.00  0.00     0.148 A 
ATOM     95  C   UNL A   1      45.842  35.096  30.923  1.00  0.00     0.002 A 
ATOM     96  C   UNL A   1      45.071  35.902  28.769  1.00  0.00     0.091 A 
ATOM     97  F   UNL A   1      43.913  34.407  27.314  1.00  0.00    -0.205 F 
ATOM     98  C   UNL A   1      45.706  36.130  30.000  1.00  0.00     0.022 A 
BRANCH  96  99
ATOM     99  S   UNL A   1      45.026  37.267  27.600  1.00  0.00     0.127 S 
ATOM    100  O   UNL A   1      45.813  36.735  26.489  1.00  0.00    -0.237 OA
ATOM    101  O   UNL A   1      43.594  37.397  27.326  1.00  0.00    -0.237 OA
ATOM    102  O   UNL A   1      45.611  38.406  28.295  1.00  0.00    -0.744 OA
ENDBRANCH  96  99
ENDBRANCH  69  92
ENDBRANCH  43  44
ENDBRANCH  36  38
ENDBRANCH  35  36
ENDBRANCH  34  35
ENDBRANCH  33  34
ENDBRANCH  32  33
ENDBRANCH  31  32
ENDBRANCH   1  31
TORSDOF 24
ENDMDL
MODEL 3
REMARK VINA RESULT:      -9.7      3.294      5.570
REMARK SMILES NC(=O)c1cc(NC(=O)/C=C\C(=O)OCCOCCOCCOC(=O)c2ccc(-c3c4nc(c(-c5cccc(S(=O)(=O)[O-])c5F)c5ccc([nH]5)c(-c5cccc(S(=O)(=O)[O-])c5F)c5nc(c(-c6cccc(S(=O)(=O)[O-])c6F)c6ccc3[nH]6)C=C5)C=C4)cc2)ccc1N1CCOCC1
REMARK SMILES IDX 18 1 17 2 16 3 15 4 14 5 12 6 13 7 11 8 10 9 8 10 7 11 9 13
REMARK SMILES IDX 6 14 4 15 5 16 91 17 90 18 89 19 2 20 1 21 3 24 92 25 93 26
REMARK SMILES IDX 97 27 94 28 96 29 95 30 19 31 20 32 21 33 22 34 23 35 24 36
REMARK SMILES IDX 25 37 26 38 27 39 88 40 28 41 87 42 29 43 30 44 31 45 81 46
REMARK SMILES IDX 32 47 86 48 80 49 82 50 33 51 85 52 79 53 78 54 34 56 66 57
REMARK SMILES IDX 46 58 65 59 47 60 50 61 64 62 83 63 48 64 49 65 63 67 84 68
REMARK SMILES IDX 51 69 35 70 36 71 44 72 37 73 39 74 45 75 38 76 40 77 41 78
REMARK SMILES IDX 42 79 43 80 67 81 68 82 76 83 69 84 71 85 77 86 70 87 72 88
REMARK SMILES IDX 73 89 74 90 75 91 52 92 53 93 61 94 54 95 56 96 62 97 55 98
REMARK SMILES IDX 57 99 58 100 59 101 60 102
REMARK H PARENT 7 12 1 22 1 23 82 55 50 66
REMARK Flexibility Score: inf
ROOT
ATOM      1  C   UNL A   1      36.060  22.715  25.677  1.00  0.00     0.188 C 
ENDROOT
BRANCH   1   2
ATOM      2  O   UNL A   1      35.929  24.135  25.679  1.00  0.00    -0.376 OA
BRANCH   2   3
ATOM      3  C   UNL A   1      34.619  24.632  25.922  1.00  0.00     0.202 C 
BRANCH   3   4
ATOM      4  C   UNL A   1      34.306  25.935  25.182  1.00  0.00     0.261 C 
BRANCH   4   5
ATOM      5  O   UNL A   1      33.640  25.904  23.895  1.00  0.00    -0.460 OA
BRANCH   5   6
ATOM      6  C   UNL A   1      33.695  24.869  23.037  1.00  0.00     0.331 C 
ATOM      7  O   UNL A   1      34.646  24.155  22.774  1.00  0.00    -0.247 OA
BRANCH   6   8
ATOM      8  C   UNL A   1      32.383  24.601  22.441  1.00  0.00     0.099 C 
ATOM      9  C   UNL A   1      31.244  24.434  23.125  1.00  0.00     0.079 C 
BRANCH   9  10
ATOM     10  C   UNL A   1      31.077  24.377  24.595  1.00  0.00     0.248 C 
ATOM     11  N   UNL A   1      31.441  23.302  25.356  1.00  0.00    -0.322 N 
ATOM     12  H   UNL A   1      31.167  23.375  26.300  1.00  0.00     0.170 HD
ATOM     13  O   UNL A   1      30.551  25.349  25.144  1.00  0.00    -0.270 OA
BRANCH  11  14
ATOM     14  C   UNL A   1      32.126  22.110  25.060  1.00  0.00     0.042 A 
ATOM     15  C   UNL A   1      32.489  20.131  23.691  1.00  0.00     0.064 A 
ATOM     16  C   UNL A   1      32.096  21.481  23.821  1.00  0.00     0.042 A 
ATOM     17  C   UNL A   1      33.021  19.419  24.792  1.00  0.00     0.050 A 
ATOM     18  C   UNL A   1      33.224  20.151  25.977  1.00  0.00     0.029 A 
ATOM     19  C   UNL A   1      32.785  21.476  26.112  1.00  0.00     0.028 A 
BRANCH  15  20
ATOM     20  C   UNL A   1      32.106  19.511  22.387  1.00  0.00     0.250 C 
ATOM     21  N   UNL A   1      31.936  18.159  22.369  1.00  0.00    -0.366 N 
ATOM     22  H   UNL A   1      31.684  17.706  21.532  1.00  0.00     0.159 HD
ATOM     23  H   UNL A   1      32.067  17.635  23.193  1.00  0.00     0.159 HD
ATOM     24  O   UNL A   1      31.877  20.200  21.399  1.00  0.00    -0.269 OA
ENDBRANCH  15  20
BRANCH  17  25
ATOM     25  N   UNL A   1      33.287  18.049  24.754  1.00  0.00    -0.366 N 
ATOM     26  C   UNL A   1      34.663  17.633  24.383  1.00  0.00     0.145 C 
ATOM     27  C   UNL A   1      32.626  17.132  25.706  1.00  0.00     0.145 C 
ATOM     28  C   UNL A   1      34.682  16.146  23.974  1.00  0.00     0.181 C 
ATOM     29  C   UNL A   1      32.722  15.689  25.196  1.00  0.00     0.181 C 
ATOM     30  O   UNL A   1      34.091  15.323  24.999  1.00  0.00    -0.378 OA
ENDBRANCH  17  25
ENDBRANCH  11  14
ENDBRANCH   9  10
ENDBRANCH   6   8
ENDBRANCH   5   6
ENDBRANCH   4   5
ENDBRANCH   3   4
ENDBRANCH   2   3
ENDBRANCH   1   2
BRANCH   1  31
ATOM     31  C   UNL A   1      37.263  22.194  24.869  1.00  0.00     0.188 C 
BRANCH  31  32
ATOM     32  O   UNL A   1      38.179  21.312  25.513  1.00  0.00    -0.376 OA
BRANCH  32  33
ATOM     33  C   UNL A   1      39.329  21.887  26.118  1.00  0.00     0.202 C 
BRANCH  33  34
ATOM     34  C   UNL A   1      40.486  20.926  26.413  1.00  0.00     0.261 C 
BRANCH  34  35
ATOM     35  O   UNL A   1      41.649  21.592  26.937  1.00  0.00    -0.460 OA
BRANCH  35  36
ATOM     36  C   UNL A   1      42.160  22.578  26.150  1.00  0.00     0.338 C 
ATOM     37  O   UNL A   1      42.657  22.449  25.055  1.00  0.00    -0.246 OA
BRANCH  36  38
ATOM     38  C   UNL A   1      41.822  23.906  26.729  1.00  0.00     0.060 A 
ATOM     39  C   UNL A   1      41.659  24.978  25.835  1.00  0.00     0.016 A 
ATOM     40  C   UNL A   1      41.714  24.118  28.104  1.00  0.00     0.016 A 
ATOM     41  C   UNL A   1      41.447  26.272  26.312  1.00  0.00     0.010 A 
ATOM     42  C   UNL A   1      41.538  25.422  28.584  1.00  0.00     0.010 A 
ATOM     43  C   UNL A   1      41.455  26.508  27.691  1.00  0.00    -0.014 A 
BRANCH  43  44
ATOM     44  C   UNL A   1      41.684  27.888  28.186  1.00  0.00     0.031 A 
ATOM     45  C   UNL A   1      43.109  28.377  28.242  1.00  0.00     0.074 A 
ATOM     46  C   UNL A   1      40.680  28.690  28.582  1.00  0.00     0.049 A 
ATOM     47  N   UNL A   1      43.584  29.502  28.705  1.00  0.00    -0.248 NA
ATOM     48  C   UNL A   1      44.135  27.465  27.704  1.00  0.00     0.031 C 
ATOM     49  C   UNL A   1      39.259  28.354  28.547  1.00  0.00     0.029 A 
ATOM     50  N   UNL A   1      40.718  29.953  29.121  1.00  0.00    -0.354 N 
ATOM     51  C   UNL A   1      44.963  29.421  28.544  1.00  0.00     0.074 A 
ATOM     52  C   UNL A   1      45.249  28.139  27.940  1.00  0.00     0.031 C 
ATOM     53  C   UNL A   1      38.560  29.373  29.083  1.00  0.00     0.029 A 
ATOM     54  C   UNL A   1      39.487  30.418  29.520  1.00  0.00     0.049 A 
ATOM     55  H   UNL A   1      41.547  30.475  29.212  1.00  0.00     0.167 HD
ATOM     56  C   UNL A   1      45.910  30.333  28.860  1.00  0.00     0.034 A 
ATOM     57  C   UNL A   1      39.157  31.542  30.190  1.00  0.00     0.034 A 
ATOM     58  C   UNL A   1      45.635  31.613  29.445  1.00  0.00     0.049 A 
ATOM     59  C   UNL A   1      40.238  32.524  30.576  1.00  0.00     0.074 A 
ATOM     60  C   UNL A   1      46.527  32.618  29.772  1.00  0.00     0.029 A 
ATOM     61  N   UNL A   1      44.374  32.061  29.803  1.00  0.00    -0.354 N 
ATOM     62  N   UNL A   1      41.525  32.483  30.320  1.00  0.00    -0.248 NA
ATOM     63  C   UNL A   1      39.819  33.718  31.327  1.00  0.00     0.031 C 
ATOM     64  C   UNL A   1      45.806  33.669  30.349  1.00  0.00     0.029 A 
ATOM     65  C   UNL A   1      44.463  33.324  30.361  1.00  0.00     0.049 A 
ATOM     66  H   UNL A   1      43.539  31.556  29.679  1.00  0.00     0.167 HD
ATOM     67  C   UNL A   1      42.058  33.658  30.844  1.00  0.00     0.074 A 
ATOM     68  C   UNL A   1      40.954  34.399  31.416  1.00  0.00     0.031 C 
ATOM     69  C   UNL A   1      43.347  34.078  30.868  1.00  0.00     0.034 A 
BRANCH  56  70
ATOM     70  C   UNL A   1      47.339  29.978  28.558  1.00  0.00     0.023 A 
ATOM     71  C   UNL A   1      47.917  30.392  27.341  1.00  0.00     0.012 A 
ATOM     72  C   UNL A   1      48.120  29.270  29.492  1.00  0.00     0.148 A 
ATOM     73  C   UNL A   1      49.244  30.086  27.048  1.00  0.00     0.002 A 
ATOM     74  C   UNL A   1      49.452  29.002  29.209  1.00  0.00     0.091 A 
ATOM     75  F   UNL A   1      47.539  28.859  30.629  1.00  0.00    -0.205 F 
ATOM     76  C   UNL A   1      50.014  29.401  27.984  1.00  0.00     0.022 A 
BRANCH  74  77
ATOM     77  S   UNL A   1      50.542  28.185  30.379  1.00  0.00     0.127 S 
ATOM     78  O   UNL A   1      51.383  29.295  30.824  1.00  0.00    -0.237 OA
ATOM     79  O   UNL A   1      49.600  27.691  31.385  1.00  0.00    -0.237 OA
ATOM     80  O   UNL A   1      51.227  27.142  29.629  1.00  0.00    -0.744 OA
ENDBRANCH  74  77
ENDBRANCH  56  70
BRANCH  57  81
ATOM     81  C   UNL A   1      37.733  31.818  30.539  1.00  0.00     0.023 A 
ATOM     82  C   UNL A   1      37.232  31.417  31.792  1.00  0.00     0.012 A 
ATOM     83  C   UNL A   1      36.872  32.467  29.633  1.00  0.00     0.148 A 
ATOM     84  C   UNL A   1      35.892  31.627  32.124  1.00  0.00     0.002 A 
ATOM     85  C   UNL A   1      35.555  32.727  29.992  1.00  0.00     0.091 A 
ATOM     86  F   UNL A   1      37.361  32.823  28.436  1.00  0.00    -0.205 F 
ATOM     87  C   UNL A   1      35.057  32.290  31.229  1.00  0.00     0.022 A 
BRANCH  85  88
ATOM     88  S   UNL A   1      34.445  33.694  28.963  1.00  0.00     0.127 S 
ATOM     89  O   UNL A   1      34.061  32.725  27.941  1.00  0.00    -0.237 OA
ATOM     90  O   UNL A   1      33.390  34.048  29.913  1.00  0.00    -0.237 OA
ATOM     91  O   UNL A   1      35.233  34.827  28.496  1.00  0.00    -0.744 OA
ENDBRANCH  85  88
ENDBRANCH  57  81
BRANCH  69  92
ATOM     92  C   UNL A   1      43.647  35.411  31.502  1.00  0.00     0.023 A 
ATOM     93  C   UNL A   1      44.013  35.470  32.861  1.00  0.00     0.012 A 
ATOM     94  C   UNL A   1      43.664  36.591  30.729  1.00  0.00     0.148 A 
ATOM     95  C   UNL A   1      44.367  36.686  33.448  1.00  0.00     0.002 A 
ATOM     96  C   UNL A   1      44.061  37.790  31.308  1.00  0.00     0.091 A 
ATOM     97  F   UNL A   1      43.297  36.516  29.441  1.00  0.00    -0.205 F 
ATOM     98  C   UNL A   1      44.403  37.841  32.669  1.00  0.00     0.022 A 
BRANCH  96  99
ATOM     99  S   UNL A   1      44.229  39.307  30.359  1.00  0.00     0.127 S 
ATOM    100  O   UNL A   1      43.800  40.314  31.327  1.00  0.00    -0.237 OA
ATOM    101  O   UNL A   1      45.660  39.326  30.053  1.00  0.00    -0.237 OA
ATOM    102  O   UNL A   1      43.367  39.147  29.196  1.00  0.00    -0.744 OA
ENDBRANCH  96  99
ENDBRANCH  69  92
ENDBRANCH  43  44
ENDBRANCH  36  38
ENDBRANCH  35  36
ENDBRANCH  34  35
ENDBRANCH  33  34
ENDBRANCH  32  33
ENDBRANCH  31  32
ENDBRANCH   1  31
TORSDOF 24
ENDMDL
