MODEL 1
REMARK VINA RESULT:      -9.8      0.000      0.000
REMARK SMILES CC(=O)Oc1ccccc1C(=O)OCCOCCOCCOC(=O)c1ccc(-c2c3nc(c(-c4cccc(S(=O)(=O)[O-])c4F)c4ccc([nH]4)c(-c4cccc(S(=O)(=O)[O-])c4F)c4nc(c(-c5cccc(S(=O)(=O)[O-])c5F)c5ccc2[nH]5)C=C4)C=C3)cc1
REMARK SMILES IDX 18 1 17 2 16 3 15 4 14 5 13 6 11 7 12 8 10 9 5 10 6 11 7 12
REMARK SMILES IDX 9 13 8 14 4 15 2 16 1 17 3 18 19 19 20 20 21 21 22 22 23 23
REMARK SMILES IDX 24 24 25 25 26 26 87 27 27 28 86 29 28 30 29 31 30 32 80 33
REMARK SMILES IDX 31 34 85 35 79 36 81 37 32 38 84 39 78 40 77 41 33 43 65 44
REMARK SMILES IDX 45 45 64 46 46 47 49 48 63 49 82 50 47 51 48 52 62 54 83 55
REMARK SMILES IDX 50 56 34 57 35 58 43 59 36 60 38 61 44 62 37 63 39 64 40 65
REMARK SMILES IDX 41 66 42 67 66 68 67 69 75 70 68 71 70 72 76 73 69 74 71 75
REMARK SMILES IDX 72 76 73 77 74 78 51 79 52 80 60 81 53 82 55 83 61 84 54 85
REMARK SMILES IDX 56 86 57 87 58 88 59 89
REMARK H PARENT 81 42 49 53
REMARK Flexibility Score: inf
ROOT
ATOM      1  C   UNL A   1      31.814  29.156  23.988  1.00  0.00     0.188 C 
ENDROOT
BRANCH   1   2
ATOM      2  C   UNL A   1      31.789  27.616  23.936  1.00  0.00     0.188 C 
BRANCH   2   3
ATOM      3  O   UNL A   1      32.902  26.905  24.471  1.00  0.00    -0.376 OA
BRANCH   3   4
ATOM      4  C   UNL A   1      32.686  25.603  25.009  1.00  0.00     0.202 C 
BRANCH   4   5
ATOM      5  C   UNL A   1      31.582  24.753  24.375  1.00  0.00     0.261 C 
BRANCH   5   6
ATOM      6  O   UNL A   1      31.860  24.449  22.997  1.00  0.00    -0.460 OA
BRANCH   6   7
ATOM      7  C   UNL A   1      33.045  23.832  22.769  1.00  0.00     0.342 C 
ATOM      8  O   UNL A   1      34.071  24.367  22.377  1.00  0.00    -0.246 OA
BRANCH   7   9
ATOM      9  C   UNL A   1      33.012  22.424  23.235  1.00  0.00     0.102 A 
ATOM     10  C   UNL A   1      33.733  21.906  24.318  1.00  0.00     0.145 A 
ATOM     11  C   UNL A   1      33.645  20.546  24.649  1.00  0.00     0.048 A 
ATOM     12  C   UNL A   1      32.852  19.691  23.886  1.00  0.00     0.004 A 
ATOM     13  C   UNL A   1      32.226  21.545  22.470  1.00  0.00     0.019 A 
ATOM     14  C   UNL A   1      32.157  20.185  22.785  1.00  0.00     0.001 A 
BRANCH  10  15
ATOM     15  O   UNL A   1      34.736  22.611  25.009  1.00  0.00    -0.426 OA
BRANCH  15  16
ATOM     16  C   UNL A   1      36.051  22.177  24.935  1.00  0.00     0.308 C 
ATOM     17  C   UNL A   1      36.617  22.572  23.602  1.00  0.00     0.139 C 
ATOM     18  O   UNL A   1      36.656  21.547  25.790  1.00  0.00    -0.252 OA
ENDBRANCH  15  16
ENDBRANCH  10  15
ENDBRANCH   7   9
ENDBRANCH   6   7
ENDBRANCH   5   6
ENDBRANCH   4   5
ENDBRANCH   3   4
ENDBRANCH   2   3
ENDBRANCH   1   2
BRANCH   1  19
ATOM     19  O   UNL A   1      31.041  29.722  25.037  1.00  0.00    -0.376 OA
BRANCH  19  20
ATOM     20  C   UNL A   1      31.740  29.985  26.248  1.00  0.00     0.202 C 
BRANCH  20  21
ATOM     21  C   UNL A   1      31.751  31.445  26.726  1.00  0.00     0.261 C 
BRANCH  21  22
ATOM     22  O   UNL A   1      32.983  32.157  26.527  1.00  0.00    -0.460 OA
BRANCH  22  23
ATOM     23  C   UNL A   1      33.445  32.901  27.557  1.00  0.00     0.338 C 
ATOM     24  O   UNL A   1      32.864  33.814  28.116  1.00  0.00    -0.246 OA
BRANCH  23  25
ATOM     25  C   UNL A   1      34.705  32.284  28.031  1.00  0.00     0.060 A 
ATOM     26  C   UNL A   1      34.712  30.918  28.344  1.00  0.00     0.016 A 
ATOM     27  C   UNL A   1      35.877  33.039  28.146  1.00  0.00     0.016 A 
ATOM     28  C   UNL A   1      35.884  30.315  28.806  1.00  0.00     0.010 A 
ATOM     29  C   UNL A   1      37.045  32.435  28.620  1.00  0.00     0.010 A 
ATOM     30  C   UNL A   1      37.047  31.078  28.983  1.00  0.00    -0.014 A 
BRANCH  30  31
ATOM     31  C   UNL A   1      38.212  30.490  29.691  1.00  0.00     0.031 A 
ATOM     32  C   UNL A   1      38.496  30.925  31.103  1.00  0.00     0.074 A 
ATOM     33  C   UNL A   1      39.012  29.587  29.095  1.00  0.00     0.049 A 
ATOM     34  N   UNL A   1      39.421  30.508  31.928  1.00  0.00    -0.248 NA
ATOM     35  C   UNL A   1      37.621  31.970  31.655  1.00  0.00     0.031 C 
ATOM     36  C   UNL A   1      38.876  29.113  27.719  1.00  0.00     0.029 A 
ATOM     37  N   UNL A   1      40.120  28.930  29.571  1.00  0.00    -0.354 N 
ATOM     38  C   UNL A   1      39.247  31.244  33.093  1.00  0.00     0.074 A 
ATOM     39  C   UNL A   1      38.144  32.152  32.859  1.00  0.00     0.031 C 
ATOM     40  C   UNL A   1      39.885  28.265  27.450  1.00  0.00     0.029 A 
ATOM     41  C   UNL A   1      40.737  28.138  28.632  1.00  0.00     0.049 A 
ATOM     42  H   UNL A   1      40.442  29.018  30.497  1.00  0.00     0.167 HD
ATOM     43  C   UNL A   1      39.922  31.159  34.264  1.00  0.00     0.034 A 
ATOM     44  C   UNL A   1      41.864  27.403  28.716  1.00  0.00     0.034 A 
ATOM     45  C   UNL A   1      41.018  30.260  34.503  1.00  0.00     0.049 A 
ATOM     46  C   UNL A   1      42.601  27.317  30.027  1.00  0.00     0.074 A 
ATOM     47  C   UNL A   1      41.732  30.063  35.672  1.00  0.00     0.029 A 
ATOM     48  N   UNL A   1      41.575  29.421  33.550  1.00  0.00    -0.354 N 
ATOM     49  N   UNL A   1      42.320  27.891  31.172  1.00  0.00    -0.248 NA
ATOM     50  C   UNL A   1      43.785  26.445  30.071  1.00  0.00     0.031 C 
ATOM     51  C   UNL A   1      42.732  29.115  35.420  1.00  0.00     0.029 A 
ATOM     52  C   UNL A   1      42.629  28.711  34.099  1.00  0.00     0.049 A 
ATOM     53  H   UNL A   1      41.265  29.341  32.619  1.00  0.00     0.167 HD
ATOM     54  C   UNL A   1      43.274  27.433  32.076  1.00  0.00     0.074 A 
ATOM     55  C   UNL A   1      44.123  26.511  31.352  1.00  0.00     0.031 C 
ATOM     56  C   UNL A   1      43.442  27.760  33.383  1.00  0.00     0.034 A 
BRANCH  43  57
ATOM     57  C   UNL A   1      39.454  32.041  35.390  1.00  0.00     0.023 A 
ATOM     58  C   UNL A   1      38.540  31.528  36.333  1.00  0.00     0.012 A 
ATOM     59  C   UNL A   1      39.926  33.360  35.530  1.00  0.00     0.148 A 
ATOM     60  C   UNL A   1      38.073  32.325  37.377  1.00  0.00     0.002 A 
ATOM     61  C   UNL A   1      39.486  34.135  36.597  1.00  0.00     0.091 A 
ATOM     62  F   UNL A   1      40.771  33.841  34.607  1.00  0.00    -0.205 F 
ATOM     63  C   UNL A   1      38.553  33.624  37.515  1.00  0.00     0.022 A 
BRANCH  61  64
ATOM     64  S   UNL A   1      40.101  35.798  36.891  1.00  0.00     0.127 S 
ATOM     65  O   UNL A   1      41.544  35.571  36.953  1.00  0.00    -0.237 OA
ATOM     66  O   UNL A   1      39.648  36.515  35.698  1.00  0.00    -0.237 OA
ATOM     67  O   UNL A   1      39.475  36.236  38.131  1.00  0.00    -0.744 OA
ENDBRANCH  61  64
ENDBRANCH  43  57
BRANCH  44  68
ATOM     68  C   UNL A   1      42.339  26.647  27.522  1.00  0.00     0.023 A 
ATOM     69  C   UNL A   1      43.086  27.307  26.529  1.00  0.00     0.012 A 
ATOM     70  C   UNL A   1      42.078  25.269  27.386  1.00  0.00     0.148 A 
ATOM     71  C   UNL A   1      43.549  26.613  25.410  1.00  0.00     0.002 A 
ATOM     72  C   UNL A   1      42.586  24.573  26.296  1.00  0.00     0.091 A 
ATOM     73  F   UNL A   1      41.347  24.666  28.334  1.00  0.00    -0.205 F 
ATOM     74  C   UNL A   1      43.310  25.246  25.299  1.00  0.00     0.022 A 
BRANCH  72  75
ATOM     75  S   UNL A   1      42.430  22.790  26.133  1.00  0.00     0.127 S 
ATOM     76  O   UNL A   1      42.683  22.597  24.708  1.00  0.00    -0.237 OA
ATOM     77  O   UNL A   1      43.492  22.313  27.019  1.00  0.00    -0.237 OA
ATOM     78  O   UNL A   1      41.082  22.472  26.586  1.00  0.00    -0.744 OA
ENDBRANCH  72  75
ENDBRANCH  44  68
BRANCH  56  79
ATOM     79  C   UNL A   1      44.580  27.109  34.126  1.00  0.00     0.023 A 
ATOM     80  C   UNL A   1      45.871  27.673  34.058  1.00  0.00     0.012 A 
ATOM     81  C   UNL A   1      44.365  25.980  34.942  1.00  0.00     0.148 A 
ATOM     82  C   UNL A   1      46.933  27.105  34.760  1.00  0.00     0.002 A 
ATOM     83  C   UNL A   1      45.420  25.445  35.674  1.00  0.00     0.091 A 
ATOM     84  F   UNL A   1      43.138  25.440  34.980  1.00  0.00    -0.205 F 
ATOM     85  C   UNL A   1      46.706  25.999  35.576  1.00  0.00     0.022 A 
BRANCH  83  86
ATOM     86  S   UNL A   1      45.188  24.077  36.817  1.00  0.00     0.127 S 
ATOM     87  O   UNL A   1      46.524  23.934  37.389  1.00  0.00    -0.237 OA
ATOM     88  O   UNL A   1      44.183  24.604  37.742  1.00  0.00    -0.237 OA
ATOM     89  O   UNL A   1      44.723  22.961  36.003  1.00  0.00    -0.744 OA
ENDBRANCH  83  86
ENDBRANCH  56  79
ENDBRANCH  30  31
ENDBRANCH  23  25
ENDBRANCH  22  23
ENDBRANCH  21  22
ENDBRANCH  20  21
ENDBRANCH  19  20
ENDBRANCH   1  19
TORSDOF 22
ENDMDL
MODEL 2
REMARK VINA RESULT:      -9.6      1.575      2.201
REMARK SMILES CC(=O)Oc1ccccc1C(=O)OCCOCCOCCOC(=O)c1ccc(-c2c3nc(c(-c4cccc(S(=O)(=O)[O-])c4F)c4ccc([nH]4)c(-c4cccc(S(=O)(=O)[O-])c4F)c4nc(c(-c5cccc(S(=O)(=O)[O-])c5F)c5ccc2[nH]5)C=C4)C=C3)cc1
REMARK SMILES IDX 18 1 17 2 16 3 15 4 14 5 13 6 11 7 12 8 10 9 5 10 6 11 7 12
REMARK SMILES IDX 9 13 8 14 4 15 2 16 1 17 3 18 19 19 20 20 21 21 22 22 23 23
REMARK SMILES IDX 24 24 25 25 26 26 87 27 27 28 86 29 28 30 29 31 30 32 80 33
REMARK SMILES IDX 31 34 85 35 79 36 81 37 32 38 84 39 78 40 77 41 33 43 65 44
REMARK SMILES IDX 45 45 64 46 46 47 49 48 63 49 82 50 47 51 48 52 62 54 83 55
REMARK SMILES IDX 50 56 34 57 35 58 43 59 36 60 38 61 44 62 37 63 39 64 40 65
REMARK SMILES IDX 41 66 42 67 66 68 67 69 75 70 68 71 70 72 76 73 69 74 71 75
REMARK SMILES IDX 72 76 73 77 74 78 51 79 52 80 60 81 53 82 55 83 61 84 54 85
REMARK SMILES IDX 56 86 57 87 58 88 59 89
REMARK H PARENT 81 42 49 53
REMARK Flexibility Score: inf
ROOT
ATOM      1  C   UNL A   1      31.864  29.027  23.969  1.00  0.00     0.188 C 
ENDROOT
BRANCH   1   2
ATOM      2  C   UNL A   1      30.951  28.208  23.036  1.00  0.00     0.188 C 
BRANCH   2   3
ATOM      3  O   UNL A   1      31.175  26.805  22.933  1.00  0.00    -0.376 OA
BRANCH   3   4
ATOM      4  C   UNL A   1      31.478  26.253  21.655  1.00  0.00     0.202 C 
BRANCH   4   5
ATOM      5  C   UNL A   1      32.712  25.354  21.550  1.00  0.00     0.261 C 
BRANCH   5   6
ATOM      6  O   UNL A   1      32.576  24.158  22.339  1.00  0.00    -0.460 OA
BRANCH   6   7
ATOM      7  C   UNL A   1      33.433  24.055  23.384  1.00  0.00     0.342 C 
ATOM      8  O   UNL A   1      34.172  24.935  23.798  1.00  0.00    -0.246 OA
BRANCH   7   9
ATOM      9  C   UNL A   1      33.238  22.776  24.110  1.00  0.00     0.102 A 
ATOM     10  C   UNL A   1      32.089  22.408  24.821  1.00  0.00     0.145 A 
ATOM     11  C   UNL A   1      32.029  21.180  25.496  1.00  0.00     0.048 A 
ATOM     12  C   UNL A   1      33.127  20.320  25.481  1.00  0.00     0.004 A 
ATOM     13  C   UNL A   1      34.339  21.902  24.115  1.00  0.00     0.019 A 
ATOM     14  C   UNL A   1      34.289  20.689  24.807  1.00  0.00     0.001 A 
BRANCH  10  15
ATOM     15  O   UNL A   1      31.020  23.280  25.102  1.00  0.00    -0.426 OA
BRANCH  15  16
ATOM     16  C   UNL A   1      30.859  23.772  26.388  1.00  0.00     0.308 C 
ATOM     17  C   UNL A   1      31.953  24.761  26.669  1.00  0.00     0.139 C 
ATOM     18  O   UNL A   1      29.996  23.442  27.188  1.00  0.00    -0.252 OA
ENDBRANCH  15  16
ENDBRANCH  10  15
ENDBRANCH   7   9
ENDBRANCH   6   7
ENDBRANCH   5   6
ENDBRANCH   4   5
ENDBRANCH   3   4
ENDBRANCH   2   3
ENDBRANCH   1   2
BRANCH   1  19
ATOM     19  O   UNL A   1      31.172  29.795  24.944  1.00  0.00    -0.376 OA
BRANCH  19  20
ATOM     20  C   UNL A   1      31.697  29.738  26.264  1.00  0.00     0.202 C 
BRANCH  20  21
ATOM     21  C   UNL A   1      32.000  31.085  26.937  1.00  0.00     0.261 C 
BRANCH  21  22
ATOM     22  O   UNL A   1      33.325  31.601  26.734  1.00  0.00    -0.460 OA
BRANCH  22  23
ATOM     23  C   UNL A   1      33.827  32.420  27.685  1.00  0.00     0.338 C 
ATOM     24  O   UNL A   1      33.263  33.368  28.202  1.00  0.00    -0.246 OA
BRANCH  23  25
ATOM     25  C   UNL A   1      35.113  31.848  28.143  1.00  0.00     0.060 A 
ATOM     26  C   UNL A   1      35.179  30.478  28.427  1.00  0.00     0.016 A 
ATOM     27  C   UNL A   1      36.252  32.650  28.273  1.00  0.00     0.016 A 
ATOM     28  C   UNL A   1      36.377  29.916  28.874  1.00  0.00     0.010 A 
ATOM     29  C   UNL A   1      37.446  32.087  28.731  1.00  0.00     0.010 A 
ATOM     30  C   UNL A   1      37.508  30.724  29.065  1.00  0.00    -0.014 A 
BRANCH  30  31
ATOM     31  C   UNL A   1      38.698  30.172  29.758  1.00  0.00     0.031 A 
ATOM     32  C   UNL A   1      39.034  30.678  31.134  1.00  0.00     0.074 A 
ATOM     33  C   UNL A   1      39.477  29.239  29.179  1.00  0.00     0.049 A 
ATOM     34  N   UNL A   1      39.990  30.303  31.945  1.00  0.00    -0.248 NA
ATOM     35  C   UNL A   1      38.179  31.750  31.665  1.00  0.00     0.031 C 
ATOM     36  C   UNL A   1      39.290  28.696  27.836  1.00  0.00     0.029 A 
ATOM     37  N   UNL A   1      40.602  28.606  29.647  1.00  0.00    -0.354 N 
ATOM     38  C   UNL A   1      39.859  31.097  33.076  1.00  0.00     0.074 A 
ATOM     39  C   UNL A   1      38.747  31.993  32.838  1.00  0.00     0.031 C 
ATOM     40  C   UNL A   1      40.289  27.835  27.573  1.00  0.00     0.029 A 
ATOM     41  C   UNL A   1      41.184  27.767  28.727  1.00  0.00     0.049 A 
ATOM     42  H   UNL A   1      40.958  28.741  30.555  1.00  0.00     0.167 HD
ATOM     43  C   UNL A   1      40.577  31.071  34.224  1.00  0.00     0.034 A 
ATOM     44  C   UNL A   1      42.314  27.035  28.806  1.00  0.00     0.034 A 
ATOM     45  C   UNL A   1      41.682  30.184  34.468  1.00  0.00     0.049 A 
ATOM     46  C   UNL A   1      43.100  27.016  30.092  1.00  0.00     0.074 A 
ATOM     47  C   UNL A   1      42.439  30.046  35.618  1.00  0.00     0.029 A 
ATOM     48  N   UNL A   1      42.203  29.297  33.539  1.00  0.00    -0.354 N 
ATOM     49  N   UNL A   1      42.861  27.648  31.216  1.00  0.00    -0.248 NA
ATOM     50  C   UNL A   1      44.285  26.146  30.136  1.00  0.00     0.031 C 
ATOM     51  C   UNL A   1      43.429  29.086  35.378  1.00  0.00     0.029 A 
ATOM     52  C   UNL A   1      43.277  28.615  34.084  1.00  0.00     0.049 A 
ATOM     53  H   UNL A   1      41.859  29.170  32.625  1.00  0.00     0.167 HD
ATOM     54  C   UNL A   1      43.848  27.235  32.106  1.00  0.00     0.074 A 
ATOM     55  C   UNL A   1      44.671  26.276  31.399  1.00  0.00     0.031 C 
ATOM     56  C   UNL A   1      44.064  27.628  33.387  1.00  0.00     0.034 A 
BRANCH  43  57
ATOM     57  C   UNL A   1      40.150  32.010  35.321  1.00  0.00     0.023 A 
ATOM     58  C   UNL A   1      40.782  33.265  35.437  1.00  0.00     0.012 A 
ATOM     59  C   UNL A   1      39.122  31.666  36.219  1.00  0.00     0.148 A 
ATOM     60  C   UNL A   1      40.423  34.150  36.453  1.00  0.00     0.002 A 
ATOM     61  C   UNL A   1      38.743  32.570  37.205  1.00  0.00     0.091 A 
ATOM     62  F   UNL A   1      38.555  30.456  36.112  1.00  0.00    -0.205 F 
ATOM     63  C   UNL A   1      39.398  33.807  37.330  1.00  0.00     0.022 A 
BRANCH  61  64
ATOM     64  S   UNL A   1      37.388  32.240  38.337  1.00  0.00     0.127 S 
ATOM     65  O   UNL A   1      36.287  32.959  37.697  1.00  0.00    -0.237 OA
ATOM     66  O   UNL A   1      37.278  30.782  38.277  1.00  0.00    -0.237 OA
ATOM     67  O   UNL A   1      37.817  32.758  39.628  1.00  0.00    -0.744 OA
ENDBRANCH  61  64
ENDBRANCH  43  57
BRANCH  44  68
ATOM     68  C   UNL A   1      42.745  26.219  27.636  1.00  0.00     0.023 A 
ATOM     69  C   UNL A   1      43.675  26.747  26.721  1.00  0.00     0.012 A 
ATOM     70  C   UNL A   1      42.259  24.911  27.446  1.00  0.00     0.148 A 
ATOM     71  C   UNL A   1      44.099  25.993  25.625  1.00  0.00     0.002 A 
ATOM     72  C   UNL A   1      42.724  24.147  26.383  1.00  0.00     0.091 A 
ATOM     73  F   UNL A   1      41.358  24.437  28.318  1.00  0.00    -0.205 F 
ATOM     74  C   UNL A   1      43.634  24.691  25.463  1.00  0.00     0.022 A 
BRANCH  72  75
ATOM     75  S   UNL A   1      42.271  22.422  26.165  1.00  0.00     0.127 S 
ATOM     76  O   UNL A   1      42.893  21.800  27.331  1.00  0.00    -0.237 OA
ATOM     77  O   UNL A   1      40.810  22.487  26.206  1.00  0.00    -0.237 OA
ATOM     78  O   UNL A   1      42.819  22.033  24.872  1.00  0.00    -0.744 OA
ENDBRANCH  72  75
ENDBRANCH  44  68
BRANCH  56  79
ATOM     79  C   UNL A   1      45.230  27.014  34.120  1.00  0.00     0.023 A 
ATOM     80  C   UNL A   1      46.466  27.692  34.156  1.00  0.00     0.012 A 
ATOM     81  C   UNL A   1      45.089  25.803  34.826  1.00  0.00     0.148 A 
ATOM     82  C   UNL A   1      47.550  27.158  34.852  1.00  0.00     0.002 A 
ATOM     83  C   UNL A   1      46.162  25.299  35.553  1.00  0.00     0.091 A 
ATOM     84  F   UNL A   1      43.916  25.157  34.765  1.00  0.00    -0.205 F 
ATOM     85  C   UNL A   1      47.395  25.968  35.559  1.00  0.00     0.022 A 
BRANCH  83  86
ATOM     86  S   UNL A   1      46.014  23.819  36.563  1.00  0.00     0.127 S 
ATOM     87  O   UNL A   1      44.880  24.153  37.421  1.00  0.00    -0.237 OA
ATOM     88  O   UNL A   1      45.740  22.781  35.567  1.00  0.00    -0.237 OA
ATOM     89  O   UNL A   1      47.298  23.674  37.237  1.00  0.00    -0.744 OA
ENDBRANCH  83  86
ENDBRANCH  56  79
ENDBRANCH  30  31
ENDBRANCH  23  25
ENDBRANCH  22  23
ENDBRANCH  21  22
ENDBRANCH  20  21
ENDBRANCH  19  20
ENDBRANCH   1  19
TORSDOF 22
ENDMDL
MODEL 3
REMARK VINA RESULT:      -9.5      2.804      3.477
REMARK SMILES CC(=O)Oc1ccccc1C(=O)OCCOCCOCCOC(=O)c1ccc(-c2c3nc(c(-c4cccc(S(=O)(=O)[O-])c4F)c4ccc([nH]4)c(-c4cccc(S(=O)(=O)[O-])c4F)c4nc(c(-c5cccc(S(=O)(=O)[O-])c5F)c5ccc2[nH]5)C=C4)C=C3)cc1
REMARK SMILES IDX 18 1 17 2 16 3 15 4 14 5 13 6 11 7 12 8 10 9 5 10 6 11 7 12
REMARK SMILES IDX 9 13 8 14 4 15 2 16 1 17 3 18 19 19 20 20 21 21 22 22 23 23
REMARK SMILES IDX 24 24 25 25 26 26 87 27 27 28 86 29 28 30 29 31 30 32 80 33
REMARK SMILES IDX 31 34 85 35 79 36 81 37 32 38 84 39 78 40 77 41 33 43 65 44
REMARK SMILES IDX 45 45 64 46 46 47 49 48 63 49 82 50 47 51 48 52 62 54 83 55
REMARK SMILES IDX 50 56 34 57 35 58 43 59 36 60 38 61 44 62 37 63 39 64 40 65
REMARK SMILES IDX 41 66 42 67 66 68 67 69 75 70 68 71 70 72 76 73 69 74 71 75
REMARK SMILES IDX 72 76 73 77 74 78 51 79 52 80 60 81 53 82 55 83 61 84 54 85
REMARK SMILES IDX 56 86 57 87 58 88 59 89
REMARK H PARENT 81 42 49 53
REMARK Flexibility Score: inf
ROOT
ATOM      1  C   UNL A   1      33.067  29.250  24.073  1.00  0.00     0.188 C 
ENDROOT
BRANCH   1   2
ATOM      2  C   UNL A   1      32.672  28.201  23.016  1.00  0.00     0.188 C 
BRANCH   2   3
ATOM      3  O   UNL A   1      32.130  26.961  23.464  1.00  0.00    -0.376 OA
BRANCH   3   4
ATOM      4  C   UNL A   1      32.929  25.786  23.353  1.00  0.00     0.202 C 
BRANCH   4   5
ATOM      5  C   UNL A   1      32.712  24.687  24.396  1.00  0.00     0.261 C 
BRANCH   5   6
ATOM      6  O   UNL A   1      31.984  23.569  23.857  1.00  0.00    -0.460 OA
BRANCH   6   7
ATOM      7  C   UNL A   1      32.678  22.790  22.991  1.00  0.00     0.342 C 
ATOM      8  O   UNL A   1      33.084  23.126  21.889  1.00  0.00    -0.246 OA
BRANCH   7   9
ATOM      9  C   UNL A   1      33.062  21.503  23.621  1.00  0.00     0.102 A 
ATOM     10  C   UNL A   1      34.132  21.315  24.504  1.00  0.00     0.145 A 
ATOM     11  C   UNL A   1      34.420  20.041  25.016  1.00  0.00     0.048 A 
ATOM     12  C   UNL A   1      33.652  18.943  24.629  1.00  0.00     0.004 A 
ATOM     13  C   UNL A   1      32.306  20.383  23.233  1.00  0.00     0.019 A 
ATOM     14  C   UNL A   1      32.607  19.110  23.724  1.00  0.00     0.001 A 
BRANCH  10  15
ATOM     15  O   UNL A   1      35.110  22.288  24.780  1.00  0.00    -0.426 OA
BRANCH  15  16
ATOM     16  C   UNL A   1      36.202  22.419  23.934  1.00  0.00     0.308 C 
ATOM     17  C   UNL A   1      37.422  21.895  24.633  1.00  0.00     0.139 C 
ATOM     18  O   UNL A   1      36.196  22.910  22.815  1.00  0.00    -0.252 OA
ENDBRANCH  15  16
ENDBRANCH  10  15
ENDBRANCH   7   9
ENDBRANCH   6   7
ENDBRANCH   5   6
ENDBRANCH   4   5
ENDBRANCH   3   4
ENDBRANCH   2   3
ENDBRANCH   1   2
BRANCH   1  19
ATOM     19  O   UNL A   1      32.003  29.665  24.916  1.00  0.00    -0.376 OA
BRANCH  19  20
ATOM     20  C   UNL A   1      32.047  29.183  26.253  1.00  0.00     0.202 C 
BRANCH  20  21
ATOM     21  C   UNL A   1      32.645  30.133  27.302  1.00  0.00     0.261 C 
BRANCH  21  22
ATOM     22  O   UNL A   1      34.003  30.541  27.073  1.00  0.00    -0.460 OA
BRANCH  22  23
ATOM     23  C   UNL A   1      34.632  31.202  28.071  1.00  0.00     0.338 C 
ATOM     24  O   UNL A   1      34.182  32.118  28.735  1.00  0.00    -0.246 OA
BRANCH  23  25
ATOM     25  C   UNL A   1      35.895  30.486  28.363  1.00  0.00     0.060 A 
ATOM     26  C   UNL A   1      36.014  29.792  29.573  1.00  0.00     0.016 A 
ATOM     27  C   UNL A   1      36.947  30.481  27.441  1.00  0.00     0.016 A 
ATOM     28  C   UNL A   1      37.200  29.120  29.878  1.00  0.00     0.010 A 
ATOM     29  C   UNL A   1      38.138  29.818  27.754  1.00  0.00     0.010 A 
ATOM     30  C   UNL A   1      38.282  29.160  28.987  1.00  0.00    -0.014 A 
BRANCH  30  31
ATOM     31  C   UNL A   1      39.608  28.649  29.417  1.00  0.00     0.031 A 
ATOM     32  C   UNL A   1      40.354  29.387  30.495  1.00  0.00     0.074 A 
ATOM     33  C   UNL A   1      40.150  27.552  28.859  1.00  0.00     0.049 A 
ATOM     34  N   UNL A   1      41.496  29.095  31.061  1.00  0.00    -0.248 NA
ATOM     35  C   UNL A   1      39.728  30.620  30.998  1.00  0.00     0.031 C 
ATOM     36  C   UNL A   1      39.555  26.770  27.778  1.00  0.00     0.029 A 
ATOM     37  N   UNL A   1      41.344  26.922  29.115  1.00  0.00    -0.354 N 
ATOM     38  C   UNL A   1      41.732  30.109  31.981  1.00  0.00     0.074 A 
ATOM     39  C   UNL A   1      40.627  31.038  31.878  1.00  0.00     0.031 C 
ATOM     40  C   UNL A   1      40.404  25.783  27.437  1.00  0.00     0.029 A 
ATOM     41  C   UNL A   1      41.600  25.865  28.275  1.00  0.00     0.049 A 
ATOM     42  H   UNL A   1      41.958  27.203  29.831  1.00  0.00     0.167 HD
ATOM     43  C   UNL A   1      42.758  30.246  32.853  1.00  0.00     0.034 A 
ATOM     44  C   UNL A   1      42.680  25.062  28.187  1.00  0.00     0.034 A 
ATOM     45  C   UNL A   1      43.858  29.327  32.961  1.00  0.00     0.049 A 
ATOM     46  C   UNL A   1      43.812  25.228  29.168  1.00  0.00     0.074 A 
ATOM     47  C   UNL A   1      44.919  29.353  33.850  1.00  0.00     0.029 A 
ATOM     48  N   UNL A   1      44.052  28.227  32.140  1.00  0.00    -0.354 N 
ATOM     49  N   UNL A   1      43.938  26.091  30.147  1.00  0.00    -0.248 NA
ATOM     50  C   UNL A   1      44.930  24.277  29.062  1.00  0.00     0.031 C 
ATOM     51  C   UNL A   1      45.763  28.275  33.554  1.00  0.00     0.029 A 
ATOM     52  C   UNL A   1      45.219  27.570  32.493  1.00  0.00     0.049 A 
ATOM     53  H   UNL A   1      43.447  27.952  31.413  1.00  0.00     0.167 HD
ATOM     54  C   UNL A   1      45.132  25.775  30.787  1.00  0.00     0.074 A 
ATOM     55  C   UNL A   1      45.678  24.621  30.103  1.00  0.00     0.031 C 
ATOM     56  C   UNL A   1      45.732  26.395  31.835  1.00  0.00     0.034 A 
BRANCH  43  57
ATOM     57  C   UNL A   1      42.706  31.422  33.792  1.00  0.00     0.023 A 
ATOM     58  C   UNL A   1      43.252  32.656  33.383  1.00  0.00     0.012 A 
ATOM     59  C   UNL A   1      42.107  31.317  35.062  1.00  0.00     0.148 A 
ATOM     60  C   UNL A   1      43.236  33.758  34.235  1.00  0.00     0.002 A 
ATOM     61  C   UNL A   1      42.060  32.432  35.891  1.00  0.00     0.091 A 
ATOM     62  F   UNL A   1      41.621  30.129  35.447  1.00  0.00    -0.205 F 
ATOM     63  C   UNL A   1      42.633  33.649  35.485  1.00  0.00     0.022 A 
BRANCH  61  64
ATOM     64  S   UNL A   1      41.243  32.402  37.491  1.00  0.00     0.127 S 
ATOM     65  O   UNL A   1      39.931  31.861  37.142  1.00  0.00    -0.237 OA
ATOM     66  O   UNL A   1      42.092  31.491  38.259  1.00  0.00    -0.237 OA
ATOM     67  O   UNL A   1      41.255  33.779  37.966  1.00  0.00    -0.744 OA
ENDBRANCH  61  64
ENDBRANCH  43  57
BRANCH  44  68
ATOM     68  C   UNL A   1      42.718  23.991  27.151  1.00  0.00     0.023 A 
ATOM     69  C   UNL A   1      43.417  24.207  25.949  1.00  0.00     0.012 A 
ATOM     70  C   UNL A   1      42.090  22.749  27.369  1.00  0.00     0.148 A 
ATOM     71  C   UNL A   1      43.473  23.212  24.972  1.00  0.00     0.002 A 
ATOM     72  C   UNL A   1      42.193  21.744  26.415  1.00  0.00     0.091 A 
ATOM     73  F   UNL A   1      41.412  22.573  28.513  1.00  0.00    -0.205 F 
ATOM     74  C   UNL A   1      42.872  21.978  25.209  1.00  0.00     0.022 A 
BRANCH  72  75
ATOM     75  S   UNL A   1      41.555  20.087  26.688  1.00  0.00     0.127 S 
ATOM     76  O   UNL A   1      41.926  19.415  25.445  1.00  0.00    -0.237 OA
ATOM     77  O   UNL A   1      42.309  19.664  27.868  1.00  0.00    -0.237 OA
ATOM     78  O   UNL A   1      40.125  20.251  26.917  1.00  0.00    -0.744 OA
ENDBRANCH  72  75
ENDBRANCH  44  68
BRANCH  56  79
ATOM     79  C   UNL A   1      47.044  25.834  32.322  1.00  0.00     0.023 A 
ATOM     80  C   UNL A   1      47.067  25.004  33.462  1.00  0.00     0.012 A 
ATOM     81  C   UNL A   1      48.242  26.073  31.621  1.00  0.00     0.148 A 
ATOM     82  C   UNL A   1      48.264  24.450  33.914  1.00  0.00     0.002 A 
ATOM     83  C   UNL A   1      49.425  25.482  32.052  1.00  0.00     0.091 A 
ATOM     84  F   UNL A   1      48.210  26.883  30.553  1.00  0.00    -0.205 F 
ATOM     85  C   UNL A   1      49.440  24.680  33.204  1.00  0.00     0.022 A 
BRANCH  83  86
ATOM     86  S   UNL A   1      50.964  25.656  31.140  1.00  0.00     0.127 S 
ATOM     87  O   UNL A   1      51.241  27.083  31.287  1.00  0.00    -0.237 OA
ATOM     88  O   UNL A   1      51.873  24.779  31.881  1.00  0.00    -0.237 OA
ATOM     89  O   UNL A   1      50.671  25.204  29.786  1.00  0.00    -0.744 OA
ENDBRANCH  83  86
ENDBRANCH  56  79
ENDBRANCH  30  31
ENDBRANCH  23  25
ENDBRANCH  22  23
ENDBRANCH  21  22
ENDBRANCH  20  21
ENDBRANCH  19  20
ENDBRANCH   1  19
TORSDOF 22
ENDMDL
