MODEL 1
REMARK VINA RESULT:     -10.0      0.000      0.000
REMARK SMILES O=C(OCCOCCOCCOC(=O)c1ccc(-c2ccn(C(F)F)c(=O)c2)cc1O)c1ccc(-c2c3nc(c(-c4cccc(S(=O)(=O)[O-])c4F)c4ccc([nH]4)c(-c4cccc(S(=O)(=O)[O-])c4F)c4nc(c(-c5cccc(S(=O)(=O)[O-])c5F)c5ccc2[nH]5)C=C4)C=C3)cc1
REMARK SMILES IDX 7 1 6 2 5 3 4 4 3 5 2 6 1 7 32 8 33 9 94 10 34 11 93 12
REMARK SMILES IDX 35 13 36 14 37 15 87 16 38 17 92 18 86 19 88 20 39 21 91 22
REMARK SMILES IDX 85 23 84 24 40 26 72 27 52 28 71 29 53 30 56 31 70 32 89 33
REMARK SMILES IDX 54 34 55 35 69 37 90 38 57 39 41 40 42 41 50 42 43 43 45 44
REMARK SMILES IDX 51 45 44 46 46 47 47 48 48 49 49 50 73 51 74 52 82 53 75 54
REMARK SMILES IDX 77 55 83 56 76 57 78 58 79 59 80 60 81 61 58 62 59 63 67 64
REMARK SMILES IDX 60 65 62 66 68 67 61 68 63 69 64 70 65 71 66 72 8 73 9 74
REMARK SMILES IDX 10 75 11 76 12 77 13 78 14 79 15 80 16 81 30 82 17 83 29 84
REMARK SMILES IDX 18 85 31 86 19 88 20 89 28 90 21 91 26 92 22 93 27 94 23 95
REMARK SMILES IDX 24 96 25 97
REMARK H PARENT 88 25 56 36 31 87
REMARK Flexibility Score: inf
ROOT
ATOM      1  C   UNL A   1      37.234  23.120  25.542  1.00  0.00     0.188 C 
ENDROOT
BRANCH   1   2
ATOM      2  O   UNL A   1      37.598  21.775  25.210  1.00  0.00    -0.376 OA
BRANCH   2   3
ATOM      3  C   UNL A   1      38.842  21.372  25.786  1.00  0.00     0.202 C 
BRANCH   3   4
ATOM      4  C   UNL A   1      39.203  19.902  25.552  1.00  0.00     0.261 C 
BRANCH   4   5
ATOM      5  O   UNL A   1      40.413  19.495  26.202  1.00  0.00    -0.460 OA
BRANCH   5   6
ATOM      6  C   UNL A   1      41.690  19.881  25.957  1.00  0.00     0.338 C 
ATOM      7  O   UNL A   1      42.398  19.092  25.326  1.00  0.00    -0.246 OA
BRANCH   6   8
ATOM      8  C   UNL A   1      42.328  21.163  26.426  1.00  0.00     0.060 A 
ATOM      9  C   UNL A   1      42.962  21.942  25.436  1.00  0.00     0.016 A 
ATOM     10  C   UNL A   1      42.356  21.657  27.733  1.00  0.00     0.016 A 
ATOM     11  C   UNL A   1      43.578  23.163  25.742  1.00  0.00     0.010 A 
ATOM     12  C   UNL A   1      42.959  22.877  28.046  1.00  0.00     0.010 A 
ATOM     13  C   UNL A   1      43.571  23.642  27.056  1.00  0.00    -0.014 A 
BRANCH  13  14
ATOM     14  C   UNL A   1      44.020  25.009  27.388  1.00  0.00     0.031 A 
ATOM     15  C   UNL A   1      45.467  25.378  27.490  1.00  0.00     0.074 A 
ATOM     16  C   UNL A   1      43.079  25.904  27.736  1.00  0.00     0.049 A 
ATOM     17  N   UNL A   1      45.997  26.571  27.567  1.00  0.00    -0.248 NA
ATOM     18  C   UNL A   1      46.451  24.287  27.497  1.00  0.00     0.031 C 
ATOM     19  C   UNL A   1      41.646  25.620  27.842  1.00  0.00     0.029 A 
ATOM     20  N   UNL A   1      43.197  27.208  28.128  1.00  0.00    -0.354 N 
ATOM     21  C   UNL A   1      47.369  26.381  27.505  1.00  0.00     0.074 A 
ATOM     22  C   UNL A   1      47.598  24.958  27.518  1.00  0.00     0.031 C 
ATOM     23  C   UNL A   1      41.025  26.704  28.329  1.00  0.00     0.029 A 
ATOM     24  C   UNL A   1      42.012  27.760  28.538  1.00  0.00     0.049 A 
ATOM     25  H   UNL A   1      44.049  27.702  28.116  1.00  0.00     0.167 HD
ATOM     26  C   UNL A   1      48.327  27.327  27.363  1.00  0.00     0.034 A 
ATOM     27  C   UNL A   1      41.749  28.986  29.026  1.00  0.00     0.034 A 
ATOM     28  C   UNL A   1      48.075  28.734  27.485  1.00  0.00     0.049 A 
ATOM     29  C   UNL A   1      42.851  30.002  29.063  1.00  0.00     0.074 A 
ATOM     30  C   UNL A   1      48.952  29.789  27.313  1.00  0.00     0.029 A 
ATOM     31  N   UNL A   1      46.862  29.275  27.879  1.00  0.00    -0.354 N 
ATOM     32  N   UNL A   1      44.097  29.870  28.675  1.00  0.00    -0.248 NA
ATOM     33  C   UNL A   1      42.511  31.341  29.555  1.00  0.00     0.031 C 
ATOM     34  C   UNL A   1      48.280  30.968  27.660  1.00  0.00     0.029 A 
ATOM     35  C   UNL A   1      46.987  30.641  28.043  1.00  0.00     0.049 A 
ATOM     36  H   UNL A   1      46.034  28.763  28.020  1.00  0.00     0.167 HD
ATOM     37  C   UNL A   1      44.683  31.117  28.836  1.00  0.00     0.074 A 
ATOM     38  C   UNL A   1      43.655  31.991  29.371  1.00  0.00     0.031 C 
ATOM     39  C   UNL A   1      45.954  31.502  28.563  1.00  0.00     0.034 A 
BRANCH  26  40
ATOM     40  C   UNL A   1      49.681  26.893  26.880  1.00  0.00     0.023 A 
ATOM     41  C   UNL A   1      49.787  26.612  25.502  1.00  0.00     0.012 A 
ATOM     42  C   UNL A   1      50.834  26.862  27.676  1.00  0.00     0.148 A 
ATOM     43  C   UNL A   1      51.005  26.269  24.921  1.00  0.00     0.002 A 
ATOM     44  C   UNL A   1      52.056  26.542  27.086  1.00  0.00     0.091 A 
ATOM     45  F   UNL A   1      50.718  27.132  28.983  1.00  0.00    -0.205 F 
ATOM     46  C   UNL A   1      52.141  26.237  25.715  1.00  0.00     0.022 A 
BRANCH  44  47
ATOM     47  S   UNL A   1      53.602  26.517  27.997  1.00  0.00     0.127 S 
ATOM     48  O   UNL A   1      54.073  27.885  27.784  1.00  0.00    -0.237 OA
ATOM     49  O   UNL A   1      53.152  26.228  29.358  1.00  0.00    -0.237 OA
ATOM     50  O   UNL A   1      54.408  25.473  27.383  1.00  0.00    -0.744 OA
ENDBRANCH  44  47
ENDBRANCH  26  40
BRANCH  27  51
ATOM     51  C   UNL A   1      40.353  29.294  29.422  1.00  0.00     0.023 A 
ATOM     52  C   UNL A   1      39.397  29.545  28.423  1.00  0.00     0.012 A 
ATOM     53  C   UNL A   1      39.941  29.161  30.763  1.00  0.00     0.148 A 
ATOM     54  C   UNL A   1      38.046  29.649  28.752  1.00  0.00     0.002 A 
ATOM     55  C   UNL A   1      38.591  29.231  31.079  1.00  0.00     0.091 A 
ATOM     56  F   UNL A   1      40.877  28.913  31.691  1.00  0.00    -0.205 F 
ATOM     57  C   UNL A   1      37.641  29.479  30.074  1.00  0.00     0.022 A 
BRANCH  55  58
ATOM     58  S   UNL A   1      37.961  28.907  32.730  1.00  0.00     0.127 S 
ATOM     59  O   UNL A   1      36.587  29.396  32.627  1.00  0.00    -0.237 OA
ATOM     60  O   UNL A   1      38.091  27.452  32.821  1.00  0.00    -0.237 OA
ATOM     61  O   UNL A   1      38.820  29.651  33.641  1.00  0.00    -0.744 OA
ENDBRANCH  55  58
ENDBRANCH  27  51
BRANCH  39  62
ATOM     62  C   UNL A   1      46.340  32.919  28.871  1.00  0.00     0.023 A 
ATOM     63  C   UNL A   1      47.010  33.194  30.079  1.00  0.00     0.012 A 
ATOM     64  C   UNL A   1      46.158  33.944  27.925  1.00  0.00     0.148 A 
ATOM     65  C   UNL A   1      47.485  34.475  30.346  1.00  0.00     0.002 A 
ATOM     66  C   UNL A   1      46.669  35.210  28.181  1.00  0.00     0.091 A 
ATOM     67  F   UNL A   1      45.507  33.658  26.787  1.00  0.00    -0.205 F 
ATOM     68  C   UNL A   1      47.326  35.480  29.392  1.00  0.00     0.022 A 
BRANCH  66  69
ATOM     69  S   UNL A   1      46.599  36.534  26.969  1.00  0.00     0.127 S 
ATOM     70  O   UNL A   1      45.164  36.801  26.898  1.00  0.00    -0.237 OA
ATOM     71  O   UNL A   1      47.384  37.589  27.613  1.00  0.00    -0.237 OA
ATOM     72  O   UNL A   1      47.199  35.998  25.755  1.00  0.00    -0.744 OA
ENDBRANCH  66  69
ENDBRANCH  39  62
ENDBRANCH  13  14
ENDBRANCH   6   8
ENDBRANCH   5   6
ENDBRANCH   4   5
ENDBRANCH   3   4
ENDBRANCH   2   3
ENDBRANCH   1   2
BRANCH   1  73
ATOM     73  C   UNL A   1      36.159  23.671  24.602  1.00  0.00     0.188 C 
BRANCH  73  74
ATOM     74  O   UNL A   1      35.339  22.698  23.958  1.00  0.00    -0.376 OA
BRANCH  74  75
ATOM     75  C   UNL A   1      33.941  22.972  23.881  1.00  0.00     0.202 C 
BRANCH  75  76
ATOM     76  C   UNL A   1      33.473  24.412  24.131  1.00  0.00     0.261 C 
BRANCH  76  77
ATOM     77  O   UNL A   1      32.652  24.600  25.295  1.00  0.00    -0.460 OA
BRANCH  77  78
ATOM     78  C   UNL A   1      31.697  25.554  25.153  1.00  0.00     0.341 C 
ATOM     79  O   UNL A   1      30.554  25.396  24.743  1.00  0.00    -0.246 OA
BRANCH  78  80
ATOM     80  C   UNL A   1      32.206  26.858  25.601  1.00  0.00     0.101 A 
ATOM     81  C   UNL A   1      33.317  26.941  26.452  1.00  0.00     0.020 A 
ATOM     82  C   UNL A   1      31.520  28.014  25.238  1.00  0.00     0.130 A 
ATOM     83  C   UNL A   1      33.730  28.187  26.942  1.00  0.00     0.010 A 
ATOM     84  C   UNL A   1      31.919  29.248  25.746  1.00  0.00     0.055 A 
ATOM     85  C   UNL A   1      33.038  29.356  26.591  1.00  0.00    -0.014 A 
BRANCH  82  86
ATOM     86  O   UNL A   1      30.488  27.941  24.346  1.00  0.00    -0.507 OA
ATOM     87  H   UNL A   1      30.193  27.107  24.039  1.00  0.00     0.293 HD
ENDBRANCH  82  86
BRANCH  85  88
ATOM     88  C   UNL A   1      33.497  30.710  26.985  1.00  0.00    -0.011 A 
ATOM     89  C   UNL A   1      34.844  30.981  27.467  1.00  0.00     0.027 A 
ATOM     90  C   UNL A   1      32.589  31.700  27.055  1.00  0.00     0.080 A 
ATOM     91  C   UNL A   1      35.107  32.100  28.154  1.00  0.00     0.095 A 
ATOM     92  C   UNL A   1      32.912  33.008  27.687  1.00  0.00     0.255 A 
ATOM     93  N   UNL A   1      34.132  33.064  28.339  1.00  0.00    -0.258 N 
ATOM     94  O   UNL A   1      32.096  33.918  27.600  1.00  0.00    -0.269 OA
BRANCH  93  95
ATOM     95  C   UNL A   1      34.372  34.208  29.184  1.00  0.00     0.451 C 
ATOM     96  F   UNL A   1      33.508  34.216  30.229  1.00  0.00    -0.185 F 
ATOM     97  F   UNL A   1      35.631  34.205  29.673  1.00  0.00    -0.185 F 
ENDBRANCH  93  95
ENDBRANCH  85  88
ENDBRANCH  78  80
ENDBRANCH  77  78
ENDBRANCH  76  77
ENDBRANCH  75  76
ENDBRANCH  74  75
ENDBRANCH  73  74
ENDBRANCH   1  73
TORSDOF 23
ENDMDL
MODEL 2
REMARK VINA RESULT:      -9.9      2.887      8.227
REMARK SMILES O=C(OCCOCCOCCOC(=O)c1ccc(-c2ccn(C(F)F)c(=O)c2)cc1O)c1ccc(-c2c3nc(c(-c4cccc(S(=O)(=O)[O-])c4F)c4ccc([nH]4)c(-c4cccc(S(=O)(=O)[O-])c4F)c4nc(c(-c5cccc(S(=O)(=O)[O-])c5F)c5ccc2[nH]5)C=C4)C=C3)cc1
REMARK SMILES IDX 7 1 6 2 5 3 4 4 3 5 2 6 1 7 32 8 33 9 94 10 34 11 93 12
REMARK SMILES IDX 35 13 36 14 37 15 87 16 38 17 92 18 86 19 88 20 39 21 91 22
REMARK SMILES IDX 85 23 84 24 40 26 72 27 52 28 71 29 53 30 56 31 70 32 89 33
REMARK SMILES IDX 54 34 55 35 69 37 90 38 57 39 41 40 42 41 50 42 43 43 45 44
REMARK SMILES IDX 51 45 44 46 46 47 47 48 48 49 49 50 73 51 74 52 82 53 75 54
REMARK SMILES IDX 77 55 83 56 76 57 78 58 79 59 80 60 81 61 58 62 59 63 67 64
REMARK SMILES IDX 60 65 62 66 68 67 61 68 63 69 64 70 65 71 66 72 8 73 9 74
REMARK SMILES IDX 10 75 11 76 12 77 13 78 14 79 15 80 16 81 30 82 17 83 29 84
REMARK SMILES IDX 18 85 31 86 19 88 20 89 28 90 21 91 26 92 22 93 27 94 23 95
REMARK SMILES IDX 24 96 25 97
REMARK H PARENT 88 25 56 36 31 87
REMARK Flexibility Score: inf
ROOT
ATOM      1  C   UNL A   1      37.412  22.867  25.196  1.00  0.00     0.188 C 
ENDROOT
BRANCH   1   2
ATOM      2  O   UNL A   1      37.672  21.460  25.114  1.00  0.00    -0.376 OA
BRANCH   2   3
ATOM      3  C   UNL A   1      38.903  21.079  25.732  1.00  0.00     0.202 C 
BRANCH   3   4
ATOM      4  C   UNL A   1      39.224  19.584  25.638  1.00  0.00     0.261 C 
BRANCH   4   5
ATOM      5  O   UNL A   1      40.474  19.224  26.239  1.00  0.00    -0.460 OA
BRANCH   5   6
ATOM      6  C   UNL A   1      41.713  19.725  26.007  1.00  0.00     0.338 C 
ATOM      7  O   UNL A   1      42.518  18.980  25.444  1.00  0.00    -0.246 OA
BRANCH   6   8
ATOM      8  C   UNL A   1      42.202  21.091  26.416  1.00  0.00     0.060 A 
ATOM      9  C   UNL A   1      42.654  21.929  25.375  1.00  0.00     0.016 A 
ATOM     10  C   UNL A   1      42.252  21.610  27.712  1.00  0.00     0.016 A 
ATOM     11  C   UNL A   1      43.118  23.227  25.625  1.00  0.00     0.010 A 
ATOM     12  C   UNL A   1      42.704  22.906  27.969  1.00  0.00     0.010 A 
ATOM     13  C   UNL A   1      43.138  23.727  26.930  1.00  0.00    -0.014 A 
BRANCH  13  14
ATOM     14  C   UNL A   1      43.418  25.148  27.216  1.00  0.00     0.031 A 
ATOM     15  C   UNL A   1      42.332  26.150  27.453  1.00  0.00     0.074 A 
ATOM     16  C   UNL A   1      44.694  25.561  27.124  1.00  0.00     0.049 A 
ATOM     17  N   UNL A   1      42.438  27.369  27.915  1.00  0.00    -0.248 NA
ATOM     18  C   UNL A   1      40.952  25.746  27.151  1.00  0.00     0.031 C 
ATOM     19  C   UNL A   1      45.825  24.716  26.731  1.00  0.00     0.029 A 
ATOM     20  N   UNL A   1      45.239  26.803  27.288  1.00  0.00    -0.354 N 
ATOM     21  C   UNL A   1      41.140  27.829  28.076  1.00  0.00     0.074 A 
ATOM     22  C   UNL A   1      40.265  26.815  27.542  1.00  0.00     0.031 C 
ATOM     23  C   UNL A   1      46.921  25.481  26.627  1.00  0.00     0.029 A 
ATOM     24  C   UNL A   1      46.572  26.856  26.974  1.00  0.00     0.049 A 
ATOM     25  H   UNL A   1      44.726  27.583  27.601  1.00  0.00     0.167 HD
ATOM     26  C   UNL A   1      40.737  28.962  28.696  1.00  0.00     0.034 A 
ATOM     27  C   UNL A   1      47.422  27.900  26.971  1.00  0.00     0.034 A 
ATOM     28  C   UNL A   1      41.635  30.007  29.099  1.00  0.00     0.049 A 
ATOM     29  C   UNL A   1      46.939  29.226  27.474  1.00  0.00     0.074 A 
ATOM     30  C   UNL A   1      41.352  31.177  29.779  1.00  0.00     0.029 A 
ATOM     31  N   UNL A   1      42.986  30.032  28.792  1.00  0.00    -0.354 N 
ATOM     32  N   UNL A   1      45.754  29.543  27.938  1.00  0.00    -0.248 NA
ATOM     33  C   UNL A   1      47.911  30.325  27.501  1.00  0.00     0.031 C 
ATOM     34  C   UNL A   1      42.527  31.937  29.832  1.00  0.00     0.029 A 
ATOM     35  C   UNL A   1      43.536  31.235  29.189  1.00  0.00     0.049 A 
ATOM     36  H   UNL A   1      43.480  29.300  28.357  1.00  0.00     0.167 HD
ATOM     37  C   UNL A   1      45.844  30.864  28.351  1.00  0.00     0.074 A 
ATOM     38  C   UNL A   1      47.201  31.294  28.069  1.00  0.00     0.031 C 
ATOM     39  C   UNL A   1      44.890  31.646  28.914  1.00  0.00     0.034 A 
BRANCH  26  40
ATOM     40  C   UNL A   1      39.307  29.052  29.144  1.00  0.00     0.023 A 
ATOM     41  C   UNL A   1      39.056  28.711  30.489  1.00  0.00     0.012 A 
ATOM     42  C   UNL A   1      38.259  29.546  28.356  1.00  0.00     0.148 A 
ATOM     43  C   UNL A   1      37.783  28.821  31.043  1.00  0.00     0.002 A 
ATOM     44  C   UNL A   1      36.991  29.677  28.920  1.00  0.00     0.091 A 
ATOM     45  F   UNL A   1      38.512  29.865  27.080  1.00  0.00    -0.205 F 
ATOM     46  C   UNL A   1      36.750  29.308  30.257  1.00  0.00     0.022 A 
BRANCH  44  47
ATOM     47  S   UNL A   1      35.587  30.341  28.022  1.00  0.00     0.127 S 
ATOM     48  O   UNL A   1      35.468  29.371  26.933  1.00  0.00    -0.237 OA
ATOM     49  O   UNL A   1      34.522  30.275  29.022  1.00  0.00    -0.237 OA
ATOM     50  O   UNL A   1      35.971  31.687  27.622  1.00  0.00    -0.744 OA
ENDBRANCH  44  47
ENDBRANCH  26  40
BRANCH  27  51
ATOM     51  C   UNL A   1      48.822  27.656  26.548  1.00  0.00     0.023 A 
ATOM     52  C   UNL A   1      49.722  27.073  27.458  1.00  0.00     0.012 A 
ATOM     53  C   UNL A   1      49.208  27.835  25.204  1.00  0.00     0.148 A 
ATOM     54  C   UNL A   1      50.984  26.660  27.033  1.00  0.00     0.002 A 
ATOM     55  C   UNL A   1      50.454  27.389  24.780  1.00  0.00     0.091 A 
ATOM     56  F   UNL A   1      48.325  28.386  24.359  1.00  0.00    -0.205 F 
ATOM     57  C   UNL A   1      51.345  26.805  25.695  1.00  0.00     0.022 A 
BRANCH  55  58
ATOM     58  S   UNL A   1      50.963  27.422  23.058  1.00  0.00     0.127 S 
ATOM     59  O   UNL A   1      51.012  28.858  22.788  1.00  0.00    -0.237 OA
ATOM     60  O   UNL A   1      52.267  26.762  23.117  1.00  0.00    -0.237 OA
ATOM     61  O   UNL A   1      49.943  26.685  22.324  1.00  0.00    -0.744 OA
ENDBRANCH  55  58
ENDBRANCH  27  51
BRANCH  39  62
ATOM     62  C   UNL A   1      45.248  33.069  29.233  1.00  0.00     0.023 A 
ATOM     63  C   UNL A   1      45.868  33.355  30.464  1.00  0.00     0.012 A 
ATOM     64  C   UNL A   1      45.089  34.089  28.277  1.00  0.00     0.148 A 
ATOM     65  C   UNL A   1      46.319  34.642  30.744  1.00  0.00     0.002 A 
ATOM     66  C   UNL A   1      45.575  35.362  28.548  1.00  0.00     0.091 A 
ATOM     67  F   UNL A   1      44.485  33.793  27.117  1.00  0.00    -0.205 F 
ATOM     68  C   UNL A   1      46.184  35.643  29.782  1.00  0.00     0.022 A 
BRANCH  66  69
ATOM     69  S   UNL A   1      45.536  36.682  27.330  1.00  0.00     0.127 S 
ATOM     70  O   UNL A   1      45.975  35.986  26.121  1.00  0.00    -0.237 OA
ATOM     71  O   UNL A   1      44.124  37.067  27.332  1.00  0.00    -0.237 OA
ATOM     72  O   UNL A   1      46.439  37.711  27.826  1.00  0.00    -0.744 OA
ENDBRANCH  66  69
ENDBRANCH  39  62
ENDBRANCH  13  14
ENDBRANCH   6   8
ENDBRANCH   5   6
ENDBRANCH   4   5
ENDBRANCH   3   4
ENDBRANCH   2   3
ENDBRANCH   1   2
BRANCH   1  73
ATOM     73  C   UNL A   1      36.448  23.335  24.105  1.00  0.00     0.188 C 
BRANCH  73  74
ATOM     74  O   UNL A   1      35.635  22.322  23.516  1.00  0.00    -0.376 OA
BRANCH  74  75
ATOM     75  C   UNL A   1      34.232  22.391  23.756  1.00  0.00     0.202 C 
BRANCH  75  76
ATOM     76  C   UNL A   1      33.698  23.567  24.584  1.00  0.00     0.261 C 
BRANCH  76  77
ATOM     77  O   UNL A   1      33.668  23.359  26.005  1.00  0.00    -0.460 OA
BRANCH  77  78
ATOM     78  C   UNL A   1      32.560  23.852  26.616  1.00  0.00     0.341 C 
ATOM     79  O   UNL A   1      32.133  23.550  27.722  1.00  0.00    -0.246 OA
BRANCH  78  80
ATOM     80  C   UNL A   1      31.918  24.866  25.766  1.00  0.00     0.101 A 
ATOM     81  C   UNL A   1      32.558  26.081  25.490  1.00  0.00     0.020 A 
ATOM     82  C   UNL A   1      30.623  24.640  25.304  1.00  0.00     0.130 A 
ATOM     83  C   UNL A   1      31.891  27.072  24.756  1.00  0.00     0.010 A 
ATOM     84  C   UNL A   1      29.955  25.635  24.595  1.00  0.00     0.055 A 
ATOM     85  C   UNL A   1      30.583  26.858  24.296  1.00  0.00    -0.014 A 
BRANCH  82  86
ATOM     86  O   UNL A   1      30.031  23.425  25.504  1.00  0.00    -0.507 OA
ATOM     87  H   UNL A   1      29.998  22.800  24.806  1.00  0.00     0.293 HD
ENDBRANCH  82  86
BRANCH  85  88
ATOM     88  C   UNL A   1      29.872  27.821  23.419  1.00  0.00    -0.011 A 
ATOM     89  C   UNL A   1      30.565  28.803  22.597  1.00  0.00     0.027 A 
ATOM     90  C   UNL A   1      28.533  27.899  23.507  1.00  0.00     0.080 A 
ATOM     91  C   UNL A   1      29.912  29.874  22.126  1.00  0.00     0.095 A 
ATOM     92  C   UNL A   1      27.776  29.007  22.863  1.00  0.00     0.255 A 
ATOM     93  N   UNL A   1      28.553  30.021  22.329  1.00  0.00    -0.258 N 
ATOM     94  O   UNL A   1      26.552  28.954  22.857  1.00  0.00    -0.269 OA
BRANCH  93  95
ATOM     95  C   UNL A   1      27.871  31.230  21.936  1.00  0.00     0.451 C 
ATOM     96  F   UNL A   1      28.096  32.217  22.837  1.00  0.00    -0.185 F 
ATOM     97  F   UNL A   1      28.287  31.659  20.724  1.00  0.00    -0.185 F 
ENDBRANCH  93  95
ENDBRANCH  85  88
ENDBRANCH  78  80
ENDBRANCH  77  78
ENDBRANCH  76  77
ENDBRANCH  75  76
ENDBRANCH  74  75
ENDBRANCH  73  74
ENDBRANCH   1  73
TORSDOF 23
ENDMDL
MODEL 3
REMARK VINA RESULT:      -9.3      4.706     10.437
REMARK SMILES O=C(OCCOCCOCCOC(=O)c1ccc(-c2ccn(C(F)F)c(=O)c2)cc1O)c1ccc(-c2c3nc(c(-c4cccc(S(=O)(=O)[O-])c4F)c4ccc([nH]4)c(-c4cccc(S(=O)(=O)[O-])c4F)c4nc(c(-c5cccc(S(=O)(=O)[O-])c5F)c5ccc2[nH]5)C=C4)C=C3)cc1
REMARK SMILES IDX 7 1 6 2 5 3 4 4 3 5 2 6 1 7 32 8 33 9 94 10 34 11 93 12
REMARK SMILES IDX 35 13 36 14 37 15 87 16 38 17 92 18 86 19 88 20 39 21 91 22
REMARK SMILES IDX 85 23 84 24 40 26 72 27 52 28 71 29 53 30 56 31 70 32 89 33
REMARK SMILES IDX 54 34 55 35 69 37 90 38 57 39 41 40 42 41 50 42 43 43 45 44
REMARK SMILES IDX 51 45 44 46 46 47 47 48 48 49 49 50 73 51 74 52 82 53 75 54
REMARK SMILES IDX 77 55 83 56 76 57 78 58 79 59 80 60 81 61 58 62 59 63 67 64
REMARK SMILES IDX 60 65 62 66 68 67 61 68 63 69 64 70 65 71 66 72 8 73 9 74
REMARK SMILES IDX 10 75 11 76 12 77 13 78 14 79 15 80 16 81 30 82 17 83 29 84
REMARK SMILES IDX 18 85 31 86 19 88 20 89 28 90 21 91 26 92 22 93 27 94 23 95
REMARK SMILES IDX 24 96 25 97
REMARK H PARENT 88 25 56 36 31 87
REMARK Flexibility Score: inf
ROOT
ATOM      1  C   UNL A   1      40.615  28.146  29.707  1.00  0.00     0.188 C 
ENDROOT
BRANCH   1   2
ATOM      2  O   UNL A   1      39.937  27.986  28.455  1.00  0.00    -0.376 OA
BRANCH   2   3
ATOM      3  C   UNL A   1      39.920  26.634  27.993  1.00  0.00     0.202 C 
BRANCH   3   4
ATOM      4  C   UNL A   1      41.210  25.854  28.267  1.00  0.00     0.261 C 
BRANCH   4   5
ATOM      5  O   UNL A   1      42.091  25.782  27.138  1.00  0.00    -0.460 OA
BRANCH   5   6
ATOM      6  C   UNL A   1      43.121  26.597  26.801  1.00  0.00     0.338 C 
ATOM      7  O   UNL A   1      43.891  26.188  25.930  1.00  0.00    -0.246 OA
BRANCH   6   8
ATOM      8  C   UNL A   1      43.430  27.932  27.428  1.00  0.00     0.060 A 
ATOM      9  C   UNL A   1      42.947  29.068  26.747  1.00  0.00     0.016 A 
ATOM     10  C   UNL A   1      44.142  28.159  28.610  1.00  0.00     0.016 A 
ATOM     11  C   UNL A   1      43.155  30.365  27.237  1.00  0.00     0.010 A 
ATOM     12  C   UNL A   1      44.346  29.447  29.110  1.00  0.00     0.010 A 
ATOM     13  C   UNL A   1      43.854  30.559  28.432  1.00  0.00    -0.014 A 
BRANCH  13  14
ATOM     14  C   UNL A   1      43.917  31.879  29.091  1.00  0.00     0.031 A 
ATOM     15  C   UNL A   1      42.864  32.353  30.044  1.00  0.00     0.074 A 
ATOM     16  C   UNL A   1      44.892  32.720  28.705  1.00  0.00     0.049 A 
ATOM     17  N   UNL A   1      42.900  33.387  30.843  1.00  0.00    -0.248 NA
ATOM     18  C   UNL A   1      41.620  31.577  30.129  1.00  0.00     0.031 C 
ATOM     19  C   UNL A   1      45.879  32.440  27.660  1.00  0.00     0.029 A 
ATOM     20  N   UNL A   1      45.169  33.998  29.100  1.00  0.00    -0.354 N 
ATOM     21  C   UNL A   1      41.746  33.314  31.610  1.00  0.00     0.074 A 
ATOM     22  C   UNL A   1      40.968  32.215  31.096  1.00  0.00     0.031 C 
ATOM     23  C   UNL A   1      46.617  33.542  27.455  1.00  0.00     0.029 A 
ATOM     24  C   UNL A   1      46.172  34.586  28.375  1.00  0.00     0.049 A 
ATOM     25  H   UNL A   1      44.695  34.453  29.834  1.00  0.00     0.167 HD
ATOM     26  C   UNL A   1      41.430  34.056  32.696  1.00  0.00     0.034 A 
ATOM     27  C   UNL A   1      46.680  35.829  28.445  1.00  0.00     0.034 A 
ATOM     28  C   UNL A   1      42.163  35.222  33.100  1.00  0.00     0.049 A 
ATOM     29  C   UNL A   1      46.200  36.746  29.529  1.00  0.00     0.074 A 
ATOM     30  C   UNL A   1      41.969  36.025  34.209  1.00  0.00     0.029 A 
ATOM     31  N   UNL A   1      43.190  35.788  32.364  1.00  0.00    -0.354 N 
ATOM     32  N   UNL A   1      45.312  36.511  30.465  1.00  0.00    -0.248 NA
ATOM     33  C   UNL A   1      46.816  38.076  29.602  1.00  0.00     0.031 C 
ATOM     34  C   UNL A   1      42.847  37.112  34.111  1.00  0.00     0.029 A 
ATOM     35  C   UNL A   1      43.584  36.979  32.944  1.00  0.00     0.049 A 
ATOM     36  H   UNL A   1      43.583  35.399  31.550  1.00  0.00     0.167 HD
ATOM     37  C   UNL A   1      45.290  37.644  31.265  1.00  0.00     0.074 A 
ATOM     38  C   UNL A   1      46.246  38.574  30.694  1.00  0.00     0.031 C 
ATOM     39  C   UNL A   1      44.546  37.888  32.373  1.00  0.00     0.034 A 
BRANCH  26  40
ATOM     40  C   UNL A   1      40.372  33.533  33.625  1.00  0.00     0.023 A 
ATOM     41  C   UNL A   1      40.830  32.786  34.730  1.00  0.00     0.012 A 
ATOM     42  C   UNL A   1      39.007  33.831  33.519  1.00  0.00     0.148 A 
ATOM     43  C   UNL A   1      39.953  32.307  35.700  1.00  0.00     0.002 A 
ATOM     44  C   UNL A   1      38.135  33.370  34.504  1.00  0.00     0.091 A 
ATOM     45  F   UNL A   1      38.586  34.541  32.464  1.00  0.00    -0.205 F 
ATOM     46  C   UNL A   1      38.603  32.603  35.587  1.00  0.00     0.022 A 
BRANCH  44  47
ATOM     47  S   UNL A   1      36.377  33.730  34.496  1.00  0.00     0.127 S 
ATOM     48  O   UNL A   1      36.055  33.584  35.915  1.00  0.00    -0.237 OA
ATOM     49  O   UNL A   1      36.347  35.105  33.999  1.00  0.00    -0.237 OA
ATOM     50  O   UNL A   1      35.773  32.745  33.612  1.00  0.00    -0.744 OA
ENDBRANCH  44  47
ENDBRANCH  26  40
BRANCH  27  51
ATOM     51  C   UNL A   1      47.758  36.196  27.494  1.00  0.00     0.023 A 
ATOM     52  C   UNL A   1      47.423  36.862  26.302  1.00  0.00     0.012 A 
ATOM     53  C   UNL A   1      49.113  36.047  27.852  1.00  0.00     0.148 A 
ATOM     54  C   UNL A   1      48.423  37.386  25.483  1.00  0.00     0.002 A 
ATOM     55  C   UNL A   1      50.102  36.601  27.050  1.00  0.00     0.091 A 
ATOM     56  F   UNL A   1      49.399  35.415  28.999  1.00  0.00    -0.205 F 
ATOM     57  C   UNL A   1      49.759  37.267  25.862  1.00  0.00     0.022 A 
BRANCH  55  58
ATOM     58  S   UNL A   1      51.838  36.606  27.512  1.00  0.00     0.127 S 
ATOM     59  O   UNL A   1      51.795  37.243  28.827  1.00  0.00    -0.237 OA
ATOM     60  O   UNL A   1      52.148  35.176  27.530  1.00  0.00    -0.237 OA
ATOM     61  O   UNL A   1      52.527  37.364  26.476  1.00  0.00    -0.744 OA
ENDBRANCH  55  58
ENDBRANCH  27  51
BRANCH  39  62
ATOM     62  C   UNL A   1      44.690  39.229  33.033  1.00  0.00     0.023 A 
ATOM     63  C   UNL A   1      45.767  39.440  33.914  1.00  0.00     0.012 A 
ATOM     64  C   UNL A   1      43.849  40.302  32.688  1.00  0.00     0.148 A 
ATOM     65  C   UNL A   1      46.000  40.703  34.454  1.00  0.00     0.002 A 
ATOM     66  C   UNL A   1      44.109  41.567  33.200  1.00  0.00     0.091 A 
ATOM     67  F   UNL A   1      42.823  40.072  31.855  1.00  0.00    -0.205 F 
ATOM     68  C   UNL A   1      45.179  41.769  34.087  1.00  0.00     0.022 A 
BRANCH  66  69
ATOM     69  S   UNL A   1      43.168  43.014  32.703  1.00  0.00     0.127 S 
ATOM     70  O   UNL A   1      42.095  43.028  33.696  1.00  0.00    -0.237 OA
ATOM     71  O   UNL A   1      44.149  44.091  32.851  1.00  0.00    -0.237 OA
ATOM     72  O   UNL A   1      42.750  42.768  31.329  1.00  0.00    -0.744 OA
ENDBRANCH  66  69
ENDBRANCH  39  62
ENDBRANCH  13  14
ENDBRANCH   6   8
ENDBRANCH   5   6
ENDBRANCH   4   5
ENDBRANCH   3   4
ENDBRANCH   2   3
ENDBRANCH   1   2
BRANCH   1  73
ATOM     73  C   UNL A   1      39.644  28.135  30.890  1.00  0.00     0.188 C 
BRANCH  73  74
ATOM     74  O   UNL A   1      38.300  28.509  30.594  1.00  0.00    -0.376 OA
BRANCH  74  75
ATOM     75  C   UNL A   1      37.696  29.487  31.437  1.00  0.00     0.202 C 
BRANCH  75  76
ATOM     76  C   UNL A   1      37.548  30.915  30.896  1.00  0.00     0.261 C 
BRANCH  76  77
ATOM     77  O   UNL A   1      38.042  31.124  29.564  1.00  0.00    -0.460 OA
BRANCH  77  78
ATOM     78  C   UNL A   1      37.319  32.013  28.836  1.00  0.00     0.341 C 
ATOM     79  O   UNL A   1      37.580  33.194  28.643  1.00  0.00    -0.246 OA
BRANCH  78  80
ATOM     80  C   UNL A   1      36.142  31.355  28.248  1.00  0.00     0.101 A 
ATOM     81  C   UNL A   1      34.903  32.008  28.201  1.00  0.00     0.020 A 
ATOM     82  C   UNL A   1      36.252  30.037  27.812  1.00  0.00     0.130 A 
ATOM     83  C   UNL A   1      33.774  31.330  27.723  1.00  0.00     0.010 A 
ATOM     84  C   UNL A   1      35.123  29.360  27.358  1.00  0.00     0.055 A 
ATOM     85  C   UNL A   1      33.872  29.999  27.291  1.00  0.00    -0.014 A 
BRANCH  82  86
ATOM     86  O   UNL A   1      37.475  29.429  27.782  1.00  0.00    -0.507 OA
ATOM     87  H   UNL A   1      38.242  29.910  28.023  1.00  0.00     0.293 HD
ENDBRANCH  82  86
BRANCH  85  88
ATOM     88  C   UNL A   1      32.739  29.271  26.669  1.00  0.00    -0.011 A 
ATOM     89  C   UNL A   1      32.334  27.935  27.081  1.00  0.00     0.027 A 
ATOM     90  C   UNL A   1      32.164  29.797  25.573  1.00  0.00     0.080 A 
ATOM     91  C   UNL A   1      31.582  27.174  26.274  1.00  0.00     0.095 A 
ATOM     92  C   UNL A   1      31.209  29.012  24.744  1.00  0.00     0.255 A 
ATOM     93  N   UNL A   1      31.097  27.674  25.080  1.00  0.00    -0.258 N 
ATOM     94  O   UNL A   1      30.612  29.584  23.840  1.00  0.00    -0.269 OA
BRANCH  93  95
ATOM     95  C   UNL A   1      30.395  26.822  24.151  1.00  0.00     0.451 C 
ATOM     96  F   UNL A   1      30.284  25.566  24.648  1.00  0.00    -0.185 F 
ATOM     97  F   UNL A   1      29.154  27.289  23.895  1.00  0.00    -0.185 F 
ENDBRANCH  93  95
ENDBRANCH  85  88
ENDBRANCH  78  80
ENDBRANCH  77  78
ENDBRANCH  76  77
ENDBRANCH  75  76
ENDBRANCH  74  75
ENDBRANCH  73  74
ENDBRANCH   1  73
TORSDOF 23
ENDMDL
