MODEL 1
REMARK VINA RESULT:      -9.7      0.000      0.000
REMARK SMILES C[C@@H](C(=O)OCCOCCOCCOC(=O)c1ccc(-c2c3nc(c(-c4cccc(S(=O)(=O)[O-])c4F)c4ccc([nH]4)c(-c4cccc(S(=O)(=O)[O-])c4F)c4nc(c(-c5cccc(S(=O)(=O)[O-])c5F)c5ccc2[nH]5)C=C4)C=C3)cc1)c1ccc(C[C@H]2CCCC2=O)cc1I
REMARK SMILES IDX 9 1 8 2 7 3 6 4 5 5 3 6 4 7 2 8 1 9 80 10 81 11 92 12 82 13
REMARK SMILES IDX 91 14 93 15 83 16 84 17 85 18 86 19 89 20 87 21 88 22 90 23
REMARK SMILES IDX 10 24 11 25 12 26 13 27 14 28 15 29 16 30 17 31 18 32 79 33
REMARK SMILES IDX 19 34 78 35 20 36 21 37 22 38 72 39 23 40 77 41 71 42 73 43
REMARK SMILES IDX 24 44 76 45 70 46 69 47 25 49 57 50 37 51 56 52 38 53 41 54
REMARK SMILES IDX 55 55 74 56 39 57 40 58 54 60 75 61 42 62 26 63 27 64 35 65
REMARK SMILES IDX 28 66 30 67 36 68 29 69 31 70 32 71 33 72 34 73 58 74 59 75
REMARK SMILES IDX 67 76 60 77 62 78 68 79 61 80 63 81 64 82 65 83 66 84 43 85
REMARK SMILES IDX 44 86 52 87 45 88 47 89 53 90 46 91 48 92 49 93 50 94 51 95
REMARK H PARENT 73 48 41 59
REMARK Flexibility Score: inf
ROOT
ATOM      1  C   UNL A   1      40.878  22.673  27.792  1.00  0.00     0.188 C 
ENDROOT
BRANCH   1   2
ATOM      2  O   UNL A   1      40.153  23.098  26.650  1.00  0.00    -0.376 OA
BRANCH   2   3
ATOM      3  C   UNL A   1      38.948  23.816  26.861  1.00  0.00     0.202 C 
BRANCH   3   4
ATOM      4  C   UNL A   1      37.794  23.348  25.977  1.00  0.00     0.261 C 
BRANCH   4   5
ATOM      5  O   UNL A   1      36.833  24.397  25.767  1.00  0.00    -0.463 OA
BRANCH   5   6
ATOM      6  C   UNL A   1      35.587  24.066  25.331  1.00  0.00     0.313 C 
ATOM      7  O   UNL A   1      34.563  24.605  25.728  1.00  0.00    -0.252 OA
BRANCH   6   8
ATOM      8  C   UNL A   1      35.628  22.892  24.357  1.00  0.00     0.127 C 
ATOM      9  C   UNL A   1      35.764  23.335  22.878  1.00  0.00     0.025 C 
BRANCH   8  10
ATOM     10  C   UNL A   1      34.580  21.769  24.432  1.00  0.00    -0.021 A 
ATOM     11  C   UNL A   1      35.063  20.574  25.025  1.00  0.00     0.006 A 
ATOM     12  C   UNL A   1      33.260  21.713  23.959  1.00  0.00     0.017 A 
ATOM     13  C   UNL A   1      34.324  19.387  25.074  1.00  0.00     0.004 A 
ATOM     14  C   UNL A   1      32.552  20.489  23.953  1.00  0.00     0.018 A 
ATOM     15  I   UNL A   1      32.039  23.303  23.368  1.00  0.00    -0.044 I 
ATOM     16  C   UNL A   1      33.074  19.303  24.478  1.00  0.00    -0.046 A 
BRANCH  16  17
ATOM     17  C   UNL A   1      32.186  18.076  24.547  1.00  0.00     0.047 C 
BRANCH  17  18
ATOM     18  C   UNL A   1      32.702  16.694  24.127  1.00  0.00     0.060 C 
ATOM     19  C   UNL A   1      34.023  16.665  23.353  1.00  0.00     0.012 C 
ATOM     20  C   UNL A   1      32.999  15.774  25.284  1.00  0.00     0.136 C 
ATOM     21  C   UNL A   1      35.106  16.369  24.380  1.00  0.00     0.009 C 
ATOM     22  C   UNL A   1      34.460  15.412  25.373  1.00  0.00     0.076 C 
ATOM     23  O   UNL A   1      32.160  15.373  26.081  1.00  0.00    -0.299 OA
ENDBRANCH  17  18
ENDBRANCH  16  17
ENDBRANCH   8  10
ENDBRANCH   6   8
ENDBRANCH   5   6
ENDBRANCH   4   5
ENDBRANCH   3   4
ENDBRANCH   2   3
ENDBRANCH   1   2
BRANCH   1  24
ATOM     24  C   UNL A   1      41.867  21.530  27.493  1.00  0.00     0.188 C 
BRANCH  24  25
ATOM     25  O   UNL A   1      41.377  20.273  27.047  1.00  0.00    -0.376 OA
BRANCH  25  26
ATOM     26  C   UNL A   1      42.184  19.121  27.247  1.00  0.00     0.202 C 
BRANCH  26  27
ATOM     27  C   UNL A   1      42.939  18.552  26.038  1.00  0.00     0.261 C 
BRANCH  27  28
ATOM     28  O   UNL A   1      43.076  19.453  24.921  1.00  0.00    -0.460 OA
BRANCH  28  29
ATOM     29  C   UNL A   1      44.332  19.583  24.422  1.00  0.00     0.338 C 
ATOM     30  O   UNL A   1      44.944  18.763  23.760  1.00  0.00    -0.246 OA
BRANCH  29  31
ATOM     31  C   UNL A   1      44.861  20.944  24.662  1.00  0.00     0.060 A 
ATOM     32  C   UNL A   1      45.341  21.259  25.940  1.00  0.00     0.016 A 
ATOM     33  C   UNL A   1      44.755  21.940  23.690  1.00  0.00     0.016 A 
ATOM     34  C   UNL A   1      45.680  22.577  26.259  1.00  0.00     0.010 A 
ATOM     35  C   UNL A   1      45.076  23.265  24.020  1.00  0.00     0.010 A 
ATOM     36  C   UNL A   1      45.507  23.600  25.316  1.00  0.00    -0.014 A 
BRANCH  36  37
ATOM     37  C   UNL A   1      45.623  25.026  25.728  1.00  0.00     0.031 A 
ATOM     38  C   UNL A   1      46.971  25.692  25.700  1.00  0.00     0.074 A 
ATOM     39  C   UNL A   1      44.551  25.728  26.142  1.00  0.00     0.049 A 
ATOM     40  N   UNL A   1      47.305  26.903  26.067  1.00  0.00    -0.248 NA
ATOM     41  C   UNL A   1      48.095  24.880  25.207  1.00  0.00     0.031 C 
ATOM     42  C   UNL A   1      43.198  25.197  26.250  1.00  0.00     0.029 A 
ATOM     43  N   UNL A   1      44.438  27.032  26.563  1.00  0.00    -0.354 N 
ATOM     44  C   UNL A   1      48.684  26.980  25.910  1.00  0.00     0.074 A 
ATOM     45  C   UNL A   1      49.119  25.700  25.390  1.00  0.00     0.031 C 
ATOM     46  C   UNL A   1      42.381  26.168  26.693  1.00  0.00     0.029 A 
ATOM     47  C   UNL A   1      43.164  27.377  26.951  1.00  0.00     0.049 A 
ATOM     48  H   UNL A   1      45.197  27.659  26.583  1.00  0.00     0.167 HD
ATOM     49  C   UNL A   1      49.517  28.013  26.182  1.00  0.00     0.034 A 
ATOM     50  C   UNL A   1      42.687  28.524  27.482  1.00  0.00     0.034 A 
ATOM     51  C   UNL A   1      49.094  29.288  26.697  1.00  0.00     0.049 A 
ATOM     52  C   UNL A   1      43.633  29.668  27.756  1.00  0.00     0.074 A 
ATOM     53  C   UNL A   1      49.869  30.401  26.978  1.00  0.00     0.029 A 
ATOM     54  N   UNL A   1      47.788  29.621  27.026  1.00  0.00    -0.354 N 
ATOM     55  N   UNL A   1      44.917  29.757  27.509  1.00  0.00    -0.248 NA
ATOM     56  C   UNL A   1      43.060  30.872  28.378  1.00  0.00     0.031 C 
ATOM     57  C   UNL A   1      49.036  31.396  27.502  1.00  0.00     0.029 A 
ATOM     58  C   UNL A   1      47.736  30.917  27.511  1.00  0.00     0.049 A 
ATOM     59  H   UNL A   1      47.013  29.023  26.929  1.00  0.00     0.167 HD
ATOM     60  C   UNL A   1      45.301  31.027  27.932  1.00  0.00     0.074 A 
ATOM     61  C   UNL A   1      44.107  31.687  28.415  1.00  0.00     0.031 C 
ATOM     62  C   UNL A   1      46.536  31.587  27.944  1.00  0.00     0.034 A 
BRANCH  49  63
ATOM     63  C   UNL A   1      50.987  27.804  25.929  1.00  0.00     0.023 A 
ATOM     64  C   UNL A   1      51.838  27.455  26.995  1.00  0.00     0.012 A 
ATOM     65  C   UNL A   1      51.515  27.910  24.627  1.00  0.00     0.148 A 
ATOM     66  C   UNL A   1      53.200  27.251  26.778  1.00  0.00     0.002 A 
ATOM     67  C   UNL A   1      52.865  27.661  24.411  1.00  0.00     0.091 A 
ATOM     68  F   UNL A   1      50.692  28.263  23.630  1.00  0.00    -0.205 F 
ATOM     69  C   UNL A   1      53.710  27.344  25.486  1.00  0.00     0.022 A 
BRANCH  67  70
ATOM     70  S   UNL A   1      53.602  27.678  22.772  1.00  0.00     0.127 S 
ATOM     71  O   UNL A   1      53.000  26.491  22.167  1.00  0.00    -0.237 OA
ATOM     72  O   UNL A   1      53.120  28.950  22.233  1.00  0.00    -0.237 OA
ATOM     73  O   UNL A   1      55.042  27.613  22.979  1.00  0.00    -0.744 OA
ENDBRANCH  67  70
ENDBRANCH  49  63
BRANCH  50  74
ATOM     74  C   UNL A   1      41.234  28.662  27.791  1.00  0.00     0.023 A 
ATOM     75  C   UNL A   1      40.332  28.992  26.759  1.00  0.00     0.012 A 
ATOM     76  C   UNL A   1      40.740  28.469  29.095  1.00  0.00     0.148 A 
ATOM     77  C   UNL A   1      38.972  29.152  27.026  1.00  0.00     0.002 A 
ATOM     78  C   UNL A   1      39.375  28.565  29.341  1.00  0.00     0.091 A 
ATOM     79  F   UNL A   1      41.615  28.188  30.071  1.00  0.00    -0.205 F 
ATOM     80  C   UNL A   1      38.491  28.925  28.313  1.00  0.00     0.022 A 
BRANCH  78  81
ATOM     81  S   UNL A   1      38.658  28.148  30.933  1.00  0.00     0.127 S 
ATOM     82  O   UNL A   1      39.648  28.691  31.860  1.00  0.00    -0.237 OA
ATOM     83  O   UNL A   1      37.388  28.873  30.892  1.00  0.00    -0.237 OA
ATOM     84  O   UNL A   1      38.520  26.697  30.931  1.00  0.00    -0.744 OA
ENDBRANCH  78  81
ENDBRANCH  50  74
BRANCH  62  85
ATOM     85  C   UNL A   1      46.670  32.997  28.463  1.00  0.00     0.023 A 
ATOM     86  C   UNL A   1      46.980  33.223  29.820  1.00  0.00     0.012 A 
ATOM     87  C   UNL A   1      46.568  34.098  27.588  1.00  0.00     0.148 A 
ATOM     88  C   UNL A   1      47.155  34.520  30.302  1.00  0.00     0.002 A 
ATOM     89  C   UNL A   1      46.791  35.385  28.066  1.00  0.00     0.091 A 
ATOM     90  F   UNL A   1      46.256  33.867  26.305  1.00  0.00    -0.205 F 
ATOM     91  C   UNL A   1      47.072  35.599  29.425  1.00  0.00     0.022 A 
BRANCH  89  92
ATOM     92  S   UNL A   1      46.801  36.824  26.991  1.00  0.00     0.127 S 
ATOM     93  O   UNL A   1      45.374  37.124  26.881  1.00  0.00    -0.237 OA
ATOM     94  O   UNL A   1      47.568  37.792  27.775  1.00  0.00    -0.237 OA
ATOM     95  O   UNL A   1      47.445  36.399  25.756  1.00  0.00    -0.744 OA
ENDBRANCH  89  92
ENDBRANCH  62  85
ENDBRANCH  36  37
ENDBRANCH  29  31
ENDBRANCH  28  29
ENDBRANCH  27  28
ENDBRANCH  26  27
ENDBRANCH  25  26
ENDBRANCH  24  25
ENDBRANCH   1  24
TORSDOF 23
ENDMDL
MODEL 2
REMARK VINA RESULT:      -9.7      2.088      3.776
REMARK SMILES C[C@@H](C(=O)OCCOCCOCCOC(=O)c1ccc(-c2c3nc(c(-c4cccc(S(=O)(=O)[O-])c4F)c4ccc([nH]4)c(-c4cccc(S(=O)(=O)[O-])c4F)c4nc(c(-c5cccc(S(=O)(=O)[O-])c5F)c5ccc2[nH]5)C=C4)C=C3)cc1)c1ccc(C[C@H]2CCCC2=O)cc1I
REMARK SMILES IDX 9 1 8 2 7 3 6 4 5 5 3 6 4 7 2 8 1 9 80 10 81 11 92 12 82 13
REMARK SMILES IDX 91 14 93 15 83 16 84 17 85 18 86 19 89 20 87 21 88 22 90 23
REMARK SMILES IDX 10 24 11 25 12 26 13 27 14 28 15 29 16 30 17 31 18 32 79 33
REMARK SMILES IDX 19 34 78 35 20 36 21 37 22 38 72 39 23 40 77 41 71 42 73 43
REMARK SMILES IDX 24 44 76 45 70 46 69 47 25 49 57 50 37 51 56 52 38 53 41 54
REMARK SMILES IDX 55 55 74 56 39 57 40 58 54 60 75 61 42 62 26 63 27 64 35 65
REMARK SMILES IDX 28 66 30 67 36 68 29 69 31 70 32 71 33 72 34 73 58 74 59 75
REMARK SMILES IDX 67 76 60 77 62 78 68 79 61 80 63 81 64 82 65 83 66 84 43 85
REMARK SMILES IDX 44 86 52 87 45 88 47 89 53 90 46 91 48 92 49 93 50 94 51 95
REMARK H PARENT 73 48 41 59
REMARK Flexibility Score: inf
ROOT
ATOM      1  C   UNL A   1      40.167  22.035  26.130  1.00  0.00     0.188 C 
ENDROOT
BRANCH   1   2
ATOM      2  O   UNL A   1      38.859  21.487  26.147  1.00  0.00    -0.376 OA
BRANCH   2   3
ATOM      3  C   UNL A   1      37.815  22.247  25.557  1.00  0.00     0.202 C 
BRANCH   3   4
ATOM      4  C   UNL A   1      36.844  21.411  24.728  1.00  0.00     0.261 C 
BRANCH   4   5
ATOM      5  O   UNL A   1      35.646  21.112  25.465  1.00  0.00    -0.463 OA
BRANCH   5   6
ATOM      6  C   UNL A   1      34.540  21.876  25.253  1.00  0.00     0.313 C 
ATOM      7  O   UNL A   1      33.818  21.768  24.271  1.00  0.00    -0.252 OA
BRANCH   6   8
ATOM      8  C   UNL A   1      34.366  22.926  26.347  1.00  0.00     0.127 C 
ATOM      9  C   UNL A   1      33.987  22.316  27.720  1.00  0.00     0.025 C 
BRANCH   8  10
ATOM     10  C   UNL A   1      33.494  24.171  26.112  1.00  0.00    -0.021 A 
ATOM     11  C   UNL A   1      34.229  25.317  25.713  1.00  0.00     0.006 A 
ATOM     12  C   UNL A   1      32.116  24.371  26.287  1.00  0.00     0.017 A 
ATOM     13  C   UNL A   1      33.656  26.587  25.576  1.00  0.00     0.004 A 
ATOM     14  C   UNL A   1      31.566  25.672  26.212  1.00  0.00     0.018 A 
ATOM     15  I   UNL A   1      30.624  22.924  26.497  1.00  0.00    -0.044 I 
ATOM     16  C   UNL A   1      32.321  26.802  25.887  1.00  0.00    -0.046 A 
BRANCH  16  17
ATOM     17  C   UNL A   1      31.615  28.130  25.700  1.00  0.00     0.047 C 
BRANCH  17  18
ATOM     18  C   UNL A   1      31.140  28.592  24.317  1.00  0.00     0.060 C 
ATOM     19  C   UNL A   1      32.230  28.962  23.308  1.00  0.00     0.012 C 
ATOM     20  C   UNL A   1      30.356  27.550  23.560  1.00  0.00     0.136 C 
ATOM     21  C   UNL A   1      32.434  27.729  22.439  1.00  0.00     0.009 C 
ATOM     22  C   UNL A   1      31.049  27.112  22.295  1.00  0.00     0.076 C 
ATOM     23  O   UNL A   1      29.282  27.089  23.929  1.00  0.00    -0.299 OA
ENDBRANCH  17  18
ENDBRANCH  16  17
ENDBRANCH   8  10
ENDBRANCH   6   8
ENDBRANCH   5   6
ENDBRANCH   4   5
ENDBRANCH   3   4
ENDBRANCH   2   3
ENDBRANCH   1   2
BRANCH   1  24
ATOM     24  C   UNL A   1      41.104  21.402  27.176  1.00  0.00     0.188 C 
BRANCH  24  25
ATOM     25  O   UNL A   1      41.231  19.988  27.244  1.00  0.00    -0.376 OA
BRANCH  25  26
ATOM     26  C   UNL A   1      41.303  19.254  26.030  1.00  0.00     0.202 C 
BRANCH  26  27
ATOM     27  C   UNL A   1      42.562  18.419  25.767  1.00  0.00     0.261 C 
BRANCH  27  28
ATOM     28  O   UNL A   1      43.806  19.145  25.841  1.00  0.00    -0.460 OA
BRANCH  28  29
ATOM     29  C   UNL A   1      44.252  19.669  24.671  1.00  0.00     0.338 C 
ATOM     30  O   UNL A   1      44.146  19.175  23.561  1.00  0.00    -0.246 OA
BRANCH  29  31
ATOM     31  C   UNL A   1      44.793  21.031  24.870  1.00  0.00     0.060 A 
ATOM     32  C   UNL A   1      45.319  21.365  26.126  1.00  0.00     0.016 A 
ATOM     33  C   UNL A   1      44.655  22.012  23.888  1.00  0.00     0.016 A 
ATOM     34  C   UNL A   1      45.673  22.686  26.411  1.00  0.00     0.010 A 
ATOM     35  C   UNL A   1      44.991  23.341  24.185  1.00  0.00     0.010 A 
ATOM     36  C   UNL A   1      45.469  23.695  25.459  1.00  0.00    -0.014 A 
BRANCH  36  37
ATOM     37  C   UNL A   1      45.603  25.127  25.845  1.00  0.00     0.031 A 
ATOM     38  C   UNL A   1      46.960  25.776  25.801  1.00  0.00     0.074 A 
ATOM     39  C   UNL A   1      44.541  25.849  26.247  1.00  0.00     0.049 A 
ATOM     40  N   UNL A   1      47.309  26.989  26.146  1.00  0.00    -0.248 NA
ATOM     41  C   UNL A   1      48.072  24.941  25.322  1.00  0.00     0.031 C 
ATOM     42  C   UNL A   1      43.182  25.338  26.368  1.00  0.00     0.029 A 
ATOM     43  N   UNL A   1      44.445  27.162  26.644  1.00  0.00    -0.354 N 
ATOM     44  C   UNL A   1      48.688  27.046  25.985  1.00  0.00     0.074 A 
ATOM     45  C   UNL A   1      49.106  25.751  25.488  1.00  0.00     0.031 C 
ATOM     46  C   UNL A   1      42.378  26.327  26.794  1.00  0.00     0.029 A 
ATOM     47  C   UNL A   1      43.176  27.531  27.028  1.00  0.00     0.049 A 
ATOM     48  H   UNL A   1      45.211  27.780  26.651  1.00  0.00     0.167 HD
ATOM     49  C   UNL A   1      49.535  28.073  26.236  1.00  0.00     0.034 A 
ATOM     50  C   UNL A   1      42.715  28.693  27.538  1.00  0.00     0.034 A 
ATOM     51  C   UNL A   1      49.129  29.363  26.728  1.00  0.00     0.049 A 
ATOM     52  C   UNL A   1      43.675  29.830  27.789  1.00  0.00     0.074 A 
ATOM     53  C   UNL A   1      49.918  30.471  26.987  1.00  0.00     0.029 A 
ATOM     54  N   UNL A   1      47.828  29.718  27.053  1.00  0.00    -0.354 N 
ATOM     55  N   UNL A   1      44.960  29.899  27.538  1.00  0.00    -0.248 NA
ATOM     56  C   UNL A   1      43.118  31.053  28.390  1.00  0.00     0.031 C 
ATOM     57  C   UNL A   1      49.098  31.486  27.494  1.00  0.00     0.029 A 
ATOM     58  C   UNL A   1      47.793  31.023  27.514  1.00  0.00     0.049 A 
ATOM     59  H   UNL A   1      47.045  29.128  26.968  1.00  0.00     0.167 HD
ATOM     60  C   UNL A   1      45.360  31.172  27.937  1.00  0.00     0.074 A 
ATOM     61  C   UNL A   1      44.175  31.855  28.410  1.00  0.00     0.031 C 
ATOM     62  C   UNL A   1      46.602  31.716  27.936  1.00  0.00     0.034 A 
BRANCH  49  63
ATOM     63  C   UNL A   1      51.001  27.841  25.985  1.00  0.00     0.023 A 
ATOM     64  C   UNL A   1      51.866  27.588  27.067  1.00  0.00     0.012 A 
ATOM     65  C   UNL A   1      51.513  27.829  24.672  1.00  0.00     0.148 A 
ATOM     66  C   UNL A   1      53.225  27.365  26.852  1.00  0.00     0.002 A 
ATOM     67  C   UNL A   1      52.861  27.561  24.462  1.00  0.00     0.091 A 
ATOM     68  F   UNL A   1      50.678  28.093  23.657  1.00  0.00    -0.205 F 
ATOM     69  C   UNL A   1      53.720  27.341  25.551  1.00  0.00     0.022 A 
BRANCH  67  70
ATOM     70  S   UNL A   1      53.577  27.431  22.819  1.00  0.00     0.127 S 
ATOM     71  O   UNL A   1      55.006  27.517  23.114  1.00  0.00    -0.237 OA
ATOM     72  O   UNL A   1      53.120  26.109  22.390  1.00  0.00    -0.237 OA
ATOM     73  O   UNL A   1      53.028  28.541  22.053  1.00  0.00    -0.744 OA
ENDBRANCH  67  70
ENDBRANCH  49  63
BRANCH  50  74
ATOM     74  C   UNL A   1      41.263  28.855  27.847  1.00  0.00     0.023 A 
ATOM     75  C   UNL A   1      40.357  29.133  26.804  1.00  0.00     0.012 A 
ATOM     76  C   UNL A   1      40.776  28.734  29.162  1.00  0.00     0.148 A 
ATOM     77  C   UNL A   1      39.000  29.315  27.069  1.00  0.00     0.002 A 
ATOM     78  C   UNL A   1      39.414  28.850  29.409  1.00  0.00     0.091 A 
ATOM     79  F   UNL A   1      41.655  28.502  30.147  1.00  0.00    -0.205 F 
ATOM     80  C   UNL A   1      38.525  29.159  28.369  1.00  0.00     0.022 A 
BRANCH  78  81
ATOM     81  S   UNL A   1      38.703  28.523  31.026  1.00  0.00     0.127 S 
ATOM     82  O   UNL A   1      39.494  29.400  31.885  1.00  0.00    -0.237 OA
ATOM     83  O   UNL A   1      37.313  28.936  30.835  1.00  0.00    -0.237 OA
ATOM     84  O   UNL A   1      38.878  27.093  31.247  1.00  0.00    -0.744 OA
ENDBRANCH  78  81
ENDBRANCH  50  74
BRANCH  62  85
ATOM     85  C   UNL A   1      46.755  33.134  28.429  1.00  0.00     0.023 A 
ATOM     86  C   UNL A   1      46.934  33.388  29.804  1.00  0.00     0.012 A 
ATOM     87  C   UNL A   1      46.801  34.210  27.519  1.00  0.00     0.148 A 
ATOM     88  C   UNL A   1      47.124  34.690  30.267  1.00  0.00     0.002 A 
ATOM     89  C   UNL A   1      47.040  35.499  27.983  1.00  0.00     0.091 A 
ATOM     90  F   UNL A   1      46.612  33.953  26.217  1.00  0.00    -0.205 F 
ATOM     91  C   UNL A   1      47.189  35.742  29.358  1.00  0.00     0.022 A 
BRANCH  89  92
ATOM     92  S   UNL A   1      47.236  36.901  26.877  1.00  0.00     0.127 S 
ATOM     93  O   UNL A   1      47.478  37.993  27.819  1.00  0.00    -0.237 OA
ATOM     94  O   UNL A   1      48.401  36.511  26.084  1.00  0.00    -0.237 OA
ATOM     95  O   UNL A   1      45.993  36.994  26.122  1.00  0.00    -0.744 OA
ENDBRANCH  89  92
ENDBRANCH  62  85
ENDBRANCH  36  37
ENDBRANCH  29  31
ENDBRANCH  28  29
ENDBRANCH  27  28
ENDBRANCH  26  27
ENDBRANCH  25  26
ENDBRANCH  24  25
ENDBRANCH   1  24
TORSDOF 23
ENDMDL
MODEL 3
REMARK VINA RESULT:      -9.4      3.813      9.428
REMARK SMILES C[C@@H](C(=O)OCCOCCOCCOC(=O)c1ccc(-c2c3nc(c(-c4cccc(S(=O)(=O)[O-])c4F)c4ccc([nH]4)c(-c4cccc(S(=O)(=O)[O-])c4F)c4nc(c(-c5cccc(S(=O)(=O)[O-])c5F)c5ccc2[nH]5)C=C4)C=C3)cc1)c1ccc(C[C@H]2CCCC2=O)cc1I
REMARK SMILES IDX 9 1 8 2 7 3 6 4 5 5 3 6 4 7 2 8 1 9 80 10 81 11 92 12 82 13
REMARK SMILES IDX 91 14 93 15 83 16 84 17 85 18 86 19 89 20 87 21 88 22 90 23
REMARK SMILES IDX 10 24 11 25 12 26 13 27 14 28 15 29 16 30 17 31 18 32 79 33
REMARK SMILES IDX 19 34 78 35 20 36 21 37 22 38 72 39 23 40 77 41 71 42 73 43
REMARK SMILES IDX 24 44 76 45 70 46 69 47 25 49 57 50 37 51 56 52 38 53 41 54
REMARK SMILES IDX 55 55 74 56 39 57 40 58 54 60 75 61 42 62 26 63 27 64 35 65
REMARK SMILES IDX 28 66 30 67 36 68 29 69 31 70 32 71 33 72 34 73 58 74 59 75
REMARK SMILES IDX 67 76 60 77 62 78 68 79 61 80 63 81 64 82 65 83 66 84 43 85
REMARK SMILES IDX 44 86 52 87 45 88 47 89 53 90 46 91 48 92 49 93 50 94 51 95
REMARK H PARENT 73 48 41 59
REMARK Flexibility Score: inf
ROOT
ATOM      1  C   UNL A   1      34.860  31.769  28.536  1.00  0.00     0.188 C 
ENDROOT
BRANCH   1   2
ATOM      2  O   UNL A   1      33.606  31.768  27.874  1.00  0.00    -0.376 OA
BRANCH   2   3
ATOM      3  C   UNL A   1      33.223  30.589  27.184  1.00  0.00     0.202 C 
BRANCH   3   4
ATOM      4  C   UNL A   1      31.932  30.742  26.383  1.00  0.00     0.261 C 
BRANCH   4   5
ATOM      5  O   UNL A   1      31.734  29.635  25.487  1.00  0.00    -0.463 OA
BRANCH   5   6
ATOM      6  C   UNL A   1      30.842  29.769  24.468  1.00  0.00     0.313 C 
ATOM      7  O   UNL A   1      30.063  30.706  24.367  1.00  0.00    -0.252 OA
BRANCH   6   8
ATOM      8  C   UNL A   1      30.885  28.569  23.525  1.00  0.00     0.127 C 
ATOM      9  C   UNL A   1      29.478  28.012  23.187  1.00  0.00     0.025 C 
BRANCH   8  10
ATOM     10  C   UNL A   1      31.823  27.383  23.801  1.00  0.00    -0.021 A 
ATOM     11  C   UNL A   1      33.073  27.474  23.136  1.00  0.00     0.006 A 
ATOM     12  C   UNL A   1      31.622  26.209  24.544  1.00  0.00     0.017 A 
ATOM     13  C   UNL A   1      34.022  26.445  23.140  1.00  0.00     0.004 A 
ATOM     14  C   UNL A   1      32.559  25.152  24.481  1.00  0.00     0.018 A 
ATOM     15  I   UNL A   1      30.127  25.819  25.951  1.00  0.00    -0.044 I 
ATOM     16  C   UNL A   1      33.754  25.234  23.761  1.00  0.00    -0.046 A 
BRANCH  16  17
ATOM     17  C   UNL A   1      34.755  24.100  23.864  1.00  0.00     0.047 C 
BRANCH  17  18
ATOM     18  C   UNL A   1      34.478  22.731  23.231  1.00  0.00     0.060 C 
ATOM     19  C   UNL A   1      34.054  21.611  24.184  1.00  0.00     0.012 C 
ATOM     20  C   UNL A   1      33.348  22.737  22.233  1.00  0.00     0.136 C 
ATOM     21  C   UNL A   1      32.534  21.557  24.119  1.00  0.00     0.009 C 
ATOM     22  C   UNL A   1      32.187  21.880  22.672  1.00  0.00     0.076 C 
ATOM     23  O   UNL A   1      33.350  23.376  21.188  1.00  0.00    -0.299 OA
ENDBRANCH  17  18
ENDBRANCH  16  17
ENDBRANCH   8  10
ENDBRANCH   6   8
ENDBRANCH   5   6
ENDBRANCH   4   5
ENDBRANCH   3   4
ENDBRANCH   2   3
ENDBRANCH   1   2
BRANCH   1  24
ATOM     24  C   UNL A   1      35.664  33.064  28.313  1.00  0.00     0.188 C 
BRANCH  24  25
ATOM     25  O   UNL A   1      35.913  33.936  29.406  1.00  0.00    -0.376 OA
BRANCH  25  26
ATOM     26  C   UNL A   1      34.824  34.301  30.244  1.00  0.00     0.202 C 
BRANCH  26  27
ATOM     27  C   UNL A   1      34.952  34.031  31.748  1.00  0.00     0.261 C 
BRANCH  27  28
ATOM     28  O   UNL A   1      35.010  32.639  32.119  1.00  0.00    -0.460 OA
BRANCH  28  29
ATOM     29  C   UNL A   1      35.999  32.302  32.986  1.00  0.00     0.338 C 
ATOM     30  O   UNL A   1      36.050  32.566  34.175  1.00  0.00    -0.246 OA
BRANCH  29  31
ATOM     31  C   UNL A   1      36.997  31.423  32.338  1.00  0.00     0.060 A 
ATOM     32  C   UNL A   1      38.171  31.115  33.038  1.00  0.00     0.016 A 
ATOM     33  C   UNL A   1      36.852  31.026  31.009  1.00  0.00     0.016 A 
ATOM     34  C   UNL A   1      39.215  30.441  32.399  1.00  0.00     0.010 A 
ATOM     35  C   UNL A   1      37.909  30.369  30.364  1.00  0.00     0.010 A 
ATOM     36  C   UNL A   1      39.112  30.103  31.042  1.00  0.00    -0.014 A 
BRANCH  36  37
ATOM     37  C   UNL A   1      40.308  29.620  30.298  1.00  0.00     0.031 A 
ATOM     38  C   UNL A   1      41.488  30.537  30.127  1.00  0.00     0.074 A 
ATOM     39  C   UNL A   1      40.351  28.387  29.761  1.00  0.00     0.049 A 
ATOM     40  N   UNL A   1      42.603  30.339  29.472  1.00  0.00    -0.248 NA
ATOM     41  C   UNL A   1      41.390  31.859  30.766  1.00  0.00     0.031 C 
ATOM     42  C   UNL A   1      39.269  27.412  29.821  1.00  0.00     0.029 A 
ATOM     43  N   UNL A   1      41.338  27.751  29.044  1.00  0.00    -0.354 N 
ATOM     44  C   UNL A   1      43.314  31.530  29.565  1.00  0.00     0.074 A 
ATOM     45  C   UNL A   1      42.512  32.435  30.362  1.00  0.00     0.031 C 
ATOM     46  C   UNL A   1      39.651  26.292  29.184  1.00  0.00     0.029 A 
ATOM     47  C   UNL A   1      40.988  26.489  28.622  1.00  0.00     0.049 A 
ATOM     48  H   UNL A   1      42.212  28.161  28.852  1.00  0.00     0.167 HD
ATOM     49  C   UNL A   1      44.517  31.849  29.031  1.00  0.00     0.034 A 
ATOM     50  C   UNL A   1      41.652  25.606  27.847  1.00  0.00     0.034 A 
ATOM     51  C   UNL A   1      45.321  30.956  28.239  1.00  0.00     0.049 A 
ATOM     52  C   UNL A   1      43.001  25.978  27.281  1.00  0.00     0.074 A 
ATOM     53  C   UNL A   1      46.565  31.190  27.678  1.00  0.00     0.029 A 
ATOM     54  N   UNL A   1      44.959  29.667  27.879  1.00  0.00    -0.354 N 
ATOM     55  N   UNL A   1      43.701  27.071  27.462  1.00  0.00    -0.248 NA
ATOM     56  C   UNL A   1      43.653  24.990  26.406  1.00  0.00     0.031 C 
ATOM     57  C   UNL A   1      46.943  30.052  26.956  1.00  0.00     0.029 A 
ATOM     58  C   UNL A   1      45.951  29.095  27.100  1.00  0.00     0.049 A 
ATOM     59  H   UNL A   1      44.119  29.224  28.139  1.00  0.00     0.167 HD
ATOM     60  C   UNL A   1      44.877  26.897  26.737  1.00  0.00     0.074 A 
ATOM     61  C   UNL A   1      44.814  25.578  26.146  1.00  0.00     0.031 C 
ATOM     62  C   UNL A   1      45.906  27.762  26.555  1.00  0.00     0.034 A 
BRANCH  49  63
ATOM     63  C   UNL A   1      45.041  33.239  29.283  1.00  0.00     0.023 A 
ATOM     64  C   UNL A   1      44.714  34.282  28.396  1.00  0.00     0.012 A 
ATOM     65  C   UNL A   1      45.820  33.517  30.423  1.00  0.00     0.148 A 
ATOM     66  C   UNL A   1      45.185  35.576  28.617  1.00  0.00     0.002 A 
ATOM     67  C   UNL A   1      46.248  34.818  30.662  1.00  0.00     0.091 A 
ATOM     68  F   UNL A   1      46.138  32.507  31.244  1.00  0.00    -0.205 F 
ATOM     69  C   UNL A   1      45.942  35.845  29.754  1.00  0.00     0.022 A 
BRANCH  67  70
ATOM     70  S   UNL A   1      47.162  35.281  32.138  1.00  0.00     0.127 S 
ATOM     71  O   UNL A   1      46.101  35.831  32.980  1.00  0.00    -0.237 OA
ATOM     72  O   UNL A   1      47.693  33.993  32.586  1.00  0.00    -0.237 OA
ATOM     73  O   UNL A   1      48.172  36.234  31.702  1.00  0.00    -0.744 OA
ENDBRANCH  67  70
ENDBRANCH  49  63
BRANCH  50  74
ATOM     74  C   UNL A   1      41.061  24.266  27.557  1.00  0.00     0.023 A 
ATOM     75  C   UNL A   1      41.614  23.117  28.158  1.00  0.00     0.012 A 
ATOM     76  C   UNL A   1      39.958  24.123  26.694  1.00  0.00     0.148 A 
ATOM     77  C   UNL A   1      41.096  21.851  27.883  1.00  0.00     0.002 A 
ATOM     78  C   UNL A   1      39.406  22.866  26.478  1.00  0.00     0.091 A 
ATOM     79  F   UNL A   1      39.466  25.221  26.105  1.00  0.00    -0.205 F 
ATOM     80  C   UNL A   1      39.984  21.726  27.055  1.00  0.00     0.022 A 
BRANCH  78  81
ATOM     81  S   UNL A   1      37.891  22.635  25.542  1.00  0.00     0.127 S 
ATOM     82  O   UNL A   1      38.019  21.250  25.100  1.00  0.00    -0.237 OA
ATOM     83  O   UNL A   1      36.868  22.866  26.562  1.00  0.00    -0.237 OA
ATOM     84  O   UNL A   1      37.925  23.643  24.490  1.00  0.00    -0.744 OA
ENDBRANCH  78  81
ENDBRANCH  50  74
BRANCH  62  85
ATOM     85  C   UNL A   1      47.071  27.311  25.711  1.00  0.00     0.023 A 
ATOM     86  C   UNL A   1      48.001  26.385  26.228  1.00  0.00     0.012 A 
ATOM     87  C   UNL A   1      47.201  27.743  24.375  1.00  0.00     0.148 A 
ATOM     88  C   UNL A   1      49.056  25.922  25.441  1.00  0.00     0.002 A 
ATOM     89  C   UNL A   1      48.226  27.240  23.581  1.00  0.00     0.091 A 
ATOM     90  F   UNL A   1      46.319  28.636  23.905  1.00  0.00    -0.205 F 
ATOM     91  C   UNL A   1      49.161  26.340  24.116  1.00  0.00     0.022 A 
BRANCH  89  92
ATOM     92  S   UNL A   1      48.384  27.646  21.838  1.00  0.00     0.127 S 
ATOM     93  O   UNL A   1      49.495  28.597  21.853  1.00  0.00    -0.237 OA
ATOM     94  O   UNL A   1      48.702  26.347  21.244  1.00  0.00    -0.237 OA
ATOM     95  O   UNL A   1      47.097  28.198  21.436  1.00  0.00    -0.744 OA
ENDBRANCH  89  92
ENDBRANCH  62  85
ENDBRANCH  36  37
ENDBRANCH  29  31
ENDBRANCH  28  29
ENDBRANCH  27  28
ENDBRANCH  26  27
ENDBRANCH  25  26
ENDBRANCH  24  25
ENDBRANCH   1  24
TORSDOF 23
ENDMDL
