MODEL 1
REMARK VINA RESULT:     -10.4      0.000      0.000
REMARK SMILES [NH3+][C@@]1(C(=O)OCCOCCOCCOC(=O)c2ccc(-c3c4nc(c(-c5cccc(S(=O)(=O)[O-])c5F)c5ccc([nH]5)c(-c5cccc(S(=O)(=O)[O-])c5F)c5nc(c(-c6cccc(S(=O)(=O)[O-])c6F)c6ccc3[nH]6)C=C5)C=C4)cc2)CC[C@@H](Sc2ccc(Cl)c(Cl)c2)C1
REMARK SMILES IDX 10 1 9 2 8 3 7 4 6 5 5 6 3 7 4 8 2 9 80 10 92 11 81 12 82 13
REMARK SMILES IDX 1 14 83 18 84 19 85 20 91 21 86 22 89 23 87 24 90 25 88 26
REMARK SMILES IDX 11 27 12 28 13 29 14 30 15 31 16 32 17 33 18 34 79 35 19 36
REMARK SMILES IDX 78 37 20 38 21 39 22 40 72 41 23 42 77 43 71 44 73 45 24 46
REMARK SMILES IDX 76 47 70 48 69 49 25 51 57 52 37 53 56 54 38 55 41 56 55 57
REMARK SMILES IDX 74 58 39 59 40 60 54 62 75 63 42 64 26 65 27 66 35 67 28 68
REMARK SMILES IDX 30 69 36 70 29 71 31 72 32 73 33 74 34 75 58 76 59 77 67 78
REMARK SMILES IDX 60 79 62 80 68 81 61 82 63 83 64 84 65 85 66 86 43 87 44 88
REMARK SMILES IDX 52 89 45 90 47 91 53 92 46 93 48 94 49 95 50 96 51 97
REMARK H PARENT 1 15 1 16 1 17 73 50 41 61
REMARK Flexibility Score: inf
ROOT
ATOM      1  C   UNL A   1      33.945  34.623  27.958  1.00  0.00     0.188 C 
ENDROOT
BRANCH   1   2
ATOM      2  C   UNL A   1      33.729  33.161  28.364  1.00  0.00     0.188 C 
BRANCH   2   3
ATOM      3  O   UNL A   1      34.042  32.160  27.409  1.00  0.00    -0.376 OA
BRANCH   3   4
ATOM      4  C   UNL A   1      33.735  30.802  27.720  1.00  0.00     0.202 C 
BRANCH   4   5
ATOM      5  C   UNL A   1      33.742  29.742  26.604  1.00  0.00     0.261 C 
BRANCH   5   6
ATOM      6  O   UNL A   1      32.662  28.785  26.676  1.00  0.00    -0.459 OA
BRANCH   6   7
ATOM      7  C   UNL A   1      32.000  28.542  25.512  1.00  0.00     0.368 C 
ATOM      8  O   UNL A   1      31.366  29.403  24.906  1.00  0.00    -0.245 OA
BRANCH   7   9
ATOM      9  C   UNL A   1      32.161  27.073  24.981  1.00  0.00     0.193 C 
ATOM     10  C   UNL A   1      31.009  26.822  23.991  1.00  0.00     0.082 C 
ATOM     11  C   UNL A   1      32.028  25.920  26.009  1.00  0.00     0.095 C 
ATOM     12  C   UNL A   1      29.919  26.182  24.838  1.00  0.00     0.022 C 
ATOM     13  C   UNL A   1      30.660  25.270  25.805  1.00  0.00     0.059 C 
BRANCH   9  14
ATOM     14  N   UNL A   1      33.456  26.999  24.274  1.00  0.00    -0.343 N 
ATOM     15  H   UNL A   1      33.492  27.721  23.553  1.00  0.00     0.345 HD
ATOM     16  H   UNL A   1      33.557  26.082  23.841  1.00  0.00     0.345 HD
ATOM     17  H   UNL A   1      34.216  27.145  24.940  1.00  0.00     0.345 HD
ENDBRANCH   9  14
BRANCH  13  18
ATOM     18  S   UNL A   1      30.728  23.478  25.367  1.00  0.00    -0.122 SA
BRANCH  18  19
ATOM     19  C   UNL A   1      32.384  23.244  24.763  1.00  0.00     0.009 A 
ATOM     20  C   UNL A   1      32.722  23.720  23.492  1.00  0.00     0.017 A 
ATOM     21  C   UNL A   1      33.338  22.540  25.503  1.00  0.00     0.037 A 
ATOM     22  C   UNL A   1      34.012  23.536  22.986  1.00  0.00     0.023 A 
ATOM     23  C   UNL A   1      34.636  22.369  25.007  1.00  0.00     0.060 A 
ATOM     24  C   UNL A   1      34.976  22.869  23.746  1.00  0.00     0.059 A 
ATOM     25  Cl  UNL A   1      35.772  21.541  26.011  1.00  0.00    -0.083 Cl
ATOM     26  Cl  UNL A   1      36.551  22.691  23.065  1.00  0.00    -0.083 Cl
ENDBRANCH  18  19
ENDBRANCH  13  18
ENDBRANCH   7   9
ENDBRANCH   6   7
ENDBRANCH   5   6
ENDBRANCH   4   5
ENDBRANCH   3   4
ENDBRANCH   2   3
ENDBRANCH   1   2
BRANCH   1  27
ATOM     27  O   UNL A   1      34.198  35.517  29.016  1.00  0.00    -0.376 OA
BRANCH  27  28
ATOM     28  C   UNL A   1      33.573  35.307  30.273  1.00  0.00     0.202 C 
BRANCH  28  29
ATOM     29  C   UNL A   1      34.343  34.967  31.568  1.00  0.00     0.261 C 
BRANCH  29  30
ATOM     30  O   UNL A   1      35.466  34.080  31.481  1.00  0.00    -0.460 OA
BRANCH  30  31
ATOM     31  C   UNL A   1      35.258  32.765  31.733  1.00  0.00     0.338 C 
ATOM     32  O   UNL A   1      34.208  32.244  32.074  1.00  0.00    -0.246 OA
BRANCH  31  33
ATOM     33  C   UNL A   1      36.453  32.038  31.237  1.00  0.00     0.060 A 
ATOM     34  C   UNL A   1      37.262  31.346  32.153  1.00  0.00     0.016 A 
ATOM     35  C   UNL A   1      36.722  31.966  29.870  1.00  0.00     0.016 A 
ATOM     36  C   UNL A   1      38.335  30.573  31.704  1.00  0.00     0.010 A 
ATOM     37  C   UNL A   1      37.818  31.222  29.426  1.00  0.00     0.010 A 
ATOM     38  C   UNL A   1      38.638  30.532  30.338  1.00  0.00    -0.014 A 
BRANCH  38  39
ATOM     39  C   UNL A   1      39.893  29.909  29.852  1.00  0.00     0.031 A 
ATOM     40  C   UNL A   1      41.133  30.758  29.801  1.00  0.00     0.074 A 
ATOM     41  C   UNL A   1      39.922  28.643  29.399  1.00  0.00     0.049 A 
ATOM     42  N   UNL A   1      42.297  30.494  29.271  1.00  0.00    -0.248 NA
ATOM     43  C   UNL A   1      41.040  32.088  30.427  1.00  0.00     0.031 C 
ATOM     44  C   UNL A   1      38.798  27.709  29.420  1.00  0.00     0.029 A 
ATOM     45  N   UNL A   1      40.934  27.941  28.788  1.00  0.00    -0.354 N 
ATOM     46  C   UNL A   1      43.062  31.639  29.455  1.00  0.00     0.074 A 
ATOM     47  C   UNL A   1      42.233  32.597  30.154  1.00  0.00     0.031 C 
ATOM     48  C   UNL A   1      39.169  26.570  28.807  1.00  0.00     0.029 A 
ATOM     49  C   UNL A   1      40.537  26.712  28.313  1.00  0.00     0.049 A 
ATOM     50  H   UNL A   1      41.852  28.284  28.701  1.00  0.00     0.167 HD
ATOM     51  C   UNL A   1      44.339  31.873  29.076  1.00  0.00     0.034 A 
ATOM     52  C   UNL A   1      41.189  25.827  27.530  1.00  0.00     0.034 A 
ATOM     53  C   UNL A   1      45.165  30.916  28.392  1.00  0.00     0.049 A 
ATOM     54  C   UNL A   1      42.592  26.136  27.070  1.00  0.00     0.074 A 
ATOM     55  C   UNL A   1      46.491  31.040  28.017  1.00  0.00     0.029 A 
ATOM     56  N   UNL A   1      44.740  29.671  27.955  1.00  0.00    -0.354 N 
ATOM     57  N   UNL A   1      43.346  27.173  27.348  1.00  0.00    -0.248 NA
ATOM     58  C   UNL A   1      43.243  25.143  26.200  1.00  0.00     0.031 C 
ATOM     59  C   UNL A   1      46.855  29.889  27.313  1.00  0.00     0.029 A 
ATOM     60  C   UNL A   1      45.769  29.030  27.287  1.00  0.00     0.049 A 
ATOM     61  H   UNL A   1      43.841  29.298  28.099  1.00  0.00     0.167 HD
ATOM     62  C   UNL A   1      44.565  26.942  26.717  1.00  0.00     0.074 A 
ATOM     63  C   UNL A   1      44.458  25.658  26.058  1.00  0.00     0.031 C 
ATOM     64  C   UNL A   1      45.669  27.730  26.675  1.00  0.00     0.034 A 
BRANCH  51  65
ATOM     65  C   UNL A   1      44.927  33.223  29.389  1.00  0.00     0.023 A 
ATOM     66  C   UNL A   1      45.685  33.406  30.562  1.00  0.00     0.012 A 
ATOM     67  C   UNL A   1      44.776  34.293  28.486  1.00  0.00     0.148 A 
ATOM     68  C   UNL A   1      46.258  34.645  30.847  1.00  0.00     0.002 A 
ATOM     69  C   UNL A   1      45.390  35.510  28.753  1.00  0.00     0.091 A 
ATOM     70  F   UNL A   1      44.032  34.103  27.387  1.00  0.00    -0.205 F 
ATOM     71  C   UNL A   1      46.121  35.690  29.939  1.00  0.00     0.022 A 
BRANCH  69  72
ATOM     72  S   UNL A   1      45.339  36.893  27.611  1.00  0.00     0.127 S 
ATOM     73  O   UNL A   1      46.180  37.874  28.297  1.00  0.00    -0.237 OA
ATOM     74  O   UNL A   1      45.935  36.317  26.405  1.00  0.00    -0.237 OA
ATOM     75  O   UNL A   1      43.935  37.259  27.482  1.00  0.00    -0.744 OA
ENDBRANCH  69  72
ENDBRANCH  51  65
BRANCH  52  76
ATOM     76  C   UNL A   1      40.523  24.556  27.121  1.00  0.00     0.023 A 
ATOM     77  C   UNL A   1      39.269  24.606  26.480  1.00  0.00     0.012 A 
ATOM     78  C   UNL A   1      41.118  23.303  27.367  1.00  0.00     0.148 A 
ATOM     79  C   UNL A   1      38.607  23.431  26.121  1.00  0.00     0.002 A 
ATOM     80  C   UNL A   1      40.479  22.139  26.958  1.00  0.00     0.091 A 
ATOM     81  F   UNL A   1      42.301  23.275  27.997  1.00  0.00    -0.205 F 
ATOM     82  C   UNL A   1      39.215  22.199  26.351  1.00  0.00     0.022 A 
BRANCH  80  83
ATOM     83  S   UNL A   1      41.231  20.515  27.111  1.00  0.00     0.127 S 
ATOM     84  O   UNL A   1      40.812  20.115  28.451  1.00  0.00    -0.237 OA
ATOM     85  O   UNL A   1      40.587  19.783  26.020  1.00  0.00    -0.237 OA
ATOM     86  O   UNL A   1      42.662  20.725  26.935  1.00  0.00    -0.744 OA
ENDBRANCH  80  83
ENDBRANCH  52  76
BRANCH  64  87
ATOM     87  C   UNL A   1      46.874  27.225  25.922  1.00  0.00     0.023 A 
ATOM     88  C   UNL A   1      46.982  27.450  24.535  1.00  0.00     0.012 A 
ATOM     89  C   UNL A   1      47.948  26.622  26.608  1.00  0.00     0.148 A 
ATOM     90  C   UNL A   1      48.128  27.063  23.841  1.00  0.00     0.002 A 
ATOM     91  C   UNL A   1      49.107  26.285  25.919  1.00  0.00     0.091 A 
ATOM     92  F   UNL A   1      47.823  26.408  27.927  1.00  0.00    -0.205 F 
ATOM     93  C   UNL A   1      49.193  26.493  24.533  1.00  0.00     0.022 A 
BRANCH  91  94
ATOM     94  S   UNL A   1      50.570  25.637  26.738  1.00  0.00     0.127 S 
ATOM     95  O   UNL A   1      51.470  25.415  25.606  1.00  0.00    -0.237 OA
ATOM     96  O   UNL A   1      50.950  26.748  27.611  1.00  0.00    -0.237 OA
ATOM     97  O   UNL A   1      50.144  24.432  27.435  1.00  0.00    -0.744 OA
ENDBRANCH  91  94
ENDBRANCH  64  87
ENDBRANCH  38  39
ENDBRANCH  31  33
ENDBRANCH  30  31
ENDBRANCH  29  30
ENDBRANCH  28  29
ENDBRANCH  27  28
ENDBRANCH   1  27
TORSDOF 23
ENDMDL
MODEL 2
REMARK VINA RESULT:      -9.2      5.580      9.206
REMARK SMILES [NH3+][C@@]1(C(=O)OCCOCCOCCOC(=O)c2ccc(-c3c4nc(c(-c5cccc(S(=O)(=O)[O-])c5F)c5ccc([nH]5)c(-c5cccc(S(=O)(=O)[O-])c5F)c5nc(c(-c6cccc(S(=O)(=O)[O-])c6F)c6ccc3[nH]6)C=C5)C=C4)cc2)CC[C@@H](Sc2ccc(Cl)c(Cl)c2)C1
REMARK SMILES IDX 10 1 9 2 8 3 7 4 6 5 5 6 3 7 4 8 2 9 80 10 92 11 81 12 82 13
REMARK SMILES IDX 1 14 83 18 84 19 85 20 91 21 86 22 89 23 87 24 90 25 88 26
REMARK SMILES IDX 11 27 12 28 13 29 14 30 15 31 16 32 17 33 18 34 79 35 19 36
REMARK SMILES IDX 78 37 20 38 21 39 22 40 72 41 23 42 77 43 71 44 73 45 24 46
REMARK SMILES IDX 76 47 70 48 69 49 25 51 57 52 37 53 56 54 38 55 41 56 55 57
REMARK SMILES IDX 74 58 39 59 40 60 54 62 75 63 42 64 26 65 27 66 35 67 28 68
REMARK SMILES IDX 30 69 36 70 29 71 31 72 32 73 33 74 34 75 58 76 59 77 67 78
REMARK SMILES IDX 60 79 62 80 68 81 61 82 63 83 64 84 65 85 66 86 43 87 44 88
REMARK SMILES IDX 52 89 45 90 47 91 53 92 46 93 48 94 49 95 50 96 51 97
REMARK H PARENT 1 15 1 16 1 17 73 50 41 61
REMARK Flexibility Score: inf
ROOT
ATOM      1  C   UNL A   1      31.804  29.248  26.031  1.00  0.00     0.188 C 
ENDROOT
BRANCH   1   2
ATOM      2  C   UNL A   1      31.127  30.151  24.994  1.00  0.00     0.188 C 
BRANCH   2   3
ATOM      3  O   UNL A   1      31.022  29.665  23.666  1.00  0.00    -0.376 OA
BRANCH   3   4
ATOM      4  C   UNL A   1      30.436  28.382  23.455  1.00  0.00     0.202 C 
BRANCH   4   5
ATOM      5  C   UNL A   1      31.009  27.448  22.373  1.00  0.00     0.261 C 
BRANCH   5   6
ATOM      6  O   UNL A   1      31.478  26.173  22.866  1.00  0.00    -0.459 OA
BRANCH   6   7
ATOM      7  C   UNL A   1      30.607  25.477  23.646  1.00  0.00     0.368 C 
ATOM      8  O   UNL A   1      29.408  25.382  23.398  1.00  0.00    -0.245 OA
BRANCH   7   9
ATOM      9  C   UNL A   1      31.282  24.759  24.870  1.00  0.00     0.193 C 
ATOM     10  C   UNL A   1      32.790  24.676  24.570  1.00  0.00     0.082 C 
ATOM     11  C   UNL A   1      30.875  23.290  25.152  1.00  0.00     0.095 C 
ATOM     12  C   UNL A   1      32.970  23.309  23.926  1.00  0.00     0.022 C 
ATOM     13  C   UNL A   1      32.021  22.392  24.684  1.00  0.00     0.059 C 
BRANCH   9  14
ATOM     14  N   UNL A   1      31.051  25.605  26.059  1.00  0.00    -0.343 N 
ATOM     15  H   UNL A   1      31.204  26.584  25.815  1.00  0.00     0.345 HD
ATOM     16  H   UNL A   1      31.698  25.336  26.800  1.00  0.00     0.345 HD
ATOM     17  H   UNL A   1      30.092  25.481  26.385  1.00  0.00     0.345 HD
ENDBRANCH   9  14
BRANCH  13  18
ATOM     18  S   UNL A   1      32.762  21.349  26.015  1.00  0.00    -0.122 SA
BRANCH  18  19
ATOM     19  C   UNL A   1      34.500  21.724  25.938  1.00  0.00     0.009 A 
ATOM     20  C   UNL A   1      34.954  22.960  26.407  1.00  0.00     0.017 A 
ATOM     21  C   UNL A   1      35.412  20.837  25.360  1.00  0.00     0.037 A 
ATOM     22  C   UNL A   1      36.311  23.288  26.344  1.00  0.00     0.023 A 
ATOM     23  C   UNL A   1      36.775  21.154  25.310  1.00  0.00     0.060 A 
ATOM     24  C   UNL A   1      37.227  22.381  25.805  1.00  0.00     0.059 A 
ATOM     25  Cl  UNL A   1      37.844  19.977  24.636  1.00  0.00    -0.083 Cl
ATOM     26  Cl  UNL A   1      38.889  22.846  25.773  1.00  0.00    -0.083 Cl
ENDBRANCH  18  19
ENDBRANCH  13  18
ENDBRANCH   7   9
ENDBRANCH   6   7
ENDBRANCH   5   6
ENDBRANCH   4   5
ENDBRANCH   3   4
ENDBRANCH   2   3
ENDBRANCH   1   2
BRANCH   1  27
ATOM     27  O   UNL A   1      32.662  29.899  26.937  1.00  0.00    -0.376 OA
BRANCH  27  28
ATOM     28  C   UNL A   1      32.495  31.287  27.184  1.00  0.00     0.202 C 
BRANCH  28  29
ATOM     29  C   UNL A   1      33.596  32.190  27.783  1.00  0.00     0.261 C 
BRANCH  29  30
ATOM     30  O   UNL A   1      33.400  33.610  27.761  1.00  0.00    -0.460 OA
BRANCH  30  31
ATOM     31  C   UNL A   1      33.475  34.280  28.936  1.00  0.00     0.338 C 
ATOM     32  O   UNL A   1      32.583  34.921  29.470  1.00  0.00    -0.246 OA
BRANCH  31  33
ATOM     33  C   UNL A   1      34.734  33.852  29.595  1.00  0.00     0.060 A 
ATOM     34  C   UNL A   1      35.964  34.250  29.045  1.00  0.00     0.016 A 
ATOM     35  C   UNL A   1      34.700  33.140  30.794  1.00  0.00     0.016 A 
ATOM     36  C   UNL A   1      37.161  33.945  29.698  1.00  0.00     0.010 A 
ATOM     37  C   UNL A   1      35.900  32.804  31.426  1.00  0.00     0.010 A 
ATOM     38  C   UNL A   1      37.136  33.193  30.878  1.00  0.00    -0.014 A 
BRANCH  38  39
ATOM     39  C   UNL A   1      38.388  32.663  31.472  1.00  0.00     0.031 A 
ATOM     40  C   UNL A   1      39.024  31.461  30.831  1.00  0.00     0.074 A 
ATOM     41  C   UNL A   1      38.911  33.187  32.595  1.00  0.00     0.049 A 
ATOM     42  N   UNL A   1      40.017  30.726  31.252  1.00  0.00    -0.248 NA
ATOM     43  C   UNL A   1      38.455  31.030  29.543  1.00  0.00     0.031 C 
ATOM     44  C   UNL A   1      38.406  34.366  33.296  1.00  0.00     0.029 A 
ATOM     45  N   UNL A   1      39.965  32.760  33.367  1.00  0.00    -0.354 N 
ATOM     46  C   UNL A   1      40.164  29.716  30.310  1.00  0.00     0.074 A 
ATOM     47  C   UNL A   1      39.163  29.939  29.288  1.00  0.00     0.031 C 
ATOM     48  C   UNL A   1      39.123  34.542  34.421  1.00  0.00     0.029 A 
ATOM     49  C   UNL A   1      40.105  33.465  34.540  1.00  0.00     0.049 A 
ATOM     50  H   UNL A   1      40.562  32.021  33.105  1.00  0.00     0.167 HD
ATOM     51  C   UNL A   1      41.050  28.694  30.295  1.00  0.00     0.034 A 
ATOM     52  C   UNL A   1      40.901  33.238  35.606  1.00  0.00     0.034 A 
ATOM     53  C   UNL A   1      42.050  28.481  31.305  1.00  0.00     0.049 A 
ATOM     54  C   UNL A   1      41.841  32.057  35.592  1.00  0.00     0.074 A 
ATOM     55  C   UNL A   1      43.032  27.506  31.347  1.00  0.00     0.029 A 
ATOM     56  N   UNL A   1      42.183  29.233  32.461  1.00  0.00    -0.354 N 
ATOM     57  N   UNL A   1      42.050  31.176  34.643  1.00  0.00    -0.248 NA
ATOM     58  C   UNL A   1      42.667  31.847  36.792  1.00  0.00     0.031 C 
ATOM     59  C   UNL A   1      43.728  27.640  32.552  1.00  0.00     0.029 A 
ATOM     60  C   UNL A   1      43.209  28.725  33.239  1.00  0.00     0.049 A 
ATOM     61  H   UNL A   1      41.630  30.013  32.694  1.00  0.00     0.167 HD
ATOM     62  C   UNL A   1      43.051  30.332  35.116  1.00  0.00     0.074 A 
ATOM     63  C   UNL A   1      43.421  30.818  36.429  1.00  0.00     0.031 C 
ATOM     64  C   UNL A   1      43.604  29.244  34.523  1.00  0.00     0.034 A 
BRANCH  51  65
ATOM     65  C   UNL A   1      40.978  27.720  29.150  1.00  0.00     0.023 A 
ATOM     66  C   UNL A   1      40.041  26.669  29.177  1.00  0.00     0.012 A 
ATOM     67  C   UNL A   1      41.803  27.885  28.021  1.00  0.00     0.148 A 
ATOM     68  C   UNL A   1      39.946  25.777  28.109  1.00  0.00     0.002 A 
ATOM     69  C   UNL A   1      41.671  27.022  26.941  1.00  0.00     0.091 A 
ATOM     70  F   UNL A   1      42.704  28.877  28.026  1.00  0.00    -0.205 F 
ATOM     71  C   UNL A   1      40.752  25.961  26.989  1.00  0.00     0.022 A 
BRANCH  69  72
ATOM     72  S   UNL A   1      42.605  27.220  25.420  1.00  0.00     0.127 S 
ATOM     73  O   UNL A   1      42.176  26.049  24.656  1.00  0.00    -0.237 OA
ATOM     74  O   UNL A   1      42.098  28.497  24.915  1.00  0.00    -0.237 OA
ATOM     75  O   UNL A   1      44.008  27.231  25.807  1.00  0.00    -0.744 OA
ENDBRANCH  69  72
ENDBRANCH  51  65
BRANCH  52  76
ATOM     76  C   UNL A   1      40.848  34.145  36.789  1.00  0.00     0.023 A 
ATOM     77  C   UNL A   1      41.431  35.426  36.707  1.00  0.00     0.012 A 
ATOM     78  C   UNL A   1      40.234  33.748  37.992  1.00  0.00     0.148 A 
ATOM     79  C   UNL A   1      41.428  36.280  37.810  1.00  0.00     0.002 A 
ATOM     80  C   UNL A   1      40.188  34.624  39.070  1.00  0.00     0.091 A 
ATOM     81  F   UNL A   1      39.704  32.518  38.058  1.00  0.00    -0.205 F 
ATOM     82  C   UNL A   1      40.800  35.884  38.987  1.00  0.00     0.022 A 
BRANCH  80  83
ATOM     83  S   UNL A   1      39.305  34.246  40.588  1.00  0.00     0.127 S 
ATOM     84  O   UNL A   1      37.920  34.503  40.202  1.00  0.00    -0.237 OA
ATOM     85  O   UNL A   1      39.638  32.836  40.786  1.00  0.00    -0.237 OA
ATOM     86  O   UNL A   1      39.854  35.143  41.597  1.00  0.00    -0.744 OA
ENDBRANCH  80  83
ENDBRANCH  52  76
BRANCH  64  87
ATOM     87  C   UNL A   1      44.695  28.510  35.261  1.00  0.00     0.023 A 
ATOM     88  C   UNL A   1      46.044  28.860  35.051  1.00  0.00     0.012 A 
ATOM     89  C   UNL A   1      44.376  27.547  36.240  1.00  0.00     0.148 A 
ATOM     90  C   UNL A   1      47.058  28.247  35.787  1.00  0.00     0.002 A 
ATOM     91  C   UNL A   1      45.388  26.977  37.004  1.00  0.00     0.091 A 
ATOM     92  F   UNL A   1      43.088  27.221  36.417  1.00  0.00    -0.205 F 
ATOM     93  C   UNL A   1      46.730  27.317  36.770  1.00  0.00     0.022 A 
BRANCH  91  94
ATOM     94  S   UNL A   1      45.059  25.844  38.360  1.00  0.00     0.127 S 
ATOM     95  O   UNL A   1      44.288  26.687  39.272  1.00  0.00    -0.237 OA
ATOM     96  O   UNL A   1      44.285  24.792  37.700  1.00  0.00    -0.237 OA
ATOM     97  O   UNL A   1      46.360  25.421  38.859  1.00  0.00    -0.744 OA
ENDBRANCH  91  94
ENDBRANCH  64  87
ENDBRANCH  38  39
ENDBRANCH  31  33
ENDBRANCH  30  31
ENDBRANCH  29  30
ENDBRANCH  28  29
ENDBRANCH  27  28
ENDBRANCH   1  27
TORSDOF 23
ENDMDL
MODEL 3
REMARK VINA RESULT:      -9.0      4.333     10.460
REMARK SMILES [NH3+][C@@]1(C(=O)OCCOCCOCCOC(=O)c2ccc(-c3c4nc(c(-c5cccc(S(=O)(=O)[O-])c5F)c5ccc([nH]5)c(-c5cccc(S(=O)(=O)[O-])c5F)c5nc(c(-c6cccc(S(=O)(=O)[O-])c6F)c6ccc3[nH]6)C=C5)C=C4)cc2)CC[C@@H](Sc2ccc(Cl)c(Cl)c2)C1
REMARK SMILES IDX 10 1 9 2 8 3 7 4 6 5 5 6 3 7 4 8 2 9 80 10 92 11 81 12 82 13
REMARK SMILES IDX 1 14 83 18 84 19 85 20 91 21 86 22 89 23 87 24 90 25 88 26
REMARK SMILES IDX 11 27 12 28 13 29 14 30 15 31 16 32 17 33 18 34 79 35 19 36
REMARK SMILES IDX 78 37 20 38 21 39 22 40 72 41 23 42 77 43 71 44 73 45 24 46
REMARK SMILES IDX 76 47 70 48 69 49 25 51 57 52 37 53 56 54 38 55 41 56 55 57
REMARK SMILES IDX 74 58 39 59 40 60 54 62 75 63 42 64 26 65 27 66 35 67 28 68
REMARK SMILES IDX 30 69 36 70 29 71 31 72 32 73 33 74 34 75 58 76 59 77 67 78
REMARK SMILES IDX 60 79 62 80 68 81 61 82 63 83 64 84 65 85 66 86 43 87 44 88
REMARK SMILES IDX 52 89 45 90 47 91 53 92 46 93 48 94 49 95 50 96 51 97
REMARK H PARENT 1 15 1 16 1 17 73 50 41 61
REMARK Flexibility Score: inf
ROOT
ATOM      1  C   UNL A   1      38.847  27.682  29.635  1.00  0.00     0.188 C 
ENDROOT
BRANCH   1   2
ATOM      2  C   UNL A   1      38.434  28.987  28.945  1.00  0.00     0.188 C 
BRANCH   2   3
ATOM      3  O   UNL A   1      37.609  29.884  29.671  1.00  0.00    -0.376 OA
BRANCH   3   4
ATOM      4  C   UNL A   1      36.303  30.162  29.171  1.00  0.00     0.202 C 
BRANCH   4   5
ATOM      5  C   UNL A   1      36.013  30.017  27.665  1.00  0.00     0.261 C 
BRANCH   5   6
ATOM      6  O   UNL A   1      34.854  29.214  27.350  1.00  0.00    -0.459 OA
BRANCH   6   7
ATOM      7  C   UNL A   1      33.720  29.900  27.039  1.00  0.00     0.368 C 
ATOM      8  O   UNL A   1      33.390  30.945  27.595  1.00  0.00    -0.245 OA
BRANCH   7   9
ATOM      9  C   UNL A   1      32.892  29.263  25.865  1.00  0.00     0.193 C 
ATOM     10  C   UNL A   1      32.078  28.102  26.465  1.00  0.00     0.082 C 
ATOM     11  C   UNL A   1      33.681  28.606  24.704  1.00  0.00     0.095 C 
ATOM     12  C   UNL A   1      32.953  26.877  26.244  1.00  0.00     0.022 C 
ATOM     13  C   UNL A   1      33.585  27.090  24.876  1.00  0.00     0.059 C 
BRANCH   9  14
ATOM     14  N   UNL A   1      31.978  30.306  25.354  1.00  0.00    -0.343 N 
ATOM     15  H   UNL A   1      32.488  30.925  24.723  1.00  0.00     0.345 HD
ATOM     16  H   UNL A   1      31.609  30.849  26.135  1.00  0.00     0.345 HD
ATOM     17  H   UNL A   1      31.207  29.867  24.852  1.00  0.00     0.345 HD
ENDBRANCH   9  14
BRANCH  13  18
ATOM     18  S   UNL A   1      32.798  26.213  23.454  1.00  0.00    -0.122 SA
BRANCH  18  19
ATOM     19  C   UNL A   1      31.169  26.921  23.359  1.00  0.00     0.009 A 
ATOM     20  C   UNL A   1      30.092  26.233  23.926  1.00  0.00     0.017 A 
ATOM     21  C   UNL A   1      30.932  28.116  22.676  1.00  0.00     0.037 A 
ATOM     22  C   UNL A   1      28.798  26.758  23.851  1.00  0.00     0.023 A 
ATOM     23  C   UNL A   1      29.640  28.654  22.614  1.00  0.00     0.060 A 
ATOM     24  C   UNL A   1      28.570  27.974  23.204  1.00  0.00     0.059 A 
ATOM     25  Cl  UNL A   1      29.443  30.166  21.803  1.00  0.00    -0.083 Cl
ATOM     26  Cl  UNL A   1      26.951  28.570  23.164  1.00  0.00    -0.083 Cl
ENDBRANCH  18  19
ENDBRANCH  13  18
ENDBRANCH   7   9
ENDBRANCH   6   7
ENDBRANCH   5   6
ENDBRANCH   4   5
ENDBRANCH   3   4
ENDBRANCH   2   3
ENDBRANCH   1   2
BRANCH   1  27
ATOM     27  O   UNL A   1      39.859  26.947  28.991  1.00  0.00    -0.376 OA
BRANCH  27  28
ATOM     28  C   UNL A   1      39.540  25.711  28.370  1.00  0.00     0.202 C 
BRANCH  28  29
ATOM     29  C   UNL A   1      40.062  25.289  26.979  1.00  0.00     0.261 C 
BRANCH  29  30
ATOM     30  O   UNL A   1      41.463  25.026  26.827  1.00  0.00    -0.460 OA
BRANCH  30  31
ATOM     31  C   UNL A   1      42.175  25.832  26.004  1.00  0.00     0.338 C 
ATOM     32  O   UNL A   1      42.305  25.712  24.795  1.00  0.00    -0.246 OA
BRANCH  31  33
ATOM     33  C   UNL A   1      42.522  27.045  26.785  1.00  0.00     0.060 A 
ATOM     34  C   UNL A   1      42.020  28.292  26.373  1.00  0.00     0.016 A 
ATOM     35  C   UNL A   1      43.260  26.942  27.964  1.00  0.00     0.016 A 
ATOM     36  C   UNL A   1      42.249  29.435  27.143  1.00  0.00     0.010 A 
ATOM     37  C   UNL A   1      43.519  28.093  28.714  1.00  0.00     0.010 A 
ATOM     38  C   UNL A   1      43.026  29.346  28.303  1.00  0.00    -0.014 A 
BRANCH  38  39
ATOM     39  C   UNL A   1      43.474  30.566  29.018  1.00  0.00     0.031 A 
ATOM     40  C   UNL A   1      42.631  31.073  30.154  1.00  0.00     0.074 A 
ATOM     41  C   UNL A   1      44.563  31.252  28.626  1.00  0.00     0.049 A 
ATOM     42  N   UNL A   1      42.723  32.192  30.820  1.00  0.00    -0.248 NA
ATOM     43  C   UNL A   1      41.529  30.198  30.591  1.00  0.00     0.031 C 
ATOM     44  C   UNL A   1      45.478  30.852  27.560  1.00  0.00     0.029 A 
ATOM     45  N   UNL A   1      45.056  32.460  29.060  1.00  0.00    -0.354 N 
ATOM     46  C   UNL A   1      41.666  32.182  31.722  1.00  0.00     0.074 A 
ATOM     47  C   UNL A   1      40.951  30.940  31.524  1.00  0.00     0.031 C 
ATOM     48  C   UNL A   1      46.397  31.821  27.390  1.00  0.00     0.029 A 
ATOM     49  C   UNL A   1      46.107  32.924  28.304  1.00  0.00     0.049 A 
ATOM     50  H   UNL A   1      44.691  32.944  29.836  1.00  0.00     0.167 HD
ATOM     51  C   UNL A   1      41.321  33.122  32.631  1.00  0.00     0.034 A 
ATOM     52  C   UNL A   1      46.732  34.121  28.319  1.00  0.00     0.034 A 
ATOM     53  C   UNL A   1      42.040  34.350  32.833  1.00  0.00     0.049 A 
ATOM     54  C   UNL A   1      46.291  35.176  29.304  1.00  0.00     0.074 A 
ATOM     55  C   UNL A   1      41.801  35.339  33.772  1.00  0.00     0.029 A 
ATOM     56  N   UNL A   1      43.118  34.772  32.072  1.00  0.00    -0.354 N 
ATOM     57  N   UNL A   1      45.364  35.109  30.229  1.00  0.00    -0.248 NA
ATOM     58  C   UNL A   1      46.994  36.468  29.257  1.00  0.00     0.031 C 
ATOM     59  C   UNL A   1      42.705  36.380  33.547  1.00  0.00     0.029 A 
ATOM     60  C   UNL A   1      43.536  36.021  32.498  1.00  0.00     0.049 A 
ATOM     61  H   UNL A   1      43.526  34.260  31.338  1.00  0.00     0.167 HD
ATOM     62  C   UNL A   1      45.395  36.332  30.893  1.00  0.00     0.074 A 
ATOM     63  C   UNL A   1      46.446  37.115  30.277  1.00  0.00     0.031 C 
ATOM     64  C   UNL A   1      44.615  36.773  31.912  1.00  0.00     0.034 A 
BRANCH  51  65
ATOM     65  C   UNL A   1      40.106  32.863  33.480  1.00  0.00     0.023 A 
ATOM     66  C   UNL A   1      40.242  32.229  34.731  1.00  0.00     0.012 A 
ATOM     67  C   UNL A   1      38.836  33.303  33.060  1.00  0.00     0.148 A 
ATOM     68  C   UNL A   1      39.126  32.010  35.538  1.00  0.00     0.002 A 
ATOM     69  C   UNL A   1      37.737  33.124  33.891  1.00  0.00     0.091 A 
ATOM     70  F   UNL A   1      38.725  33.883  31.857  1.00  0.00    -0.205 F 
ATOM     71  C   UNL A   1      37.879  32.467  35.124  1.00  0.00     0.022 A 
BRANCH  69  72
ATOM     72  S   UNL A   1      36.102  33.746  33.484  1.00  0.00     0.127 S 
ATOM     73  O   UNL A   1      36.367  35.174  33.304  1.00  0.00    -0.237 OA
ATOM     74  O   UNL A   1      35.798  33.022  32.250  1.00  0.00    -0.237 OA
ATOM     75  O   UNL A   1      35.249  33.410  34.615  1.00  0.00    -0.744 OA
ENDBRANCH  69  72
ENDBRANCH  51  65
BRANCH  52  76
ATOM     76  C   UNL A   1      47.846  34.397  27.366  1.00  0.00     0.023 A 
ATOM     77  C   UNL A   1      47.551  34.908  26.085  1.00  0.00     0.012 A 
ATOM     78  C   UNL A   1      49.188  34.151  27.713  1.00  0.00     0.148 A 
ATOM     79  C   UNL A   1      48.570  35.140  25.161  1.00  0.00     0.002 A 
ATOM     80  C   UNL A   1      50.203  34.435  26.807  1.00  0.00     0.091 A 
ATOM     81  F   UNL A   1      49.446  33.645  28.927  1.00  0.00    -0.205 F 
ATOM     82  C   UNL A   1      49.895  34.913  25.524  1.00  0.00     0.022 A 
BRANCH  80  83
ATOM     83  S   UNL A   1      51.943  34.280  27.222  1.00  0.00     0.127 S 
ATOM     84  O   UNL A   1      52.069  35.210  28.341  1.00  0.00    -0.237 OA
ATOM     85  O   UNL A   1      52.041  32.866  27.583  1.00  0.00    -0.237 OA
ATOM     86  O   UNL A   1      52.671  34.646  26.014  1.00  0.00    -0.744 OA
ENDBRANCH  80  83
ENDBRANCH  52  76
BRANCH  64  87
ATOM     87  C   UNL A   1      44.875  38.153  32.461  1.00  0.00     0.023 A 
ATOM     88  C   UNL A   1      45.804  38.330  33.506  1.00  0.00     0.012 A 
ATOM     89  C   UNL A   1      44.278  39.285  31.870  1.00  0.00     0.148 A 
ATOM     90  C   UNL A   1      46.117  39.609  33.968  1.00  0.00     0.002 A 
ATOM     91  C   UNL A   1      44.632  40.558  32.301  1.00  0.00     0.091 A 
ATOM     92  F   UNL A   1      43.390  39.095  30.883  1.00  0.00    -0.205 F 
ATOM     93  C   UNL A   1      45.542  40.721  33.358  1.00  0.00     0.022 A 
BRANCH  91  94
ATOM     94  S   UNL A   1      44.021  42.054  31.515  1.00  0.00     0.127 S 
ATOM     95  O   UNL A   1      42.601  41.746  31.351  1.00  0.00    -0.237 OA
ATOM     96  O   UNL A   1      44.313  43.073  32.524  1.00  0.00    -0.237 OA
ATOM     97  O   UNL A   1      44.771  42.195  30.273  1.00  0.00    -0.744 OA
ENDBRANCH  91  94
ENDBRANCH  64  87
ENDBRANCH  38  39
ENDBRANCH  31  33
ENDBRANCH  30  31
ENDBRANCH  29  30
ENDBRANCH  28  29
ENDBRANCH  27  28
ENDBRANCH   1  27
TORSDOF 23
ENDMDL
