MODEL 1
REMARK VINA RESULT:     -11.3      0.000      0.000
REMARK SMILES O=C(OCCOCCOCCOC(=O)[C@]1(NC(=O)C2CCN(C(=O)C3CC3)CC2)CCCc2ccccc21)c1ccc(-c2c3nc(c(-c4cccc(S(=O)(=O)[O-])c4F)c4ccc([nH]4)c(-c4cccc(S(=O)(=O)[O-])c4F)c4nc(c(-c5cccc(S(=O)(=O)[O-])c5F)c5ccc2[nH]5)C=C4)C=C3)cc1
REMARK SMILES IDX 7 1 6 2 5 3 4 4 3 5 2 6 1 7 39 8 40 9 101 10 41 11 100 12
REMARK SMILES IDX 42 13 43 14 44 15 94 16 45 17 99 18 93 19 95 20 46 21 98 22
REMARK SMILES IDX 92 23 91 24 47 26 79 27 59 28 78 29 60 30 63 31 77 32 96 33
REMARK SMILES IDX 61 34 62 35 76 37 97 38 64 39 48 40 49 41 57 42 50 43 52 44
REMARK SMILES IDX 58 45 51 46 53 47 54 48 55 49 56 50 80 51 81 52 89 53 82 54
REMARK SMILES IDX 84 55 90 56 83 57 85 58 86 59 87 60 88 61 65 62 66 63 74 64
REMARK SMILES IDX 67 65 69 66 75 67 68 68 70 69 71 70 72 71 73 72 8 73 9 74
REMARK SMILES IDX 10 75 11 76 12 77 13 78 14 79 15 80 30 81 38 82 31 83 33 84
REMARK SMILES IDX 37 85 32 86 34 87 36 88 35 89 16 90 17 91 18 93 19 94 20 95
REMARK SMILES IDX 29 96 21 97 28 98 22 99 23 100 24 101 25 102 26 103 27 104
REMARK H PARENT 95 25 63 36 16 92
REMARK Flexibility Score: inf
ROOT
ATOM      1  C   UNL A   1      34.647  19.847  24.703  1.00  0.00     0.188 C 
ENDROOT
BRANCH   1   2
ATOM      2  O   UNL A   1      35.628  20.489  25.511  1.00  0.00    -0.376 OA
BRANCH   2   3
ATOM      3  C   UNL A   1      36.955  20.486  24.986  1.00  0.00     0.202 C 
BRANCH   3   4
ATOM      4  C   UNL A   1      37.937  21.541  25.540  1.00  0.00     0.261 C 
BRANCH   4   5
ATOM      5  O   UNL A   1      39.285  21.076  25.760  1.00  0.00    -0.460 OA
BRANCH   5   6
ATOM      6  C   UNL A   1      40.114  21.353  26.804  1.00  0.00     0.338 C 
ATOM      7  O   UNL A   1      40.616  20.424  27.433  1.00  0.00    -0.246 OA
BRANCH   6   8
ATOM      8  C   UNL A   1      40.446  22.752  27.191  1.00  0.00     0.060 A 
ATOM      9  C   UNL A   1      39.880  23.860  26.580  1.00  0.00     0.016 A 
ATOM     10  C   UNL A   1      41.321  22.981  28.253  1.00  0.00     0.016 A 
ATOM     11  C   UNL A   1      40.329  25.144  26.812  1.00  0.00     0.010 A 
ATOM     12  C   UNL A   1      41.631  24.297  28.630  1.00  0.00     0.010 A 
ATOM     13  C   UNL A   1      41.187  25.394  27.866  1.00  0.00    -0.014 A 
BRANCH  13  14
ATOM     14  C   UNL A   1      41.681  26.774  28.103  1.00  0.00     0.031 A 
ATOM     15  C   UNL A   1      43.139  27.047  27.883  1.00  0.00     0.074 A 
ATOM     16  C   UNL A   1      40.862  27.792  28.451  1.00  0.00     0.049 A 
ATOM     17  N   UNL A   1      43.818  28.127  28.146  1.00  0.00    -0.248 NA
ATOM     18  C   UNL A   1      43.928  25.981  27.236  1.00  0.00     0.031 C 
ATOM     19  C   UNL A   1      39.400  27.764  28.485  1.00  0.00     0.029 A 
ATOM     20  N   UNL A   1      41.154  29.055  28.915  1.00  0.00    -0.354 N 
ATOM     21  C   UNL A   1      45.092  27.886  27.661  1.00  0.00     0.074 A 
ATOM     22  C   UNL A   1      45.137  26.515  27.214  1.00  0.00     0.031 C 
ATOM     23  C   UNL A   1      38.937  28.869  29.089  1.00  0.00     0.029 A 
ATOM     24  C   UNL A   1      40.065  29.671  29.498  1.00  0.00     0.049 A 
ATOM     25  H   UNL A   1      42.042  29.472  28.840  1.00  0.00     0.167 HD
ATOM     26  C   UNL A   1      46.104  28.765  27.499  1.00  0.00     0.034 A 
ATOM     27  C   UNL A   1      39.982  30.735  30.313  1.00  0.00     0.034 A 
ATOM     28  C   UNL A   1      46.032  30.134  27.917  1.00  0.00     0.049 A 
ATOM     29  C   UNL A   1      41.191  31.608  30.386  1.00  0.00     0.074 A 
ATOM     30  C   UNL A   1      46.986  31.125  27.797  1.00  0.00     0.029 A 
ATOM     31  N   UNL A   1      44.935  30.700  28.552  1.00  0.00    -0.354 N 
ATOM     32  N   UNL A   1      42.372  31.399  29.857  1.00  0.00    -0.248 NA
ATOM     33  C   UNL A   1      41.025  32.920  31.016  1.00  0.00     0.031 C 
ATOM     34  C   UNL A   1      46.477  32.284  28.393  1.00  0.00     0.029 A 
ATOM     35  C   UNL A   1      45.195  32.023  28.853  1.00  0.00     0.049 A 
ATOM     36  H   UNL A   1      44.096  30.228  28.758  1.00  0.00     0.167 HD
ATOM     37  C   UNL A   1      43.051  32.596  29.980  1.00  0.00     0.074 A 
ATOM     38  C   UNL A   1      42.161  33.509  30.673  1.00  0.00     0.031 C 
ATOM     39  C   UNL A   1      44.283  32.919  29.519  1.00  0.00     0.034 A 
BRANCH  26  40
ATOM     40  C   UNL A   1      47.325  28.254  26.792  1.00  0.00     0.023 A 
ATOM     41  C   UNL A   1      48.515  28.044  27.522  1.00  0.00     0.012 A 
ATOM     42  C   UNL A   1      47.311  28.030  25.406  1.00  0.00     0.148 A 
ATOM     43  C   UNL A   1      49.688  27.665  26.872  1.00  0.00     0.002 A 
ATOM     44  C   UNL A   1      48.474  27.610  24.772  1.00  0.00     0.091 A 
ATOM     45  F   UNL A   1      46.176  28.263  24.733  1.00  0.00    -0.205 F 
ATOM     46  C   UNL A   1      49.666  27.444  25.499  1.00  0.00     0.022 A 
BRANCH  44  47
ATOM     47  S   UNL A   1      48.542  27.253  23.015  1.00  0.00     0.127 S 
ATOM     48  O   UNL A   1      48.128  25.850  22.984  1.00  0.00    -0.237 OA
ATOM     49  O   UNL A   1      47.558  28.192  22.480  1.00  0.00    -0.237 OA
ATOM     50  O   UNL A   1      49.917  27.498  22.605  1.00  0.00    -0.744 OA
ENDBRANCH  44  47
ENDBRANCH  26  40
BRANCH  27  51
ATOM     51  C   UNL A   1      38.717  31.076  31.024  1.00  0.00     0.023 A 
ATOM     52  C   UNL A   1      38.349  30.377  32.188  1.00  0.00     0.012 A 
ATOM     53  C   UNL A   1      37.862  32.085  30.532  1.00  0.00     0.148 A 
ATOM     54  C   UNL A   1      37.130  30.638  32.819  1.00  0.00     0.002 A 
ATOM     55  C   UNL A   1      36.660  32.357  31.180  1.00  0.00     0.091 A 
ATOM     56  F   UNL A   1      38.236  32.753  29.431  1.00  0.00    -0.205 F 
ATOM     57  C   UNL A   1      36.286  31.624  32.316  1.00  0.00     0.022 A 
BRANCH  55  58
ATOM     58  S   UNL A   1      35.540  33.659  30.645  1.00  0.00     0.127 S 
ATOM     59  O   UNL A   1      34.284  32.929  30.499  1.00  0.00    -0.237 OA
ATOM     60  O   UNL A   1      35.589  34.587  31.775  1.00  0.00    -0.237 OA
ATOM     61  O   UNL A   1      36.117  34.185  29.414  1.00  0.00    -0.744 OA
ENDBRANCH  55  58
ENDBRANCH  27  51
BRANCH  39  62
ATOM     62  C   UNL A   1      44.717  34.341  29.703  1.00  0.00     0.023 A 
ATOM     63  C   UNL A   1      45.344  34.737  30.899  1.00  0.00     0.012 A 
ATOM     64  C   UNL A   1      44.534  35.273  28.664  1.00  0.00     0.148 A 
ATOM     65  C   UNL A   1      45.749  36.057  31.074  1.00  0.00     0.002 A 
ATOM     66  C   UNL A   1      45.000  36.569  28.821  1.00  0.00     0.091 A 
ATOM     67  F   UNL A   1      43.907  34.877  27.548  1.00  0.00    -0.205 F 
ATOM     68  C   UNL A   1      45.590  36.968  30.032  1.00  0.00     0.022 A 
BRANCH  66  69
ATOM     69  S   UNL A   1      44.947  37.770  27.491  1.00  0.00     0.127 S 
ATOM     70  O   UNL A   1      45.409  38.982  28.166  1.00  0.00    -0.237 OA
ATOM     71  O   UNL A   1      45.894  37.206  26.529  1.00  0.00    -0.237 OA
ATOM     72  O   UNL A   1      43.565  37.800  27.030  1.00  0.00    -0.744 OA
ENDBRANCH  66  69
ENDBRANCH  39  62
ENDBRANCH  13  14
ENDBRANCH   6   8
ENDBRANCH   5   6
ENDBRANCH   4   5
ENDBRANCH   3   4
ENDBRANCH   2   3
ENDBRANCH   1   2
BRANCH   1  73
ATOM     73  C   UNL A   1      33.298  19.769  25.407  1.00  0.00     0.188 C 
BRANCH  73  74
ATOM     74  O   UNL A   1      32.128  19.873  24.606  1.00  0.00    -0.376 OA
BRANCH  74  75
ATOM     75  C   UNL A   1      32.236  19.436  23.258  1.00  0.00     0.202 C 
BRANCH  75  76
ATOM     76  C   UNL A   1      32.150  20.466  22.105  1.00  0.00     0.261 C 
BRANCH  76  77
ATOM     77  O   UNL A   1      31.655  21.786  22.432  1.00  0.00    -0.461 OA
BRANCH  77  78
ATOM     78  C   UNL A   1      32.525  22.814  22.209  1.00  0.00     0.336 C 
ATOM     79  O   UNL A   1      33.156  22.908  21.156  1.00  0.00    -0.249 OA
BRANCH  78  80
ATOM     80  C   UNL A   1      32.626  23.898  23.347  1.00  0.00     0.164 C 
ATOM     81  C   UNL A   1      34.037  24.521  23.092  1.00  0.00     0.046 C 
ATOM     82  C   UNL A   1      32.515  23.433  24.824  1.00  0.00    -0.008 A 
ATOM     83  C   UNL A   1      35.129  23.656  23.677  1.00  0.00     0.008 C 
ATOM     84  C   UNL A   1      33.648  23.400  25.674  1.00  0.00    -0.042 A 
ATOM     85  C   UNL A   1      31.265  23.183  25.428  1.00  0.00     0.007 A 
ATOM     86  C   UNL A   1      35.036  23.730  25.188  1.00  0.00     0.036 C 
ATOM     87  C   UNL A   1      33.508  23.170  27.054  1.00  0.00     0.004 A 
ATOM     88  C   UNL A   1      31.139  22.932  26.801  1.00  0.00     0.000 A 
ATOM     89  C   UNL A   1      32.260  22.941  27.618  1.00  0.00     0.000 A 
BRANCH  80  90
ATOM     90  N   UNL A   1      31.707  25.063  23.151  1.00  0.00    -0.336 N 
ATOM     91  C   UNL A   1      31.713  26.328  23.639  1.00  0.00     0.224 C 
ATOM     92  H   UNL A   1      30.949  24.874  22.551  1.00  0.00     0.164 HD
ATOM     93  O   UNL A   1      31.167  27.215  22.983  1.00  0.00    -0.275 OA
BRANCH  91  94
ATOM     94  C   UNL A   1      32.295  26.601  25.012  1.00  0.00     0.082 C 
ATOM     95  C   UNL A   1      31.410  27.620  25.756  1.00  0.00     0.035 C 
ATOM     96  C   UNL A   1      33.772  27.019  24.922  1.00  0.00     0.035 C 
ATOM     97  C   UNL A   1      31.738  29.066  25.401  1.00  0.00     0.120 C 
ATOM     98  C   UNL A   1      33.936  28.497  24.586  1.00  0.00     0.120 C 
ATOM     99  N   UNL A   1      33.174  29.279  25.548  1.00  0.00    -0.342 N 
ATOM    100  C   UNL A   1      33.617  29.915  26.705  1.00  0.00     0.225 C 
ATOM    101  O   UNL A   1      32.815  30.376  27.524  1.00  0.00    -0.275 OA
BRANCH 100 102
ATOM    102  C   UNL A   1      35.054  30.118  27.059  1.00  0.00     0.079 C 
ATOM    103  C   UNL A   1      35.681  31.289  27.757  1.00  0.00     0.014 C 
ATOM    104  C   UNL A   1      35.590  29.955  28.455  1.00  0.00     0.014 C 
ENDBRANCH 100 102
ENDBRANCH  91  94
ENDBRANCH  80  90
ENDBRANCH  78  80
ENDBRANCH  77  78
ENDBRANCH  76  77
ENDBRANCH  75  76
ENDBRANCH  74  75
ENDBRANCH  73  74
ENDBRANCH   1  73
TORSDOF 23
ENDMDL
MODEL 2
REMARK VINA RESULT:     -11.0      5.581     11.013
REMARK SMILES O=C(OCCOCCOCCOC(=O)[C@]1(NC(=O)C2CCN(C(=O)C3CC3)CC2)CCCc2ccccc21)c1ccc(-c2c3nc(c(-c4cccc(S(=O)(=O)[O-])c4F)c4ccc([nH]4)c(-c4cccc(S(=O)(=O)[O-])c4F)c4nc(c(-c5cccc(S(=O)(=O)[O-])c5F)c5ccc2[nH]5)C=C4)C=C3)cc1
REMARK SMILES IDX 7 1 6 2 5 3 4 4 3 5 2 6 1 7 39 8 40 9 101 10 41 11 100 12
REMARK SMILES IDX 42 13 43 14 44 15 94 16 45 17 99 18 93 19 95 20 46 21 98 22
REMARK SMILES IDX 92 23 91 24 47 26 79 27 59 28 78 29 60 30 63 31 77 32 96 33
REMARK SMILES IDX 61 34 62 35 76 37 97 38 64 39 48 40 49 41 57 42 50 43 52 44
REMARK SMILES IDX 58 45 51 46 53 47 54 48 55 49 56 50 80 51 81 52 89 53 82 54
REMARK SMILES IDX 84 55 90 56 83 57 85 58 86 59 87 60 88 61 65 62 66 63 74 64
REMARK SMILES IDX 67 65 69 66 75 67 68 68 70 69 71 70 72 71 73 72 8 73 9 74
REMARK SMILES IDX 10 75 11 76 12 77 13 78 14 79 15 80 30 81 38 82 31 83 33 84
REMARK SMILES IDX 37 85 32 86 34 87 36 88 35 89 16 90 17 91 18 93 19 94 20 95
REMARK SMILES IDX 29 96 21 97 28 98 22 99 23 100 24 101 25 102 26 103 27 104
REMARK H PARENT 95 25 63 36 16 92
REMARK Flexibility Score: inf
ROOT
ATOM      1  C   UNL A   1      32.907  35.735  29.710  1.00  0.00     0.188 C 
ENDROOT
BRANCH   1   2
ATOM      2  O   UNL A   1      34.044  35.064  29.175  1.00  0.00    -0.376 OA
BRANCH   2   3
ATOM      3  C   UNL A   1      34.279  33.752  29.684  1.00  0.00     0.202 C 
BRANCH   3   4
ATOM      4  C   UNL A   1      34.440  32.613  28.653  1.00  0.00     0.261 C 
BRANCH   4   5
ATOM      5  O   UNL A   1      34.952  31.371  29.179  1.00  0.00    -0.460 OA
BRANCH   5   6
ATOM      6  C   UNL A   1      35.401  30.284  28.492  1.00  0.00     0.338 C 
ATOM      7  O   UNL A   1      34.629  29.687  27.745  1.00  0.00    -0.246 OA
BRANCH   6   8
ATOM      8  C   UNL A   1      36.808  29.812  28.607  1.00  0.00     0.060 A 
ATOM      9  C   UNL A   1      37.281  29.107  29.702  1.00  0.00     0.016 A 
ATOM     10  C   UNL A   1      37.694  30.029  27.552  1.00  0.00     0.016 A 
ATOM     11  C   UNL A   1      38.622  28.838  29.888  1.00  0.00     0.010 A 
ATOM     12  C   UNL A   1      39.019  29.577  27.648  1.00  0.00     0.010 A 
ATOM     13  C   UNL A   1      39.515  29.035  28.851  1.00  0.00    -0.014 A 
BRANCH  13  14
ATOM     14  C   UNL A   1      40.959  28.761  29.058  1.00  0.00     0.031 A 
ATOM     15  C   UNL A   1      41.497  27.440  28.596  1.00  0.00     0.074 A 
ATOM     16  C   UNL A   1      41.806  29.671  29.589  1.00  0.00     0.049 A 
ATOM     17  N   UNL A   1      42.681  26.929  28.781  1.00  0.00    -0.248 NA
ATOM     18  C   UNL A   1      40.602  26.604  27.773  1.00  0.00     0.031 C 
ATOM     19  C   UNL A   1      41.508  31.074  29.881  1.00  0.00     0.029 A 
ATOM     20  N   UNL A   1      43.095  29.531  30.049  1.00  0.00    -0.354 N 
ATOM     21  C   UNL A   1      42.684  25.742  28.068  1.00  0.00     0.074 A 
ATOM     22  C   UNL A   1      41.349  25.534  27.561  1.00  0.00     0.031 C 
ATOM     23  C   UNL A   1      42.503  31.609  30.604  1.00  0.00     0.029 A 
ATOM     24  C   UNL A   1      43.494  30.588  30.842  1.00  0.00     0.049 A 
ATOM     25  H   UNL A   1      43.669  28.760  29.837  1.00  0.00     0.167 HD
ATOM     26  C   UNL A   1      43.735  24.950  27.768  1.00  0.00     0.034 A 
ATOM     27  C   UNL A   1      44.517  30.710  31.705  1.00  0.00     0.034 A 
ATOM     28  C   UNL A   1      45.063  25.189  28.252  1.00  0.00     0.049 A 
ATOM     29  C   UNL A   1      45.596  29.684  31.600  1.00  0.00     0.074 A 
ATOM     30  C   UNL A   1      46.213  24.466  28.008  1.00  0.00     0.029 A 
ATOM     31  N   UNL A   1      45.411  26.235  29.095  1.00  0.00    -0.354 N 
ATOM     32  N   UNL A   1      45.613  28.601  30.863  1.00  0.00    -0.248 NA
ATOM     33  C   UNL A   1      46.848  29.965  32.307  1.00  0.00     0.031 C 
ATOM     34  C   UNL A   1      47.253  25.056  28.736  1.00  0.00     0.029 A 
ATOM     35  C   UNL A   1      46.756  26.165  29.403  1.00  0.00     0.049 A 
ATOM     36  H   UNL A   1      44.791  26.925  29.425  1.00  0.00     0.167 HD
ATOM     37  C   UNL A   1      46.913  28.136  30.915  1.00  0.00     0.074 A 
ATOM     38  C   UNL A   1      47.640  29.034  31.794  1.00  0.00     0.031 C 
ATOM     39  C   UNL A   1      47.462  27.086  30.258  1.00  0.00     0.034 A 
BRANCH  26  40
ATOM     40  C   UNL A   1      43.464  23.807  26.835  1.00  0.00     0.023 A 
ATOM     41  C   UNL A   1      43.841  23.912  25.478  1.00  0.00     0.012 A 
ATOM     42  C   UNL A   1      42.795  22.657  27.283  1.00  0.00     0.148 A 
ATOM     43  C   UNL A   1      43.512  22.907  24.571  1.00  0.00     0.002 A 
ATOM     44  C   UNL A   1      42.509  21.640  26.381  1.00  0.00     0.091 A 
ATOM     45  F   UNL A   1      42.424  22.595  28.569  1.00  0.00    -0.205 F 
ATOM     46  C   UNL A   1      42.851  21.770  25.023  1.00  0.00     0.022 A 
BRANCH  44  47
ATOM     47  S   UNL A   1      41.702  20.114  26.869  1.00  0.00     0.127 S 
ATOM     48  O   UNL A   1      42.620  19.608  27.889  1.00  0.00    -0.237 OA
ATOM     49  O   UNL A   1      40.425  20.602  27.385  1.00  0.00    -0.237 OA
ATOM     50  O   UNL A   1      41.611  19.301  25.665  1.00  0.00    -0.744 OA
ENDBRANCH  44  47
ENDBRANCH  26  40
BRANCH  27  51
ATOM     51  C   UNL A   1      44.611  31.864  32.642  1.00  0.00     0.023 A 
ATOM     52  C   UNL A   1      44.182  31.732  33.975  1.00  0.00     0.012 A 
ATOM     53  C   UNL A   1      45.112  33.110  32.206  1.00  0.00     0.148 A 
ATOM     54  C   UNL A   1      44.197  32.828  34.840  1.00  0.00     0.002 A 
ATOM     55  C   UNL A   1      45.148  34.192  33.081  1.00  0.00     0.091 A 
ATOM     56  F   UNL A   1      45.534  33.215  30.937  1.00  0.00    -0.205 F 
ATOM     57  C   UNL A   1      44.677  34.056  34.395  1.00  0.00     0.022 A 
BRANCH  55  58
ATOM     58  S   UNL A   1      45.815  35.796  32.615  1.00  0.00     0.127 S 
ATOM     59  O   UNL A   1      45.687  36.545  33.862  1.00  0.00    -0.237 OA
ATOM     60  O   UNL A   1      47.187  35.457  32.236  1.00  0.00    -0.237 OA
ATOM     61  O   UNL A   1      44.985  36.256  31.508  1.00  0.00    -0.744 OA
ENDBRANCH  55  58
ENDBRANCH  27  51
BRANCH  39  62
ATOM     62  C   UNL A   1      48.938  26.888  30.425  1.00  0.00     0.023 A 
ATOM     63  C   UNL A   1      49.840  27.598  29.611  1.00  0.00     0.012 A 
ATOM     64  C   UNL A   1      49.424  26.023  31.423  1.00  0.00     0.148 A 
ATOM     65  C   UNL A   1      51.212  27.418  29.763  1.00  0.00     0.002 A 
ATOM     66  C   UNL A   1      50.791  25.899  31.611  1.00  0.00     0.091 A 
ATOM     67  F   UNL A   1      48.542  25.336  32.163  1.00  0.00    -0.205 F 
ATOM     68  C   UNL A   1      51.687  26.581  30.771  1.00  0.00     0.022 A 
BRANCH  66  69
ATOM     69  S   UNL A   1      51.487  24.941  32.959  1.00  0.00     0.127 S 
ATOM     70  O   UNL A   1      50.790  23.665  32.806  1.00  0.00    -0.237 OA
ATOM     71  O   UNL A   1      52.907  24.908  32.611  1.00  0.00    -0.237 OA
ATOM     72  O   UNL A   1      51.180  25.679  34.176  1.00  0.00    -0.744 OA
ENDBRANCH  66  69
ENDBRANCH  39  62
ENDBRANCH  13  14
ENDBRANCH   6   8
ENDBRANCH   5   6
ENDBRANCH   4   5
ENDBRANCH   3   4
ENDBRANCH   2   3
ENDBRANCH   1   2
BRANCH   1  73
ATOM     73  C   UNL A   1      33.288  36.667  30.853  1.00  0.00     0.188 C 
BRANCH  73  74
ATOM     74  O   UNL A   1      32.943  36.267  32.173  1.00  0.00    -0.376 OA
BRANCH  74  75
ATOM     75  C   UNL A   1      33.982  36.301  33.143  1.00  0.00     0.202 C 
BRANCH  75  76
ATOM     76  C   UNL A   1      34.770  35.010  33.474  1.00  0.00     0.261 C 
BRANCH  76  77
ATOM     77  O   UNL A   1      36.134  35.165  33.930  1.00  0.00    -0.461 OA
BRANCH  77  78
ATOM     78  C   UNL A   1      36.588  34.196  34.776  1.00  0.00     0.336 C 
ATOM     79  O   UNL A   1      36.069  34.005  35.877  1.00  0.00    -0.249 OA
BRANCH  78  80
ATOM     80  C   UNL A   1      37.767  33.301  34.239  1.00  0.00     0.164 C 
ATOM     81  C   UNL A   1      38.970  33.764  35.125  1.00  0.00     0.046 C 
ATOM     82  C   UNL A   1      38.150  33.404  32.738  1.00  0.00    -0.008 A 
ATOM     83  C   UNL A   1      39.569  35.049  34.604  1.00  0.00     0.008 C 
ATOM     84  C   UNL A   1      39.339  34.053  32.323  1.00  0.00    -0.042 A 
ATOM     85  C   UNL A   1      37.423  32.720  31.742  1.00  0.00     0.007 A 
ATOM     86  C   UNL A   1      40.261  34.751  33.289  1.00  0.00     0.036 C 
ATOM     87  C   UNL A   1      39.777  33.971  30.989  1.00  0.00     0.004 A 
ATOM     88  C   UNL A   1      37.857  32.665  30.410  1.00  0.00     0.000 A 
ATOM     89  C   UNL A   1      39.044  33.277  30.036  1.00  0.00     0.000 A 
BRANCH  80  90
ATOM     90  N   UNL A   1      37.632  31.852  34.590  1.00  0.00    -0.336 N 
ATOM     91  C   UNL A   1      38.540  30.899  34.911  1.00  0.00     0.224 C 
ATOM     92  H   UNL A   1      36.702  31.529  34.587  1.00  0.00     0.164 HD
ATOM     93  O   UNL A   1      38.178  29.954  35.614  1.00  0.00    -0.275 OA
BRANCH  91  94
ATOM     94  C   UNL A   1      39.936  30.961  34.323  1.00  0.00     0.082 C 
ATOM     95  C   UNL A   1      40.013  30.058  33.077  1.00  0.00     0.035 C 
ATOM     96  C   UNL A   1      41.005  30.642  35.381  1.00  0.00     0.035 C 
ATOM     97  C   UNL A   1      40.292  28.598  33.415  1.00  0.00     0.120 C 
ATOM     98  C   UNL A   1      41.186  29.142  35.588  1.00  0.00     0.120 C 
ATOM     99  N   UNL A   1      41.451  28.525  34.297  1.00  0.00    -0.342 N 
ATOM    100  C   UNL A   1      42.674  28.178  33.728  1.00  0.00     0.225 C 
ATOM    101  O   UNL A   1      42.751  27.841  32.542  1.00  0.00    -0.275 OA
BRANCH 100 102
ATOM    102  C   UNL A   1      43.973  28.158  34.466  1.00  0.00     0.079 C 
ATOM    103  C   UNL A   1      44.416  27.206  35.539  1.00  0.00     0.014 C 
ATOM    104  C   UNL A   1      45.069  27.169  34.179  1.00  0.00     0.014 C 
ENDBRANCH 100 102
ENDBRANCH  91  94
ENDBRANCH  80  90
ENDBRANCH  78  80
ENDBRANCH  77  78
ENDBRANCH  76  77
ENDBRANCH  75  76
ENDBRANCH  74  75
ENDBRANCH  73  74
ENDBRANCH   1  73
TORSDOF 23
ENDMDL
MODEL 3
REMARK VINA RESULT:     -10.8      2.883      5.418
REMARK SMILES O=C(OCCOCCOCCOC(=O)[C@]1(NC(=O)C2CCN(C(=O)C3CC3)CC2)CCCc2ccccc21)c1ccc(-c2c3nc(c(-c4cccc(S(=O)(=O)[O-])c4F)c4ccc([nH]4)c(-c4cccc(S(=O)(=O)[O-])c4F)c4nc(c(-c5cccc(S(=O)(=O)[O-])c5F)c5ccc2[nH]5)C=C4)C=C3)cc1
REMARK SMILES IDX 7 1 6 2 5 3 4 4 3 5 2 6 1 7 39 8 40 9 101 10 41 11 100 12
REMARK SMILES IDX 42 13 43 14 44 15 94 16 45 17 99 18 93 19 95 20 46 21 98 22
REMARK SMILES IDX 92 23 91 24 47 26 79 27 59 28 78 29 60 30 63 31 77 32 96 33
REMARK SMILES IDX 61 34 62 35 76 37 97 38 64 39 48 40 49 41 57 42 50 43 52 44
REMARK SMILES IDX 58 45 51 46 53 47 54 48 55 49 56 50 80 51 81 52 89 53 82 54
REMARK SMILES IDX 84 55 90 56 83 57 85 58 86 59 87 60 88 61 65 62 66 63 74 64
REMARK SMILES IDX 67 65 69 66 75 67 68 68 70 69 71 70 72 71 73 72 8 73 9 74
REMARK SMILES IDX 10 75 11 76 12 77 13 78 14 79 15 80 30 81 38 82 31 83 33 84
REMARK SMILES IDX 37 85 32 86 34 87 36 88 35 89 16 90 17 91 18 93 19 94 20 95
REMARK SMILES IDX 29 96 21 97 28 98 22 99 23 100 24 101 25 102 26 103 27 104
REMARK H PARENT 95 25 63 36 16 92
REMARK Flexibility Score: inf
ROOT
ATOM      1  C   UNL A   1      40.782  21.630  26.860  1.00  0.00     0.188 C 
ENDROOT
BRANCH   1   2
ATOM      2  O   UNL A   1      40.707  20.229  26.618  1.00  0.00    -0.376 OA
BRANCH   2   3
ATOM      3  C   UNL A   1      41.828  19.467  27.065  1.00  0.00     0.202 C 
BRANCH   3   4
ATOM      4  C   UNL A   1      42.643  18.714  25.992  1.00  0.00     0.261 C 
BRANCH   4   5
ATOM      5  O   UNL A   1      43.143  19.528  24.911  1.00  0.00    -0.460 OA
BRANCH   5   6
ATOM      6  C   UNL A   1      44.253  20.317  24.890  1.00  0.00     0.338 C 
ATOM      7  O   UNL A   1      45.309  19.855  24.462  1.00  0.00    -0.246 OA
BRANCH   6   8
ATOM      8  C   UNL A   1      44.218  21.731  25.355  1.00  0.00     0.060 A 
ATOM      9  C   UNL A   1      43.901  22.792  24.522  1.00  0.00     0.016 A 
ATOM     10  C   UNL A   1      44.459  22.019  26.698  1.00  0.00     0.016 A 
ATOM     11  C   UNL A   1      44.054  24.108  24.908  1.00  0.00     0.010 A 
ATOM     12  C   UNL A   1      44.418  23.348  27.146  1.00  0.00     0.010 A 
ATOM     13  C   UNL A   1      44.281  24.416  26.235  1.00  0.00    -0.014 A 
BRANCH  13  14
ATOM     14  C   UNL A   1      44.461  25.831  26.645  1.00  0.00     0.031 A 
ATOM     15  C   UNL A   1      45.858  26.366  26.732  1.00  0.00     0.074 A 
ATOM     16  C   UNL A   1      43.419  26.660  26.884  1.00  0.00     0.049 A 
ATOM     17  N   UNL A   1      46.267  27.517  27.185  1.00  0.00    -0.248 NA
ATOM     18  C   UNL A   1      46.935  25.514  26.192  1.00  0.00     0.031 C 
ATOM     19  C   UNL A   1      42.005  26.381  26.629  1.00  0.00     0.029 A 
ATOM     20  N   UNL A   1      43.383  27.905  27.468  1.00  0.00    -0.354 N 
ATOM     21  C   UNL A   1      47.631  27.541  26.947  1.00  0.00     0.074 A 
ATOM     22  C   UNL A   1      48.009  26.244  26.439  1.00  0.00     0.031 C 
ATOM     23  C   UNL A   1      41.245  27.331  27.192  1.00  0.00     0.029 A 
ATOM     24  C   UNL A   1      42.112  28.271  27.861  1.00  0.00     0.049 A 
ATOM     25  H   UNL A   1      44.178  28.472  27.594  1.00  0.00     0.167 HD
ATOM     26  C   UNL A   1      48.476  28.590  27.038  1.00  0.00     0.034 A 
ATOM     27  C   UNL A   1      41.687  29.227  28.705  1.00  0.00     0.034 A 
ATOM     28  C   UNL A   1      48.079  29.882  27.512  1.00  0.00     0.049 A 
ATOM     29  C   UNL A   1      42.681  30.281  29.063  1.00  0.00     0.074 A 
ATOM     30  C   UNL A   1      48.840  31.027  27.639  1.00  0.00     0.029 A 
ATOM     31  N   UNL A   1      46.799  30.193  27.952  1.00  0.00    -0.354 N 
ATOM     32  N   UNL A   1      43.956  30.324  28.766  1.00  0.00    -0.248 NA
ATOM     33  C   UNL A   1      42.164  31.482  29.724  1.00  0.00     0.031 C 
ATOM     34  C   UNL A   1      48.026  32.023  28.191  1.00  0.00     0.029 A 
ATOM     35  C   UNL A   1      46.752  31.508  28.374  1.00  0.00     0.049 A 
ATOM     36  H   UNL A   1      46.038  29.569  27.960  1.00  0.00     0.167 HD
ATOM     37  C   UNL A   1      44.370  31.603  29.089  1.00  0.00     0.074 A 
ATOM     38  C   UNL A   1      43.216  32.285  29.646  1.00  0.00     0.031 C 
ATOM     39  C   UNL A   1      45.585  32.171  28.898  1.00  0.00     0.034 A 
BRANCH  26  40
ATOM     40  C   UNL A   1      49.879  28.360  26.556  1.00  0.00     0.023 A 
ATOM     41  C   UNL A   1      50.148  28.365  25.169  1.00  0.00     0.012 A 
ATOM     42  C   UNL A   1      50.915  28.089  27.464  1.00  0.00     0.148 A 
ATOM     43  C   UNL A   1      51.420  28.056  24.693  1.00  0.00     0.002 A 
ATOM     44  C   UNL A   1      52.191  27.824  26.982  1.00  0.00     0.091 A 
ATOM     45  F   UNL A   1      50.626  28.062  28.772  1.00  0.00    -0.205 F 
ATOM     46  C   UNL A   1      52.442  27.791  25.599  1.00  0.00     0.022 A 
BRANCH  44  47
ATOM     47  S   UNL A   1      53.587  27.515  28.065  1.00  0.00     0.127 S 
ATOM     48  O   UNL A   1      54.671  27.323  27.101  1.00  0.00    -0.237 OA
ATOM     49  O   UNL A   1      53.659  28.761  28.825  1.00  0.00    -0.237 OA
ATOM     50  O   UNL A   1      53.241  26.335  28.845  1.00  0.00    -0.744 OA
ENDBRANCH  44  47
ENDBRANCH  26  40
BRANCH  27  51
ATOM     51  C   UNL A   1      40.273  29.281  29.171  1.00  0.00     0.023 A 
ATOM     52  C   UNL A   1      39.251  29.677  28.290  1.00  0.00     0.012 A 
ATOM     53  C   UNL A   1      39.940  28.957  30.504  1.00  0.00     0.148 A 
ATOM     54  C   UNL A   1      37.934  29.803  28.738  1.00  0.00     0.002 A 
ATOM     55  C   UNL A   1      38.620  29.060  30.937  1.00  0.00     0.091 A 
ATOM     56  F   UNL A   1      40.923  28.564  31.327  1.00  0.00    -0.205 F 
ATOM     57  C   UNL A   1      37.619  29.497  30.059  1.00  0.00     0.022 A 
BRANCH  55  58
ATOM     58  S   UNL A   1      38.108  28.619  32.604  1.00  0.00     0.127 S 
ATOM     59  O   UNL A   1      38.236  27.165  32.580  1.00  0.00    -0.237 OA
ATOM     60  O   UNL A   1      39.103  29.314  33.422  1.00  0.00    -0.237 OA
ATOM     61  O   UNL A   1      36.753  29.137  32.744  1.00  0.00    -0.744 OA
ENDBRANCH  55  58
ENDBRANCH  27  51
BRANCH  39  62
ATOM     62  C   UNL A   1      45.708  33.623  29.246  1.00  0.00     0.023 A 
ATOM     63  C   UNL A   1      46.156  34.005  30.525  1.00  0.00     0.012 A 
ATOM     64  C   UNL A   1      45.416  34.606  28.282  1.00  0.00     0.148 A 
ATOM     65  C   UNL A   1      46.273  35.353  30.852  1.00  0.00     0.002 A 
ATOM     66  C   UNL A   1      45.598  35.944  28.595  1.00  0.00     0.091 A 
ATOM     67  F   UNL A   1      44.962  34.214  27.083  1.00  0.00    -0.205 F 
ATOM     68  C   UNL A   1      46.009  36.320  29.885  1.00  0.00     0.022 A 
BRANCH  66  69
ATOM     69  S   UNL A   1      45.399  37.245  27.377  1.00  0.00     0.127 S 
ATOM     70  O   UNL A   1      45.726  38.436  28.158  1.00  0.00    -0.237 OA
ATOM     71  O   UNL A   1      46.396  36.879  26.370  1.00  0.00    -0.237 OA
ATOM     72  O   UNL A   1      44.019  37.158  26.918  1.00  0.00    -0.744 OA
ENDBRANCH  66  69
ENDBRANCH  39  62
ENDBRANCH  13  14
ENDBRANCH   6   8
ENDBRANCH   5   6
ENDBRANCH   4   5
ENDBRANCH   3   4
ENDBRANCH   2   3
ENDBRANCH   1   2
BRANCH   1  73
ATOM     73  C   UNL A   1      39.528  22.353  26.384  1.00  0.00     0.188 C 
BRANCH  73  74
ATOM     74  O   UNL A   1      38.535  21.583  25.720  1.00  0.00    -0.376 OA
BRANCH  74  75
ATOM     75  C   UNL A   1      37.244  22.167  25.606  1.00  0.00     0.202 C 
BRANCH  75  76
ATOM     76  C   UNL A   1      36.917  23.088  24.405  1.00  0.00     0.261 C 
BRANCH  76  77
ATOM     77  O   UNL A   1      35.810  24.007  24.558  1.00  0.00    -0.461 OA
BRANCH  77  78
ATOM     78  C   UNL A   1      34.883  23.986  23.557  1.00  0.00     0.336 C 
ATOM     79  O   UNL A   1      35.126  23.478  22.462  1.00  0.00    -0.249 OA
BRANCH  78  80
ATOM     80  C   UNL A   1      33.471  24.593  23.904  1.00  0.00     0.164 C 
ATOM     81  C   UNL A   1      32.755  24.591  22.515  1.00  0.00     0.046 C 
ATOM     82  C   UNL A   1      33.409  26.014  24.526  1.00  0.00    -0.008 A 
ATOM     83  C   UNL A   1      33.176  25.779  21.681  1.00  0.00     0.008 C 
ATOM     84  C   UNL A   1      32.963  27.129  23.775  1.00  0.00    -0.042 A 
ATOM     85  C   UNL A   1      33.635  26.229  25.902  1.00  0.00     0.007 A 
ATOM     86  C   UNL A   1      32.601  27.030  22.315  1.00  0.00     0.036 C 
ATOM     87  C   UNL A   1      32.722  28.368  24.395  1.00  0.00     0.004 A 
ATOM     88  C   UNL A   1      33.413  27.474  26.506  1.00  0.00     0.000 A 
ATOM     89  C   UNL A   1      32.941  28.541  25.755  1.00  0.00     0.000 A 
BRANCH  80  90
ATOM     90  N   UNL A   1      32.611  23.684  24.725  1.00  0.00    -0.336 N 
ATOM     91  C   UNL A   1      32.775  22.410  25.157  1.00  0.00     0.224 C 
ATOM     92  H   UNL A   1      31.759  24.091  25.005  1.00  0.00     0.164 HD
ATOM     93  O   UNL A   1      32.193  22.057  26.184  1.00  0.00    -0.275 OA
BRANCH  91  94
ATOM     94  C   UNL A   1      33.578  21.430  24.324  1.00  0.00     0.082 C 
ATOM     95  C   UNL A   1      32.757  21.004  23.091  1.00  0.00     0.035 C 
ATOM     96  C   UNL A   1      34.074  20.248  25.172  1.00  0.00     0.035 C 
ATOM     97  C   UNL A   1      31.791  19.862  23.385  1.00  0.00     0.120 C 
ATOM     98  C   UNL A   1      33.004  19.177  25.354  1.00  0.00     0.120 C 
ATOM     99  N   UNL A   1      32.517  18.780  24.041  1.00  0.00    -0.342 N 
ATOM    100  C   UNL A   1      32.894  17.689  23.261  1.00  0.00     0.225 C 
ATOM    101  O   UNL A   1      32.532  17.594  22.084  1.00  0.00    -0.275 OA
BRANCH 100 102
ATOM    102  C   UNL A   1      33.727  16.550  23.750  1.00  0.00     0.079 C 
ATOM    103  C   UNL A   1      34.500  16.449  25.034  1.00  0.00     0.014 C 
ATOM    104  C   UNL A   1      33.273  15.596  24.821  1.00  0.00     0.014 C 
ENDBRANCH 100 102
ENDBRANCH  91  94
ENDBRANCH  80  90
ENDBRANCH  78  80
ENDBRANCH  77  78
ENDBRANCH  76  77
ENDBRANCH  75  76
ENDBRANCH  74  75
ENDBRANCH  73  74
ENDBRANCH   1  73
TORSDOF 23
ENDMDL
