MODEL 1
REMARK VINA RESULT:      -8.2      0.000      0.000
REMARK SMILES O=C(CCCNC(=O)N1CC[C@@H](C(=O)OCCOCCOCCOC(=O)c2ccc(-c3c4nc(c(-c5cccc(S(=O)(=O)[O-])c5F)c5ccc([nH]5)c(-c5cccc(S(=O)(=O)[O-])c5F)c5nc(c(-c6cccc(S(=O)(=O)[O-])c6F)c6ccc3[nH]6)C=C5)C=C4)cc2)C1)NC1CC1
REMARK SMILES IDX 18 1 17 2 16 3 15 4 13 5 14 6 12 7 9 8 10 9 90 10 11 11 7 12
REMARK SMILES IDX 6 13 8 15 5 16 4 17 3 18 2 19 1 20 91 21 92 23 93 24 94 25
REMARK SMILES IDX 19 26 20 27 21 28 22 29 23 30 24 31 25 32 26 33 27 34 28 35
REMARK SMILES IDX 89 36 29 37 88 38 30 39 31 40 32 41 82 42 33 43 87 44 81 45
REMARK SMILES IDX 83 46 34 47 86 48 80 49 79 50 35 52 67 53 47 54 66 55 48 56
REMARK SMILES IDX 51 57 65 58 84 59 49 60 50 61 64 63 85 64 52 65 36 66 37 67
REMARK SMILES IDX 45 68 38 69 40 70 46 71 39 72 41 73 42 74 43 75 44 76 68 77
REMARK SMILES IDX 69 78 77 79 70 80 72 81 78 82 71 83 73 84 74 85 75 86 76 87
REMARK SMILES IDX 53 88 54 89 62 90 55 91 57 92 63 93 56 94 58 95 59 96 60 97
REMARK SMILES IDX 61 98
REMARK H PARENT 6 14 91 22 83 51 51 62
REMARK Flexibility Score: inf
ROOT
ATOM      1  O   UNL A   1      34.890  30.417  28.253  1.00  0.00    -0.376 OA
ENDROOT
BRANCH   1   2
ATOM      2  C   UNL A   1      35.297  29.509  27.250  1.00  0.00     0.202 C 
BRANCH   2   3
ATOM      3  C   UNL A   1      34.290  28.549  26.608  1.00  0.00     0.261 C 
BRANCH   3   4
ATOM      4  O   UNL A   1      33.589  29.055  25.462  1.00  0.00    -0.463 OA
BRANCH   4   5
ATOM      5  C   UNL A   1      32.245  29.232  25.626  1.00  0.00     0.310 C 
ATOM      6  O   UNL A   1      31.704  29.455  26.697  1.00  0.00    -0.252 OA
BRANCH   5   7
ATOM      7  C   UNL A   1      31.521  29.103  24.294  1.00  0.00     0.120 C 
ATOM      8  N   UNL A   1      31.940  27.124  23.062  1.00  0.00    -0.324 N 
ATOM      9  C   UNL A   1      31.037  26.785  24.141  1.00  0.00     0.122 C 
ATOM     10  C   UNL A   1      32.444  28.478  23.236  1.00  0.00     0.136 C 
ATOM     11  C   UNL A   1      30.343  28.117  24.336  1.00  0.00     0.039 C 
BRANCH   8  12
ATOM     12  C   UNL A   1      32.370  26.336  22.045  1.00  0.00     0.317 C 
ATOM     13  N   UNL A   1      33.582  25.740  22.153  1.00  0.00    -0.338 N 
ATOM     14  H   UNL A   1      34.104  25.656  21.323  1.00  0.00     0.165 HD
ATOM     15  O   UNL A   1      31.682  26.089  21.057  1.00  0.00    -0.249 OA
BRANCH  13  16
ATOM     16  C   UNL A   1      34.197  25.211  23.362  1.00  0.00     0.118 C 
BRANCH  16  17
ATOM     17  C   UNL A   1      34.569  23.735  23.223  1.00  0.00     0.031 C 
BRANCH  17  18
ATOM     18  C   UNL A   1      35.314  23.153  24.420  1.00  0.00     0.102 C 
BRANCH  18  19
ATOM     19  C   UNL A   1      34.338  22.558  25.410  1.00  0.00     0.220 C 
ATOM     20  O   UNL A   1      34.715  21.732  26.234  1.00  0.00    -0.275 OA
ATOM     21  N   UNL A   1      33.040  22.988  25.223  1.00  0.00    -0.353 N 
ATOM     22  H   UNL A   1      32.895  23.693  24.551  1.00  0.00     0.163 HD
BRANCH  21  23
ATOM     23  C   UNL A   1      31.884  22.503  25.913  1.00  0.00     0.082 C 
ATOM     24  C   UNL A   1      31.481  22.867  27.311  1.00  0.00     0.027 C 
ATOM     25  C   UNL A   1      30.737  23.450  26.147  1.00  0.00     0.027 C 
ENDBRANCH  21  23
ENDBRANCH  18  19
ENDBRANCH  17  18
ENDBRANCH  16  17
ENDBRANCH  13  16
ENDBRANCH   8  12
ENDBRANCH   5   7
ENDBRANCH   4   5
ENDBRANCH   3   4
ENDBRANCH   2   3
ENDBRANCH   1   2
BRANCH   1  26
ATOM     26  C   UNL A   1      34.551  31.742  27.901  1.00  0.00     0.188 C 
BRANCH  26  27
ATOM     27  C   UNL A   1      35.554  32.905  28.098  1.00  0.00     0.188 C 
BRANCH  27  28
ATOM     28  O   UNL A   1      35.793  33.458  29.377  1.00  0.00    -0.376 OA
BRANCH  28  29
ATOM     29  C   UNL A   1      35.930  32.598  30.494  1.00  0.00     0.202 C 
BRANCH  29  30
ATOM     30  C   UNL A   1      37.335  32.201  30.957  1.00  0.00     0.261 C 
BRANCH  30  31
ATOM     31  O   UNL A   1      37.364  31.494  32.208  1.00  0.00    -0.460 OA
BRANCH  31  32
ATOM     32  C   UNL A   1      37.277  30.150  32.128  1.00  0.00     0.338 C 
ATOM     33  O   UNL A   1      36.335  29.499  31.666  1.00  0.00    -0.246 OA
BRANCH  32  34
ATOM     34  C   UNL A   1      38.547  29.517  32.523  1.00  0.00     0.060 A 
ATOM     35  C   UNL A   1      39.619  30.343  32.892  1.00  0.00     0.016 A 
ATOM     36  C   UNL A   1      38.715  28.133  32.453  1.00  0.00     0.016 A 
ATOM     37  C   UNL A   1      40.875  29.791  33.147  1.00  0.00     0.010 A 
ATOM     38  C   UNL A   1      39.978  27.583  32.698  1.00  0.00     0.010 A 
ATOM     39  C   UNL A   1      41.073  28.410  33.011  1.00  0.00    -0.014 A 
BRANCH  39  40
ATOM     40  C   UNL A   1      42.447  27.845  33.034  1.00  0.00     0.031 A 
ATOM     41  C   UNL A   1      43.140  27.665  34.359  1.00  0.00     0.074 A 
ATOM     42  C   UNL A   1      43.082  27.508  31.896  1.00  0.00     0.049 A 
ATOM     43  N   UNL A   1      44.352  27.246  34.611  1.00  0.00    -0.248 NA
ATOM     44  C   UNL A   1      42.358  28.007  35.558  1.00  0.00     0.031 C 
ATOM     45  C   UNL A   1      42.526  27.622  30.551  1.00  0.00     0.029 A 
ATOM     46  N   UNL A   1      44.355  27.030  31.698  1.00  0.00    -0.354 N 
ATOM     47  C   UNL A   1      44.490  27.296  35.993  1.00  0.00     0.074 A 
ATOM     48  C   UNL A   1      43.241  27.802  36.523  1.00  0.00     0.031 C 
ATOM     49  C   UNL A   1      43.464  27.255  29.660  1.00  0.00     0.029 A 
ATOM     50  C   UNL A   1      44.695  26.909  30.372  1.00  0.00     0.049 A 
ATOM     51  H   UNL A   1      44.965  26.798  32.435  1.00  0.00     0.167 HD
ATOM     52  C   UNL A   1      45.551  26.943  36.758  1.00  0.00     0.034 A 
ATOM     53  C   UNL A   1      45.870  26.582  29.796  1.00  0.00     0.034 A 
ATOM     54  C   UNL A   1      46.795  26.443  36.238  1.00  0.00     0.049 A 
ATOM     55  C   UNL A   1      47.057  26.250  30.664  1.00  0.00     0.074 A 
ATOM     56  C   UNL A   1      47.916  26.027  36.936  1.00  0.00     0.029 A 
ATOM     57  N   UNL A   1      47.091  26.306  34.890  1.00  0.00    -0.354 N 
ATOM     58  N   UNL A   1      47.135  26.190  31.971  1.00  0.00    -0.248 NA
ATOM     59  C   UNL A   1      48.312  25.913  29.974  1.00  0.00     0.031 C 
ATOM     60  C   UNL A   1      48.900  25.667  36.009  1.00  0.00     0.029 A 
ATOM     61  C   UNL A   1      48.381  25.826  34.734  1.00  0.00     0.049 A 
ATOM     62  H   UNL A   1      46.475  26.519  34.154  1.00  0.00     0.167 HD
ATOM     63  C   UNL A   1      48.431  25.771  32.259  1.00  0.00     0.074 A 
ATOM     64  C   UNL A   1      49.097  25.576  30.988  1.00  0.00     0.031 C 
ATOM     65  C   UNL A   1      49.020  25.578  33.466  1.00  0.00     0.034 A 
BRANCH  52  66
ATOM     66  C   UNL A   1      45.400  27.076  38.252  1.00  0.00     0.023 A 
ATOM     67  C   UNL A   1      44.908  25.986  39.002  1.00  0.00     0.012 A 
ATOM     68  C   UNL A   1      45.764  28.262  38.917  1.00  0.00     0.148 A 
ATOM     69  C   UNL A   1      44.740  26.092  40.381  1.00  0.00     0.002 A 
ATOM     70  C   UNL A   1      45.635  28.344  40.299  1.00  0.00     0.091 A 
ATOM     71  F   UNL A   1      46.207  29.296  38.187  1.00  0.00    -0.205 F 
ATOM     72  C   UNL A   1      45.111  27.266  41.031  1.00  0.00     0.022 A 
BRANCH  70  73
ATOM     73  S   UNL A   1      46.156  29.788  41.231  1.00  0.00     0.127 S 
ATOM     74  O   UNL A   1      47.560  29.902  40.841  1.00  0.00    -0.237 OA
ATOM     75  O   UNL A   1      45.287  30.836  40.691  1.00  0.00    -0.237 OA
ATOM     76  O   UNL A   1      45.917  29.467  42.632  1.00  0.00    -0.744 OA
ENDBRANCH  70  73
ENDBRANCH  52  66
BRANCH  53  77
ATOM     77  C   UNL A   1      45.979  26.517  28.311  1.00  0.00     0.023 A 
ATOM     78  C   UNL A   1      46.324  27.680  27.594  1.00  0.00     0.012 A 
ATOM     79  C   UNL A   1      45.752  25.317  27.609  1.00  0.00     0.148 A 
ATOM     80  C   UNL A   1      46.417  27.654  26.203  1.00  0.00     0.002 A 
ATOM     81  C   UNL A   1      45.895  25.287  26.227  1.00  0.00     0.091 A 
ATOM     82  F   UNL A   1      45.409  24.228  28.312  1.00  0.00    -0.205 F 
ATOM     83  C   UNL A   1      46.213  26.457  25.521  1.00  0.00     0.022 A 
BRANCH  81  84
ATOM     84  S   UNL A   1      45.756  23.772  25.272  1.00  0.00     0.127 S 
ATOM     85  O   UNL A   1      44.311  23.557  25.264  1.00  0.00    -0.237 OA
ATOM     86  O   UNL A   1      46.326  24.176  23.987  1.00  0.00    -0.237 OA
ATOM     87  O   UNL A   1      46.535  22.777  25.995  1.00  0.00    -0.744 OA
ENDBRANCH  81  84
ENDBRANCH  53  77
BRANCH  65  88
ATOM     88  C   UNL A   1      50.444  25.080  33.487  1.00  0.00     0.023 A 
ATOM     89  C   UNL A   1      51.507  25.987  33.669  1.00  0.00     0.012 A 
ATOM     90  C   UNL A   1      50.721  23.700  33.404  1.00  0.00     0.148 A 
ATOM     91  C   UNL A   1      52.825  25.532  33.736  1.00  0.00     0.002 A 
ATOM     92  C   UNL A   1      52.033  23.250  33.522  1.00  0.00     0.091 A 
ATOM     93  F   UNL A   1      49.700  22.853  33.212  1.00  0.00    -0.205 F 
ATOM     94  C   UNL A   1      53.086  24.165  33.674  1.00  0.00     0.022 A 
BRANCH  92  95
ATOM     95  S   UNL A   1      52.453  21.504  33.552  1.00  0.00     0.127 S 
ATOM     96  O   UNL A   1      52.070  21.081  32.206  1.00  0.00    -0.237 OA
ATOM     97  O   UNL A   1      53.896  21.536  33.794  1.00  0.00    -0.237 OA
ATOM     98  O   UNL A   1      51.673  20.923  34.637  1.00  0.00    -0.744 OA
ENDBRANCH  92  95
ENDBRANCH  65  88
ENDBRANCH  39  40
ENDBRANCH  32  34
ENDBRANCH  31  32
ENDBRANCH  30  31
ENDBRANCH  29  30
ENDBRANCH  28  29
ENDBRANCH  27  28
ENDBRANCH  26  27
ENDBRANCH   1  26
TORSDOF 26
ENDMDL
MODEL 2
REMARK VINA RESULT:      -8.1      5.545     12.550
REMARK SMILES O=C(CCCNC(=O)N1CC[C@@H](C(=O)OCCOCCOCCOC(=O)c2ccc(-c3c4nc(c(-c5cccc(S(=O)(=O)[O-])c5F)c5ccc([nH]5)c(-c5cccc(S(=O)(=O)[O-])c5F)c5nc(c(-c6cccc(S(=O)(=O)[O-])c6F)c6ccc3[nH]6)C=C5)C=C4)cc2)C1)NC1CC1
REMARK SMILES IDX 18 1 17 2 16 3 15 4 13 5 14 6 12 7 9 8 10 9 90 10 11 11 7 12
REMARK SMILES IDX 6 13 8 15 5 16 4 17 3 18 2 19 1 20 91 21 92 23 93 24 94 25
REMARK SMILES IDX 19 26 20 27 21 28 22 29 23 30 24 31 25 32 26 33 27 34 28 35
REMARK SMILES IDX 89 36 29 37 88 38 30 39 31 40 32 41 82 42 33 43 87 44 81 45
REMARK SMILES IDX 83 46 34 47 86 48 80 49 79 50 35 52 67 53 47 54 66 55 48 56
REMARK SMILES IDX 51 57 65 58 84 59 49 60 50 61 64 63 85 64 52 65 36 66 37 67
REMARK SMILES IDX 45 68 38 69 40 70 46 71 39 72 41 73 42 74 43 75 44 76 68 77
REMARK SMILES IDX 69 78 77 79 70 80 72 81 78 82 71 83 73 84 74 85 75 86 76 87
REMARK SMILES IDX 53 88 54 89 62 90 55 91 57 92 63 93 56 94 58 95 59 96 60 97
REMARK SMILES IDX 61 98
REMARK H PARENT 6 14 91 22 83 51 51 62
REMARK Flexibility Score: inf
ROOT
ATOM      1  O   UNL A   1      44.817  25.033  25.525  1.00  0.00    -0.376 OA
ENDROOT
BRANCH   1   2
ATOM      2  C   UNL A   1      45.724  26.116  25.517  1.00  0.00     0.202 C 
BRANCH   2   3
ATOM      3  C   UNL A   1      45.874  27.021  26.744  1.00  0.00     0.261 C 
BRANCH   3   4
ATOM      4  O   UNL A   1      45.829  28.433  26.487  1.00  0.00    -0.463 OA
BRANCH   4   5
ATOM      5  C   UNL A   1      44.641  29.045  26.768  1.00  0.00     0.310 C 
ATOM      6  O   UNL A   1      43.563  28.704  26.307  1.00  0.00    -0.252 OA
BRANCH   5   7
ATOM      7  C   UNL A   1      44.851  30.211  27.722  1.00  0.00     0.120 C 
ATOM      8  N   UNL A   1      45.741  32.191  26.775  1.00  0.00    -0.324 N 
ATOM      9  C   UNL A   1      44.346  32.115  26.401  1.00  0.00     0.122 C 
ATOM     10  C   UNL A   1      46.162  30.945  27.398  1.00  0.00     0.136 C 
ATOM     11  C   UNL A   1      43.799  31.319  27.567  1.00  0.00     0.039 C 
BRANCH   8  12
ATOM     12  C   UNL A   1      46.620  33.199  26.550  1.00  0.00     0.317 C 
ATOM     13  N   UNL A   1      46.341  34.427  27.052  1.00  0.00    -0.338 N 
ATOM     14  H   UNL A   1      46.609  35.196  26.499  1.00  0.00     0.165 HD
ATOM     15  O   UNL A   1      47.689  33.035  25.966  1.00  0.00    -0.249 OA
BRANCH  13  16
ATOM     16  C   UNL A   1      45.689  34.732  28.318  1.00  0.00     0.118 C 
BRANCH  16  17
ATOM     17  C   UNL A   1      45.064  36.127  28.323  1.00  0.00     0.031 C 
BRANCH  17  18
ATOM     18  C   UNL A   1      44.061  36.368  29.447  1.00  0.00     0.102 C 
BRANCH  18  19
ATOM     19  C   UNL A   1      42.805  37.014  28.905  1.00  0.00     0.220 C 
ATOM     20  O   UNL A   1      41.780  36.357  28.763  1.00  0.00    -0.275 OA
ATOM     21  N   UNL A   1      42.983  38.336  28.547  1.00  0.00    -0.353 N 
ATOM     22  H   UNL A   1      43.851  38.745  28.766  1.00  0.00     0.163 HD
BRANCH  21  23
ATOM     23  C   UNL A   1      42.022  39.165  27.887  1.00  0.00     0.082 C 
ATOM     24  C   UNL A   1      42.199  40.617  27.556  1.00  0.00     0.027 C 
ATOM     25  C   UNL A   1      42.295  39.589  26.468  1.00  0.00     0.027 C 
ENDBRANCH  21  23
ENDBRANCH  18  19
ENDBRANCH  17  18
ENDBRANCH  16  17
ENDBRANCH  13  16
ENDBRANCH   8  12
ENDBRANCH   5   7
ENDBRANCH   4   5
ENDBRANCH   3   4
ENDBRANCH   2   3
ENDBRANCH   1   2
BRANCH   1  26
ATOM     26  C   UNL A   1      44.499  24.396  26.744  1.00  0.00     0.188 C 
BRANCH  26  27
ATOM     27  C   UNL A   1      44.646  22.864  26.911  1.00  0.00     0.188 C 
BRANCH  27  28
ATOM     28  O   UNL A   1      43.879  21.965  26.135  1.00  0.00    -0.376 OA
BRANCH  28  29
ATOM     29  C   UNL A   1      42.803  21.267  26.737  1.00  0.00     0.202 C 
BRANCH  29  30
ATOM     30  C   UNL A   1      41.404  21.390  26.125  1.00  0.00     0.261 C 
BRANCH  30  31
ATOM     31  O   UNL A   1      40.996  22.741  25.856  1.00  0.00    -0.460 OA
BRANCH  31  32
ATOM     32  C   UNL A   1      39.789  23.100  26.343  1.00  0.00     0.338 C 
ATOM     33  O   UNL A   1      38.780  22.393  26.408  1.00  0.00    -0.246 OA
BRANCH  32  34
ATOM     34  C   UNL A   1      39.850  24.435  26.962  1.00  0.00     0.060 A 
ATOM     35  C   UNL A   1      40.476  25.473  26.255  1.00  0.00     0.016 A 
ATOM     36  C   UNL A   1      39.376  24.652  28.257  1.00  0.00     0.016 A 
ATOM     37  C   UNL A   1      40.670  26.716  26.858  1.00  0.00     0.010 A 
ATOM     38  C   UNL A   1      39.583  25.896  28.864  1.00  0.00     0.010 A 
ATOM     39  C   UNL A   1      40.261  26.923  28.183  1.00  0.00    -0.014 A 
BRANCH  39  40
ATOM     40  C   UNL A   1      40.682  28.146  28.913  1.00  0.00     0.031 A 
ATOM     41  C   UNL A   1      42.040  28.176  29.565  1.00  0.00     0.074 A 
ATOM     42  C   UNL A   1      39.869  29.214  29.014  1.00  0.00     0.049 A 
ATOM     43  N   UNL A   1      42.589  29.111  30.296  1.00  0.00    -0.248 NA
ATOM     44  C   UNL A   1      42.888  26.991  29.364  1.00  0.00     0.031 C 
ATOM     45  C   UNL A   1      38.537  29.321  28.425  1.00  0.00     0.029 A 
ATOM     46  N   UNL A   1      40.042  30.403  29.681  1.00  0.00    -0.354 N 
ATOM     47  C   UNL A   1      43.836  28.619  30.665  1.00  0.00     0.074 A 
ATOM     48  C   UNL A   1      43.955  27.297  30.088  1.00  0.00     0.031 C 
ATOM     49  C   UNL A   1      37.997  30.500  28.784  1.00  0.00     0.029 A 
ATOM     50  C   UNL A   1      38.934  31.215  29.650  1.00  0.00     0.049 A 
ATOM     51  H   UNL A   1      40.879  30.648  30.138  1.00  0.00     0.167 HD
ATOM     52  C   UNL A   1      44.803  29.214  31.404  1.00  0.00     0.034 A 
ATOM     53  C   UNL A   1      38.691  32.388  30.271  1.00  0.00     0.034 A 
ATOM     54  C   UNL A   1      44.690  30.526  31.981  1.00  0.00     0.049 A 
ATOM     55  C   UNL A   1      39.759  33.005  31.139  1.00  0.00     0.074 A 
ATOM     56  C   UNL A   1      45.630  31.227  32.718  1.00  0.00     0.029 A 
ATOM     57  N   UNL A   1      43.563  31.331  31.904  1.00  0.00    -0.354 N 
ATOM     58  N   UNL A   1      40.976  32.581  31.380  1.00  0.00    -0.248 NA
ATOM     59  C   UNL A   1      39.427  34.279  31.795  1.00  0.00     0.031 C 
ATOM     60  C   UNL A   1      45.059  32.443  33.111  1.00  0.00     0.029 A 
ATOM     61  C   UNL A   1      43.777  32.514  32.591  1.00  0.00     0.049 A 
ATOM     62  H   UNL A   1      42.734  31.094  31.431  1.00  0.00     0.167 HD
ATOM     63  C   UNL A   1      41.566  33.554  32.183  1.00  0.00     0.074 A 
ATOM     64  C   UNL A   1      40.579  34.595  32.371  1.00  0.00     0.031 C 
ATOM     65  C   UNL A   1      42.810  33.575  32.725  1.00  0.00     0.034 A 
BRANCH  52  66
ATOM     66  C   UNL A   1      46.081  28.444  31.616  1.00  0.00     0.023 A 
ATOM     67  C   UNL A   1      46.218  27.622  32.754  1.00  0.00     0.012 A 
ATOM     68  C   UNL A   1      47.134  28.514  30.684  1.00  0.00     0.148 A 
ATOM     69  C   UNL A   1      47.399  26.917  32.982  1.00  0.00     0.002 A 
ATOM     70  C   UNL A   1      48.291  27.772  30.896  1.00  0.00     0.091 A 
ATOM     71  F   UNL A   1      46.996  29.318  29.620  1.00  0.00    -0.205 F 
ATOM     72  C   UNL A   1      48.431  26.984  32.051  1.00  0.00     0.022 A 
BRANCH  70  73
ATOM     73  S   UNL A   1      49.644  27.738  29.715  1.00  0.00     0.127 S 
ATOM     74  O   UNL A   1      50.416  26.589  30.184  1.00  0.00    -0.237 OA
ATOM     75  O   UNL A   1      48.943  27.525  28.447  1.00  0.00    -0.237 OA
ATOM     76  O   UNL A   1      50.307  29.030  29.830  1.00  0.00    -0.744 OA
ENDBRANCH  70  73
ENDBRANCH  52  66
BRANCH  53  77
ATOM     77  C   UNL A   1      37.388  33.082  30.069  1.00  0.00     0.023 A 
ATOM     78  C   UNL A   1      37.033  33.515  28.776  1.00  0.00     0.012 A 
ATOM     79  C   UNL A   1      36.502  33.309  31.140  1.00  0.00     0.148 A 
ATOM     80  C   UNL A   1      35.827  34.183  28.559  1.00  0.00     0.002 A 
ATOM     81  C   UNL A   1      35.282  33.931  30.906  1.00  0.00     0.091 A 
ATOM     82  F   UNL A   1      36.870  32.903  32.363  1.00  0.00    -0.205 F 
ATOM     83  C   UNL A   1      34.948  34.382  29.620  1.00  0.00     0.022 A 
BRANCH  81  84
ATOM     84  S   UNL A   1      34.040  34.137  32.188  1.00  0.00     0.127 S 
ATOM     85  O   UNL A   1      33.701  32.750  32.500  1.00  0.00    -0.237 OA
ATOM     86  O   UNL A   1      34.796  34.835  33.228  1.00  0.00    -0.237 OA
ATOM     87  O   UNL A   1      32.974  34.923  31.583  1.00  0.00    -0.744 OA
ENDBRANCH  81  84
ENDBRANCH  53  77
BRANCH  65  88
ATOM     88  C   UNL A   1      43.208  34.784  33.536  1.00  0.00     0.023 A 
ATOM     89  C   UNL A   1      43.777  35.905  32.900  1.00  0.00     0.012 A 
ATOM     90  C   UNL A   1      42.945  34.836  34.920  1.00  0.00     0.148 A 
ATOM     91  C   UNL A   1      44.106  37.046  33.633  1.00  0.00     0.002 A 
ATOM     92  C   UNL A   1      43.230  35.995  35.635  1.00  0.00     0.091 A 
ATOM     93  F   UNL A   1      42.421  33.753  35.513  1.00  0.00    -0.205 F 
ATOM     94  C   UNL A   1      43.822  37.095  34.996  1.00  0.00     0.022 A 
BRANCH  92  95
ATOM     95  S   UNL A   1      42.808  36.184  37.371  1.00  0.00     0.127 S 
ATOM     96  O   UNL A   1      41.355  36.030  37.344  1.00  0.00    -0.237 OA
ATOM     97  O   UNL A   1      43.529  35.069  37.989  1.00  0.00    -0.237 OA
ATOM     98  O   UNL A   1      43.290  37.503  37.760  1.00  0.00    -0.744 OA
ENDBRANCH  92  95
ENDBRANCH  65  88
ENDBRANCH  39  40
ENDBRANCH  32  34
ENDBRANCH  31  32
ENDBRANCH  30  31
ENDBRANCH  29  30
ENDBRANCH  28  29
ENDBRANCH  27  28
ENDBRANCH  26  27
ENDBRANCH   1  26
TORSDOF 26
ENDMDL
MODEL 3
REMARK VINA RESULT:      -8.0      1.718      7.779
REMARK SMILES O=C(CCCNC(=O)N1CC[C@@H](C(=O)OCCOCCOCCOC(=O)c2ccc(-c3c4nc(c(-c5cccc(S(=O)(=O)[O-])c5F)c5ccc([nH]5)c(-c5cccc(S(=O)(=O)[O-])c5F)c5nc(c(-c6cccc(S(=O)(=O)[O-])c6F)c6ccc3[nH]6)C=C5)C=C4)cc2)C1)NC1CC1
REMARK SMILES IDX 18 1 17 2 16 3 15 4 13 5 14 6 12 7 9 8 10 9 90 10 11 11 7 12
REMARK SMILES IDX 6 13 8 15 5 16 4 17 3 18 2 19 1 20 91 21 92 23 93 24 94 25
REMARK SMILES IDX 19 26 20 27 21 28 22 29 23 30 24 31 25 32 26 33 27 34 28 35
REMARK SMILES IDX 89 36 29 37 88 38 30 39 31 40 32 41 82 42 33 43 87 44 81 45
REMARK SMILES IDX 83 46 34 47 86 48 80 49 79 50 35 52 67 53 47 54 66 55 48 56
REMARK SMILES IDX 51 57 65 58 84 59 49 60 50 61 64 63 85 64 52 65 36 66 37 67
REMARK SMILES IDX 45 68 38 69 40 70 46 71 39 72 41 73 42 74 43 75 44 76 68 77
REMARK SMILES IDX 69 78 77 79 70 80 72 81 78 82 71 83 73 84 74 85 75 86 76 87
REMARK SMILES IDX 53 88 54 89 62 90 55 91 57 92 63 93 56 94 58 95 59 96 60 97
REMARK SMILES IDX 61 98
REMARK H PARENT 6 14 91 22 83 51 51 62
REMARK Flexibility Score: inf
ROOT
ATOM      1  O   UNL A   1      33.336  30.287  27.399  1.00  0.00    -0.376 OA
ENDROOT
BRANCH   1   2
ATOM      2  C   UNL A   1      33.681  28.918  27.370  1.00  0.00     0.202 C 
BRANCH   2   3
ATOM      3  C   UNL A   1      33.336  28.049  26.156  1.00  0.00     0.261 C 
BRANCH   3   4
ATOM      4  O   UNL A   1      33.348  28.717  24.886  1.00  0.00    -0.463 OA
BRANCH   4   5
ATOM      5  C   UNL A   1      32.121  29.020  24.368  1.00  0.00     0.310 C 
ATOM      6  O   UNL A   1      31.182  29.444  25.023  1.00  0.00    -0.252 OA
BRANCH   5   7
ATOM      7  C   UNL A   1      32.087  28.746  22.872  1.00  0.00     0.120 C 
ATOM      8  N   UNL A   1      32.468  26.504  22.210  1.00  0.00    -0.324 N 
ATOM      9  C   UNL A   1      31.116  26.587  22.719  1.00  0.00     0.122 C 
ATOM     10  C   UNL A   1      33.183  27.742  22.482  1.00  0.00     0.136 C 
ATOM     11  C   UNL A   1      30.804  28.037  22.414  1.00  0.00     0.039 C 
BRANCH   8  12
ATOM     12  C   UNL A   1      33.084  25.448  21.624  1.00  0.00     0.317 C 
ATOM     13  N   UNL A   1      33.671  24.518  22.416  1.00  0.00    -0.338 N 
ATOM     14  H   UNL A   1      34.503  24.116  22.077  1.00  0.00     0.165 HD
ATOM     15  O   UNL A   1      33.081  25.264  20.408  1.00  0.00    -0.249 OA
BRANCH  13  16
ATOM     16  C   UNL A   1      33.204  24.046  23.712  1.00  0.00     0.118 C 
BRANCH  16  17
ATOM     17  C   UNL A   1      33.504  22.563  23.929  1.00  0.00     0.031 C 
BRANCH  17  18
ATOM     18  C   UNL A   1      34.896  22.273  24.482  1.00  0.00     0.102 C 
BRANCH  18  19
ATOM     19  C   UNL A   1      35.048  20.797  24.779  1.00  0.00     0.220 C 
ATOM     20  O   UNL A   1      36.149  20.327  25.044  1.00  0.00    -0.275 OA
ATOM     21  N   UNL A   1      33.870  20.090  24.647  1.00  0.00    -0.353 N 
ATOM     22  H   UNL A   1      33.052  20.611  24.477  1.00  0.00     0.163 HD
BRANCH  21  23
ATOM     23  C   UNL A   1      33.727  18.668  24.733  1.00  0.00     0.082 C 
ATOM     24  C   UNL A   1      32.429  17.920  24.779  1.00  0.00     0.027 C 
ATOM     25  C   UNL A   1      33.242  17.921  23.519  1.00  0.00     0.027 C 
ENDBRANCH  21  23
ENDBRANCH  18  19
ENDBRANCH  17  18
ENDBRANCH  16  17
ENDBRANCH  13  16
ENDBRANCH   8  12
ENDBRANCH   5   7
ENDBRANCH   4   5
ENDBRANCH   3   4
ENDBRANCH   2   3
ENDBRANCH   1   2
BRANCH   1  26
ATOM     26  C   UNL A   1      34.341  31.258  27.597  1.00  0.00     0.188 C 
BRANCH  26  27
ATOM     27  C   UNL A   1      34.094  32.498  28.492  1.00  0.00     0.188 C 
BRANCH  27  28
ATOM     28  O   UNL A   1      34.932  32.785  29.594  1.00  0.00    -0.376 OA
BRANCH  28  29
ATOM     29  C   UNL A   1      36.235  32.232  29.641  1.00  0.00     0.202 C 
BRANCH  29  30
ATOM     30  C   UNL A   1      37.020  32.293  30.955  1.00  0.00     0.261 C 
BRANCH  30  31
ATOM     31  O   UNL A   1      36.617  31.315  31.928  1.00  0.00    -0.460 OA
BRANCH  31  32
ATOM     32  C   UNL A   1      36.826  30.025  31.588  1.00  0.00     0.338 C 
ATOM     33  O   UNL A   1      36.127  29.338  30.837  1.00  0.00    -0.246 OA
BRANCH  32  34
ATOM     34  C   UNL A   1      38.120  29.550  32.106  1.00  0.00     0.060 A 
ATOM     35  C   UNL A   1      39.131  30.492  32.346  1.00  0.00     0.016 A 
ATOM     36  C   UNL A   1      38.372  28.187  32.275  1.00  0.00     0.016 A 
ATOM     37  C   UNL A   1      40.410  30.071  32.712  1.00  0.00     0.010 A 
ATOM     38  C   UNL A   1      39.659  27.767  32.631  1.00  0.00     0.010 A 
ATOM     39  C   UNL A   1      40.694  28.702  32.816  1.00  0.00    -0.014 A 
BRANCH  39  40
ATOM     40  C   UNL A   1      42.098  28.237  32.957  1.00  0.00     0.031 A 
ATOM     41  C   UNL A   1      42.858  27.827  31.723  1.00  0.00     0.074 A 
ATOM     42  C   UNL A   1      42.690  28.162  34.163  1.00  0.00     0.049 A 
ATOM     43  N   UNL A   1      44.067  27.341  31.617  1.00  0.00    -0.248 NA
ATOM     44  C   UNL A   1      42.157  27.988  30.439  1.00  0.00     0.031 C 
ATOM     45  C   UNL A   1      42.074  28.535  35.433  1.00  0.00     0.029 A 
ATOM     46  N   UNL A   1      43.942  27.714  34.512  1.00  0.00    -0.354 N 
ATOM     47  C   UNL A   1      44.265  27.113  30.260  1.00  0.00     0.074 A 
ATOM     48  C   UNL A   1      43.045  27.502  29.585  1.00  0.00     0.031 C 
ATOM     49  C   UNL A   1      42.938  28.269  36.430  1.00  0.00     0.029 A 
ATOM     50  C   UNL A   1      44.154  27.681  35.869  1.00  0.00     0.049 A 
ATOM     51  H   UNL A   1      44.620  27.440  33.852  1.00  0.00     0.167 HD
ATOM     52  C   UNL A   1      45.364  26.636  29.626  1.00  0.00     0.034 A 
ATOM     53  C   UNL A   1      45.198  27.208  36.580  1.00  0.00     0.034 A 
ATOM     54  C   UNL A   1      46.578  26.247  30.291  1.00  0.00     0.049 A 
ATOM     55  C   UNL A   1      46.388  26.626  35.858  1.00  0.00     0.074 A 
ATOM     56  C   UNL A   1      47.756  25.784  29.731  1.00  0.00     0.029 A 
ATOM     57  N   UNL A   1      46.766  26.256  31.665  1.00  0.00    -0.354 N 
ATOM     58  N   UNL A   1      46.605  26.527  34.569  1.00  0.00    -0.248 NA
ATOM     59  C   UNL A   1      47.488  26.118  36.692  1.00  0.00     0.031 C 
ATOM     60  C   UNL A   1      48.646  25.485  30.769  1.00  0.00     0.029 A 
ATOM     61  C   UNL A   1      48.034  25.794  31.974  1.00  0.00     0.049 A 
ATOM     62  H   UNL A   1      46.096  26.547  32.323  1.00  0.00     0.167 HD
ATOM     63  C   UNL A   1      47.880  25.982  34.438  1.00  0.00     0.074 A 
ATOM     64  C   UNL A   1      48.391  25.790  35.779  1.00  0.00     0.031 C 
ATOM     65  C   UNL A   1      48.560  25.659  33.309  1.00  0.00     0.034 A 
BRANCH  52  66
ATOM     66  C   UNL A   1      45.301  26.526  28.124  1.00  0.00     0.023 A 
ATOM     67  C   UNL A   1      45.643  27.640  27.329  1.00  0.00     0.012 A 
ATOM     68  C   UNL A   1      44.929  25.320  27.499  1.00  0.00     0.148 A 
ATOM     69  C   UNL A   1      45.572  27.568  25.939  1.00  0.00     0.002 A 
ATOM     70  C   UNL A   1      44.905  25.243  26.111  1.00  0.00     0.091 A 
ATOM     71  F   UNL A   1      44.586  24.278  28.270  1.00  0.00    -0.205 F 
ATOM     72  C   UNL A   1      45.213  26.370  25.330  1.00  0.00     0.022 A 
BRANCH  70  73
ATOM     73  S   UNL A   1      44.526  23.721  25.237  1.00  0.00     0.127 S 
ATOM     74  O   UNL A   1      43.080  23.837  25.056  1.00  0.00    -0.237 OA
ATOM     75  O   UNL A   1      45.307  23.867  24.007  1.00  0.00    -0.237 OA
ATOM     76  O   UNL A   1      44.965  22.640  26.108  1.00  0.00    -0.744 OA
ENDBRANCH  70  73
ENDBRANCH  52  66
BRANCH  53  77
ATOM     77  C   UNL A   1      45.186  27.294  38.068  1.00  0.00     0.023 A 
ATOM     78  C   UNL A   1      44.677  26.214  38.816  1.00  0.00     0.012 A 
ATOM     79  C   UNL A   1      45.678  28.428  38.742  1.00  0.00     0.148 A 
ATOM     80  C   UNL A   1      44.637  26.273  40.209  1.00  0.00     0.002 A 
ATOM     81  C   UNL A   1      45.681  28.459  40.131  1.00  0.00     0.091 A 
ATOM     82  F   UNL A   1      46.142  29.449  38.008  1.00  0.00    -0.205 F 
ATOM     83  C   UNL A   1      45.147  27.388  40.867  1.00  0.00     0.022 A 
BRANCH  81  84
ATOM     84  S   UNL A   1      46.412  29.806  41.069  1.00  0.00     0.127 S 
ATOM     85  O   UNL A   1      47.780  29.817  40.557  1.00  0.00    -0.237 OA
ATOM     86  O   UNL A   1      45.589  30.941  40.652  1.00  0.00    -0.237 OA
ATOM     87  O   UNL A   1      46.268  29.436  42.469  1.00  0.00    -0.744 OA
ENDBRANCH  81  84
ENDBRANCH  53  77
BRANCH  65  88
ATOM     88  C   UNL A   1      49.958  25.111  33.457  1.00  0.00     0.023 A 
ATOM     89  C   UNL A   1      50.174  23.719  33.461  1.00  0.00     0.012 A 
ATOM     90  C   UNL A   1      51.066  25.981  33.516  1.00  0.00     0.148 A 
ATOM     91  C   UNL A   1      51.467  23.201  33.551  1.00  0.00     0.002 A 
ATOM     92  C   UNL A   1      52.355  25.458  33.555  1.00  0.00     0.091 A 
ATOM     93  F   UNL A   1      50.841  27.303  33.530  1.00  0.00    -0.205 F 
ATOM     94  C   UNL A   1      52.556  24.070  33.587  1.00  0.00     0.022 A 
BRANCH  92  95
ATOM     95  S   UNL A   1      53.819  26.498  33.503  1.00  0.00     0.127 S 
ATOM     96  O   UNL A   1      54.891  25.506  33.549  1.00  0.00    -0.237 OA
ATOM     97  O   UNL A   1      53.671  27.178  32.215  1.00  0.00    -0.237 OA
ATOM     98  O   UNL A   1      53.728  27.376  34.662  1.00  0.00    -0.744 OA
ENDBRANCH  92  95
ENDBRANCH  65  88
ENDBRANCH  39  40
ENDBRANCH  32  34
ENDBRANCH  31  32
ENDBRANCH  30  31
ENDBRANCH  29  30
ENDBRANCH  28  29
ENDBRANCH  27  28
ENDBRANCH  26  27
ENDBRANCH   1  26
TORSDOF 26
ENDMDL
