MODEL 1
REMARK VINA RESULT:      -9.7      0.000      0.000
REMARK SMILES O=C(OCCOCCOCCOC(=O)C1([NH+]2CCOCC2)CCC1)c1ccc(-c2c3nc(c(-c4cccc(S(=O)(=O)[O-])c4F)c4ccc([nH]4)c(-c4cccc(S(=O)(=O)[O-])c4F)c4nc(c(-c5cccc(S(=O)(=O)[O-])c5F)c5ccc2[nH]5)C=C4)C=C3)cc1
REMARK SMILES IDX 7 1 6 2 5 3 4 4 3 5 2 6 1 7 25 8 26 9 87 10 27 11 86 12
REMARK SMILES IDX 28 13 29 14 30 15 80 16 31 17 85 18 79 19 81 20 32 21 84 22
REMARK SMILES IDX 78 23 77 24 33 26 65 27 45 28 64 29 46 30 49 31 63 32 82 33
REMARK SMILES IDX 47 34 48 35 62 37 83 38 50 39 34 40 35 41 43 42 36 43 38 44
REMARK SMILES IDX 44 45 37 46 39 47 40 48 41 49 42 50 66 51 67 52 75 53 68 54
REMARK SMILES IDX 70 55 76 56 69 57 71 58 72 59 73 60 74 61 51 62 52 63 60 64
REMARK SMILES IDX 53 65 55 66 61 67 54 68 56 69 57 70 58 71 59 72 8 73 9 74
REMARK SMILES IDX 10 75 11 76 12 77 13 78 14 79 15 80 22 81 24 82 23 83 16 84
REMARK SMILES IDX 17 85 21 86 18 88 20 89 19 90
REMARK H PARENT 81 25 49 36 16 87
REMARK Flexibility Score: inf
ROOT
ATOM      1  C   UNL A   1      36.623  22.228  24.172  1.00  0.00     0.188 C 
ENDROOT
BRANCH   1   2
ATOM      2  O   UNL A   1      37.766  21.619  24.782  1.00  0.00    -0.376 OA
BRANCH   2   3
ATOM      3  C   UNL A   1      37.619  20.216  25.018  1.00  0.00     0.202 C 
BRANCH   3   4
ATOM      4  C   UNL A   1      38.925  19.399  25.055  1.00  0.00     0.261 C 
BRANCH   4   5
ATOM      5  O   UNL A   1      39.696  19.571  26.259  1.00  0.00    -0.460 OA
BRANCH   5   6
ATOM      6  C   UNL A   1      40.951  20.070  26.413  1.00  0.00     0.338 C 
ATOM      7  O   UNL A   1      41.900  19.311  26.223  1.00  0.00    -0.246 OA
BRANCH   6   8
ATOM      8  C   UNL A   1      41.246  21.482  26.821  1.00  0.00     0.060 A 
ATOM      9  C   UNL A   1      41.109  22.586  25.987  1.00  0.00     0.016 A 
ATOM     10  C   UNL A   1      41.663  21.721  28.144  1.00  0.00     0.016 A 
ATOM     11  C   UNL A   1      41.459  23.860  26.384  1.00  0.00     0.010 A 
ATOM     12  C   UNL A   1      41.958  23.021  28.582  1.00  0.00     0.010 A 
ATOM     13  C   UNL A   1      41.882  24.093  27.683  1.00  0.00    -0.014 A 
BRANCH  13  14
ATOM     14  C   UNL A   1      42.354  25.456  27.980  1.00  0.00     0.031 A 
ATOM     15  C   UNL A   1      43.748  25.815  27.591  1.00  0.00     0.074 A 
ATOM     16  C   UNL A   1      41.489  26.403  28.391  1.00  0.00     0.049 A 
ATOM     17  N   UNL A   1      44.340  26.973  27.670  1.00  0.00    -0.248 NA
ATOM     18  C   UNL A   1      44.554  24.762  26.946  1.00  0.00     0.031 C 
ATOM     19  C   UNL A   1      40.049  26.214  28.545  1.00  0.00     0.029 A 
ATOM     20  N   UNL A   1      41.676  27.705  28.762  1.00  0.00    -0.354 N 
ATOM     21  C   UNL A   1      45.571  26.801  27.059  1.00  0.00     0.074 A 
ATOM     22  C   UNL A   1      45.665  25.418  26.649  1.00  0.00     0.031 C 
ATOM     23  C   UNL A   1      39.509  27.287  29.139  1.00  0.00     0.029 A 
ATOM     24  C   UNL A   1      40.560  28.262  29.347  1.00  0.00     0.049 A 
ATOM     25  H   UNL A   1      42.519  28.193  28.627  1.00  0.00     0.167 HD
ATOM     26  C   UNL A   1      46.518  27.735  26.832  1.00  0.00     0.034 A 
ATOM     27  C   UNL A   1      40.410  29.430  29.992  1.00  0.00     0.034 A 
ATOM     28  C   UNL A   1      46.403  29.093  27.280  1.00  0.00     0.049 A 
ATOM     29  C   UNL A   1      41.560  30.385  29.924  1.00  0.00     0.074 A 
ATOM     30  C   UNL A   1      47.326  30.115  27.180  1.00  0.00     0.029 A 
ATOM     31  N   UNL A   1      45.295  29.611  27.941  1.00  0.00    -0.354 N 
ATOM     32  N   UNL A   1      42.715  30.223  29.325  1.00  0.00    -0.248 NA
ATOM     33  C   UNL A   1      41.365  31.704  30.531  1.00  0.00     0.031 C 
ATOM     34  C   UNL A   1      46.794  31.239  27.820  1.00  0.00     0.029 A 
ATOM     35  C   UNL A   1      45.521  30.933  28.279  1.00  0.00     0.049 A 
ATOM     36  H   UNL A   1      44.472  29.111  28.140  1.00  0.00     0.167 HD
ATOM     37  C   UNL A   1      43.366  31.439  29.427  1.00  0.00     0.074 A 
ATOM     38  C   UNL A   1      42.468  32.329  30.141  1.00  0.00     0.031 C 
ATOM     39  C   UNL A   1      44.592  31.791  28.971  1.00  0.00     0.034 A 
BRANCH  26  40
ATOM     40  C   UNL A   1      47.750  27.289  26.101  1.00  0.00     0.023 A 
ATOM     41  C   UNL A   1      48.819  26.700  26.810  1.00  0.00     0.012 A 
ATOM     42  C   UNL A   1      47.854  27.472  24.712  1.00  0.00     0.148 A 
ATOM     43  C   UNL A   1      49.986  26.326  26.145  1.00  0.00     0.002 A 
ATOM     44  C   UNL A   1      49.003  27.060  24.051  1.00  0.00     0.091 A 
ATOM     45  F   UNL A   1      46.838  28.066  24.071  1.00  0.00    -0.205 F 
ATOM     46  C   UNL A   1      50.074  26.499  24.766  1.00  0.00     0.022 A 
BRANCH  44  47
ATOM     47  S   UNL A   1      49.197  27.192  22.273  1.00  0.00     0.127 S 
ATOM     48  O   UNL A   1      50.649  27.119  22.126  1.00  0.00    -0.237 OA
ATOM     49  O   UNL A   1      48.472  26.016  21.801  1.00  0.00    -0.237 OA
ATOM     50  O   UNL A   1      48.604  28.473  21.895  1.00  0.00    -0.744 OA
ENDBRANCH  44  47
ENDBRANCH  26  40
BRANCH  27  51
ATOM     51  C   UNL A   1      39.149  29.751  30.715  1.00  0.00     0.023 A 
ATOM     52  C   UNL A   1      38.892  29.205  31.985  1.00  0.00     0.012 A 
ATOM     53  C   UNL A   1      38.184  30.592  30.123  1.00  0.00     0.148 A 
ATOM     54  C   UNL A   1      37.675  29.444  32.628  1.00  0.00     0.002 A 
ATOM     55  C   UNL A   1      36.990  30.856  30.784  1.00  0.00     0.091 A 
ATOM     56  F   UNL A   1      38.445  31.108  28.913  1.00  0.00    -0.205 F 
ATOM     57  C   UNL A   1      36.726  30.269  32.029  1.00  0.00     0.022 A 
BRANCH  55  58
ATOM     58  S   UNL A   1      35.757  31.979  30.117  1.00  0.00     0.127 S 
ATOM     59  O   UNL A   1      35.253  31.222  28.975  1.00  0.00    -0.237 OA
ATOM     60  O   UNL A   1      34.823  32.101  31.236  1.00  0.00    -0.237 OA
ATOM     61  O   UNL A   1      36.482  33.204  29.803  1.00  0.00    -0.744 OA
ENDBRANCH  55  58
ENDBRANCH  27  51
BRANCH  39  62
ATOM     62  C   UNL A   1      45.008  33.212  29.208  1.00  0.00     0.023 A 
ATOM     63  C   UNL A   1      45.592  33.578  30.437  1.00  0.00     0.012 A 
ATOM     64  C   UNL A   1      44.856  34.174  28.193  1.00  0.00     0.148 A 
ATOM     65  C   UNL A   1      45.976  34.894  30.668  1.00  0.00     0.002 A 
ATOM     66  C   UNL A   1      45.300  35.469  28.407  1.00  0.00     0.091 A 
ATOM     67  F   UNL A   1      44.274  33.805  27.042  1.00  0.00    -0.205 F 
ATOM     68  C   UNL A   1      45.843  35.836  29.649  1.00  0.00     0.022 A 
BRANCH  66  69
ATOM     69  S   UNL A   1      45.273  36.713  27.115  1.00  0.00     0.127 S 
ATOM     70  O   UNL A   1      45.869  35.989  25.993  1.00  0.00    -0.237 OA
ATOM     71  O   UNL A   1      43.842  36.981  26.977  1.00  0.00    -0.237 OA
ATOM     72  O   UNL A   1      46.051  37.835  27.620  1.00  0.00    -0.744 OA
ENDBRANCH  66  69
ENDBRANCH  39  62
ENDBRANCH  13  14
ENDBRANCH   6   8
ENDBRANCH   5   6
ENDBRANCH   4   5
ENDBRANCH   3   4
ENDBRANCH   2   3
ENDBRANCH   1   2
BRANCH   1  73
ATOM     73  C   UNL A   1      35.287  21.643  24.637  1.00  0.00     0.188 C 
BRANCH  73  74
ATOM     74  O   UNL A   1      34.496  22.428  25.527  1.00  0.00    -0.376 OA
BRANCH  74  75
ATOM     75  C   UNL A   1      33.308  21.845  26.045  1.00  0.00     0.202 C 
BRANCH  75  76
ATOM     76  C   UNL A   1      32.175  22.759  26.542  1.00  0.00     0.261 C 
BRANCH  76  77
ATOM     77  O   UNL A   1      32.491  24.159  26.579  1.00  0.00    -0.459 OA
BRANCH  77  78
ATOM     78  C   UNL A   1      31.461  25.008  26.242  1.00  0.00     0.368 C 
ATOM     79  O   UNL A   1      30.305  24.734  26.565  1.00  0.00    -0.245 OA
BRANCH  78  80
ATOM     80  C   UNL A   1      31.974  26.297  25.350  1.00  0.00     0.196 C 
ATOM     81  C   UNL A   1      31.653  27.740  25.907  1.00  0.00     0.081 C 
ATOM     82  C   UNL A   1      33.464  26.638  25.636  1.00  0.00     0.081 C 
ATOM     83  C   UNL A   1      33.120  28.139  25.654  1.00  0.00     0.014 C 
BRANCH  80  84
ATOM     84  N   UNL A   1      31.528  26.289  23.898  1.00  0.00    -0.317 N 
ATOM     85  C   UNL A   1      31.420  24.936  23.311  1.00  0.00     0.292 C 
ATOM     86  C   UNL A   1      32.278  27.096  22.899  1.00  0.00     0.292 C 
ATOM     87  H   UNL A   1      30.628  26.746  24.039  1.00  0.00     0.349 HD
ATOM     88  C   UNL A   1      32.783  24.331  22.972  1.00  0.00     0.221 C 
ATOM     89  C   UNL A   1      33.587  26.472  22.357  1.00  0.00     0.221 C 
ATOM     90  O   UNL A   1      33.388  25.113  21.939  1.00  0.00    -0.370 OA
ENDBRANCH  80  84
ENDBRANCH  78  80
ENDBRANCH  77  78
ENDBRANCH  76  77
ENDBRANCH  75  76
ENDBRANCH  74  75
ENDBRANCH  73  74
ENDBRANCH   1  73
TORSDOF 21
ENDMDL
MODEL 2
REMARK VINA RESULT:      -9.2      1.840      2.290
REMARK SMILES O=C(OCCOCCOCCOC(=O)C1([NH+]2CCOCC2)CCC1)c1ccc(-c2c3nc(c(-c4cccc(S(=O)(=O)[O-])c4F)c4ccc([nH]4)c(-c4cccc(S(=O)(=O)[O-])c4F)c4nc(c(-c5cccc(S(=O)(=O)[O-])c5F)c5ccc2[nH]5)C=C4)C=C3)cc1
REMARK SMILES IDX 7 1 6 2 5 3 4 4 3 5 2 6 1 7 25 8 26 9 87 10 27 11 86 12
REMARK SMILES IDX 28 13 29 14 30 15 80 16 31 17 85 18 79 19 81 20 32 21 84 22
REMARK SMILES IDX 78 23 77 24 33 26 65 27 45 28 64 29 46 30 49 31 63 32 82 33
REMARK SMILES IDX 47 34 48 35 62 37 83 38 50 39 34 40 35 41 43 42 36 43 38 44
REMARK SMILES IDX 44 45 37 46 39 47 40 48 41 49 42 50 66 51 67 52 75 53 68 54
REMARK SMILES IDX 70 55 76 56 69 57 71 58 72 59 73 60 74 61 51 62 52 63 60 64
REMARK SMILES IDX 53 65 55 66 61 67 54 68 56 69 57 70 58 71 59 72 8 73 9 74
REMARK SMILES IDX 10 75 11 76 12 77 13 78 14 79 15 80 22 81 24 82 23 83 16 84
REMARK SMILES IDX 17 85 21 86 18 88 20 89 19 90
REMARK H PARENT 81 25 49 36 16 87
REMARK Flexibility Score: inf
ROOT
ATOM      1  C   UNL A   1      37.104  22.905  25.653  1.00  0.00     0.188 C 
ENDROOT
BRANCH   1   2
ATOM      2  O   UNL A   1      37.659  21.640  26.029  1.00  0.00    -0.376 OA
BRANCH   2   3
ATOM      3  C   UNL A   1      37.803  20.723  24.940  1.00  0.00     0.202 C 
BRANCH   3   4
ATOM      4  C   UNL A   1      38.840  19.600  25.137  1.00  0.00     0.261 C 
BRANCH   4   5
ATOM      5  O   UNL A   1      39.567  19.679  26.377  1.00  0.00    -0.460 OA
BRANCH   5   6
ATOM      6  C   UNL A   1      40.817  20.160  26.612  1.00  0.00     0.338 C 
ATOM      7  O   UNL A   1      41.760  19.373  26.538  1.00  0.00    -0.246 OA
BRANCH   6   8
ATOM      8  C   UNL A   1      41.112  21.584  26.975  1.00  0.00     0.060 A 
ATOM      9  C   UNL A   1      40.853  22.675  26.153  1.00  0.00     0.016 A 
ATOM     10  C   UNL A   1      41.660  21.848  28.244  1.00  0.00     0.016 A 
ATOM     11  C   UNL A   1      41.204  23.963  26.501  1.00  0.00     0.010 A 
ATOM     12  C   UNL A   1      41.962  23.161  28.638  1.00  0.00     0.010 A 
ATOM     13  C   UNL A   1      41.757  24.222  27.745  1.00  0.00    -0.014 A 
BRANCH  13  14
ATOM     14  C   UNL A   1      42.218  25.601  27.980  1.00  0.00     0.031 A 
ATOM     15  C   UNL A   1      43.581  25.975  27.506  1.00  0.00     0.074 A 
ATOM     16  C   UNL A   1      41.357  26.542  28.412  1.00  0.00     0.049 A 
ATOM     17  N   UNL A   1      44.153  27.145  27.522  1.00  0.00    -0.248 NA
ATOM     18  C   UNL A   1      44.372  24.919  26.847  1.00  0.00     0.031 C 
ATOM     19  C   UNL A   1      39.931  26.330  28.649  1.00  0.00     0.029 A 
ATOM     20  N   UNL A   1      41.537  27.857  28.738  1.00  0.00    -0.354 N 
ATOM     21  C   UNL A   1      45.352  26.979  26.850  1.00  0.00     0.074 A 
ATOM     22  C   UNL A   1      45.452  25.588  26.473  1.00  0.00     0.031 C 
ATOM     23  C   UNL A   1      39.403  27.409  29.244  1.00  0.00     0.029 A 
ATOM     24  C   UNL A   1      40.444  28.409  29.368  1.00  0.00     0.049 A 
ATOM     25  H   UNL A   1      42.362  28.357  28.545  1.00  0.00     0.167 HD
ATOM     26  C   UNL A   1      46.267  27.924  26.548  1.00  0.00     0.034 A 
ATOM     27  C   UNL A   1      40.305  29.591  29.989  1.00  0.00     0.034 A 
ATOM     28  C   UNL A   1      46.149  29.292  26.965  1.00  0.00     0.049 A 
ATOM     29  C   UNL A   1      41.430  30.566  29.833  1.00  0.00     0.074 A 
ATOM     30  C   UNL A   1      47.045  30.327  26.787  1.00  0.00     0.029 A 
ATOM     31  N   UNL A   1      45.069  29.807  27.671  1.00  0.00    -0.354 N 
ATOM     32  N   UNL A   1      42.555  30.408  29.177  1.00  0.00    -0.248 NA
ATOM     33  C   UNL A   1      41.242  31.897  30.415  1.00  0.00     0.031 C 
ATOM     34  C   UNL A   1      46.525  31.459  27.426  1.00  0.00     0.029 A 
ATOM     35  C   UNL A   1      45.285  31.141  27.961  1.00  0.00     0.049 A 
ATOM     36  H   UNL A   1      44.267  29.297  27.928  1.00  0.00     0.167 HD
ATOM     37  C   UNL A   1      43.186  31.639  29.212  1.00  0.00     0.074 A 
ATOM     38  C   UNL A   1      42.310  32.531  29.949  1.00  0.00     0.031 C 
ATOM     39  C   UNL A   1      44.378  32.001  28.680  1.00  0.00     0.034 A 
BRANCH  26  40
ATOM     40  C   UNL A   1      47.466  27.481  25.763  1.00  0.00     0.023 A 
ATOM     41  C   UNL A   1      47.466  27.577  24.355  1.00  0.00     0.012 A 
ATOM     42  C   UNL A   1      48.587  26.950  26.422  1.00  0.00     0.148 A 
ATOM     43  C   UNL A   1      48.557  27.124  23.616  1.00  0.00     0.002 A 
ATOM     44  C   UNL A   1      49.687  26.539  25.682  1.00  0.00     0.091 A 
ATOM     45  F   UNL A   1      48.546  26.838  27.757  1.00  0.00    -0.205 F 
ATOM     46  C   UNL A   1      49.670  26.613  24.279  1.00  0.00     0.022 A 
BRANCH  44  47
ATOM     47  S   UNL A   1      51.186  25.913  26.442  1.00  0.00     0.127 S 
ATOM     48  O   UNL A   1      52.008  25.611  25.272  1.00  0.00    -0.237 OA
ATOM     49  O   UNL A   1      51.632  27.062  27.226  1.00  0.00    -0.237 OA
ATOM     50  O   UNL A   1      50.786  24.749  27.229  1.00  0.00    -0.744 OA
ENDBRANCH  44  47
ENDBRANCH  26  40
BRANCH  27  51
ATOM     51  C   UNL A   1      39.079  29.908  30.771  1.00  0.00     0.023 A 
ATOM     52  C   UNL A   1      38.884  29.361  32.052  1.00  0.00     0.012 A 
ATOM     53  C   UNL A   1      38.085  30.747  30.225  1.00  0.00     0.148 A 
ATOM     54  C   UNL A   1      37.698  29.597  32.751  1.00  0.00     0.002 A 
ATOM     55  C   UNL A   1      36.923  31.008  30.943  1.00  0.00     0.091 A 
ATOM     56  F   UNL A   1      38.287  31.264  29.005  1.00  0.00    -0.205 F 
ATOM     57  C   UNL A   1      36.719  30.419  32.199  1.00  0.00     0.022 A 
BRANCH  55  58
ATOM     58  S   UNL A   1      35.657  32.128  30.335  1.00  0.00     0.127 S 
ATOM     59  O   UNL A   1      35.168  31.414  29.159  1.00  0.00    -0.237 OA
ATOM     60  O   UNL A   1      34.725  32.170  31.462  1.00  0.00    -0.237 OA
ATOM     61  O   UNL A   1      36.347  33.386  30.078  1.00  0.00    -0.744 OA
ENDBRANCH  55  58
ENDBRANCH  27  51
BRANCH  39  62
ATOM     62  C   UNL A   1      44.778  33.436  28.856  1.00  0.00     0.023 A 
ATOM     63  C   UNL A   1      44.397  34.395  27.897  1.00  0.00     0.012 A 
ATOM     64  C   UNL A   1      45.499  33.834  29.996  1.00  0.00     0.148 A 
ATOM     65  C   UNL A   1      44.768  35.726  28.050  1.00  0.00     0.002 A 
ATOM     66  C   UNL A   1      45.809  35.174  30.173  1.00  0.00     0.091 A 
ATOM     67  F   UNL A   1      45.871  32.897  30.881  1.00  0.00    -0.205 F 
ATOM     68  C   UNL A   1      45.462  36.118  29.193  1.00  0.00     0.022 A 
BRANCH  66  69
ATOM     69  S   UNL A   1      46.597  35.781  31.666  1.00  0.00     0.127 S 
ATOM     70  O   UNL A   1      46.648  37.220  31.411  1.00  0.00    -0.237 OA
ATOM     71  O   UNL A   1      45.645  35.377  32.701  1.00  0.00    -0.237 OA
ATOM     72  O   UNL A   1      47.889  35.113  31.740  1.00  0.00    -0.744 OA
ENDBRANCH  66  69
ENDBRANCH  39  62
ENDBRANCH  13  14
ENDBRANCH   6   8
ENDBRANCH   5   6
ENDBRANCH   4   5
ENDBRANCH   3   4
ENDBRANCH   2   3
ENDBRANCH   1   2
BRANCH   1  73
ATOM     73  C   UNL A   1      35.658  23.109  26.117  1.00  0.00     0.188 C 
BRANCH  73  74
ATOM     74  O   UNL A   1      34.869  21.944  26.350  1.00  0.00    -0.376 OA
BRANCH  74  75
ATOM     75  C   UNL A   1      33.624  21.844  25.672  1.00  0.00     0.202 C 
BRANCH  75  76
ATOM     76  C   UNL A   1      33.483  22.440  24.261  1.00  0.00     0.261 C 
BRANCH  76  77
ATOM     77  O   UNL A   1      32.709  23.646  24.182  1.00  0.00    -0.459 OA
BRANCH  77  78
ATOM     78  C   UNL A   1      33.384  24.755  23.723  1.00  0.00     0.368 C 
ATOM     79  O   UNL A   1      34.283  24.629  22.892  1.00  0.00    -0.245 OA
BRANCH  78  80
ATOM     80  C   UNL A   1      32.887  26.145  24.459  1.00  0.00     0.196 C 
ATOM     81  C   UNL A   1      33.282  26.346  25.975  1.00  0.00     0.081 C 
ATOM     82  C   UNL A   1      33.854  27.327  24.165  1.00  0.00     0.081 C 
ATOM     83  C   UNL A   1      33.765  27.770  25.637  1.00  0.00     0.014 C 
BRANCH  80  84
ATOM     84  N   UNL A   1      31.398  26.424  24.362  1.00  0.00    -0.317 N 
ATOM     85  C   UNL A   1      30.773  25.928  23.117  1.00  0.00     0.292 C 
ATOM     86  C   UNL A   1      30.902  27.816  24.528  1.00  0.00     0.292 C 
ATOM     87  H   UNL A   1      31.118  25.904  25.194  1.00  0.00     0.349 HD
ATOM     88  C   UNL A   1      31.091  26.811  21.909  1.00  0.00     0.221 C 
ATOM     89  C   UNL A   1      31.015  28.736  23.288  1.00  0.00     0.221 C 
ATOM     90  O   UNL A   1      30.496  28.097  22.111  1.00  0.00    -0.370 OA
ENDBRANCH  80  84
ENDBRANCH  78  80
ENDBRANCH  77  78
ENDBRANCH  76  77
ENDBRANCH  75  76
ENDBRANCH  74  75
ENDBRANCH  73  74
ENDBRANCH   1  73
TORSDOF 21
ENDMDL
MODEL 3
REMARK VINA RESULT:      -9.1      1.220      7.715
REMARK SMILES O=C(OCCOCCOCCOC(=O)C1([NH+]2CCOCC2)CCC1)c1ccc(-c2c3nc(c(-c4cccc(S(=O)(=O)[O-])c4F)c4ccc([nH]4)c(-c4cccc(S(=O)(=O)[O-])c4F)c4nc(c(-c5cccc(S(=O)(=O)[O-])c5F)c5ccc2[nH]5)C=C4)C=C3)cc1
REMARK SMILES IDX 7 1 6 2 5 3 4 4 3 5 2 6 1 7 25 8 26 9 87 10 27 11 86 12
REMARK SMILES IDX 28 13 29 14 30 15 80 16 31 17 85 18 79 19 81 20 32 21 84 22
REMARK SMILES IDX 78 23 77 24 33 26 65 27 45 28 64 29 46 30 49 31 63 32 82 33
REMARK SMILES IDX 47 34 48 35 62 37 83 38 50 39 34 40 35 41 43 42 36 43 38 44
REMARK SMILES IDX 44 45 37 46 39 47 40 48 41 49 42 50 66 51 67 52 75 53 68 54
REMARK SMILES IDX 70 55 76 56 69 57 71 58 72 59 73 60 74 61 51 62 52 63 60 64
REMARK SMILES IDX 53 65 55 66 61 67 54 68 56 69 57 70 58 71 59 72 8 73 9 74
REMARK SMILES IDX 10 75 11 76 12 77 13 78 14 79 15 80 22 81 24 82 23 83 16 84
REMARK SMILES IDX 17 85 21 86 18 88 20 89 19 90
REMARK H PARENT 81 25 49 36 16 87
REMARK Flexibility Score: inf
ROOT
ATOM      1  C   UNL A   1      38.736  22.851  26.150  1.00  0.00     0.188 C 
ENDROOT
BRANCH   1   2
ATOM      2  O   UNL A   1      38.868  21.470  26.503  1.00  0.00    -0.376 OA
BRANCH   2   3
ATOM      3  C   UNL A   1      38.879  20.583  25.382  1.00  0.00     0.202 C 
BRANCH   3   4
ATOM      4  C   UNL A   1      39.415  19.163  25.650  1.00  0.00     0.261 C 
BRANCH   4   5
ATOM      5  O   UNL A   1      40.657  19.129  26.378  1.00  0.00    -0.460 OA
BRANCH   5   6
ATOM      6  C   UNL A   1      41.840  19.734  26.090  1.00  0.00     0.338 C 
ATOM      7  O   UNL A   1      42.732  19.049  25.592  1.00  0.00    -0.246 OA
BRANCH   6   8
ATOM      8  C   UNL A   1      42.128  21.180  26.361  1.00  0.00     0.060 A 
ATOM      9  C   UNL A   1      42.257  22.154  25.377  1.00  0.00     0.016 A 
ATOM     10  C   UNL A   1      42.249  21.596  27.699  1.00  0.00     0.016 A 
ATOM     11  C   UNL A   1      42.591  23.461  25.669  1.00  0.00     0.010 A 
ATOM     12  C   UNL A   1      42.523  22.936  28.015  1.00  0.00     0.010 A 
ATOM     13  C   UNL A   1      42.724  23.867  26.987  1.00  0.00    -0.014 A 
BRANCH  13  14
ATOM     14  C   UNL A   1      43.206  25.242  27.200  1.00  0.00     0.031 A 
ATOM     15  C   UNL A   1      42.285  26.216  27.852  1.00  0.00     0.074 A 
ATOM     16  C   UNL A   1      44.504  25.546  27.008  1.00  0.00     0.049 A 
ATOM     17  N   UNL A   1      42.527  27.441  28.219  1.00  0.00    -0.248 NA
ATOM     18  C   UNL A   1      40.945  25.722  28.223  1.00  0.00     0.031 C 
ATOM     19  C   UNL A   1      45.542  24.591  26.625  1.00  0.00     0.029 A 
ATOM     20  N   UNL A   1      45.184  26.729  27.096  1.00  0.00    -0.354 N 
ATOM     21  C   UNL A   1      41.390  27.858  28.891  1.00  0.00     0.074 A 
ATOM     22  C   UNL A   1      40.436  26.773  28.848  1.00  0.00     0.031 C 
ATOM     23  C   UNL A   1      46.678  25.243  26.340  1.00  0.00     0.029 A 
ATOM     24  C   UNL A   1      46.461  26.654  26.585  1.00  0.00     0.049 A 
ATOM     25  H   UNL A   1      44.800  27.548  27.482  1.00  0.00     0.167 HD
ATOM     26  C   UNL A   1      41.186  29.035  29.518  1.00  0.00     0.034 A 
ATOM     27  C   UNL A   1      47.352  27.625  26.331  1.00  0.00     0.034 A 
ATOM     28  C   UNL A   1      42.144  30.102  29.515  1.00  0.00     0.049 A 
ATOM     29  C   UNL A   1      47.017  28.992  26.841  1.00  0.00     0.074 A 
ATOM     30  C   UNL A   1      42.024  31.370  30.048  1.00  0.00     0.029 A 
ATOM     31  N   UNL A   1      43.399  30.028  28.922  1.00  0.00    -0.354 N 
ATOM     32  N   UNL A   1      45.946  29.373  27.496  1.00  0.00    -0.248 NA
ATOM     33  C   UNL A   1      48.030  30.034  26.666  1.00  0.00     0.031 C 
ATOM     34  C   UNL A   1      43.191  32.078  29.738  1.00  0.00     0.029 A 
ATOM     35  C   UNL A   1      44.056  31.238  29.052  1.00  0.00     0.049 A 
ATOM     36  H   UNL A   1      43.766  29.234  28.473  1.00  0.00     0.167 HD
ATOM     37  C   UNL A   1      46.179  30.685  27.866  1.00  0.00     0.074 A 
ATOM     38  C   UNL A   1      47.499  31.026  27.368  1.00  0.00     0.031 C 
ATOM     39  C   UNL A   1      45.379  31.531  28.560  1.00  0.00     0.034 A 
BRANCH  26  40
ATOM     40  C   UNL A   1      39.869  29.212  30.216  1.00  0.00     0.023 A 
ATOM     41  C   UNL A   1      39.692  28.722  31.527  1.00  0.00     0.012 A 
ATOM     42  C   UNL A   1      38.802  29.849  29.561  1.00  0.00     0.148 A 
ATOM     43  C   UNL A   1      38.457  28.841  32.164  1.00  0.00     0.002 A 
ATOM     44  C   UNL A   1      37.588  30.001  30.217  1.00  0.00     0.091 A 
ATOM     45  F   UNL A   1      38.988  30.274  28.304  1.00  0.00    -0.205 F 
ATOM     46  C   UNL A   1      37.409  29.487  31.513  1.00  0.00     0.022 A 
BRANCH  44  47
ATOM     47  S   UNL A   1      36.193  30.860  29.487  1.00  0.00     0.127 S 
ATOM     48  O   UNL A   1      35.505  29.773  28.794  1.00  0.00    -0.237 OA
ATOM     49  O   UNL A   1      35.500  31.371  30.667  1.00  0.00    -0.237 OA
ATOM     50  O   UNL A   1      36.760  31.884  28.614  1.00  0.00    -0.744 OA
ENDBRANCH  44  47
ENDBRANCH  26  40
BRANCH  27  51
ATOM     51  C   UNL A   1      48.614  27.337  25.598  1.00  0.00     0.023 A 
ATOM     52  C   UNL A   1      49.778  26.961  26.292  1.00  0.00     0.012 A 
ATOM     53  C   UNL A   1      48.663  27.458  24.193  1.00  0.00     0.148 A 
ATOM     54  C   UNL A   1      50.981  26.766  25.609  1.00  0.00     0.002 A 
ATOM     55  C   UNL A   1      49.855  27.227  23.515  1.00  0.00     0.091 A 
ATOM     56  F   UNL A   1      47.545  27.813  23.544  1.00  0.00    -0.205 F 
ATOM     57  C   UNL A   1      51.020  26.898  24.224  1.00  0.00     0.022 A 
BRANCH  55  58
ATOM     58  S   UNL A   1      49.962  27.290  21.724  1.00  0.00     0.127 S 
ATOM     59  O   UNL A   1      48.833  26.454  21.329  1.00  0.00    -0.237 OA
ATOM     60  O   UNL A   1      49.792  28.719  21.462  1.00  0.00    -0.237 OA
ATOM     61  O   UNL A   1      51.285  26.773  21.398  1.00  0.00    -0.744 OA
ENDBRANCH  55  58
ENDBRANCH  27  51
BRANCH  39  62
ATOM     62  C   UNL A   1      45.935  32.895  28.840  1.00  0.00     0.023 A 
ATOM     63  C   UNL A   1      46.713  33.113  29.995  1.00  0.00     0.012 A 
ATOM     64  C   UNL A   1      45.718  33.948  27.934  1.00  0.00     0.148 A 
ATOM     65  C   UNL A   1      47.228  34.376  30.266  1.00  0.00     0.002 A 
ATOM     66  C   UNL A   1      46.289  35.188  28.179  1.00  0.00     0.091 A 
ATOM     67  F   UNL A   1      44.953  33.720  26.856  1.00  0.00    -0.205 F 
ATOM     68  C   UNL A   1      47.027  35.409  29.352  1.00  0.00     0.022 A 
BRANCH  66  69
ATOM     69  S   UNL A   1      46.178  36.537  27.002  1.00  0.00     0.127 S 
ATOM     70  O   UNL A   1      46.670  35.906  25.778  1.00  0.00    -0.237 OA
ATOM     71  O   UNL A   1      44.745  36.831  27.005  1.00  0.00    -0.237 OA
ATOM     72  O   UNL A   1      47.014  37.605  27.534  1.00  0.00    -0.744 OA
ENDBRANCH  66  69
ENDBRANCH  39  62
ENDBRANCH  13  14
ENDBRANCH   6   8
ENDBRANCH   5   6
ENDBRANCH   4   5
ENDBRANCH   3   4
ENDBRANCH   2   3
ENDBRANCH   1   2
BRANCH   1  73
ATOM     73  C   UNL A   1      37.455  23.173  25.375  1.00  0.00     0.188 C 
BRANCH  73  74
ATOM     74  O   UNL A   1      36.245  23.294  26.121  1.00  0.00    -0.376 OA
BRANCH  74  75
ATOM     75  C   UNL A   1      35.044  23.532  25.399  1.00  0.00     0.202 C 
BRANCH  75  76
ATOM     76  C   UNL A   1      33.791  24.004  26.155  1.00  0.00     0.261 C 
BRANCH  76  77
ATOM     77  O   UNL A   1      33.234  25.245  25.697  1.00  0.00    -0.459 OA
BRANCH  77  78
ATOM     78  C   UNL A   1      32.077  25.644  26.329  1.00  0.00     0.368 C 
ATOM     79  O   UNL A   1      31.355  24.812  26.876  1.00  0.00    -0.245 OA
BRANCH  78  80
ATOM     80  C   UNL A   1      31.804  27.264  26.179  1.00  0.00     0.196 C 
ATOM     81  C   UNL A   1      31.450  28.066  27.494  1.00  0.00     0.081 C 
ATOM     82  C   UNL A   1      33.133  28.073  26.177  1.00  0.00     0.081 C 
ATOM     83  C   UNL A   1      32.497  29.127  27.101  1.00  0.00     0.014 C 
BRANCH  80  84
ATOM     84  N   UNL A   1      30.756  27.645  25.149  1.00  0.00    -0.317 N 
ATOM     85  C   UNL A   1      30.331  26.524  24.283  1.00  0.00     0.292 C 
ATOM     86  C   UNL A   1      31.017  28.782  24.227  1.00  0.00     0.292 C 
ATOM     87  H   UNL A   1      30.038  27.949  25.805  1.00  0.00     0.349 HD
ATOM     88  C   UNL A   1      31.367  26.185  23.210  1.00  0.00     0.221 C 
ATOM     89  C   UNL A   1      31.913  28.480  23.001  1.00  0.00     0.221 C 
ATOM     90  O   UNL A   1      31.483  27.294  22.315  1.00  0.00    -0.370 OA
ENDBRANCH  80  84
ENDBRANCH  78  80
ENDBRANCH  77  78
ENDBRANCH  76  77
ENDBRANCH  75  76
ENDBRANCH  74  75
ENDBRANCH  73  74
ENDBRANCH   1  73
TORSDOF 21
ENDMDL
