MODEL 1
REMARK VINA RESULT:      -9.8      0.000      0.000
REMARK SMILES CC(C)(C)[NH+]1CCN(C(=O)CCCC(=O)OCCOCCOCCOC(=O)c2ccc(-c3c4nc(c(-c5cccc(S(=O)(=O)[O-])c5F)c5ccc([nH]5)c(-c5cccc(S(=O)(=O)[O-])c5F)c5nc(c(-c6cccc(S(=O)(=O)[O-])c6F)c6ccc3[nH]6)C=C5)C=C4)cc2)CC1
REMARK SMILES IDX 20 1 19 2 18 3 17 4 16 5 14 6 15 7 13 8 12 9 11 10 9 11 5 12
REMARK SMILES IDX 6 13 92 14 7 16 91 17 8 18 10 19 2 20 1 21 3 22 4 23 21 24
REMARK SMILES IDX 22 25 23 26 24 27 25 28 26 29 27 30 28 31 29 32 90 33 30 34
REMARK SMILES IDX 89 35 31 36 32 37 33 38 83 39 34 40 88 41 82 42 84 43 35 44
REMARK SMILES IDX 87 45 81 46 80 47 36 49 68 50 48 51 67 52 49 53 52 54 66 55
REMARK SMILES IDX 85 56 50 57 51 58 65 60 86 61 53 62 37 63 38 64 46 65 39 66
REMARK SMILES IDX 41 67 47 68 40 69 42 70 43 71 44 72 45 73 69 74 70 75 78 76
REMARK SMILES IDX 71 77 73 78 79 79 72 80 74 81 75 82 76 83 77 84 54 85 55 86
REMARK SMILES IDX 63 87 56 88 58 89 64 90 57 91 59 92 60 93 61 94 62 95
REMARK H PARENT 5 15 84 48 52 59
REMARK Flexibility Score: inf
ROOT
ATOM      1  C   UNL A   1      36.018  23.905  25.399  1.00  0.00     0.188 C 
ENDROOT
BRANCH   1   2
ATOM      2  O   UNL A   1      34.880  24.473  24.758  1.00  0.00    -0.376 OA
BRANCH   2   3
ATOM      3  C   UNL A   1      34.237  25.580  25.375  1.00  0.00     0.202 C 
BRANCH   3   4
ATOM      4  C   UNL A   1      33.911  26.791  24.495  1.00  0.00     0.261 C 
BRANCH   4   5
ATOM      5  O   UNL A   1      32.694  26.650  23.719  1.00  0.00    -0.463 OA
BRANCH   5   6
ATOM      6  C   UNL A   1      32.806  26.129  22.472  1.00  0.00     0.305 C 
ATOM      7  O   UNL A   1      33.441  26.666  21.570  1.00  0.00    -0.252 OA
BRANCH   6   8
ATOM      8  C   UNL A   1      32.014  24.841  22.216  1.00  0.00     0.123 C 
BRANCH   8   9
ATOM      9  C   UNL A   1      31.702  23.727  23.232  1.00  0.00     0.022 C 
BRANCH   9  10
ATOM     10  C   UNL A   1      32.394  22.359  23.199  1.00  0.00     0.101 C 
BRANCH  10  11
ATOM     11  C   UNL A   1      32.484  21.632  24.545  1.00  0.00     0.222 C 
ATOM     12  N   UNL A   1      32.968  17.342  24.473  1.00  0.00    -0.328 N 
ATOM     13  C   UNL A   1      32.508  18.011  25.707  1.00  0.00     0.284 C 
ATOM     14  C   UNL A   1      32.266  17.971  23.354  1.00  0.00     0.284 C 
ATOM     15  H   UNL A   1      32.709  16.358  24.545  1.00  0.00     0.348 HD
ATOM     16  C   UNL A   1      32.733  19.529  25.777  1.00  0.00     0.181 C 
ATOM     17  C   UNL A   1      32.367  19.492  23.318  1.00  0.00     0.181 C 
ATOM     18  N   UNL A   1      32.381  20.244  24.552  1.00  0.00    -0.331 N 
ATOM     19  O   UNL A   1      32.658  22.275  25.581  1.00  0.00    -0.275 OA
BRANCH  12  20
ATOM     20  C   UNL A   1      34.423  17.083  24.292  1.00  0.00     0.089 C 
ATOM     21  C   UNL A   1      34.883  15.961  25.246  1.00  0.00     0.078 C 
ATOM     22  C   UNL A   1      35.390  18.272  24.477  1.00  0.00     0.078 C 
ATOM     23  C   UNL A   1      34.645  16.557  22.849  1.00  0.00     0.078 C 
ENDBRANCH  12  20
ENDBRANCH  10  11
ENDBRANCH   9  10
ENDBRANCH   8   9
ENDBRANCH   6   8
ENDBRANCH   5   6
ENDBRANCH   4   5
ENDBRANCH   3   4
ENDBRANCH   2   3
ENDBRANCH   1   2
BRANCH   1  24
ATOM     24  C   UNL A   1      35.829  22.565  26.134  1.00  0.00     0.188 C 
BRANCH  24  25
ATOM     25  O   UNL A   1      36.731  21.557  25.730  1.00  0.00    -0.376 OA
BRANCH  25  26
ATOM     26  C   UNL A   1      38.002  21.978  25.270  1.00  0.00     0.202 C 
BRANCH  26  27
ATOM     27  C   UNL A   1      39.230  21.832  26.189  1.00  0.00     0.261 C 
BRANCH  27  28
ATOM     28  O   UNL A   1      39.602  20.502  26.595  1.00  0.00    -0.460 OA
BRANCH  28  29
ATOM     29  C   UNL A   1      40.840  20.058  26.276  1.00  0.00     0.338 C 
ATOM     30  O   UNL A   1      41.108  19.002  25.727  1.00  0.00    -0.246 OA
BRANCH  29  31
ATOM     31  C   UNL A   1      41.788  21.195  26.443  1.00  0.00     0.060 A 
ATOM     32  C   UNL A   1      42.206  21.543  27.738  1.00  0.00     0.016 A 
ATOM     33  C   UNL A   1      42.307  21.878  25.339  1.00  0.00     0.016 A 
ATOM     34  C   UNL A   1      43.091  22.606  27.934  1.00  0.00     0.010 A 
ATOM     35  C   UNL A   1      43.177  22.958  25.538  1.00  0.00     0.010 A 
ATOM     36  C   UNL A   1      43.533  23.358  26.839  1.00  0.00    -0.014 A 
BRANCH  36  37
ATOM     37  C   UNL A   1      44.112  24.709  27.073  1.00  0.00     0.031 A 
ATOM     38  C   UNL A   1      43.190  25.777  27.607  1.00  0.00     0.074 A 
ATOM     39  C   UNL A   1      45.406  24.995  26.847  1.00  0.00     0.049 A 
ATOM     40  N   UNL A   1      43.441  27.027  27.897  1.00  0.00    -0.248 NA
ATOM     41  C   UNL A   1      41.792  25.375  27.846  1.00  0.00     0.031 C 
ATOM     42  C   UNL A   1      46.410  24.061  26.341  1.00  0.00     0.029 A 
ATOM     43  N   UNL A   1      46.094  26.175  27.005  1.00  0.00    -0.354 N 
ATOM     44  C   UNL A   1      42.232  27.564  28.324  1.00  0.00     0.074 A 
ATOM     45  C   UNL A   1      41.243  26.513  28.237  1.00  0.00     0.031 C 
ATOM     46  C   UNL A   1      47.579  24.712  26.204  1.00  0.00     0.029 A 
ATOM     47  C   UNL A   1      47.406  26.111  26.597  1.00  0.00     0.049 A 
ATOM     48  H   UNL A   1      45.684  26.992  27.373  1.00  0.00     0.167 HD
ATOM     49  C   UNL A   1      41.963  28.814  28.768  1.00  0.00     0.034 A 
ATOM     50  C   UNL A   1      48.350  27.074  26.538  1.00  0.00     0.034 A 
ATOM     51  C   UNL A   1      42.940  29.861  28.871  1.00  0.00     0.049 A 
ATOM     52  C   UNL A   1      48.021  28.467  27.017  1.00  0.00     0.074 A 
ATOM     53  C   UNL A   1      42.772  31.151  29.341  1.00  0.00     0.029 A 
ATOM     54  N   UNL A   1      44.266  29.744  28.487  1.00  0.00    -0.354 N 
ATOM     55  N   UNL A   1      46.902  28.928  27.525  1.00  0.00    -0.248 NA
ATOM     56  C   UNL A   1      49.101  29.465  26.951  1.00  0.00     0.031 C 
ATOM     57  C   UNL A   1      43.992  31.824  29.215  1.00  0.00     0.029 A 
ATOM     58  C   UNL A   1      44.928  30.940  28.702  1.00  0.00     0.049 A 
ATOM     59  H   UNL A   1      44.677  28.930  28.115  1.00  0.00     0.167 HD
ATOM     60  C   UNL A   1      47.159  30.250  27.879  1.00  0.00     0.074 A 
ATOM     61  C   UNL A   1      48.543  30.510  27.546  1.00  0.00     0.031 C 
ATOM     62  C   UNL A   1      46.322  31.172  28.421  1.00  0.00     0.034 A 
BRANCH  49  63
ATOM     63  C   UNL A   1      40.549  29.108  29.195  1.00  0.00     0.023 A 
ATOM     64  C   UNL A   1      39.611  29.564  28.246  1.00  0.00     0.012 A 
ATOM     65  C   UNL A   1      40.141  28.903  30.527  1.00  0.00     0.148 A 
ATOM     66  C   UNL A   1      38.299  29.845  28.622  1.00  0.00     0.002 A 
ATOM     67  C   UNL A   1      38.819  29.139  30.885  1.00  0.00     0.091 A 
ATOM     68  F   UNL A   1      41.054  28.497  31.420  1.00  0.00    -0.205 F 
ATOM     69  C   UNL A   1      37.901  29.622  29.938  1.00  0.00     0.022 A 
BRANCH  67  70
ATOM     70  S   UNL A   1      38.189  28.807  32.533  1.00  0.00     0.127 S 
ATOM     71  O   UNL A   1      36.764  29.095  32.367  1.00  0.00    -0.237 OA
ATOM     72  O   UNL A   1      38.509  27.390  32.705  1.00  0.00    -0.237 OA
ATOM     73  O   UNL A   1      38.907  29.706  33.426  1.00  0.00    -0.744 OA
ENDBRANCH  67  70
ENDBRANCH  49  63
BRANCH  50  74
ATOM     74  C   UNL A   1      49.720  26.756  26.038  1.00  0.00     0.023 A 
ATOM     75  C   UNL A   1      50.640  26.111  26.889  1.00  0.00     0.012 A 
ATOM     76  C   UNL A   1      50.122  27.104  24.734  1.00  0.00     0.148 A 
ATOM     77  C   UNL A   1      51.945  25.854  26.464  1.00  0.00     0.002 A 
ATOM     78  C   UNL A   1      51.405  26.796  24.298  1.00  0.00     0.091 A 
ATOM     79  F   UNL A   1      49.240  27.736  23.946  1.00  0.00    -0.205 F 
ATOM     80  C   UNL A   1      52.324  26.187  25.167  1.00  0.00     0.022 A 
BRANCH  78  81
ATOM     81  S   UNL A   1      51.947  27.082  22.610  1.00  0.00     0.127 S 
ATOM     82  O   UNL A   1      50.738  26.773  21.851  1.00  0.00    -0.237 OA
ATOM     83  O   UNL A   1      52.305  28.501  22.646  1.00  0.00    -0.237 OA
ATOM     84  O   UNL A   1      53.072  26.182  22.399  1.00  0.00    -0.744 OA
ENDBRANCH  78  81
ENDBRANCH  50  74
BRANCH  62  85
ATOM     85  C   UNL A   1      46.885  32.533  28.742  1.00  0.00     0.023 A 
ATOM     86  C   UNL A   1      47.435  32.791  30.015  1.00  0.00     0.012 A 
ATOM     87  C   UNL A   1      46.923  33.543  27.760  1.00  0.00     0.148 A 
ATOM     88  C   UNL A   1      47.971  34.043  30.317  1.00  0.00     0.002 A 
ATOM     89  C   UNL A   1      47.506  34.771  28.051  1.00  0.00     0.091 A 
ATOM     90  F   UNL A   1      46.382  33.289  26.559  1.00  0.00    -0.205 F 
ATOM     91  C   UNL A   1      48.015  35.028  29.334  1.00  0.00     0.022 A 
BRANCH  89  92
ATOM     92  S   UNL A   1      47.697  36.060  26.813  1.00  0.00     0.127 S 
ATOM     93  O   UNL A   1      49.120  36.375  26.926  1.00  0.00    -0.237 OA
ATOM     94  O   UNL A   1      47.322  35.367  25.579  1.00  0.00    -0.237 OA
ATOM     95  O   UNL A   1      46.783  37.125  27.204  1.00  0.00    -0.744 OA
ENDBRANCH  89  92
ENDBRANCH  62  85
ENDBRANCH  36  37
ENDBRANCH  29  31
ENDBRANCH  28  29
ENDBRANCH  27  28
ENDBRANCH  26  27
ENDBRANCH  25  26
ENDBRANCH  24  25
ENDBRANCH   1  24
TORSDOF 24
ENDMDL
MODEL 2
REMARK VINA RESULT:      -9.7      2.820      5.906
REMARK SMILES CC(C)(C)[NH+]1CCN(C(=O)CCCC(=O)OCCOCCOCCOC(=O)c2ccc(-c3c4nc(c(-c5cccc(S(=O)(=O)[O-])c5F)c5ccc([nH]5)c(-c5cccc(S(=O)(=O)[O-])c5F)c5nc(c(-c6cccc(S(=O)(=O)[O-])c6F)c6ccc3[nH]6)C=C5)C=C4)cc2)CC1
REMARK SMILES IDX 20 1 19 2 18 3 17 4 16 5 14 6 15 7 13 8 12 9 11 10 9 11 5 12
REMARK SMILES IDX 6 13 92 14 7 16 91 17 8 18 10 19 2 20 1 21 3 22 4 23 21 24
REMARK SMILES IDX 22 25 23 26 24 27 25 28 26 29 27 30 28 31 29 32 90 33 30 34
REMARK SMILES IDX 89 35 31 36 32 37 33 38 83 39 34 40 88 41 82 42 84 43 35 44
REMARK SMILES IDX 87 45 81 46 80 47 36 49 68 50 48 51 67 52 49 53 52 54 66 55
REMARK SMILES IDX 85 56 50 57 51 58 65 60 86 61 53 62 37 63 38 64 46 65 39 66
REMARK SMILES IDX 41 67 47 68 40 69 42 70 43 71 44 72 45 73 69 74 70 75 78 76
REMARK SMILES IDX 71 77 73 78 79 79 72 80 74 81 75 82 76 83 77 84 54 85 55 86
REMARK SMILES IDX 63 87 56 88 58 89 64 90 57 91 59 92 60 93 61 94 62 95
REMARK H PARENT 5 15 84 48 52 59
REMARK Flexibility Score: inf
ROOT
ATOM      1  C   UNL A   1      36.057  23.731  25.339  1.00  0.00     0.188 C 
ENDROOT
BRANCH   1   2
ATOM      2  O   UNL A   1      34.882  24.372  24.853  1.00  0.00    -0.376 OA
BRANCH   2   3
ATOM      3  C   UNL A   1      34.157  25.216  25.737  1.00  0.00     0.202 C 
BRANCH   3   4
ATOM      4  C   UNL A   1      33.908  26.661  25.291  1.00  0.00     0.261 C 
BRANCH   4   5
ATOM      5  O   UNL A   1      32.568  26.907  24.795  1.00  0.00    -0.463 OA
BRANCH   5   6
ATOM      6  C   UNL A   1      31.643  27.343  25.687  1.00  0.00     0.305 C 
ATOM      7  O   UNL A   1      31.062  26.603  26.473  1.00  0.00    -0.252 OA
BRANCH   6   8
ATOM      8  C   UNL A   1      31.293  28.834  25.606  1.00  0.00     0.123 C 
BRANCH   8   9
ATOM      9  C   UNL A   1      32.263  30.022  25.745  1.00  0.00     0.022 C 
BRANCH   9  10
ATOM     10  C   UNL A   1      32.625  30.640  27.100  1.00  0.00     0.101 C 
BRANCH  10  11
ATOM     11  C   UNL A   1      34.122  30.862  27.346  1.00  0.00     0.222 C 
ATOM     12  N   UNL A   1      35.282  34.339  29.628  1.00  0.00    -0.328 N 
ATOM     13  C   UNL A   1      36.280  33.639  28.794  1.00  0.00     0.284 C 
ATOM     14  C   UNL A   1      34.044  34.412  28.851  1.00  0.00     0.284 C 
ATOM     15  H   UNL A   1      35.641  35.277  29.809  1.00  0.00     0.348 HD
ATOM     16  C   UNL A   1      35.903  32.221  28.336  1.00  0.00     0.181 C 
ATOM     17  C   UNL A   1      33.568  33.074  28.293  1.00  0.00     0.181 C 
ATOM     18  N   UNL A   1      34.532  32.093  27.848  1.00  0.00    -0.331 N 
ATOM     19  O   UNL A   1      34.924  29.956  27.113  1.00  0.00    -0.275 OA
BRANCH  12  20
ATOM     20  C   UNL A   1      35.152  33.966  31.063  1.00  0.00     0.089 C 
ATOM     21  C   UNL A   1      36.438  34.349  31.827  1.00  0.00     0.078 C 
ATOM     22  C   UNL A   1      34.841  32.491  31.394  1.00  0.00     0.078 C 
ATOM     23  C   UNL A   1      34.002  34.806  31.679  1.00  0.00     0.078 C 
ENDBRANCH  12  20
ENDBRANCH  10  11
ENDBRANCH   9  10
ENDBRANCH   8   9
ENDBRANCH   6   8
ENDBRANCH   5   6
ENDBRANCH   4   5
ENDBRANCH   3   4
ENDBRANCH   2   3
ENDBRANCH   1   2
BRANCH   1  24
ATOM     24  C   UNL A   1      35.881  22.417  26.123  1.00  0.00     0.188 C 
BRANCH  24  25
ATOM     25  O   UNL A   1      36.727  21.373  25.691  1.00  0.00    -0.376 OA
BRANCH  25  26
ATOM     26  C   UNL A   1      37.998  21.741  25.188  1.00  0.00     0.202 C 
BRANCH  26  27
ATOM     27  C   UNL A   1      39.226  21.699  26.117  1.00  0.00     0.261 C 
BRANCH  27  28
ATOM     28  O   UNL A   1      39.643  20.413  26.609  1.00  0.00    -0.460 OA
BRANCH  28  29
ATOM     29  C   UNL A   1      40.874  19.965  26.269  1.00  0.00     0.338 C 
ATOM     30  O   UNL A   1      41.129  18.913  25.705  1.00  0.00    -0.246 OA
BRANCH  29  31
ATOM     31  C   UNL A   1      41.831  21.095  26.433  1.00  0.00     0.060 A 
ATOM     32  C   UNL A   1      42.217  21.471  27.730  1.00  0.00     0.016 A 
ATOM     33  C   UNL A   1      42.387  21.744  25.327  1.00  0.00     0.016 A 
ATOM     34  C   UNL A   1      43.109  22.529  27.924  1.00  0.00     0.010 A 
ATOM     35  C   UNL A   1      43.264  22.820  25.523  1.00  0.00     0.010 A 
ATOM     36  C   UNL A   1      43.589  23.248  26.823  1.00  0.00    -0.014 A 
BRANCH  36  37
ATOM     37  C   UNL A   1      44.177  24.598  27.038  1.00  0.00     0.031 A 
ATOM     38  C   UNL A   1      43.262  25.679  27.558  1.00  0.00     0.074 A 
ATOM     39  C   UNL A   1      45.474  24.872  26.811  1.00  0.00     0.049 A 
ATOM     40  N   UNL A   1      43.521  26.932  27.831  1.00  0.00    -0.248 NA
ATOM     41  C   UNL A   1      41.861  25.291  27.800  1.00  0.00     0.031 C 
ATOM     42  C   UNL A   1      46.471  23.924  26.318  1.00  0.00     0.029 A 
ATOM     43  N   UNL A   1      46.169  26.050  26.952  1.00  0.00    -0.354 N 
ATOM     44  C   UNL A   1      42.316  27.483  28.249  1.00  0.00     0.074 A 
ATOM     45  C   UNL A   1      41.320  26.438  28.175  1.00  0.00     0.031 C 
ATOM     46  C   UNL A   1      47.646  24.565  26.174  1.00  0.00     0.029 A 
ATOM     47  C   UNL A   1      47.482  25.970  26.547  1.00  0.00     0.049 A 
ATOM     48  H   UNL A   1      45.765  26.874  27.309  1.00  0.00     0.167 HD
ATOM     49  C   UNL A   1      42.055  28.741  28.676  1.00  0.00     0.034 A 
ATOM     50  C   UNL A   1      48.432  26.926  26.476  1.00  0.00     0.034 A 
ATOM     51  C   UNL A   1      43.040  29.782  28.766  1.00  0.00     0.049 A 
ATOM     52  C   UNL A   1      48.113  28.328  26.935  1.00  0.00     0.074 A 
ATOM     53  C   UNL A   1      42.880  31.080  29.218  1.00  0.00     0.029 A 
ATOM     54  N   UNL A   1      44.365  29.651  28.384  1.00  0.00    -0.354 N 
ATOM     55  N   UNL A   1      46.997  28.804  27.436  1.00  0.00    -0.248 NA
ATOM     56  C   UNL A   1      49.200  29.317  26.857  1.00  0.00     0.031 C 
ATOM     57  C   UNL A   1      44.105  31.743  29.084  1.00  0.00     0.029 A 
ATOM     58  C   UNL A   1      45.036  30.845  28.583  1.00  0.00     0.049 A 
ATOM     59  H   UNL A   1      44.771  28.829  28.024  1.00  0.00     0.167 HD
ATOM     60  C   UNL A   1      47.262  30.129  27.772  1.00  0.00     0.074 A 
ATOM     61  C   UNL A   1      48.648  30.375  27.437  1.00  0.00     0.031 C 
ATOM     62  C   UNL A   1      46.431  31.063  28.301  1.00  0.00     0.034 A 
BRANCH  49  63
ATOM     63  C   UNL A   1      40.643  29.051  29.097  1.00  0.00     0.023 A 
ATOM     64  C   UNL A   1      39.688  29.419  28.128  1.00  0.00     0.012 A 
ATOM     65  C   UNL A   1      40.255  28.947  30.447  1.00  0.00     0.148 A 
ATOM     66  C   UNL A   1      38.376  29.712  28.499  1.00  0.00     0.002 A 
ATOM     67  C   UNL A   1      38.935  29.194  30.803  1.00  0.00     0.091 A 
ATOM     68  F   UNL A   1      41.184  28.624  31.357  1.00  0.00    -0.205 F 
ATOM     69  C   UNL A   1      37.998  29.590  29.832  1.00  0.00     0.022 A 
BRANCH  67  70
ATOM     70  S   UNL A   1      38.329  28.986  32.480  1.00  0.00     0.127 S 
ATOM     71  O   UNL A   1      38.748  27.617  32.778  1.00  0.00    -0.237 OA
ATOM     72  O   UNL A   1      39.068  30.022  33.203  1.00  0.00    -0.237 OA
ATOM     73  O   UNL A   1      36.889  29.198  32.417  1.00  0.00    -0.744 OA
ENDBRANCH  67  70
ENDBRANCH  49  63
BRANCH  50  74
ATOM     74  C   UNL A   1      49.801  26.592  25.982  1.00  0.00     0.023 A 
ATOM     75  C   UNL A   1      50.681  25.863  26.807  1.00  0.00     0.012 A 
ATOM     76  C   UNL A   1      50.240  27.006  24.710  1.00  0.00     0.148 A 
ATOM     77  C   UNL A   1      51.985  25.588  26.391  1.00  0.00     0.002 A 
ATOM     78  C   UNL A   1      51.521  26.680  24.278  1.00  0.00     0.091 A 
ATOM     79  F   UNL A   1      49.396  27.715  23.947  1.00  0.00    -0.205 F 
ATOM     80  C   UNL A   1      52.401  25.987  25.124  1.00  0.00     0.022 A 
BRANCH  78  81
ATOM     81  S   UNL A   1      52.106  27.051  22.621  1.00  0.00     0.127 S 
ATOM     82  O   UNL A   1      50.972  26.628  21.802  1.00  0.00    -0.237 OA
ATOM     83  O   UNL A   1      52.309  28.499  22.692  1.00  0.00    -0.237 OA
ATOM     84  O   UNL A   1      53.328  26.278  22.453  1.00  0.00    -0.744 OA
ENDBRANCH  78  81
ENDBRANCH  50  74
BRANCH  62  85
ATOM     85  C   UNL A   1      47.004  32.425  28.604  1.00  0.00     0.023 A 
ATOM     86  C   UNL A   1      47.561  32.694  29.870  1.00  0.00     0.012 A 
ATOM     87  C   UNL A   1      47.042  33.424  27.610  1.00  0.00     0.148 A 
ATOM     88  C   UNL A   1      48.105  33.946  30.156  1.00  0.00     0.002 A 
ATOM     89  C   UNL A   1      47.634  34.651  27.884  1.00  0.00     0.091 A 
ATOM     90  F   UNL A   1      46.494  33.159  26.415  1.00  0.00    -0.205 F 
ATOM     91  C   UNL A   1      48.150  34.920  29.162  1.00  0.00     0.022 A 
BRANCH  89  92
ATOM     92  S   UNL A   1      47.825  35.925  26.631  1.00  0.00     0.127 S 
ATOM     93  O   UNL A   1      48.568  35.214  25.593  1.00  0.00    -0.237 OA
ATOM     94  O   UNL A   1      46.437  36.234  26.285  1.00  0.00    -0.237 OA
ATOM     95  O   UNL A   1      48.540  37.017  27.280  1.00  0.00    -0.744 OA
ENDBRANCH  89  92
ENDBRANCH  62  85
ENDBRANCH  36  37
ENDBRANCH  29  31
ENDBRANCH  28  29
ENDBRANCH  27  28
ENDBRANCH  26  27
ENDBRANCH  25  26
ENDBRANCH  24  25
ENDBRANCH   1  24
TORSDOF 24
ENDMDL
MODEL 3
REMARK VINA RESULT:      -9.1      4.052      9.128
REMARK SMILES CC(C)(C)[NH+]1CCN(C(=O)CCCC(=O)OCCOCCOCCOC(=O)c2ccc(-c3c4nc(c(-c5cccc(S(=O)(=O)[O-])c5F)c5ccc([nH]5)c(-c5cccc(S(=O)(=O)[O-])c5F)c5nc(c(-c6cccc(S(=O)(=O)[O-])c6F)c6ccc3[nH]6)C=C5)C=C4)cc2)CC1
REMARK SMILES IDX 20 1 19 2 18 3 17 4 16 5 14 6 15 7 13 8 12 9 11 10 9 11 5 12
REMARK SMILES IDX 6 13 92 14 7 16 91 17 8 18 10 19 2 20 1 21 3 22 4 23 21 24
REMARK SMILES IDX 22 25 23 26 24 27 25 28 26 29 27 30 28 31 29 32 90 33 30 34
REMARK SMILES IDX 89 35 31 36 32 37 33 38 83 39 34 40 88 41 82 42 84 43 35 44
REMARK SMILES IDX 87 45 81 46 80 47 36 49 68 50 48 51 67 52 49 53 52 54 66 55
REMARK SMILES IDX 85 56 50 57 51 58 65 60 86 61 53 62 37 63 38 64 46 65 39 66
REMARK SMILES IDX 41 67 47 68 40 69 42 70 43 71 44 72 45 73 69 74 70 75 78 76
REMARK SMILES IDX 71 77 73 78 79 79 72 80 74 81 75 82 76 83 77 84 54 85 55 86
REMARK SMILES IDX 63 87 56 88 58 89 64 90 57 91 59 92 60 93 61 94 62 95
REMARK H PARENT 5 15 84 48 52 59
REMARK Flexibility Score: inf
ROOT
ATOM      1  C   UNL A   1      38.261  21.705  26.103  1.00  0.00     0.188 C 
ENDROOT
BRANCH   1   2
ATOM      2  O   UNL A   1      38.001  21.435  24.729  1.00  0.00    -0.376 OA
BRANCH   2   3
ATOM      3  C   UNL A   1      36.768  21.874  24.175  1.00  0.00     0.202 C 
BRANCH   3   4
ATOM      4  C   UNL A   1      36.515  23.384  24.120  1.00  0.00     0.261 C 
BRANCH   4   5
ATOM      5  O   UNL A   1      35.304  23.808  24.795  1.00  0.00    -0.463 OA
BRANCH   5   6
ATOM      6  C   UNL A   1      34.590  22.858  25.451  1.00  0.00     0.305 C 
ATOM      7  O   UNL A   1      34.882  22.448  26.569  1.00  0.00    -0.252 OA
BRANCH   6   8
ATOM      8  C   UNL A   1      33.416  22.253  24.673  1.00  0.00     0.123 C 
BRANCH   8   9
ATOM      9  C   UNL A   1      32.045  21.838  25.237  1.00  0.00     0.022 C 
BRANCH   9  10
ATOM     10  C   UNL A   1      30.911  22.841  25.478  1.00  0.00     0.101 C 
BRANCH  10  11
ATOM     11  C   UNL A   1      30.748  23.924  24.406  1.00  0.00     0.222 C 
ATOM     12  N   UNL A   1      31.701  27.989  25.505  1.00  0.00    -0.328 N 
ATOM     13  C   UNL A   1      30.882  27.724  24.305  1.00  0.00     0.284 C 
ATOM     14  C   UNL A   1      31.230  27.088  26.558  1.00  0.00     0.284 C 
ATOM     15  H   UNL A   1      31.541  28.960  25.774  1.00  0.00     0.348 HD
ATOM     16  C   UNL A   1      30.916  26.284  23.769  1.00  0.00     0.181 C 
ATOM     17  C   UNL A   1      31.170  25.619  26.152  1.00  0.00     0.181 C 
ATOM     18  N   UNL A   1      30.799  25.257  24.802  1.00  0.00    -0.331 N 
ATOM     19  O   UNL A   1      30.592  23.603  23.226  1.00  0.00    -0.275 OA
BRANCH  12  20
ATOM     20  C   UNL A   1      33.175  28.134  25.356  1.00  0.00     0.089 C 
ATOM     21  C   UNL A   1      33.506  28.801  24.004  1.00  0.00     0.078 C 
ATOM     22  C   UNL A   1      34.034  26.856  25.464  1.00  0.00     0.078 C 
ATOM     23  C   UNL A   1      33.681  29.097  26.462  1.00  0.00     0.078 C 
ENDBRANCH  12  20
ENDBRANCH  10  11
ENDBRANCH   9  10
ENDBRANCH   8   9
ENDBRANCH   6   8
ENDBRANCH   5   6
ENDBRANCH   4   5
ENDBRANCH   3   4
ENDBRANCH   2   3
ENDBRANCH   1   2
BRANCH   1  24
ATOM     24  C   UNL A   1      39.678  22.172  26.484  1.00  0.00     0.188 C 
BRANCH  24  25
ATOM     25  O   UNL A   1      40.336  21.324  27.399  1.00  0.00    -0.376 OA
BRANCH  25  26
ATOM     26  C   UNL A   1      41.088  20.253  26.858  1.00  0.00     0.202 C 
BRANCH  26  27
ATOM     27  C   UNL A   1      42.428  20.543  26.155  1.00  0.00     0.261 C 
BRANCH  27  28
ATOM     28  O   UNL A   1      43.096  21.775  26.480  1.00  0.00    -0.460 OA
BRANCH  28  29
ATOM     29  C   UNL A   1      43.132  22.750  25.543  1.00  0.00     0.338 C 
ATOM     30  O   UNL A   1      43.165  22.588  24.333  1.00  0.00    -0.246 OA
BRANCH  29  31
ATOM     31  C   UNL A   1      42.835  24.044  26.219  1.00  0.00     0.060 A 
ATOM     32  C   UNL A   1      42.588  25.179  25.430  1.00  0.00     0.016 A 
ATOM     33  C   UNL A   1      42.743  24.133  27.611  1.00  0.00     0.016 A 
ATOM     34  C   UNL A   1      42.309  26.411  26.029  1.00  0.00     0.010 A 
ATOM     35  C   UNL A   1      42.486  25.373  28.212  1.00  0.00     0.010 A 
ATOM     36  C   UNL A   1      42.318  26.527  27.424  1.00  0.00    -0.014 A 
BRANCH  36  37
ATOM     37  C   UNL A   1      42.445  27.875  28.039  1.00  0.00     0.031 A 
ATOM     38  C   UNL A   1      43.832  28.457  28.159  1.00  0.00     0.074 A 
ATOM     39  C   UNL A   1      41.384  28.585  28.462  1.00  0.00     0.049 A 
ATOM     40  N   UNL A   1      44.216  29.606  28.651  1.00  0.00    -0.248 NA
ATOM     41  C   UNL A   1      44.937  27.623  27.653  1.00  0.00     0.031 C 
ATOM     42  C   UNL A   1      39.990  28.151  28.401  1.00  0.00     0.029 A 
ATOM     43  N   UNL A   1      41.325  29.827  29.048  1.00  0.00    -0.354 N 
ATOM     44  C   UNL A   1      45.601  29.620  28.539  1.00  0.00     0.074 A 
ATOM     45  C   UNL A   1      45.995  28.359  27.952  1.00  0.00     0.031 C 
ATOM     46  C   UNL A   1      39.214  29.103  28.953  1.00  0.00     0.029 A 
ATOM     47  C   UNL A   1      40.055  30.204  29.421  1.00  0.00     0.049 A 
ATOM     48  H   UNL A   1      42.118  30.394  29.190  1.00  0.00     0.167 HD
ATOM     49  C   UNL A   1      46.475  30.598  28.875  1.00  0.00     0.034 A 
ATOM     50  C   UNL A   1      39.629  31.305  30.075  1.00  0.00     0.034 A 
ATOM     51  C   UNL A   1      46.092  31.859  29.446  1.00  0.00     0.049 A 
ATOM     52  C   UNL A   1      40.624  32.373  30.461  1.00  0.00     0.074 A 
ATOM     53  C   UNL A   1      46.901  32.928  29.790  1.00  0.00     0.029 A 
ATOM     54  N   UNL A   1      44.795  32.218  29.771  1.00  0.00    -0.354 N 
ATOM     55  N   UNL A   1      41.918  32.420  30.244  1.00  0.00    -0.248 NA
ATOM     56  C   UNL A   1      40.092  33.561  31.148  1.00  0.00     0.031 C 
ATOM     57  C   UNL A   1      46.094  33.924  30.349  1.00  0.00     0.029 A 
ATOM     58  C   UNL A   1      44.778  33.489  30.318  1.00  0.00     0.049 A 
ATOM     59  H   UNL A   1      44.001  31.652  29.633  1.00  0.00     0.167 HD
ATOM     60  C   UNL A   1      42.342  33.656  30.726  1.00  0.00     0.074 A 
ATOM     61  C   UNL A   1      41.166  34.334  31.227  1.00  0.00     0.031 C 
ATOM     62  C   UNL A   1      43.594  34.180  30.761  1.00  0.00     0.034 A 
BRANCH  49  63
ATOM     63  C   UNL A   1      47.935  30.343  28.612  1.00  0.00     0.023 A 
ATOM     64  C   UNL A   1      48.513  30.769  27.399  1.00  0.00     0.012 A 
ATOM     65  C   UNL A   1      48.741  29.709  29.577  1.00  0.00     0.148 A 
ATOM     66  C   UNL A   1      49.862  30.540  27.135  1.00  0.00     0.002 A 
ATOM     67  C   UNL A   1      50.096  29.527  29.327  1.00  0.00     0.091 A 
ATOM     68  F   UNL A   1      48.167  29.286  30.712  1.00  0.00    -0.205 F 
ATOM     69  C   UNL A   1      50.655  29.928  28.102  1.00  0.00     0.022 A 
BRANCH  67  70
ATOM     70  S   UNL A   1      51.217  28.823  30.539  1.00  0.00     0.127 S 
ATOM     71  O   UNL A   1      51.120  29.793  31.630  1.00  0.00    -0.237 OA
ATOM     72  O   UNL A   1      50.595  27.528  30.817  1.00  0.00    -0.237 OA
ATOM     73  O   UNL A   1      52.517  28.745  29.888  1.00  0.00    -0.744 OA
ENDBRANCH  67  70
ENDBRANCH  49  63
BRANCH  50  74
ATOM     74  C   UNL A   1      38.179  31.485  30.382  1.00  0.00     0.023 A 
ATOM     75  C   UNL A   1      37.634  30.897  31.542  1.00  0.00     0.012 A 
ATOM     76  C   UNL A   1      37.336  32.217  29.525  1.00  0.00     0.148 A 
ATOM     77  C   UNL A   1      36.270  31.002  31.820  1.00  0.00     0.002 A 
ATOM     78  C   UNL A   1      35.989  32.365  29.837  1.00  0.00     0.091 A 
ATOM     79  F   UNL A   1      37.868  32.751  28.416  1.00  0.00    -0.205 F 
ATOM     80  C   UNL A   1      35.451  31.744  30.975  1.00  0.00     0.022 A 
BRANCH  78  81
ATOM     81  S   UNL A   1      34.881  33.396  28.870  1.00  0.00     0.127 S 
ATOM     82  O   UNL A   1      34.760  32.627  27.634  1.00  0.00    -0.237 OA
ATOM     83  O   UNL A   1      33.680  33.411  29.706  1.00  0.00    -0.237 OA
ATOM     84  O   UNL A   1      35.547  34.685  28.749  1.00  0.00    -0.744 OA
ENDBRANCH  78  81
ENDBRANCH  50  74
BRANCH  62  85
ATOM     85  C   UNL A   1      43.759  35.575  31.309  1.00  0.00     0.023 A 
ATOM     86  C   UNL A   1      43.847  36.676  30.433  1.00  0.00     0.012 A 
ATOM     87  C   UNL A   1      43.769  35.801  32.700  1.00  0.00     0.148 A 
ATOM     88  C   UNL A   1      43.987  37.971  30.931  1.00  0.00     0.002 A 
ATOM     89  C   UNL A   1      43.855  37.099  33.190  1.00  0.00     0.091 A 
ATOM     90  F   UNL A   1      43.701  34.743  33.522  1.00  0.00    -0.205 F 
ATOM     91  C   UNL A   1      43.981  38.183  32.307  1.00  0.00     0.022 A 
BRANCH  89  92
ATOM     92  S   UNL A   1      43.753  37.471  34.945  1.00  0.00     0.127 S 
ATOM     93  O   UNL A   1      44.918  36.761  35.470  1.00  0.00    -0.237 OA
ATOM     94  O   UNL A   1      43.870  38.930  34.963  1.00  0.00    -0.237 OA
ATOM     95  O   UNL A   1      42.458  36.967  35.385  1.00  0.00    -0.744 OA
ENDBRANCH  89  92
ENDBRANCH  62  85
ENDBRANCH  36  37
ENDBRANCH  29  31
ENDBRANCH  28  29
ENDBRANCH  27  28
ENDBRANCH  26  27
ENDBRANCH  25  26
ENDBRANCH  24  25
ENDBRANCH   1  24
TORSDOF 24
ENDMDL
