MODEL 1
REMARK VINA RESULT:     -10.8      0.000      0.000
REMARK SMILES Cc1ccc2nc(NC(=O)[C@H]3CC=CC[C@@H]3C(=O)OCCOCCOCCOC(=O)c3ccc(-c4c5nc(c(-c6cccc(S(=O)(=O)[O-])c6F)c6ccc([nH]6)c(-c6cccc(S(=O)(=O)[O-])c6F)c6nc(c(-c7cccc(S(=O)(=O)[O-])c7F)c7ccc4[nH]7)C=C6)C=C5)cc3)sc2c1
REMARK SMILES IDX 24 1 23 2 22 3 21 4 20 5 19 6 17 7 18 8 16 9 11 10 12 11
REMARK SMILES IDX 13 12 15 13 14 14 9 15 8 16 10 18 7 19 1 20 2 21 3 22 96 23
REMARK SMILES IDX 4 24 95 25 5 26 94 27 6 28 25 29 26 30 27 31 28 32 29 33
REMARK SMILES IDX 30 34 31 35 32 36 93 37 33 38 92 39 34 40 35 41 36 42 86 43
REMARK SMILES IDX 37 44 91 45 85 46 87 47 38 48 90 49 84 50 83 51 39 53 71 54
REMARK SMILES IDX 51 55 70 56 52 57 55 58 69 59 88 60 53 61 54 62 68 64 89 65
REMARK SMILES IDX 56 66 40 67 41 68 49 69 42 70 44 71 50 72 43 73 45 74 46 75
REMARK SMILES IDX 47 76 48 77 72 78 73 79 81 80 74 81 76 82 82 83 75 84 77 85
REMARK SMILES IDX 78 86 79 87 80 88 57 89 58 90 66 91 59 92 61 93 67 94 60 95
REMARK SMILES IDX 62 96 63 97 64 98 65 99
REMARK H PARENT 8 17 87 52 55 63
REMARK Flexibility Score: inf
ROOT
ATOM      1  C   UNL A   1      38.749  22.812  26.454  1.00  0.00     0.188 C 
ENDROOT
BRANCH   1   2
ATOM      2  C   UNL A   1      37.798  23.824  25.852  1.00  0.00     0.188 C 
BRANCH   2   3
ATOM      3  O   UNL A   1      36.448  23.624  26.243  1.00  0.00    -0.376 OA
BRANCH   3   4
ATOM      4  C   UNL A   1      35.488  24.030  25.274  1.00  0.00     0.202 C 
BRANCH   4   5
ATOM      5  C   UNL A   1      34.333  24.949  25.752  1.00  0.00     0.261 C 
BRANCH   5   6
ATOM      6  O   UNL A   1      34.399  26.322  25.279  1.00  0.00    -0.463 OA
BRANCH   6   7
ATOM      7  C   UNL A   1      33.788  27.275  26.042  1.00  0.00     0.310 C 
ATOM      8  O   UNL A   1      34.406  28.017  26.793  1.00  0.00    -0.252 OA
BRANCH   7   9
ATOM      9  C   UNL A   1      32.266  27.346  25.794  1.00  0.00     0.116 C 
ATOM     10  C   UNL A   1      31.945  28.211  24.544  1.00  0.00     0.097 C 
ATOM     11  C   UNL A   1      32.283  29.705  24.817  1.00  0.00     0.041 C 
ATOM     12  C   UNL A   1      32.133  30.154  26.246  1.00  0.00    -0.030 C 
ATOM     13  C   UNL A   1      31.541  27.880  27.031  1.00  0.00     0.043 C 
ATOM     14  C   UNL A   1      31.774  29.339  27.248  1.00  0.00    -0.030 C 
BRANCH  10  15
ATOM     15  C   UNL A   1      30.514  28.038  23.968  1.00  0.00     0.230 C 
ATOM     16  N   UNL A   1      29.992  26.819  23.611  1.00  0.00    -0.302 N 
ATOM     17  H   UNL A   1      29.114  26.826  23.165  1.00  0.00     0.172 HD
ATOM     18  O   UNL A   1      29.792  29.019  23.749  1.00  0.00    -0.274 OA
BRANCH  16  19
ATOM     19  C   UNL A   1      30.566  25.598  23.814  1.00  0.00     0.190 A 
ATOM     20  C   UNL A   1      33.416  20.104  24.248  1.00  0.00     0.044 C 
ATOM     21  C   UNL A   1      32.594  21.354  24.347  1.00  0.00    -0.050 A 
ATOM     22  C   UNL A   1      31.781  21.480  25.465  1.00  0.00     0.006 A 
ATOM     23  C   UNL A   1      32.588  22.350  23.338  1.00  0.00     0.024 A 
ATOM     24  C   UNL A   1      30.987  22.599  25.605  1.00  0.00     0.030 A 
ATOM     25  C   UNL A   1      31.817  23.519  23.542  1.00  0.00     0.057 A 
ATOM     26  C   UNL A   1      31.036  23.648  24.684  1.00  0.00     0.084 A 
ATOM     27  S   UNL A   1      31.592  24.965  22.600  1.00  0.00    -0.097 S 
ATOM     28  N   UNL A   1      30.358  24.827  24.834  1.00  0.00    -0.220 NA
ENDBRANCH  16  19
ENDBRANCH  10  15
ENDBRANCH   7   9
ENDBRANCH   6   7
ENDBRANCH   5   6
ENDBRANCH   4   5
ENDBRANCH   3   4
ENDBRANCH   2   3
ENDBRANCH   1   2
BRANCH   1  29
ATOM     29  O   UNL A   1      39.050  21.712  25.588  1.00  0.00    -0.376 OA
BRANCH  29  30
ATOM     30  C   UNL A   1      39.077  20.441  26.228  1.00  0.00     0.202 C 
BRANCH  30  31
ATOM     31  C   UNL A   1      40.150  19.469  25.701  1.00  0.00     0.261 C 
BRANCH  31  32
ATOM     32  O   UNL A   1      41.271  19.357  26.591  1.00  0.00    -0.460 OA
BRANCH  32  33
ATOM     33  C   UNL A   1      42.427  19.926  26.141  1.00  0.00     0.338 C 
ATOM     34  O   UNL A   1      43.253  19.416  25.417  1.00  0.00    -0.246 OA
BRANCH  33  35
ATOM     35  C   UNL A   1      42.404  21.379  26.474  1.00  0.00     0.060 A 
ATOM     36  C   UNL A   1      42.419  22.293  25.406  1.00  0.00     0.016 A 
ATOM     37  C   UNL A   1      42.256  21.841  27.785  1.00  0.00     0.016 A 
ATOM     38  C   UNL A   1      42.307  23.662  25.645  1.00  0.00     0.010 A 
ATOM     39  C   UNL A   1      42.171  23.213  28.027  1.00  0.00     0.010 A 
ATOM     40  C   UNL A   1      42.234  24.129  26.962  1.00  0.00    -0.014 A 
BRANCH  40  41
ATOM     41  C   UNL A   1      42.521  25.554  27.248  1.00  0.00     0.031 A 
ATOM     42  C   UNL A   1      43.887  26.063  26.876  1.00  0.00     0.074 A 
ATOM     43  C   UNL A   1      41.623  26.370  27.828  1.00  0.00     0.049 A 
ATOM     44  N   UNL A   1      44.428  27.233  27.087  1.00  0.00    -0.248 NA
ATOM     45  C   UNL A   1      44.769  25.110  26.176  1.00  0.00     0.031 C 
ATOM     46  C   UNL A   1      40.264  26.000  28.218  1.00  0.00     0.029 A 
ATOM     47  N   UNL A   1      41.744  27.681  28.221  1.00  0.00    -0.354 N 
ATOM     48  C   UNL A   1      45.718  27.145  26.579  1.00  0.00     0.074 A 
ATOM     49  C   UNL A   1      45.887  25.807  26.062  1.00  0.00     0.031 C 
ATOM     50  C   UNL A   1      39.688  27.051  28.831  1.00  0.00     0.029 A 
ATOM     51  C   UNL A   1      40.646  28.154  28.900  1.00  0.00     0.049 A 
ATOM     52  H   UNL A   1      42.539  28.229  28.033  1.00  0.00     0.167 HD
ATOM     53  C   UNL A   1      46.677  28.099  26.533  1.00  0.00     0.034 A 
ATOM     54  C   UNL A   1      40.457  29.331  29.531  1.00  0.00     0.034 A 
ATOM     55  C   UNL A   1      46.505  29.429  27.044  1.00  0.00     0.049 A 
ATOM     56  C   UNL A   1      41.554  30.368  29.500  1.00  0.00     0.074 A 
ATOM     57  C   UNL A   1      47.402  30.481  27.020  1.00  0.00     0.029 A 
ATOM     58  N   UNL A   1      45.365  29.886  27.685  1.00  0.00    -0.354 N 
ATOM     59  N   UNL A   1      42.733  30.311  28.928  1.00  0.00    -0.248 NA
ATOM     60  C   UNL A   1      41.283  31.646  30.177  1.00  0.00     0.031 C 
ATOM     61  C   UNL A   1      46.816  31.564  27.682  1.00  0.00     0.029 A 
ATOM     62  C   UNL A   1      45.538  31.201  28.076  1.00  0.00     0.049 A 
ATOM     63  H   UNL A   1      44.551  29.352  27.841  1.00  0.00     0.167 HD
ATOM     64  C   UNL A   1      43.325  31.553  29.140  1.00  0.00     0.074 A 
ATOM     65  C   UNL A   1      42.368  32.348  29.880  1.00  0.00     0.031 C 
ATOM     66  C   UNL A   1      44.553  31.994  28.766  1.00  0.00     0.034 A 
BRANCH  53  67
ATOM     67  C   UNL A   1      47.992  27.728  25.902  1.00  0.00     0.023 A 
ATOM     68  C   UNL A   1      49.080  27.353  26.717  1.00  0.00     0.012 A 
ATOM     69  C   UNL A   1      48.143  27.725  24.503  1.00  0.00     0.148 A 
ATOM     70  C   UNL A   1      50.309  27.018  26.150  1.00  0.00     0.002 A 
ATOM     71  C   UNL A   1      49.355  27.341  23.943  1.00  0.00     0.091 A 
ATOM     72  F   UNL A   1      47.105  28.111  23.747  1.00  0.00    -0.205 F 
ATOM     73  C   UNL A   1      50.443  27.000  24.764  1.00  0.00     0.022 A 
BRANCH  71  74
ATOM     74  S   UNL A   1      49.605  27.211  22.170  1.00  0.00     0.127 S 
ATOM     75  O   UNL A   1      49.336  28.581  21.732  1.00  0.00    -0.237 OA
ATOM     76  O   UNL A   1      51.010  26.810  22.088  1.00  0.00    -0.237 OA
ATOM     77  O   UNL A   1      48.657  26.211  21.700  1.00  0.00    -0.744 OA
ENDBRANCH  71  74
ENDBRANCH  53  67
BRANCH  54  78
ATOM     78  C   UNL A   1      39.171  29.607  30.237  1.00  0.00     0.023 A 
ATOM     79  C   UNL A   1      38.958  29.089  31.529  1.00  0.00     0.012 A 
ATOM     80  C   UNL A   1      38.158  30.377  29.632  1.00  0.00     0.148 A 
ATOM     81  C   UNL A   1      37.748  29.306  32.193  1.00  0.00     0.002 A 
ATOM     82  C   UNL A   1      36.978  30.634  30.319  1.00  0.00     0.091 A 
ATOM     83  F   UNL A   1      38.371  30.844  28.393  1.00  0.00    -0.205 F 
ATOM     84  C   UNL A   1      36.764  30.085  31.592  1.00  0.00     0.022 A 
BRANCH  82  85
ATOM     85  S   UNL A   1      35.696  31.715  29.672  1.00  0.00     0.127 S 
ATOM     86  O   UNL A   1      36.478  32.855  29.198  1.00  0.00    -0.237 OA
ATOM     87  O   UNL A   1      35.110  30.891  28.616  1.00  0.00    -0.237 OA
ATOM     88  O   UNL A   1      34.805  31.986  30.791  1.00  0.00    -0.744 OA
ENDBRANCH  82  85
ENDBRANCH  54  78
BRANCH  66  89
ATOM     89  C   UNL A   1      44.925  33.417  29.100  1.00  0.00     0.023 A 
ATOM     90  C   UNL A   1      45.520  33.719  30.340  1.00  0.00     0.012 A 
ATOM     91  C   UNL A   1      44.762  34.439  28.142  1.00  0.00     0.148 A 
ATOM     92  C   UNL A   1      45.916  35.024  30.635  1.00  0.00     0.002 A 
ATOM     93  C   UNL A   1      45.208  35.724  28.423  1.00  0.00     0.091 A 
ATOM     94  F   UNL A   1      44.183  34.133  26.973  1.00  0.00    -0.205 F 
ATOM     95  C   UNL A   1      45.771  36.022  29.674  1.00  0.00     0.022 A 
BRANCH  93  96
ATOM     96  S   UNL A   1      45.159  37.050  27.211  1.00  0.00     0.127 S 
ATOM     97  O   UNL A   1      46.010  36.516  26.149  1.00  0.00    -0.237 OA
ATOM     98  O   UNL A   1      43.736  37.111  26.878  1.00  0.00    -0.237 OA
ATOM     99  O   UNL A   1      45.673  38.233  27.887  1.00  0.00    -0.744 OA
ENDBRANCH  93  96
ENDBRANCH  66  89
ENDBRANCH  40  41
ENDBRANCH  33  35
ENDBRANCH  32  33
ENDBRANCH  31  32
ENDBRANCH  30  31
ENDBRANCH  29  30
ENDBRANCH   1  29
TORSDOF 22
ENDMDL
MODEL 2
REMARK VINA RESULT:     -10.7      4.867      7.013
REMARK SMILES Cc1ccc2nc(NC(=O)[C@H]3CC=CC[C@@H]3C(=O)OCCOCCOCCOC(=O)c3ccc(-c4c5nc(c(-c6cccc(S(=O)(=O)[O-])c6F)c6ccc([nH]6)c(-c6cccc(S(=O)(=O)[O-])c6F)c6nc(c(-c7cccc(S(=O)(=O)[O-])c7F)c7ccc4[nH]7)C=C6)C=C5)cc3)sc2c1
REMARK SMILES IDX 24 1 23 2 22 3 21 4 20 5 19 6 17 7 18 8 16 9 11 10 12 11
REMARK SMILES IDX 13 12 15 13 14 14 9 15 8 16 10 18 7 19 1 20 2 21 3 22 96 23
REMARK SMILES IDX 4 24 95 25 5 26 94 27 6 28 25 29 26 30 27 31 28 32 29 33
REMARK SMILES IDX 30 34 31 35 32 36 93 37 33 38 92 39 34 40 35 41 36 42 86 43
REMARK SMILES IDX 37 44 91 45 85 46 87 47 38 48 90 49 84 50 83 51 39 53 71 54
REMARK SMILES IDX 51 55 70 56 52 57 55 58 69 59 88 60 53 61 54 62 68 64 89 65
REMARK SMILES IDX 56 66 40 67 41 68 49 69 42 70 44 71 50 72 43 73 45 74 46 75
REMARK SMILES IDX 47 76 48 77 72 78 73 79 81 80 74 81 76 82 82 83 75 84 77 85
REMARK SMILES IDX 78 86 79 87 80 88 57 89 58 90 66 91 59 92 61 93 67 94 60 95
REMARK SMILES IDX 62 96 63 97 64 98 65 99
REMARK H PARENT 8 17 87 52 55 63
REMARK Flexibility Score: inf
ROOT
ATOM      1  C   UNL A   1      40.586  20.809  26.260  1.00  0.00     0.188 C 
ENDROOT
BRANCH   1   2
ATOM      2  C   UNL A   1      39.421  21.770  26.356  1.00  0.00     0.188 C 
BRANCH   2   3
ATOM      3  O   UNL A   1      38.490  21.630  25.294  1.00  0.00    -0.376 OA
BRANCH   3   4
ATOM      4  C   UNL A   1      37.126  21.662  25.697  1.00  0.00     0.202 C 
BRANCH   4   5
ATOM      5  C   UNL A   1      36.049  21.587  24.583  1.00  0.00     0.261 C 
BRANCH   5   6
ATOM      6  O   UNL A   1      35.654  22.867  24.017  1.00  0.00    -0.463 OA
BRANCH   6   7
ATOM      7  C   UNL A   1      35.217  23.825  24.885  1.00  0.00     0.310 C 
ATOM      8  O   UNL A   1      35.973  24.447  25.618  1.00  0.00    -0.252 OA
BRANCH   7   9
ATOM      9  C   UNL A   1      33.696  24.068  24.782  1.00  0.00     0.116 C 
ATOM     10  C   UNL A   1      33.242  24.132  23.298  1.00  0.00     0.097 C 
ATOM     11  C   UNL A   1      33.806  25.410  22.612  1.00  0.00     0.041 C 
ATOM     12  C   UNL A   1      33.997  26.601  23.515  1.00  0.00    -0.030 C 
ATOM     13  C   UNL A   1      33.300  25.342  25.533  1.00  0.00     0.043 C 
ATOM     14  C   UNL A   1      33.748  26.583  24.832  1.00  0.00    -0.030 C 
BRANCH  10  15
ATOM     15  C   UNL A   1      31.715  23.978  23.065  1.00  0.00     0.230 C 
ATOM     16  N   UNL A   1      31.078  22.761  23.056  1.00  0.00    -0.302 N 
ATOM     17  H   UNL A   1      30.126  22.762  22.803  1.00  0.00     0.172 HD
ATOM     18  O   UNL A   1      31.006  24.960  22.815  1.00  0.00    -0.274 OA
BRANCH  16  19
ATOM     19  C   UNL A   1      31.629  21.552  23.365  1.00  0.00     0.190 A 
ATOM     20  C   UNL A   1      34.198  16.239  25.278  1.00  0.00     0.044 C 
ATOM     21  C   UNL A   1      33.607  17.427  24.581  1.00  0.00    -0.050 A 
ATOM     22  C   UNL A   1      33.396  17.308  23.214  1.00  0.00     0.006 A 
ATOM     23  C   UNL A   1      33.318  18.644  25.249  1.00  0.00     0.024 A 
ATOM     24  C   UNL A   1      32.872  18.373  22.512  1.00  0.00     0.030 A 
ATOM     25  C   UNL A   1      32.716  19.694  24.517  1.00  0.00     0.057 A 
ATOM     26  C   UNL A   1      32.476  19.547  23.156  1.00  0.00     0.084 A 
ATOM     27  S   UNL A   1      32.162  21.282  24.968  1.00  0.00    -0.097 S 
ATOM     28  N   UNL A   1      31.847  20.588  22.528  1.00  0.00    -0.220 NA
ENDBRANCH  16  19
ENDBRANCH  10  15
ENDBRANCH   7   9
ENDBRANCH   6   7
ENDBRANCH   5   6
ENDBRANCH   4   5
ENDBRANCH   3   4
ENDBRANCH   2   3
ENDBRANCH   1   2
BRANCH   1  29
ATOM     29  O   UNL A   1      41.736  21.355  25.604  1.00  0.00    -0.376 OA
BRANCH  29  30
ATOM     30  C   UNL A   1      42.979  20.810  26.031  1.00  0.00     0.202 C 
BRANCH  30  31
ATOM     31  C   UNL A   1      44.226  21.581  25.555  1.00  0.00     0.261 C 
BRANCH  31  32
ATOM     32  O   UNL A   1      44.412  22.813  26.270  1.00  0.00    -0.460 OA
BRANCH  32  33
ATOM     33  C   UNL A   1      44.162  23.944  25.549  1.00  0.00     0.338 C 
ATOM     34  O   UNL A   1      44.311  24.092  24.357  1.00  0.00    -0.246 OA
BRANCH  33  35
ATOM     35  C   UNL A   1      43.430  24.910  26.417  1.00  0.00     0.060 A 
ATOM     36  C   UNL A   1      43.772  26.269  26.313  1.00  0.00     0.016 A 
ATOM     37  C   UNL A   1      42.360  24.520  27.228  1.00  0.00     0.016 A 
ATOM     38  C   UNL A   1      43.064  27.234  27.029  1.00  0.00     0.010 A 
ATOM     39  C   UNL A   1      41.669  25.482  27.967  1.00  0.00     0.010 A 
ATOM     40  C   UNL A   1      42.042  26.836  27.899  1.00  0.00    -0.014 A 
BRANCH  40  41
ATOM     41  C   UNL A   1      41.568  27.772  28.944  1.00  0.00     0.031 A 
ATOM     42  C   UNL A   1      42.305  27.759  30.256  1.00  0.00     0.074 A 
ATOM     43  C   UNL A   1      40.519  28.593  28.759  1.00  0.00     0.049 A 
ATOM     44  N   UNL A   1      42.054  28.408  31.361  1.00  0.00    -0.248 NA
ATOM     45  C   UNL A   1      43.486  26.879  30.331  1.00  0.00     0.031 C 
ATOM     46  C   UNL A   1      39.737  28.710  27.530  1.00  0.00     0.029 A 
ATOM     47  N   UNL A   1      39.913  29.464  29.631  1.00  0.00    -0.354 N 
ATOM     48  C   UNL A   1      43.020  27.992  32.267  1.00  0.00     0.074 A 
ATOM     49  C   UNL A   1      43.855  27.025  31.593  1.00  0.00     0.031 C 
ATOM     50  C   UNL A   1      38.728  29.575  27.739  1.00  0.00     0.029 A 
ATOM     51  C   UNL A   1      38.778  30.049  29.122  1.00  0.00     0.049 A 
ATOM     52  H   UNL A   1      40.259  29.651  30.533  1.00  0.00     0.167 HD
ATOM     53  C   UNL A   1      43.208  28.388  33.548  1.00  0.00     0.034 A 
ATOM     54  C   UNL A   1      37.870  30.848  29.720  1.00  0.00     0.034 A 
ATOM     55  C   UNL A   1      42.380  29.351  34.215  1.00  0.00     0.049 A 
ATOM     56  C   UNL A   1      38.078  31.248  31.162  1.00  0.00     0.074 A 
ATOM     57  C   UNL A   1      42.502  29.845  35.500  1.00  0.00     0.029 A 
ATOM     58  N   UNL A   1      41.266  29.955  33.654  1.00  0.00    -0.354 N 
ATOM     59  N   UNL A   1      39.053  30.928  31.979  1.00  0.00    -0.248 NA
ATOM     60  C   UNL A   1      37.075  32.146  31.755  1.00  0.00     0.031 C 
ATOM     61  C   UNL A   1      41.437  30.722  35.729  1.00  0.00     0.029 A 
ATOM     62  C   UNL A   1      40.680  30.809  34.572  1.00  0.00     0.049 A 
ATOM     63  H   UNL A   1      40.939  29.800  32.738  1.00  0.00     0.167 HD
ATOM     64  C   UNL A   1      38.803  31.614  33.164  1.00  0.00     0.074 A 
ATOM     65  C   UNL A   1      37.593  32.380  32.953  1.00  0.00     0.031 C 
ATOM     66  C   UNL A   1      39.505  31.605  34.326  1.00  0.00     0.034 A 
BRANCH  53  67
ATOM     67  C   UNL A   1      44.359  27.775  34.300  1.00  0.00     0.023 A 
ATOM     68  C   UNL A   1      45.597  28.447  34.358  1.00  0.00     0.012 A 
ATOM     69  C   UNL A   1      44.207  26.547  34.970  1.00  0.00     0.148 A 
ATOM     70  C   UNL A   1      46.677  27.889  35.041  1.00  0.00     0.002 A 
ATOM     71  C   UNL A   1      45.272  26.020  35.690  1.00  0.00     0.091 A 
ATOM     72  F   UNL A   1      43.031  25.910  34.878  1.00  0.00    -0.205 F 
ATOM     73  C   UNL A   1      46.511  26.682  35.715  1.00  0.00     0.022 A 
BRANCH  71  74
ATOM     74  S   UNL A   1      45.137  24.513  36.656  1.00  0.00     0.127 S 
ATOM     75  O   UNL A   1      45.154  23.490  35.611  1.00  0.00    -0.237 OA
ATOM     76  O   UNL A   1      46.348  24.566  37.476  1.00  0.00    -0.237 OA
ATOM     77  O   UNL A   1      43.891  24.621  37.401  1.00  0.00    -0.744 OA
ENDBRANCH  71  74
ENDBRANCH  53  67
BRANCH  54  78
ATOM     78  C   UNL A   1      36.685  31.340  28.959  1.00  0.00     0.023 A 
ATOM     79  C   UNL A   1      36.547  32.716  28.694  1.00  0.00     0.012 A 
ATOM     80  C   UNL A   1      35.692  30.452  28.500  1.00  0.00     0.148 A 
ATOM     81  C   UNL A   1      35.428  33.202  28.014  1.00  0.00     0.002 A 
ATOM     82  C   UNL A   1      34.608  30.935  27.777  1.00  0.00     0.091 A 
ATOM     83  F   UNL A   1      35.830  29.148  28.780  1.00  0.00    -0.205 F 
ATOM     84  C   UNL A   1      34.465  32.312  27.547  1.00  0.00     0.022 A 
BRANCH  82  85
ATOM     85  S   UNL A   1      33.373  29.855  27.044  1.00  0.00     0.127 S 
ATOM     86  O   UNL A   1      32.201  30.726  27.002  1.00  0.00    -0.237 OA
ATOM     87  O   UNL A   1      33.966  29.560  25.740  1.00  0.00    -0.237 OA
ATOM     88  O   UNL A   1      33.272  28.707  27.935  1.00  0.00    -0.744 OA
ENDBRANCH  82  85
ENDBRANCH  54  78
BRANCH  66  89
ATOM     89  C   UNL A   1      39.021  32.485  35.451  1.00  0.00     0.023 A 
ATOM     90  C   UNL A   1      38.041  32.012  36.346  1.00  0.00     0.012 A 
ATOM     91  C   UNL A   1      39.607  33.748  35.669  1.00  0.00     0.148 A 
ATOM     92  C   UNL A   1      37.626  32.800  37.421  1.00  0.00     0.002 A 
ATOM     93  C   UNL A   1      39.228  34.503  36.773  1.00  0.00     0.091 A 
ATOM     94  F   UNL A   1      40.529  34.184  34.800  1.00  0.00    -0.205 F 
ATOM     95  C   UNL A   1      38.228  34.037  37.641  1.00  0.00     0.022 A 
BRANCH  93  96
ATOM     96  S   UNL A   1      40.018  36.060  37.195  1.00  0.00     0.127 S 
ATOM     97  O   UNL A   1      39.091  36.607  38.183  1.00  0.00    -0.237 OA
ATOM     98  O   UNL A   1      41.301  35.618  37.742  1.00  0.00    -0.237 OA
ATOM     99  O   UNL A   1      40.119  36.811  35.951  1.00  0.00    -0.744 OA
ENDBRANCH  93  96
ENDBRANCH  66  89
ENDBRANCH  40  41
ENDBRANCH  33  35
ENDBRANCH  32  33
ENDBRANCH  31  32
ENDBRANCH  30  31
ENDBRANCH  29  30
ENDBRANCH   1  29
TORSDOF 22
ENDMDL
MODEL 3
REMARK VINA RESULT:     -10.4      5.595     11.085
REMARK SMILES Cc1ccc2nc(NC(=O)[C@H]3CC=CC[C@@H]3C(=O)OCCOCCOCCOC(=O)c3ccc(-c4c5nc(c(-c6cccc(S(=O)(=O)[O-])c6F)c6ccc([nH]6)c(-c6cccc(S(=O)(=O)[O-])c6F)c6nc(c(-c7cccc(S(=O)(=O)[O-])c7F)c7ccc4[nH]7)C=C6)C=C5)cc3)sc2c1
REMARK SMILES IDX 24 1 23 2 22 3 21 4 20 5 19 6 17 7 18 8 16 9 11 10 12 11
REMARK SMILES IDX 13 12 15 13 14 14 9 15 8 16 10 18 7 19 1 20 2 21 3 22 96 23
REMARK SMILES IDX 4 24 95 25 5 26 94 27 6 28 25 29 26 30 27 31 28 32 29 33
REMARK SMILES IDX 30 34 31 35 32 36 93 37 33 38 92 39 34 40 35 41 36 42 86 43
REMARK SMILES IDX 37 44 91 45 85 46 87 47 38 48 90 49 84 50 83 51 39 53 71 54
REMARK SMILES IDX 51 55 70 56 52 57 55 58 69 59 88 60 53 61 54 62 68 64 89 65
REMARK SMILES IDX 56 66 40 67 41 68 49 69 42 70 44 71 50 72 43 73 45 74 46 75
REMARK SMILES IDX 47 76 48 77 72 78 73 79 81 80 74 81 76 82 82 83 75 84 77 85
REMARK SMILES IDX 78 86 79 87 80 88 57 89 58 90 66 91 59 92 61 93 67 94 60 95
REMARK SMILES IDX 62 96 63 97 64 98 65 99
REMARK H PARENT 8 17 87 52 55 63
REMARK Flexibility Score: inf
ROOT
ATOM      1  C   UNL A   1      32.438  29.211  27.513  1.00  0.00     0.188 C 
ENDROOT
BRANCH   1   2
ATOM      2  C   UNL A   1      31.339  28.206  27.245  1.00  0.00     0.188 C 
BRANCH   2   3
ATOM      3  O   UNL A   1      31.825  26.954  26.786  1.00  0.00    -0.376 OA
BRANCH   3   4
ATOM      4  C   UNL A   1      33.212  26.938  26.473  1.00  0.00     0.202 C 
BRANCH   4   5
ATOM      5  C   UNL A   1      33.714  25.842  25.496  1.00  0.00     0.261 C 
BRANCH   5   6
ATOM      6  O   UNL A   1      34.326  24.684  26.127  1.00  0.00    -0.463 OA
BRANCH   6   7
ATOM      7  C   UNL A   1      35.359  24.086  25.465  1.00  0.00     0.310 C 
ATOM      8  O   UNL A   1      36.514  24.129  25.865  1.00  0.00    -0.252 OA
BRANCH   7   9
ATOM      9  C   UNL A   1      34.892  23.310  24.215  1.00  0.00     0.116 C 
ATOM     10  C   UNL A   1      33.645  22.439  24.534  1.00  0.00     0.097 C 
ATOM     11  C   UNL A   1      34.027  21.276  25.495  1.00  0.00     0.041 C 
ATOM     12  C   UNL A   1      35.436  20.761  25.362  1.00  0.00    -0.030 C 
ATOM     13  C   UNL A   1      36.029  22.454  23.652  1.00  0.00     0.043 C 
ATOM     14  C   UNL A   1      36.339  21.274  24.514  1.00  0.00    -0.030 C 
BRANCH  10  15
ATOM     15  C   UNL A   1      32.857  21.932  23.297  1.00  0.00     0.230 C 
ATOM     16  N   UNL A   1      31.964  22.713  22.606  1.00  0.00    -0.302 N 
ATOM     17  H   UNL A   1      31.442  22.269  21.898  1.00  0.00     0.172 HD
ATOM     18  O   UNL A   1      32.960  20.761  22.912  1.00  0.00    -0.274 OA
BRANCH  16  19
ATOM     19  C   UNL A   1      31.726  24.042  22.799  1.00  0.00     0.190 A 
ATOM     20  C   UNL A   1      30.187  29.944  23.936  1.00  0.00     0.044 C 
ATOM     21  C   UNL A   1      30.737  28.617  23.508  1.00  0.00    -0.050 A 
ATOM     22  C   UNL A   1      31.894  28.639  22.741  1.00  0.00     0.006 A 
ATOM     23  C   UNL A   1      30.099  27.388  23.810  1.00  0.00     0.024 A 
ATOM     24  C   UNL A   1      32.440  27.451  22.301  1.00  0.00     0.030 A 
ATOM     25  C   UNL A   1      30.719  26.183  23.404  1.00  0.00     0.057 A 
ATOM     26  C   UNL A   1      31.898  26.218  22.669  1.00  0.00     0.084 A 
ATOM     27  S   UNL A   1      30.302  24.507  23.626  1.00  0.00    -0.097 S 
ATOM     28  N   UNL A   1      32.462  25.012  22.356  1.00  0.00    -0.220 NA
ENDBRANCH  16  19
ENDBRANCH  10  15
ENDBRANCH   7   9
ENDBRANCH   6   7
ENDBRANCH   5   6
ENDBRANCH   4   5
ENDBRANCH   3   4
ENDBRANCH   2   3
ENDBRANCH   1   2
BRANCH   1  29
ATOM     29  O   UNL A   1      32.288  30.440  26.796  1.00  0.00    -0.376 OA
BRANCH  29  30
ATOM     30  C   UNL A   1      33.112  31.504  27.259  1.00  0.00     0.202 C 
BRANCH  30  31
ATOM     31  C   UNL A   1      32.401  32.863  27.406  1.00  0.00     0.261 C 
BRANCH  31  32
ATOM     32  O   UNL A   1      33.327  33.952  27.544  1.00  0.00    -0.460 OA
BRANCH  32  33
ATOM     33  C   UNL A   1      33.369  34.524  28.782  1.00  0.00     0.338 C 
ATOM     34  O   UNL A   1      32.542  35.261  29.269  1.00  0.00    -0.246 OA
BRANCH  33  35
ATOM     35  C   UNL A   1      34.479  33.899  29.557  1.00  0.00     0.060 A 
ATOM     36  C   UNL A   1      35.795  34.224  29.187  1.00  0.00     0.016 A 
ATOM     37  C   UNL A   1      34.246  33.108  30.686  1.00  0.00     0.016 A 
ATOM     38  C   UNL A   1      36.876  33.747  29.928  1.00  0.00     0.010 A 
ATOM     39  C   UNL A   1      35.329  32.607  31.411  1.00  0.00     0.010 A 
ATOM     40  C   UNL A   1      36.647  32.894  31.013  1.00  0.00    -0.014 A 
BRANCH  40  41
ATOM     41  C   UNL A   1      37.759  32.072  31.543  1.00  0.00     0.031 A 
ATOM     42  C   UNL A   1      38.349  32.491  32.863  1.00  0.00     0.074 A 
ATOM     43  C   UNL A   1      38.248  31.006  30.884  1.00  0.00     0.049 A 
ATOM     44  N   UNL A   1      39.373  32.006  33.511  1.00  0.00    -0.248 NA
ATOM     45  C   UNL A   1      37.692  33.625  33.538  1.00  0.00     0.031 C 
ATOM     46  C   UNL A   1      37.751  30.492  29.610  1.00  0.00     0.029 A 
ATOM     47  N   UNL A   1      39.304  30.184  31.194  1.00  0.00    -0.354 N 
ATOM     48  C   UNL A   1      39.503  32.793  34.647  1.00  0.00     0.074 A 
ATOM     49  C   UNL A   1      38.466  33.797  34.598  1.00  0.00     0.031 C 
ATOM     50  C   UNL A   1      38.528  29.463  29.226  1.00  0.00     0.029 A 
ATOM     51  C   UNL A   1      39.590  29.265  30.212  1.00  0.00     0.049 A 
ATOM     52  H   UNL A   1      39.806  30.246  32.038  1.00  0.00     0.167 HD
ATOM     53  C   UNL A   1      40.401  32.685  35.654  1.00  0.00     0.034 A 
ATOM     54  C   UNL A   1      40.613  28.392  30.112  1.00  0.00     0.034 A 
ATOM     55  C   UNL A   1      41.429  31.686  35.703  1.00  0.00     0.049 A 
ATOM     56  C   UNL A   1      41.626  28.313  31.230  1.00  0.00     0.074 A 
ATOM     57  C   UNL A   1      42.370  31.470  36.693  1.00  0.00     0.029 A 
ATOM     58  N   UNL A   1      41.662  30.745  34.713  1.00  0.00    -0.354 N 
ATOM     59  N   UNL A   1      41.680  28.995  32.350  1.00  0.00    -0.248 NA
ATOM     60  C   UNL A   1      42.704  27.321  31.085  1.00  0.00     0.031 C 
ATOM     61  C   UNL A   1      43.197  30.419  36.282  1.00  0.00     0.029 A 
ATOM     62  C   UNL A   1      42.741  29.953  35.059  1.00  0.00     0.049 A 
ATOM     63  H   UNL A   1      41.136  30.655  33.885  1.00  0.00     0.167 HD
ATOM     64  C   UNL A   1      42.767  28.489  33.057  1.00  0.00     0.074 A 
ATOM     65  C   UNL A   1      43.335  27.432  32.246  1.00  0.00     0.031 C 
ATOM     66  C   UNL A   1      43.260  28.869  34.263  1.00  0.00     0.034 A 
BRANCH  53  67
ATOM     67  C   UNL A   1      40.297  33.677  36.782  1.00  0.00     0.023 A 
ATOM     68  C   UNL A   1      40.929  34.932  36.674  1.00  0.00     0.012 A 
ATOM     69  C   UNL A   1      39.554  33.374  37.939  1.00  0.00     0.148 A 
ATOM     70  C   UNL A   1      40.854  35.858  37.714  1.00  0.00     0.002 A 
ATOM     71  C   UNL A   1      39.440  34.320  38.950  1.00  0.00     0.091 A 
ATOM     72  F   UNL A   1      38.984  32.165  38.035  1.00  0.00    -0.205 F 
ATOM     73  C   UNL A   1      40.100  35.557  38.846  1.00  0.00     0.022 A 
BRANCH  71  74
ATOM     74  S   UNL A   1      38.431  34.060  40.411  1.00  0.00     0.127 S 
ATOM     75  O   UNL A   1      38.354  35.413  40.963  1.00  0.00    -0.237 OA
ATOM     76  O   UNL A   1      37.180  33.565  39.834  1.00  0.00    -0.237 OA
ATOM     77  O   UNL A   1      39.148  33.093  41.230  1.00  0.00    -0.744 OA
ENDBRANCH  71  74
ENDBRANCH  53  67
BRANCH  54  78
ATOM     78  C   UNL A   1      40.731  27.506  28.918  1.00  0.00     0.023 A 
ATOM     79  C   UNL A   1      39.885  26.386  28.792  1.00  0.00     0.012 A 
ATOM     80  C   UNL A   1      41.679  27.765  27.908  1.00  0.00     0.148 A 
ATOM     81  C   UNL A   1      40.003  25.524  27.699  1.00  0.00     0.002 A 
ATOM     82  C   UNL A   1      41.755  26.933  26.797  1.00  0.00     0.091 A 
ATOM     83  F   UNL A   1      42.489  28.823  28.055  1.00  0.00    -0.205 F 
ATOM     84  C   UNL A   1      40.929  25.803  26.698  1.00  0.00     0.022 A 
BRANCH  82  85
ATOM     85  S   UNL A   1      42.842  27.271  25.406  1.00  0.00     0.127 S 
ATOM     86  O   UNL A   1      42.786  26.011  24.669  1.00  0.00    -0.237 OA
ATOM     87  O   UNL A   1      42.163  28.393  24.757  1.00  0.00    -0.237 OA
ATOM     88  O   UNL A   1      44.136  27.603  25.986  1.00  0.00    -0.744 OA
ENDBRANCH  82  85
ENDBRANCH  54  78
BRANCH  66  89
ATOM     89  C   UNL A   1      44.441  28.113  34.815  1.00  0.00     0.023 A 
ATOM     90  C   UNL A   1      45.747  28.604  34.625  1.00  0.00     0.012 A 
ATOM     91  C   UNL A   1      44.243  26.958  35.600  1.00  0.00     0.148 A 
ATOM     92  C   UNL A   1      46.841  27.938  35.178  1.00  0.00     0.002 A 
ATOM     93  C   UNL A   1      45.333  26.332  36.193  1.00  0.00     0.091 A 
ATOM     94  F   UNL A   1      42.994  26.500  35.760  1.00  0.00    -0.205 F 
ATOM     95  C   UNL A   1      46.634  26.812  35.970  1.00  0.00     0.022 A 
BRANCH  93  96
ATOM     96  S   UNL A   1      45.154  24.938  37.312  1.00  0.00     0.127 S 
ATOM     97  O   UNL A   1      44.583  23.920  36.432  1.00  0.00    -0.237 OA
ATOM     98  O   UNL A   1      46.537  24.687  37.716  1.00  0.00    -0.237 OA
ATOM     99  O   UNL A   1      44.284  25.394  38.387  1.00  0.00    -0.744 OA
ENDBRANCH  93  96
ENDBRANCH  66  89
ENDBRANCH  40  41
ENDBRANCH  33  35
ENDBRANCH  32  33
ENDBRANCH  31  32
ENDBRANCH  30  31
ENDBRANCH  29  30
ENDBRANCH   1  29
TORSDOF 22
ENDMDL
