MODEL 1
REMARK VINA RESULT:     -10.7      0.000      0.000
REMARK SMILES CC(C)c1cc2c(cc1Cl)C=C(C(=O)OCCOCCOCCOC(=O)c1ccc(-c3c4nc(c(-c5cccc(S(=O)(=O)[O-])c5F)c5ccc([nH]5)c(-c5cccc(S(=O)(=O)[O-])c5F)c5nc(c(-c6cccc(S(=O)(=O)[O-])c6F)c6ccc3[nH]6)C=C5)C=C4)cc1)[C@@H](C(F)(F)F)O2
REMARK SMILES IDX 20 1 19 2 18 3 17 4 16 5 15 6 13 7 14 8 12 9 4 10 5 11 9 12
REMARK SMILES IDX 6 13 8 14 10 15 7 16 95 17 11 18 90 19 2 20 1 21 3 22 91 23
REMARK SMILES IDX 92 24 93 25 94 26 21 27 22 28 23 29 24 30 25 31 26 32 27 33
REMARK SMILES IDX 28 34 89 35 29 36 88 37 30 38 31 39 32 40 82 41 33 42 87 43
REMARK SMILES IDX 81 44 83 45 34 46 86 47 80 48 79 49 35 51 67 52 47 53 66 54
REMARK SMILES IDX 48 55 51 56 65 57 84 58 49 59 50 60 64 62 85 63 52 64 36 65
REMARK SMILES IDX 37 66 45 67 38 68 40 69 46 70 39 71 41 72 42 73 43 74 44 75
REMARK SMILES IDX 68 76 69 77 77 78 70 79 72 80 78 81 71 82 73 83 74 84 75 85
REMARK SMILES IDX 76 86 53 87 54 88 62 89 55 90 57 91 63 92 56 93 58 94 59 95
REMARK SMILES IDX 60 96 61 97
REMARK H PARENT 83 50 51 61
REMARK Flexibility Score: inf
ROOT
ATOM      1  C   UNL A   1      30.031  29.450  22.998  1.00  0.00     0.188 C 
ENDROOT
BRANCH   1   2
ATOM      2  C   UNL A   1      30.644  28.057  23.268  1.00  0.00     0.188 C 
BRANCH   2   3
ATOM      3  O   UNL A   1      31.714  27.751  22.400  1.00  0.00    -0.376 OA
BRANCH   3   4
ATOM      4  C   UNL A   1      33.046  27.888  22.853  1.00  0.00     0.202 C 
BRANCH   4   5
ATOM      5  C   UNL A   1      33.462  27.602  24.307  1.00  0.00     0.261 C 
BRANCH   5   6
ATOM      6  O   UNL A   1      33.729  26.239  24.652  1.00  0.00    -0.460 OA
BRANCH   6   7
ATOM      7  C   UNL A   1      32.916  25.676  25.574  1.00  0.00     0.338 C 
ATOM      8  O   UNL A   1      32.242  26.264  26.402  1.00  0.00    -0.246 OA
BRANCH   7   9
ATOM      9  C   UNL A   1      32.879  24.217  25.343  1.00  0.00     0.087 C 
ATOM     10  C   UNL A   1      34.065  19.405  24.422  1.00  0.00    -0.023 A 
ATOM     11  C   UNL A   1      32.868  20.155  24.437  1.00  0.00     0.052 A 
ATOM     12  C   UNL A   1      35.229  20.034  24.898  1.00  0.00     0.045 A 
ATOM     13  C   UNL A   1      32.849  21.497  24.826  1.00  0.00     0.128 A 
ATOM     14  C   UNL A   1      35.207  21.382  25.287  1.00  0.00     0.032 A 
ATOM     15  Cl  UNL A   1      36.758  19.243  25.009  1.00  0.00    -0.084 Cl
ATOM     16  C   UNL A   1      34.027  22.126  25.213  1.00  0.00     0.019 A 
ATOM     17  O   UNL A   1      31.637  22.122  24.763  1.00  0.00    -0.475 OA
ATOM     18  C   UNL A   1      34.036  23.557  25.468  1.00  0.00     0.027 C 
ATOM     19  C   UNL A   1      31.565  23.552  25.022  1.00  0.00     0.316 C 
BRANCH  10  20
ATOM     20  C   UNL A   1      34.007  18.011  23.808  1.00  0.00     0.014 C 
ATOM     21  C   UNL A   1      34.579  16.948  24.752  1.00  0.00     0.012 C 
ATOM     22  C   UNL A   1      32.637  17.612  23.259  1.00  0.00     0.012 C 
ENDBRANCH  10  20
BRANCH  19  23
ATOM     23  C   UNL A   1      30.843  24.210  23.837  1.00  0.00     0.430 C 
ATOM     24  F   UNL A   1      29.992  25.180  24.258  1.00  0.00    -0.167 F 
ATOM     25  F   UNL A   1      31.710  24.809  22.985  1.00  0.00    -0.167 F 
ATOM     26  F   UNL A   1      30.119  23.323  23.119  1.00  0.00    -0.167 F 
ENDBRANCH  19  23
ENDBRANCH   7   9
ENDBRANCH   6   7
ENDBRANCH   5   6
ENDBRANCH   4   5
ENDBRANCH   3   4
ENDBRANCH   2   3
ENDBRANCH   1   2
BRANCH   1  27
ATOM     27  O   UNL A   1      30.056  30.440  24.021  1.00  0.00    -0.376 OA
BRANCH  27  28
ATOM     28  C   UNL A   1      31.015  30.329  25.069  1.00  0.00     0.202 C 
BRANCH  28  29
ATOM     29  C   UNL A   1      31.237  31.516  26.019  1.00  0.00     0.261 C 
BRANCH  29  30
ATOM     30  O   UNL A   1      32.213  31.289  27.048  1.00  0.00    -0.460 OA
BRANCH  30  31
ATOM     31  C   UNL A   1      33.008  32.350  27.346  1.00  0.00     0.338 C 
ATOM     32  O   UNL A   1      32.699  33.528  27.328  1.00  0.00    -0.246 OA
BRANCH  31  33
ATOM     33  C   UNL A   1      34.281  31.850  27.907  1.00  0.00     0.060 A 
ATOM     34  C   UNL A   1      35.359  32.709  28.127  1.00  0.00     0.016 A 
ATOM     35  C   UNL A   1      34.387  30.485  28.212  1.00  0.00     0.016 A 
ATOM     36  C   UNL A   1      36.541  32.200  28.674  1.00  0.00     0.010 A 
ATOM     37  C   UNL A   1      35.575  29.975  28.737  1.00  0.00     0.010 A 
ATOM     38  C   UNL A   1      36.655  30.832  28.987  1.00  0.00    -0.014 A 
BRANCH  38  39
ATOM     39  C   UNL A   1      37.841  30.336  29.727  1.00  0.00     0.031 A 
ATOM     40  C   UNL A   1      38.802  29.358  29.125  1.00  0.00     0.074 A 
ATOM     41  C   UNL A   1      38.023  30.768  30.989  1.00  0.00     0.049 A 
ATOM     42  N   UNL A   1      39.923  28.904  29.623  1.00  0.00    -0.248 NA
ATOM     43  C   UNL A   1      38.466  28.812  27.801  1.00  0.00     0.031 C 
ATOM     44  C   UNL A   1      37.118  31.670  31.704  1.00  0.00     0.029 A 
ATOM     45  N   UNL A   1      39.019  30.503  31.894  1.00  0.00    -0.354 N 
ATOM     46  C   UNL A   1      40.433  28.022  28.681  1.00  0.00     0.074 A 
ATOM     47  C   UNL A   1      39.485  27.988  27.586  1.00  0.00     0.031 C 
ATOM     48  C   UNL A   1      37.605  31.889  32.936  1.00  0.00     0.029 A 
ATOM     49  C   UNL A   1      38.848  31.142  33.098  1.00  0.00     0.049 A 
ATOM     50  H   UNL A   1      39.781  29.912  31.699  1.00  0.00     0.167 HD
ATOM     51  C   UNL A   1      41.598  27.332  28.717  1.00  0.00     0.034 A 
ATOM     52  C   UNL A   1      39.612  31.141  34.206  1.00  0.00     0.034 A 
ATOM     53  C   UNL A   1      42.542  27.380  29.802  1.00  0.00     0.049 A 
ATOM     54  C   UNL A   1      40.901  30.372  34.219  1.00  0.00     0.074 A 
ATOM     55  C   UNL A   1      43.784  26.771  29.887  1.00  0.00     0.029 A 
ATOM     56  N   UNL A   1      42.350  28.058  30.996  1.00  0.00    -0.354 N 
ATOM     57  N   UNL A   1      41.446  29.672  33.254  1.00  0.00    -0.248 NA
ATOM     58  C   UNL A   1      41.694  30.415  35.455  1.00  0.00     0.031 C 
ATOM     59  C   UNL A   1      44.336  27.069  31.137  1.00  0.00     0.029 A 
ATOM     60  C   UNL A   1      43.443  27.872  31.828  1.00  0.00     0.049 A 
ATOM     61  H   UNL A   1      41.555  28.593  31.220  1.00  0.00     0.167 HD
ATOM     62  C   UNL A   1      42.652  29.203  33.760  1.00  0.00     0.074 A 
ATOM     63  C   UNL A   1      42.767  29.713  35.111  1.00  0.00     0.031 C 
ATOM     64  C   UNL A   1      43.569  28.407  33.159  1.00  0.00     0.034 A 
BRANCH  51  65
ATOM     65  C   UNL A   1      41.969  26.508  27.515  1.00  0.00     0.023 A 
ATOM     66  C   UNL A   1      42.690  27.122  26.470  1.00  0.00     0.012 A 
ATOM     67  C   UNL A   1      41.724  25.123  27.470  1.00  0.00     0.148 A 
ATOM     68  C   UNL A   1      43.154  26.370  25.393  1.00  0.00     0.002 A 
ATOM     69  C   UNL A   1      42.214  24.375  26.405  1.00  0.00     0.091 A 
ATOM     70  F   UNL A   1      41.030  24.565  28.472  1.00  0.00    -0.205 F 
ATOM     71  C   UNL A   1      42.925  24.997  25.365  1.00  0.00     0.022 A 
BRANCH  69  72
ATOM     72  S   UNL A   1      42.025  22.591  26.297  1.00  0.00     0.127 S 
ATOM     73  O   UNL A   1      40.571  22.447  26.351  1.00  0.00    -0.237 OA
ATOM     74  O   UNL A   1      42.619  22.298  24.993  1.00  0.00    -0.237 OA
ATOM     75  O   UNL A   1      42.744  22.040  27.436  1.00  0.00    -0.744 OA
ENDBRANCH  69  72
ENDBRANCH  51  65
BRANCH  52  76
ATOM     76  C   UNL A   1      39.198  31.976  35.364  1.00  0.00     0.023 A 
ATOM     77  C   UNL A   1      38.409  31.398  36.376  1.00  0.00     0.012 A 
ATOM     78  C   UNL A   1      39.661  33.296  35.512  1.00  0.00     0.148 A 
ATOM     79  C   UNL A   1      38.084  32.125  37.520  1.00  0.00     0.002 A 
ATOM     80  C   UNL A   1      39.365  34.003  36.671  1.00  0.00     0.091 A 
ATOM     81  F   UNL A   1      40.414  33.816  34.532  1.00  0.00    -0.205 F 
ATOM     82  C   UNL A   1      38.569  33.422  37.672  1.00  0.00     0.022 A 
BRANCH  80  83
ATOM     83  S   UNL A   1      40.027  35.637  37.008  1.00  0.00     0.127 S 
ATOM     84  O   UNL A   1      39.359  35.976  38.262  1.00  0.00    -0.237 OA
ATOM     85  O   UNL A   1      41.458  35.359  37.126  1.00  0.00    -0.237 OA
ATOM     86  O   UNL A   1      39.658  36.460  35.864  1.00  0.00    -0.744 OA
ENDBRANCH  80  83
ENDBRANCH  52  76
BRANCH  64  87
ATOM     87  C   UNL A   1      44.789  28.016  33.948  1.00  0.00     0.023 A 
ATOM     88  C   UNL A   1      45.928  28.844  33.906  1.00  0.00     0.012 A 
ATOM     89  C   UNL A   1      44.769  26.904  34.814  1.00  0.00     0.148 A 
ATOM     90  C   UNL A   1      47.034  28.566  34.707  1.00  0.00     0.002 A 
ATOM     91  C   UNL A   1      45.863  26.653  35.633  1.00  0.00     0.091 A 
ATOM     92  F   UNL A   1      43.675  26.128  34.829  1.00  0.00    -0.205 F 
ATOM     93  C   UNL A   1      46.997  27.479  35.579  1.00  0.00     0.022 A 
BRANCH  91  94
ATOM     94  S   UNL A   1      45.887  25.320  36.839  1.00  0.00     0.127 S 
ATOM     95  O   UNL A   1      47.247  25.420  37.367  1.00  0.00    -0.237 OA
ATOM     96  O   UNL A   1      44.838  25.730  37.773  1.00  0.00    -0.237 OA
ATOM     97  O   UNL A   1      45.600  24.099  36.099  1.00  0.00    -0.744 OA
ENDBRANCH  91  94
ENDBRANCH  64  87
ENDBRANCH  38  39
ENDBRANCH  31  33
ENDBRANCH  30  31
ENDBRANCH  29  30
ENDBRANCH  28  29
ENDBRANCH  27  28
ENDBRANCH   1  27
TORSDOF 22
ENDMDL
MODEL 2
REMARK VINA RESULT:     -10.6      1.853      7.608
REMARK SMILES CC(C)c1cc2c(cc1Cl)C=C(C(=O)OCCOCCOCCOC(=O)c1ccc(-c3c4nc(c(-c5cccc(S(=O)(=O)[O-])c5F)c5ccc([nH]5)c(-c5cccc(S(=O)(=O)[O-])c5F)c5nc(c(-c6cccc(S(=O)(=O)[O-])c6F)c6ccc3[nH]6)C=C5)C=C4)cc1)[C@@H](C(F)(F)F)O2
REMARK SMILES IDX 20 1 19 2 18 3 17 4 16 5 15 6 13 7 14 8 12 9 4 10 5 11 9 12
REMARK SMILES IDX 6 13 8 14 10 15 7 16 95 17 11 18 90 19 2 20 1 21 3 22 91 23
REMARK SMILES IDX 92 24 93 25 94 26 21 27 22 28 23 29 24 30 25 31 26 32 27 33
REMARK SMILES IDX 28 34 89 35 29 36 88 37 30 38 31 39 32 40 82 41 33 42 87 43
REMARK SMILES IDX 81 44 83 45 34 46 86 47 80 48 79 49 35 51 67 52 47 53 66 54
REMARK SMILES IDX 48 55 51 56 65 57 84 58 49 59 50 60 64 62 85 63 52 64 36 65
REMARK SMILES IDX 37 66 45 67 38 68 40 69 46 70 39 71 41 72 42 73 43 74 44 75
REMARK SMILES IDX 68 76 69 77 77 78 70 79 72 80 78 81 71 82 73 83 74 84 75 85
REMARK SMILES IDX 76 86 53 87 54 88 62 89 55 90 57 91 63 92 56 93 58 94 59 95
REMARK SMILES IDX 60 96 61 97
REMARK H PARENT 83 50 51 61
REMARK Flexibility Score: inf
ROOT
ATOM      1  C   UNL A   1      30.341  29.713  23.751  1.00  0.00     0.188 C 
ENDROOT
BRANCH   1   2
ATOM      2  C   UNL A   1      30.614  28.193  23.737  1.00  0.00     0.188 C 
BRANCH   2   3
ATOM      3  O   UNL A   1      31.395  27.785  22.634  1.00  0.00    -0.376 OA
BRANCH   3   4
ATOM      4  C   UNL A   1      32.799  27.954  22.668  1.00  0.00     0.202 C 
BRANCH   4   5
ATOM      5  C   UNL A   1      33.650  27.591  23.897  1.00  0.00     0.261 C 
BRANCH   5   6
ATOM      6  O   UNL A   1      33.796  26.200  24.201  1.00  0.00    -0.460 OA
BRANCH   6   7
ATOM      7  C   UNL A   1      33.060  25.722  25.228  1.00  0.00     0.338 C 
ATOM      8  O   UNL A   1      32.478  26.381  26.073  1.00  0.00    -0.246 OA
BRANCH   7   9
ATOM      9  C   UNL A   1      32.968  24.252  25.101  1.00  0.00     0.087 C 
ATOM     10  C   UNL A   1      33.969  19.353  24.470  1.00  0.00    -0.023 A 
ATOM     11  C   UNL A   1      32.797  20.141  24.480  1.00  0.00     0.052 A 
ATOM     12  C   UNL A   1      35.170  19.974  24.855  1.00  0.00     0.045 A 
ATOM     13  C   UNL A   1      32.835  21.507  24.775  1.00  0.00     0.128 A 
ATOM     14  C   UNL A   1      35.205  21.345  25.151  1.00  0.00     0.032 A 
ATOM     15  Cl  UNL A   1      36.677  19.141  24.960  1.00  0.00    -0.084 Cl
ATOM     16  C   UNL A   1      34.046  22.121  25.071  1.00  0.00     0.019 A 
ATOM     17  O   UNL A   1      31.641  22.165  24.717  1.00  0.00    -0.475 OA
ATOM     18  C   UNL A   1      34.110  23.565  25.226  1.00  0.00     0.027 C 
ATOM     19  C   UNL A   1      31.623  23.611  24.878  1.00  0.00     0.316 C 
BRANCH  10  20
ATOM     20  C   UNL A   1      33.843  17.923  23.957  1.00  0.00     0.014 C 
ATOM     21  C   UNL A   1      33.623  16.924  25.098  1.00  0.00     0.012 C 
ATOM     22  C   UNL A   1      32.828  17.736  22.829  1.00  0.00     0.012 C 
ENDBRANCH  10  20
BRANCH  19  23
ATOM     23  C   UNL A   1      30.873  24.210  23.680  1.00  0.00     0.430 C 
ATOM     24  F   UNL A   1      30.132  23.268  23.043  1.00  0.00    -0.167 F 
ATOM     25  F   UNL A   1      30.007  25.181  24.058  1.00  0.00    -0.167 F 
ATOM     26  F   UNL A   1      31.710  24.749  22.767  1.00  0.00    -0.167 F 
ENDBRANCH  19  23
ENDBRANCH   7   9
ENDBRANCH   6   7
ENDBRANCH   5   6
ENDBRANCH   4   5
ENDBRANCH   3   4
ENDBRANCH   2   3
ENDBRANCH   1   2
BRANCH   1  27
ATOM     27  O   UNL A   1      30.651  30.473  24.915  1.00  0.00    -0.376 OA
BRANCH  27  28
ATOM     28  C   UNL A   1      31.688  30.022  25.782  1.00  0.00     0.202 C 
BRANCH  28  29
ATOM     29  C   UNL A   1      32.426  31.036  26.669  1.00  0.00     0.261 C 
BRANCH  29  30
ATOM     30  O   UNL A   1      33.690  30.582  27.179  1.00  0.00    -0.460 OA
BRANCH  30  31
ATOM     31  C   UNL A   1      34.340  31.453  27.993  1.00  0.00     0.338 C 
ATOM     32  O   UNL A   1      33.876  32.444  28.530  1.00  0.00    -0.246 OA
BRANCH  31  33
ATOM     33  C   UNL A   1      35.677  30.907  28.309  1.00  0.00     0.060 A 
ATOM     34  C   UNL A   1      36.840  31.561  27.898  1.00  0.00     0.016 A 
ATOM     35  C   UNL A   1      35.753  29.708  29.033  1.00  0.00     0.016 A 
ATOM     36  C   UNL A   1      38.085  31.019  28.231  1.00  0.00     0.010 A 
ATOM     37  C   UNL A   1      36.997  29.158  29.345  1.00  0.00     0.010 A 
ATOM     38  C   UNL A   1      38.172  29.818  28.961  1.00  0.00    -0.014 A 
BRANCH  38  39
ATOM     39  C   UNL A   1      39.487  29.347  29.460  1.00  0.00     0.031 A 
ATOM     40  C   UNL A   1      40.197  30.023  30.593  1.00  0.00     0.074 A 
ATOM     41  C   UNL A   1      40.055  28.294  28.843  1.00  0.00     0.049 A 
ATOM     42  N   UNL A   1      41.307  29.669  31.186  1.00  0.00    -0.248 NA
ATOM     43  C   UNL A   1      39.594  31.254  31.126  1.00  0.00     0.031 C 
ATOM     44  C   UNL A   1      39.489  27.595  27.688  1.00  0.00     0.029 A 
ATOM     45  N   UNL A   1      41.233  27.636  29.091  1.00  0.00    -0.354 N 
ATOM     46  C   UNL A   1      41.541  30.626  32.164  1.00  0.00     0.074 A 
ATOM     47  C   UNL A   1      40.466  31.591  32.070  1.00  0.00     0.031 C 
ATOM     48  C   UNL A   1      40.317  26.601  27.331  1.00  0.00     0.029 A 
ATOM     49  C   UNL A   1      41.470  26.595  28.226  1.00  0.00     0.049 A 
ATOM     50  H   UNL A   1      41.848  27.886  29.817  1.00  0.00     0.167 HD
ATOM     51  C   UNL A   1      42.546  30.673  33.072  1.00  0.00     0.034 A 
ATOM     52  C   UNL A   1      42.493  25.723  28.166  1.00  0.00     0.034 A 
ATOM     53  C   UNL A   1      43.605  29.704  33.169  1.00  0.00     0.049 A 
ATOM     54  C   UNL A   1      43.590  25.793  29.187  1.00  0.00     0.074 A 
ATOM     55  C   UNL A   1      44.621  29.634  34.109  1.00  0.00     0.029 A 
ATOM     56  N   UNL A   1      43.801  28.647  32.294  1.00  0.00    -0.354 N 
ATOM     57  N   UNL A   1      43.709  26.609  30.206  1.00  0.00    -0.248 NA
ATOM     58  C   UNL A   1      44.676  24.809  29.073  1.00  0.00     0.031 C 
ATOM     59  C   UNL A   1      45.438  28.544  33.794  1.00  0.00     0.029 A 
ATOM     60  C   UNL A   1      44.927  27.929  32.663  1.00  0.00     0.049 A 
ATOM     61  H   UNL A   1      43.226  28.438  31.524  1.00  0.00     0.167 HD
ATOM     62  C   UNL A   1      44.873  26.230  30.863  1.00  0.00     0.074 A 
ATOM     63  C   UNL A   1      45.414  25.098  30.138  1.00  0.00     0.031 C 
ATOM     64  C   UNL A   1      45.445  26.784  31.959  1.00  0.00     0.034 A 
BRANCH  51  65
ATOM     65  C   UNL A   1      42.521  31.774  34.096  1.00  0.00     0.023 A 
ATOM     66  C   UNL A   1      42.979  33.055  33.726  1.00  0.00     0.012 A 
ATOM     67  C   UNL A   1      41.938  31.584  35.364  1.00  0.00     0.148 A 
ATOM     68  C   UNL A   1      42.866  34.129  34.606  1.00  0.00     0.002 A 
ATOM     69  C   UNL A   1      41.804  32.667  36.225  1.00  0.00     0.091 A 
ATOM     70  F   UNL A   1      41.517  30.355  35.695  1.00  0.00    -0.205 F 
ATOM     71  C   UNL A   1      42.271  33.938  35.850  1.00  0.00     0.022 A 
BRANCH  69  72
ATOM     72  S   UNL A   1      41.002  32.545  37.829  1.00  0.00     0.127 S 
ATOM     73  O   UNL A   1      41.904  31.638  38.539  1.00  0.00    -0.237 OA
ATOM     74  O   UNL A   1      41.037  33.930  38.297  1.00  0.00    -0.237 OA
ATOM     75  O   UNL A   1      39.669  32.017  37.574  1.00  0.00    -0.744 OA
ENDBRANCH  69  72
ENDBRANCH  51  65
BRANCH  52  76
ATOM     76  C   UNL A   1      42.464  24.653  27.134  1.00  0.00     0.023 A 
ATOM     77  C   UNL A   1      43.308  24.760  26.013  1.00  0.00     0.012 A 
ATOM     78  C   UNL A   1      41.684  23.495  27.309  1.00  0.00     0.148 A 
ATOM     79  C   UNL A   1      43.374  23.729  25.078  1.00  0.00     0.002 A 
ATOM     80  C   UNL A   1      41.782  22.456  26.393  1.00  0.00     0.091 A 
ATOM     81  F   UNL A   1      40.893  23.422  28.390  1.00  0.00    -0.205 F 
ATOM     82  C   UNL A   1      42.620  22.574  25.272  1.00  0.00     0.022 A 
BRANCH  80  83
ATOM     83  S   UNL A   1      40.932  20.888  26.607  1.00  0.00     0.127 S 
ATOM     84  O   UNL A   1      39.614  21.186  26.053  1.00  0.00    -0.237 OA
ATOM     85  O   UNL A   1      41.755  19.992  25.795  1.00  0.00    -0.237 OA
ATOM     86  O   UNL A   1      40.959  20.613  28.037  1.00  0.00    -0.744 OA
ENDBRANCH  80  83
ENDBRANCH  52  76
BRANCH  64  87
ATOM     87  C   UNL A   1      46.737  26.193  32.455  1.00  0.00     0.023 A 
ATOM     88  C   UNL A   1      47.956  26.733  32.002  1.00  0.00     0.012 A 
ATOM     89  C   UNL A   1      46.744  25.193  33.448  1.00  0.00     0.148 A 
ATOM     90  C   UNL A   1      49.167  26.280  32.523  1.00  0.00     0.002 A 
ATOM     91  C   UNL A   1      47.954  24.769  33.985  1.00  0.00     0.091 A 
ATOM     92  F   UNL A   1      45.570  24.690  33.855  1.00  0.00    -0.205 F 
ATOM     93  C   UNL A   1      49.166  25.307  33.522  1.00  0.00     0.022 A 
BRANCH  91  94
ATOM     94  S   UNL A   1      48.056  23.573  35.323  1.00  0.00     0.127 S 
ATOM     95  O   UNL A   1      47.511  22.372  34.691  1.00  0.00    -0.237 OA
ATOM     96  O   UNL A   1      49.495  23.525  35.585  1.00  0.00    -0.237 OA
ATOM     97  O   UNL A   1      47.257  24.115  36.413  1.00  0.00    -0.744 OA
ENDBRANCH  91  94
ENDBRANCH  64  87
ENDBRANCH  38  39
ENDBRANCH  31  33
ENDBRANCH  30  31
ENDBRANCH  29  30
ENDBRANCH  28  29
ENDBRANCH  27  28
ENDBRANCH   1  27
TORSDOF 22
ENDMDL
MODEL 3
REMARK VINA RESULT:     -10.5      2.400      3.241
REMARK SMILES CC(C)c1cc2c(cc1Cl)C=C(C(=O)OCCOCCOCCOC(=O)c1ccc(-c3c4nc(c(-c5cccc(S(=O)(=O)[O-])c5F)c5ccc([nH]5)c(-c5cccc(S(=O)(=O)[O-])c5F)c5nc(c(-c6cccc(S(=O)(=O)[O-])c6F)c6ccc3[nH]6)C=C5)C=C4)cc1)[C@@H](C(F)(F)F)O2
REMARK SMILES IDX 20 1 19 2 18 3 17 4 16 5 15 6 13 7 14 8 12 9 4 10 5 11 9 12
REMARK SMILES IDX 6 13 8 14 10 15 7 16 95 17 11 18 90 19 2 20 1 21 3 22 91 23
REMARK SMILES IDX 92 24 93 25 94 26 21 27 22 28 23 29 24 30 25 31 26 32 27 33
REMARK SMILES IDX 28 34 89 35 29 36 88 37 30 38 31 39 32 40 82 41 33 42 87 43
REMARK SMILES IDX 81 44 83 45 34 46 86 47 80 48 79 49 35 51 67 52 47 53 66 54
REMARK SMILES IDX 48 55 51 56 65 57 84 58 49 59 50 60 64 62 85 63 52 64 36 65
REMARK SMILES IDX 37 66 45 67 38 68 40 69 46 70 39 71 41 72 42 73 43 74 44 75
REMARK SMILES IDX 68 76 69 77 77 78 70 79 72 80 78 81 71 82 73 83 74 84 75 85
REMARK SMILES IDX 76 86 53 87 54 88 62 89 55 90 57 91 63 92 56 93 58 94 59 95
REMARK SMILES IDX 60 96 61 97
REMARK H PARENT 83 50 51 61
REMARK Flexibility Score: inf
ROOT
ATOM      1  C   UNL A   1      31.444  30.224  25.697  1.00  0.00     0.188 C 
ENDROOT
BRANCH   1   2
ATOM      2  C   UNL A   1      31.732  28.709  25.604  1.00  0.00     0.188 C 
BRANCH   2   3
ATOM      3  O   UNL A   1      33.076  28.424  25.281  1.00  0.00    -0.376 OA
BRANCH   3   4
ATOM      4  C   UNL A   1      33.375  27.661  24.129  1.00  0.00     0.202 C 
BRANCH   4   5
ATOM      5  C   UNL A   1      32.315  27.306  23.071  1.00  0.00     0.261 C 
BRANCH   5   6
ATOM      6  O   UNL A   1      32.142  25.920  22.760  1.00  0.00    -0.460 OA
BRANCH   6   7
ATOM      7  C   UNL A   1      31.306  25.219  23.557  1.00  0.00     0.338 C 
ATOM      8  O   UNL A   1      30.173  25.536  23.878  1.00  0.00    -0.246 OA
BRANCH   7   9
ATOM      9  C   UNL A   1      31.944  23.929  23.892  1.00  0.00     0.087 C 
ATOM     10  C   UNL A   1      33.220  19.061  24.172  1.00  0.00    -0.023 A 
ATOM     11  C   UNL A   1      33.496  20.212  24.941  1.00  0.00     0.052 A 
ATOM     12  C   UNL A   1      32.557  19.244  22.946  1.00  0.00     0.045 A 
ATOM     13  C   UNL A   1      33.053  21.479  24.549  1.00  0.00     0.128 A 
ATOM     14  C   UNL A   1      32.113  20.516  22.555  1.00  0.00     0.032 A 
ATOM     15  Cl  UNL A   1      32.201  17.954  21.857  1.00  0.00    -0.084 Cl
ATOM     16  C   UNL A   1      32.325  21.628  23.375  1.00  0.00     0.019 A 
ATOM     17  O   UNL A   1      33.353  22.507  25.396  1.00  0.00    -0.475 OA
ATOM     18  C   UNL A   1      31.733  22.914  23.046  1.00  0.00     0.027 C 
ATOM     19  C   UNL A   1      32.809  23.828  25.122  1.00  0.00     0.316 C 
BRANCH  10  20
ATOM     20  C   UNL A   1      33.586  17.712  24.780  1.00  0.00     0.014 C 
ATOM     21  C   UNL A   1      32.367  17.010  25.388  1.00  0.00     0.012 C 
ATOM     22  C   UNL A   1      34.377  16.787  23.855  1.00  0.00     0.012 C 
ENDBRANCH  10  20
BRANCH  19  23
ATOM     23  C   UNL A   1      32.093  24.316  26.391  1.00  0.00     0.430 C 
ATOM     24  F   UNL A   1      32.559  23.676  27.493  1.00  0.00    -0.167 F 
ATOM     25  F   UNL A   1      32.292  25.638  26.608  1.00  0.00    -0.167 F 
ATOM     26  F   UNL A   1      30.759  24.110  26.339  1.00  0.00    -0.167 F 
ENDBRANCH  19  23
ENDBRANCH   7   9
ENDBRANCH   6   7
ENDBRANCH   5   6
ENDBRANCH   4   5
ENDBRANCH   3   4
ENDBRANCH   2   3
ENDBRANCH   1   2
BRANCH   1  27
ATOM     27  O   UNL A   1      31.946  30.969  26.802  1.00  0.00    -0.376 OA
BRANCH  27  28
ATOM     28  C   UNL A   1      31.721  32.375  26.850  1.00  0.00     0.202 C 
BRANCH  28  29
ATOM     29  C   UNL A   1      32.813  33.297  27.413  1.00  0.00     0.261 C 
BRANCH  29  30
ATOM     30  O   UNL A   1      32.387  34.146  28.490  1.00  0.00    -0.460 OA
BRANCH  30  31
ATOM     31  C   UNL A   1      33.255  35.133  28.836  1.00  0.00     0.338 C 
ATOM     32  O   UNL A   1      33.099  36.333  28.691  1.00  0.00    -0.246 OA
BRANCH  31  33
ATOM     33  C   UNL A   1      34.361  34.545  29.620  1.00  0.00     0.060 A 
ATOM     34  C   UNL A   1      34.133  33.967  30.870  1.00  0.00     0.016 A 
ATOM     35  C   UNL A   1      35.655  34.582  29.080  1.00  0.00     0.016 A 
ATOM     36  C   UNL A   1      35.204  33.407  31.572  1.00  0.00     0.010 A 
ATOM     37  C   UNL A   1      36.726  34.042  29.792  1.00  0.00     0.010 A 
ATOM     38  C   UNL A   1      36.506  33.435  31.036  1.00  0.00    -0.014 A 
BRANCH  38  39
ATOM     39  C   UNL A   1      37.600  32.687  31.702  1.00  0.00     0.031 A 
ATOM     40  C   UNL A   1      38.257  31.502  31.062  1.00  0.00     0.074 A 
ATOM     41  C   UNL A   1      37.978  33.083  32.931  1.00  0.00     0.049 A 
ATOM     42  N   UNL A   1      39.278  30.807  31.490  1.00  0.00    -0.248 NA
ATOM     43  C   UNL A   1      37.699  31.031  29.786  1.00  0.00     0.031 C 
ATOM     44  C   UNL A   1      37.367  34.181  33.682  1.00  0.00     0.029 A 
ATOM     45  N   UNL A   1      38.954  32.605  33.767  1.00  0.00    -0.354 N 
ATOM     46  C   UNL A   1      39.493  29.816  30.542  1.00  0.00     0.074 A 
ATOM     47  C   UNL A   1      38.478  29.988  29.522  1.00  0.00     0.031 C 
ATOM     48  C   UNL A   1      37.988  34.299  34.866  1.00  0.00     0.029 A 
ATOM     49  C   UNL A   1      39.034  33.284  34.959  1.00  0.00     0.049 A 
ATOM     50  H   UNL A   1      39.541  31.850  33.536  1.00  0.00     0.167 HD
ATOM     51  C   UNL A   1      40.465  28.873  30.514  1.00  0.00     0.034 A 
ATOM     52  C   UNL A   1      39.863  33.121  36.007  1.00  0.00     0.034 A 
ATOM     53  C   UNL A   1      41.479  28.716  31.523  1.00  0.00     0.049 A 
ATOM     54  C   UNL A   1      40.935  32.073  35.949  1.00  0.00     0.074 A 
ATOM     55  C   UNL A   1      42.548  27.835  31.535  1.00  0.00     0.029 A 
ATOM     56  N   UNL A   1      41.546  29.437  32.705  1.00  0.00    -0.354 N 
ATOM     57  N   UNL A   1      41.224  31.251  34.970  1.00  0.00    -0.248 NA
ATOM     58  C   UNL A   1      41.814  31.948  37.121  1.00  0.00     0.031 C 
ATOM     59  C   UNL A   1      43.253  28.014  32.730  1.00  0.00     0.029 A 
ATOM     60  C   UNL A   1      42.629  29.013  33.459  1.00  0.00     0.049 A 
ATOM     61  H   UNL A   1      40.917  30.146  32.970  1.00  0.00     0.167 HD
ATOM     62  C   UNL A   1      42.325  30.521  35.400  1.00  0.00     0.074 A 
ATOM     63  C   UNL A   1      42.664  31.010  36.720  1.00  0.00     0.031 C 
ATOM     64  C   UNL A   1      42.982  29.524  34.758  1.00  0.00     0.034 A 
BRANCH  51  65
ATOM     65  C   UNL A   1      40.538  27.969  29.315  1.00  0.00     0.023 A 
ATOM     66  C   UNL A   1      39.613  26.911  29.207  1.00  0.00     0.012 A 
ATOM     67  C   UNL A   1      41.420  28.232  28.250  1.00  0.00     0.148 A 
ATOM     68  C   UNL A   1      39.571  26.121  28.060  1.00  0.00     0.002 A 
ATOM     69  C   UNL A   1      41.354  27.457  27.098  1.00  0.00     0.091 A 
ATOM     70  F   UNL A   1      42.296  29.239  28.380  1.00  0.00    -0.205 F 
ATOM     71  C   UNL A   1      40.433  26.399  27.003  1.00  0.00     0.022 A 
BRANCH  69  72
ATOM     72  S   UNL A   1      42.379  27.764  25.654  1.00  0.00     0.127 S 
ATOM     73  O   UNL A   1      43.710  27.855  26.254  1.00  0.00    -0.237 OA
ATOM     74  O   UNL A   1      42.152  26.561  24.854  1.00  0.00    -0.237 OA
ATOM     75  O   UNL A   1      41.882  28.997  25.061  1.00  0.00    -0.744 OA
ENDBRANCH  69  72
ENDBRANCH  51  65
BRANCH  52  76
ATOM     76  C   UNL A   1      39.748  34.047  37.164  1.00  0.00     0.023 A 
ATOM     77  C   UNL A   1      40.169  35.382  37.017  1.00  0.00     0.012 A 
ATOM     78  C   UNL A   1      39.137  33.639  38.364  1.00  0.00     0.148 A 
ATOM     79  C   UNL A   1      39.986  36.298  38.051  1.00  0.00     0.002 A 
ATOM     80  C   UNL A   1      38.924  34.565  39.377  1.00  0.00     0.091 A 
ATOM     81  F   UNL A   1      38.743  32.362  38.471  1.00  0.00    -0.205 F 
ATOM     82  C   UNL A   1      39.355  35.894  39.226  1.00  0.00     0.022 A 
BRANCH  80  83
ATOM     83  S   UNL A   1      38.030  34.170  40.883  1.00  0.00     0.127 S 
ATOM     84  O   UNL A   1      38.992  33.325  41.587  1.00  0.00    -0.237 OA
ATOM     85  O   UNL A   1      37.831  35.497  41.466  1.00  0.00    -0.237 OA
ATOM     86  O   UNL A   1      36.808  33.502  40.458  1.00  0.00    -0.744 OA
ENDBRANCH  80  83
ENDBRANCH  52  76
BRANCH  64  87
ATOM     87  C   UNL A   1      44.137  28.870  35.467  1.00  0.00     0.023 A 
ATOM     88  C   UNL A   1      45.431  29.403  35.305  1.00  0.00     0.012 A 
ATOM     89  C   UNL A   1      43.929  27.812  36.374  1.00  0.00     0.148 A 
ATOM     90  C   UNL A   1      46.504  28.887  36.030  1.00  0.00     0.002 A 
ATOM     91  C   UNL A   1      44.998  27.325  37.117  1.00  0.00     0.091 A 
ATOM     92  F   UNL A   1      42.689  27.318  36.502  1.00  0.00    -0.205 F 
ATOM     93  C   UNL A   1      46.286  27.857  36.943  1.00  0.00     0.022 A 
BRANCH  91  94
ATOM     94  S   UNL A   1      44.808  26.048  38.367  1.00  0.00     0.127 S 
ATOM     95  O   UNL A   1      45.956  26.310  39.236  1.00  0.00    -0.237 OA
ATOM     96  O   UNL A   1      43.510  26.382  38.955  1.00  0.00    -0.237 OA
ATOM     97  O   UNL A   1      44.847  24.777  37.659  1.00  0.00    -0.744 OA
ENDBRANCH  91  94
ENDBRANCH  64  87
ENDBRANCH  38  39
ENDBRANCH  31  33
ENDBRANCH  30  31
ENDBRANCH  29  30
ENDBRANCH  28  29
ENDBRANCH  27  28
ENDBRANCH   1  27
TORSDOF 22
ENDMDL
