MODEL 1
REMARK VINA RESULT:      -9.4      0.000      0.000
REMARK SMILES COCCCC(=O)N[C@H]1CC[C@@H](C(=O)OCCOCCOCCOC(=O)c2ccc(-c3c4nc(c(-c5cccc(S(=O)(=O)[O-])c5F)c5ccc([nH]5)c(-c5cccc(S(=O)(=O)[O-])c5F)c5nc(c(-c6cccc(S(=O)(=O)[O-])c6F)c6ccc3[nH]6)C=C5)C=C4)cc2)CC1
REMARK SMILES IDX 19 1 18 2 17 3 16 4 15 5 13 6 14 7 12 8 9 9 10 10 91 11
REMARK SMILES IDX 11 12 90 13 8 14 6 15 7 16 5 18 4 19 3 20 2 21 1 22 20 23
REMARK SMILES IDX 21 24 22 25 23 26 24 27 25 28 26 29 27 30 28 31 89 32 29 33
REMARK SMILES IDX 88 34 30 35 31 36 32 37 82 38 33 39 87 40 81 41 83 42 34 43
REMARK SMILES IDX 86 44 80 45 79 46 35 48 67 49 47 50 66 51 48 52 51 53 65 54
REMARK SMILES IDX 84 55 49 56 50 57 64 59 85 60 52 61 36 62 37 63 45 64 38 65
REMARK SMILES IDX 40 66 46 67 39 68 41 69 42 70 43 71 44 72 68 73 69 74 77 75
REMARK SMILES IDX 70 76 72 77 78 78 71 79 73 80 74 81 75 82 76 83 53 84 54 85
REMARK SMILES IDX 62 86 55 87 57 88 63 89 56 90 58 91 59 92 60 93 61 94
REMARK H PARENT 8 17 83 47 51 58
REMARK Flexibility Score: inf
ROOT
ATOM      1  C   UNL A   1      36.529  23.461  25.267  1.00  0.00     0.188 C 
ENDROOT
BRANCH   1   2
ATOM      2  O   UNL A   1      35.174  23.841  25.067  1.00  0.00    -0.376 OA
BRANCH   2   3
ATOM      3  C   UNL A   1      34.734  25.017  25.737  1.00  0.00     0.202 C 
BRANCH   3   4
ATOM      4  C   UNL A   1      33.222  25.139  25.955  1.00  0.00     0.261 C 
BRANCH   4   5
ATOM      5  O   UNL A   1      32.814  26.466  26.332  1.00  0.00    -0.463 OA
BRANCH   5   6
ATOM      6  C   UNL A   1      31.502  26.766  26.151  1.00  0.00     0.309 C 
ATOM      7  O   UNL A   1      30.565  26.125  26.612  1.00  0.00    -0.252 OA
BRANCH   6   8
ATOM      8  C   UNL A   1      31.284  27.984  25.260  1.00  0.00     0.099 C 
ATOM      9  C   UNL A   1      31.725  27.436  22.367  1.00  0.00     0.082 C 
ATOM     10  C   UNL A   1      30.551  26.817  23.137  1.00  0.00     0.026 C 
ATOM     11  C   UNL A   1      32.914  27.670  23.298  1.00  0.00     0.026 C 
ATOM     12  C   UNL A   1      30.122  27.702  24.306  1.00  0.00     0.017 C 
ATOM     13  C   UNL A   1      32.503  28.524  24.498  1.00  0.00     0.017 C 
BRANCH   9  14
ATOM     14  N   UNL A   1      32.044  26.620  21.207  1.00  0.00    -0.353 N 
ATOM     15  C   UNL A   1      32.736  25.454  21.115  1.00  0.00     0.220 C 
ATOM     16  O   UNL A   1      33.092  25.079  19.995  1.00  0.00    -0.275 OA
ATOM     17  H   UNL A   1      31.705  26.967  20.350  1.00  0.00     0.163 HD
BRANCH  15  18
ATOM     18  C   UNL A   1      32.994  24.589  22.332  1.00  0.00     0.102 C 
BRANCH  18  19
ATOM     19  C   UNL A   1      31.887  23.642  22.788  1.00  0.00     0.038 C 
BRANCH  19  20
ATOM     20  C   UNL A   1      32.222  22.161  22.965  1.00  0.00     0.160 C 
BRANCH  20  21
ATOM     21  O   UNL A   1      32.454  21.733  24.301  1.00  0.00    -0.385 OA
ATOM     22  C   UNL A   1      33.550  20.852  24.489  1.00  0.00     0.194 C 
ENDBRANCH  20  21
ENDBRANCH  19  20
ENDBRANCH  18  19
ENDBRANCH  15  18
ENDBRANCH   9  14
ENDBRANCH   6   8
ENDBRANCH   5   6
ENDBRANCH   4   5
ENDBRANCH   3   4
ENDBRANCH   2   3
ENDBRANCH   1   2
BRANCH   1  23
ATOM     23  C   UNL A   1      36.763  21.985  25.579  1.00  0.00     0.188 C 
BRANCH  23  24
ATOM     24  O   UNL A   1      37.493  21.235  24.617  1.00  0.00    -0.376 OA
BRANCH  24  25
ATOM     25  C   UNL A   1      37.555  19.823  24.860  1.00  0.00     0.202 C 
BRANCH  25  26
ATOM     26  C   UNL A   1      38.846  19.252  25.496  1.00  0.00     0.261 C 
BRANCH  26  27
ATOM     27  O   UNL A   1      39.961  20.164  25.620  1.00  0.00    -0.460 OA
BRANCH  27  28
ATOM     28  C   UNL A   1      40.664  20.164  26.780  1.00  0.00     0.338 C 
ATOM     29  O   UNL A   1      41.199  19.199  27.290  1.00  0.00    -0.246 OA
BRANCH  28  30
ATOM     30  C   UNL A   1      40.916  21.584  27.185  1.00  0.00     0.060 A 
ATOM     31  C   UNL A   1      40.296  22.601  26.443  1.00  0.00     0.016 A 
ATOM     32  C   UNL A   1      41.671  21.923  28.313  1.00  0.00     0.016 A 
ATOM     33  C   UNL A   1      40.468  23.947  26.792  1.00  0.00     0.010 A 
ATOM     34  C   UNL A   1      41.852  23.273  28.656  1.00  0.00     0.010 A 
ATOM     35  C   UNL A   1      41.283  24.297  27.876  1.00  0.00    -0.014 A 
BRANCH  35  36
ATOM     36  C   UNL A   1      41.714  25.711  28.062  1.00  0.00     0.031 A 
ATOM     37  C   UNL A   1      43.088  26.106  27.581  1.00  0.00     0.074 A 
ATOM     38  C   UNL A   1      40.924  26.641  28.633  1.00  0.00     0.049 A 
ATOM     39  N   UNL A   1      43.699  27.259  27.657  1.00  0.00    -0.248 NA
ATOM     40  C   UNL A   1      43.877  25.051  26.922  1.00  0.00     0.031 C 
ATOM     41  C   UNL A   1      39.569  26.419  29.130  1.00  0.00     0.029 A 
ATOM     42  N   UNL A   1      41.169  27.968  28.909  1.00  0.00    -0.354 N 
ATOM     43  C   UNL A   1      44.951  27.063  27.086  1.00  0.00     0.074 A 
ATOM     44  C   UNL A   1      45.017  25.677  26.679  1.00  0.00     0.031 C 
ATOM     45  C   UNL A   1      39.111  27.563  29.672  1.00  0.00     0.029 A 
ATOM     46  C   UNL A   1      40.148  28.592  29.587  1.00  0.00     0.049 A 
ATOM     47  H   UNL A   1      42.000  28.428  28.646  1.00  0.00     0.167 HD
ATOM     48  C   UNL A   1      45.954  27.954  26.897  1.00  0.00     0.034 A 
ATOM     49  C   UNL A   1      40.065  29.839  30.097  1.00  0.00     0.034 A 
ATOM     50  C   UNL A   1      45.898  29.337  27.285  1.00  0.00     0.049 A 
ATOM     51  C   UNL A   1      41.217  30.801  29.921  1.00  0.00     0.074 A 
ATOM     52  C   UNL A   1      46.856  30.319  27.100  1.00  0.00     0.029 A 
ATOM     53  N   UNL A   1      44.840  29.933  27.949  1.00  0.00    -0.354 N 
ATOM     54  N   UNL A   1      42.349  30.631  29.281  1.00  0.00    -0.248 NA
ATOM     55  C   UNL A   1      41.067  32.141  30.515  1.00  0.00     0.031 C 
ATOM     56  C   UNL A   1      46.389  31.501  27.683  1.00  0.00     0.029 A 
ATOM     57  C   UNL A   1      45.124  31.265  28.196  1.00  0.00     0.049 A 
ATOM     58  H   UNL A   1      44.006  29.475  28.208  1.00  0.00     0.167 HD
ATOM     59  C   UNL A   1      43.023  31.848  29.361  1.00  0.00     0.074 A 
ATOM     60  C   UNL A   1      42.166  32.753  30.095  1.00  0.00     0.031 C 
ATOM     61  C   UNL A   1      44.246  32.181  28.878  1.00  0.00     0.034 A 
BRANCH  48  62
ATOM     62  C   UNL A   1      47.204  27.455  26.220  1.00  0.00     0.023 A 
ATOM     63  C   UNL A   1      47.414  27.726  24.852  1.00  0.00     0.012 A 
ATOM     64  C   UNL A   1      48.186  26.754  26.946  1.00  0.00     0.148 A 
ATOM     65  C   UNL A   1      48.564  27.274  24.208  1.00  0.00     0.002 A 
ATOM     66  C   UNL A   1      49.352  26.348  26.307  1.00  0.00     0.091 A 
ATOM     67  F   UNL A   1      47.957  26.486  28.239  1.00  0.00    -0.205 F 
ATOM     68  C   UNL A   1      49.537  26.595  24.937  1.00  0.00     0.022 A 
BRANCH  66  69
ATOM     69  S   UNL A   1      50.697  25.536  27.176  1.00  0.00     0.127 S 
ATOM     70  O   UNL A   1      50.032  24.346  27.703  1.00  0.00    -0.237 OA
ATOM     71  O   UNL A   1      51.648  25.275  26.095  1.00  0.00    -0.237 OA
ATOM     72  O   UNL A   1      51.162  26.487  28.176  1.00  0.00    -0.744 OA
ENDBRANCH  66  69
ENDBRANCH  48  62
BRANCH  49  73
ATOM     73  C   UNL A   1      38.831  30.280  30.815  1.00  0.00     0.023 A 
ATOM     74  C   UNL A   1      38.669  29.966  32.178  1.00  0.00     0.012 A 
ATOM     75  C   UNL A   1      37.813  30.990  30.149  1.00  0.00     0.148 A 
ATOM     76  C   UNL A   1      37.503  30.322  32.858  1.00  0.00     0.002 A 
ATOM     77  C   UNL A   1      36.678  31.389  30.845  1.00  0.00     0.091 A 
ATOM     78  F   UNL A   1      37.975  31.258  28.846  1.00  0.00    -0.205 F 
ATOM     79  C   UNL A   1      36.513  31.042  32.195  1.00  0.00     0.022 A 
BRANCH  77  80
ATOM     80  S   UNL A   1      35.399  32.410  30.107  1.00  0.00     0.127 S 
ATOM     81  O   UNL A   1      36.142  33.620  29.765  1.00  0.00    -0.237 OA
ATOM     82  O   UNL A   1      34.987  31.595  28.964  1.00  0.00    -0.237 OA
ATOM     83  O   UNL A   1      34.378  32.568  31.135  1.00  0.00    -0.744 OA
ENDBRANCH  77  80
ENDBRANCH  49  73
BRANCH  61  84
ATOM     84  C   UNL A   1      44.730  33.596  29.077  1.00  0.00     0.023 A 
ATOM     85  C   UNL A   1      44.414  34.592  28.131  1.00  0.00     0.012 A 
ATOM     86  C   UNL A   1      45.428  33.958  30.248  1.00  0.00     0.148 A 
ATOM     87  C   UNL A   1      44.813  35.914  28.329  1.00  0.00     0.002 A 
ATOM     88  C   UNL A   1      45.779  35.286  30.463  1.00  0.00     0.091 A 
ATOM     89  F   UNL A   1      45.733  32.998  31.132  1.00  0.00    -0.205 F 
ATOM     90  C   UNL A   1      45.484  36.264  29.499  1.00  0.00     0.022 A 
BRANCH  88  91
ATOM     91  S   UNL A   1      46.557  35.847  31.983  1.00  0.00     0.127 S 
ATOM     92  O   UNL A   1      47.941  36.047  31.553  1.00  0.00    -0.237 OA
ATOM     93  O   UNL A   1      45.824  37.081  32.271  1.00  0.00    -0.237 OA
ATOM     94  O   UNL A   1      46.354  34.782  32.956  1.00  0.00    -0.744 OA
ENDBRANCH  88  91
ENDBRANCH  61  84
ENDBRANCH  35  36
ENDBRANCH  28  30
ENDBRANCH  27  28
ENDBRANCH  26  27
ENDBRANCH  25  26
ENDBRANCH  24  25
ENDBRANCH  23  24
ENDBRANCH   1  23
TORSDOF 25
ENDMDL
MODEL 2
REMARK VINA RESULT:      -9.2      2.081      3.665
REMARK SMILES COCCCC(=O)N[C@H]1CC[C@@H](C(=O)OCCOCCOCCOC(=O)c2ccc(-c3c4nc(c(-c5cccc(S(=O)(=O)[O-])c5F)c5ccc([nH]5)c(-c5cccc(S(=O)(=O)[O-])c5F)c5nc(c(-c6cccc(S(=O)(=O)[O-])c6F)c6ccc3[nH]6)C=C5)C=C4)cc2)CC1
REMARK SMILES IDX 19 1 18 2 17 3 16 4 15 5 13 6 14 7 12 8 9 9 10 10 91 11
REMARK SMILES IDX 11 12 90 13 8 14 6 15 7 16 5 18 4 19 3 20 2 21 1 22 20 23
REMARK SMILES IDX 21 24 22 25 23 26 24 27 25 28 26 29 27 30 28 31 89 32 29 33
REMARK SMILES IDX 88 34 30 35 31 36 32 37 82 38 33 39 87 40 81 41 83 42 34 43
REMARK SMILES IDX 86 44 80 45 79 46 35 48 67 49 47 50 66 51 48 52 51 53 65 54
REMARK SMILES IDX 84 55 49 56 50 57 64 59 85 60 52 61 36 62 37 63 45 64 38 65
REMARK SMILES IDX 40 66 46 67 39 68 41 69 42 70 43 71 44 72 68 73 69 74 77 75
REMARK SMILES IDX 70 76 72 77 78 78 71 79 73 80 74 81 75 82 76 83 53 84 54 85
REMARK SMILES IDX 62 86 55 87 57 88 63 89 56 90 58 91 59 92 60 93 61 94
REMARK H PARENT 8 17 83 47 51 58
REMARK Flexibility Score: inf
ROOT
ATOM      1  C   UNL A   1      36.689  23.277  25.686  1.00  0.00     0.188 C 
ENDROOT
BRANCH   1   2
ATOM      2  O   UNL A   1      35.588  24.080  25.280  1.00  0.00    -0.376 OA
BRANCH   2   3
ATOM      3  C   UNL A   1      34.490  23.404  24.677  1.00  0.00     0.202 C 
BRANCH   3   4
ATOM      4  C   UNL A   1      34.266  23.685  23.187  1.00  0.00     0.261 C 
BRANCH   4   5
ATOM      5  O   UNL A   1      34.324  25.085  22.865  1.00  0.00    -0.463 OA
BRANCH   5   6
ATOM      6  C   UNL A   1      33.419  25.531  21.955  1.00  0.00     0.309 C 
ATOM      7  O   UNL A   1      32.907  24.843  21.080  1.00  0.00    -0.252 OA
BRANCH   6   8
ATOM      8  C   UNL A   1      33.118  27.020  22.091  1.00  0.00     0.099 C 
ATOM      9  C   UNL A   1      31.994  27.770  24.743  1.00  0.00     0.082 C 
ATOM     10  C   UNL A   1      33.440  27.280  24.588  1.00  0.00     0.026 C 
ATOM     11  C   UNL A   1      31.097  27.147  23.674  1.00  0.00     0.026 C 
ATOM     12  C   UNL A   1      33.992  27.605  23.201  1.00  0.00     0.017 C 
ATOM     13  C   UNL A   1      31.650  27.426  22.274  1.00  0.00     0.017 C 
BRANCH   9  14
ATOM     14  N   UNL A   1      31.532  27.533  26.101  1.00  0.00    -0.353 N 
ATOM     15  C   UNL A   1      31.798  28.207  27.251  1.00  0.00     0.220 C 
ATOM     16  O   UNL A   1      31.492  27.672  28.320  1.00  0.00    -0.275 OA
ATOM     17  H   UNL A   1      30.929  26.762  26.206  1.00  0.00     0.163 HD
BRANCH  15  18
ATOM     18  C   UNL A   1      32.373  29.609  27.232  1.00  0.00     0.102 C 
BRANCH  18  19
ATOM     19  C   UNL A   1      31.451  30.759  26.838  1.00  0.00     0.038 C 
BRANCH  19  20
ATOM     20  C   UNL A   1      32.078  32.106  26.481  1.00  0.00     0.160 C 
BRANCH  20  21
ATOM     21  O   UNL A   1      31.740  33.193  27.334  1.00  0.00    -0.385 OA
ATOM     22  C   UNL A   1      32.822  34.001  27.768  1.00  0.00     0.194 C 
ENDBRANCH  20  21
ENDBRANCH  19  20
ENDBRANCH  18  19
ENDBRANCH  15  18
ENDBRANCH   9  14
ENDBRANCH   6   8
ENDBRANCH   5   6
ENDBRANCH   4   5
ENDBRANCH   3   4
ENDBRANCH   2   3
ENDBRANCH   1   2
BRANCH   1  23
ATOM     23  C   UNL A   1      36.534  21.777  25.453  1.00  0.00     0.188 C 
BRANCH  23  24
ATOM     24  O   UNL A   1      37.428  21.177  24.524  1.00  0.00    -0.376 OA
BRANCH  24  25
ATOM     25  C   UNL A   1      37.804  19.825  24.820  1.00  0.00     0.202 C 
BRANCH  25  26
ATOM     26  C   UNL A   1      39.223  19.574  25.385  1.00  0.00     0.261 C 
BRANCH  26  27
ATOM     27  O   UNL A   1      39.619  20.383  26.515  1.00  0.00    -0.460 OA
BRANCH  27  28
ATOM     28  C   UNL A   1      40.944  20.573  26.736  1.00  0.00     0.338 C 
ATOM     29  O   UNL A   1      41.838  19.818  26.405  1.00  0.00    -0.246 OA
BRANCH  28  30
ATOM     30  C   UNL A   1      41.155  21.981  27.199  1.00  0.00     0.060 A 
ATOM     31  C   UNL A   1      40.514  23.010  26.490  1.00  0.00     0.016 A 
ATOM     32  C   UNL A   1      41.890  22.297  28.347  1.00  0.00     0.016 A 
ATOM     33  C   UNL A   1      40.647  24.345  26.893  1.00  0.00     0.010 A 
ATOM     34  C   UNL A   1      42.031  23.636  28.743  1.00  0.00     0.010 A 
ATOM     35  C   UNL A   1      41.442  24.674  27.998  1.00  0.00    -0.014 A 
BRANCH  35  36
ATOM     36  C   UNL A   1      41.833  26.090  28.244  1.00  0.00     0.031 A 
ATOM     37  C   UNL A   1      43.223  26.524  27.851  1.00  0.00     0.074 A 
ATOM     38  C   UNL A   1      40.994  26.991  28.791  1.00  0.00     0.049 A 
ATOM     39  N   UNL A   1      43.806  27.686  27.990  1.00  0.00    -0.248 NA
ATOM     40  C   UNL A   1      44.069  25.502  27.212  1.00  0.00     0.031 C 
ATOM     41  C   UNL A   1      39.618  26.731  29.206  1.00  0.00     0.029 A 
ATOM     42  N   UNL A   1      41.196  28.314  29.113  1.00  0.00    -0.354 N 
ATOM     43  C   UNL A   1      45.092  27.529  27.486  1.00  0.00     0.074 A 
ATOM     44  C   UNL A   1      45.208  26.155  27.049  1.00  0.00     0.031 C 
ATOM     45  C   UNL A   1      39.107  27.851  29.749  1.00  0.00     0.029 A 
ATOM     46  C   UNL A   1      40.126  28.902  29.748  1.00  0.00     0.049 A 
ATOM     47  H   UNL A   1      42.031  28.796  28.909  1.00  0.00     0.167 HD
ATOM     48  C   UNL A   1      46.085  28.443  27.376  1.00  0.00     0.034 A 
ATOM     49  C   UNL A   1      39.990  30.133  30.284  1.00  0.00     0.034 A 
ATOM     50  C   UNL A   1      45.980  29.814  27.794  1.00  0.00     0.049 A 
ATOM     51  C   UNL A   1      41.130  31.121  30.197  1.00  0.00     0.074 A 
ATOM     52  C   UNL A   1      46.927  30.818  27.688  1.00  0.00     0.029 A 
ATOM     53  N   UNL A   1      44.874  30.372  28.412  1.00  0.00    -0.354 N 
ATOM     54  N   UNL A   1      42.299  30.989  29.618  1.00  0.00    -0.248 NA
ATOM     55  C   UNL A   1      40.919  32.441  30.815  1.00  0.00     0.031 C 
ATOM     56  C   UNL A   1      46.404  31.976  28.273  1.00  0.00     0.029 A 
ATOM     57  C   UNL A   1      45.117  31.703  28.707  1.00  0.00     0.049 A 
ATOM     58  H   UNL A   1      44.037  29.893  28.612  1.00  0.00     0.167 HD
ATOM     59  C   UNL A   1      42.942  32.215  29.766  1.00  0.00     0.074 A 
ATOM     60  C   UNL A   1      42.027  33.085  30.473  1.00  0.00     0.031 C 
ATOM     61  C   UNL A   1      44.184  32.584  29.361  1.00  0.00     0.034 A 
BRANCH  48  62
ATOM     62  C   UNL A   1      47.381  27.985  26.759  1.00  0.00     0.023 A 
ATOM     63  C   UNL A   1      48.485  27.692  27.587  1.00  0.00     0.012 A 
ATOM     64  C   UNL A   1      47.494  27.808  25.367  1.00  0.00     0.148 A 
ATOM     65  C   UNL A   1      49.692  27.266  27.036  1.00  0.00     0.002 A 
ATOM     66  C   UNL A   1      48.686  27.337  24.829  1.00  0.00     0.091 A 
ATOM     67  F   UNL A   1      46.442  28.114  24.596  1.00  0.00    -0.205 F 
ATOM     68  C   UNL A   1      49.790  27.079  25.660  1.00  0.00     0.022 A 
BRANCH  66  69
ATOM     69  S   UNL A   1      48.887  26.990  23.079  1.00  0.00     0.127 S 
ATOM     70  O   UNL A   1      48.197  28.128  22.472  1.00  0.00    -0.237 OA
ATOM     71  O   UNL A   1      50.342  27.008  22.927  1.00  0.00    -0.237 OA
ATOM     72  O   UNL A   1      48.269  25.691  22.853  1.00  0.00    -0.744 OA
ENDBRANCH  66  69
ENDBRANCH  48  62
BRANCH  49  73
ATOM     73  C   UNL A   1      38.708  30.532  30.941  1.00  0.00     0.023 A 
ATOM     74  C   UNL A   1      38.488  30.204  32.293  1.00  0.00     0.012 A 
ATOM     75  C   UNL A   1      37.703  31.215  30.230  1.00  0.00     0.148 A 
ATOM     76  C   UNL A   1      37.280  30.521  32.916  1.00  0.00     0.002 A 
ATOM     77  C   UNL A   1      36.524  31.575  30.870  1.00  0.00     0.091 A 
ATOM     78  F   UNL A   1      37.922  31.496  28.937  1.00  0.00    -0.205 F 
ATOM     79  C   UNL A   1      36.303  31.214  32.208  1.00  0.00     0.022 A 
BRANCH  77  80
ATOM     80  S   UNL A   1      35.252  32.563  30.074  1.00  0.00     0.127 S 
ATOM     81  O   UNL A   1      34.875  31.713  28.947  1.00  0.00    -0.237 OA
ATOM     82  O   UNL A   1      34.247  32.666  31.132  1.00  0.00    -0.237 OA
ATOM     83  O   UNL A   1      35.893  33.824  29.724  1.00  0.00    -0.744 OA
ENDBRANCH  77  80
ENDBRANCH  49  73
BRANCH  61  84
ATOM     84  C   UNL A   1      44.627  34.003  29.623  1.00  0.00     0.023 A 
ATOM     85  C   UNL A   1      45.196  34.348  30.866  1.00  0.00     0.012 A 
ATOM     86  C   UNL A   1      44.554  34.976  28.605  1.00  0.00     0.148 A 
ATOM     87  C   UNL A   1      45.654  35.644  31.102  1.00  0.00     0.002 A 
ATOM     88  C   UNL A   1      45.058  36.253  28.831  1.00  0.00     0.091 A 
ATOM     89  F   UNL A   1      43.998  34.637  27.435  1.00  0.00    -0.205 F 
ATOM     90  C   UNL A   1      45.596  36.593  30.083  1.00  0.00     0.022 A 
BRANCH  88  91
ATOM     91  S   UNL A   1      45.117  37.510  27.548  1.00  0.00     0.127 S 
ATOM     92  O   UNL A   1      43.705  37.636  27.189  1.00  0.00    -0.237 OA
ATOM     93  O   UNL A   1      45.668  38.661  28.265  1.00  0.00    -0.237 OA
ATOM     94  O   UNL A   1      45.980  36.977  26.503  1.00  0.00    -0.744 OA
ENDBRANCH  88  91
ENDBRANCH  61  84
ENDBRANCH  35  36
ENDBRANCH  28  30
ENDBRANCH  27  28
ENDBRANCH  26  27
ENDBRANCH  25  26
ENDBRANCH  24  25
ENDBRANCH  23  24
ENDBRANCH   1  23
TORSDOF 25
ENDMDL
MODEL 3
REMARK VINA RESULT:      -9.0      1.905      2.216
REMARK SMILES COCCCC(=O)N[C@H]1CC[C@@H](C(=O)OCCOCCOCCOC(=O)c2ccc(-c3c4nc(c(-c5cccc(S(=O)(=O)[O-])c5F)c5ccc([nH]5)c(-c5cccc(S(=O)(=O)[O-])c5F)c5nc(c(-c6cccc(S(=O)(=O)[O-])c6F)c6ccc3[nH]6)C=C5)C=C4)cc2)CC1
REMARK SMILES IDX 19 1 18 2 17 3 16 4 15 5 13 6 14 7 12 8 9 9 10 10 91 11
REMARK SMILES IDX 11 12 90 13 8 14 6 15 7 16 5 18 4 19 3 20 2 21 1 22 20 23
REMARK SMILES IDX 21 24 22 25 23 26 24 27 25 28 26 29 27 30 28 31 89 32 29 33
REMARK SMILES IDX 88 34 30 35 31 36 32 37 82 38 33 39 87 40 81 41 83 42 34 43
REMARK SMILES IDX 86 44 80 45 79 46 35 48 67 49 47 50 66 51 48 52 51 53 65 54
REMARK SMILES IDX 84 55 49 56 50 57 64 59 85 60 52 61 36 62 37 63 45 64 38 65
REMARK SMILES IDX 40 66 46 67 39 68 41 69 42 70 43 71 44 72 68 73 69 74 77 75
REMARK SMILES IDX 70 76 72 77 78 78 71 79 73 80 74 81 75 82 76 83 53 84 54 85
REMARK SMILES IDX 62 86 55 87 57 88 63 89 56 90 58 91 59 92 60 93 61 94
REMARK H PARENT 8 17 83 47 51 58
REMARK Flexibility Score: inf
ROOT
ATOM      1  C   UNL A   1      36.981  23.598  25.296  1.00  0.00     0.188 C 
ENDROOT
BRANCH   1   2
ATOM      2  O   UNL A   1      35.771  24.248  25.662  1.00  0.00    -0.376 OA
BRANCH   2   3
ATOM      3  C   UNL A   1      34.742  23.426  26.203  1.00  0.00     0.202 C 
BRANCH   3   4
ATOM      4  C   UNL A   1      33.354  24.068  26.301  1.00  0.00     0.261 C 
BRANCH   4   5
ATOM      5  O   UNL A   1      33.365  25.477  26.015  1.00  0.00    -0.463 OA
BRANCH   5   6
ATOM      6  C   UNL A   1      32.237  26.165  26.332  1.00  0.00     0.309 C 
ATOM      7  O   UNL A   1      31.357  25.761  27.083  1.00  0.00    -0.252 OA
BRANCH   6   8
ATOM      8  C   UNL A   1      32.133  27.507  25.615  1.00  0.00     0.099 C 
ATOM      9  C   UNL A   1      32.181  27.279  22.648  1.00  0.00     0.082 C 
ATOM     10  C   UNL A   1      31.006  26.749  23.479  1.00  0.00     0.026 C 
ATOM     11  C   UNL A   1      33.482  27.209  23.448  1.00  0.00     0.026 C 
ATOM     12  C   UNL A   1      30.850  27.529  24.783  1.00  0.00     0.017 C 
ATOM     13  C   UNL A   1      33.340  27.952  24.778  1.00  0.00     0.017 C 
BRANCH   9  14
ATOM     14  N   UNL A   1      32.243  26.582  21.373  1.00  0.00    -0.353 N 
ATOM     15  C   UNL A   1      32.856  25.417  21.037  1.00  0.00     0.220 C 
ATOM     16  O   UNL A   1      32.980  25.153  19.837  1.00  0.00    -0.275 OA
ATOM     17  H   UNL A   1      31.764  27.024  20.635  1.00  0.00     0.163 HD
BRANCH  15  18
ATOM     18  C   UNL A   1      33.302  24.424  22.090  1.00  0.00     0.102 C 
BRANCH  18  19
ATOM     19  C   UNL A   1      32.239  23.544  22.744  1.00  0.00     0.038 C 
BRANCH  19  20
ATOM     20  C   UNL A   1      32.323  22.031  22.544  1.00  0.00     0.160 C 
BRANCH  20  21
ATOM     21  O   UNL A   1      32.980  21.304  23.574  1.00  0.00    -0.385 OA
ATOM     22  C   UNL A   1      32.189  20.980  24.706  1.00  0.00     0.194 C 
ENDBRANCH  20  21
ENDBRANCH  19  20
ENDBRANCH  18  19
ENDBRANCH  15  18
ENDBRANCH   9  14
ENDBRANCH   6   8
ENDBRANCH   5   6
ENDBRANCH   4   5
ENDBRANCH   3   4
ENDBRANCH   2   3
ENDBRANCH   1   2
BRANCH   1  23
ATOM     23  C   UNL A   1      37.056  22.109  25.618  1.00  0.00     0.188 C 
BRANCH  23  24
ATOM     24  O   UNL A   1      37.619  21.265  24.622  1.00  0.00    -0.376 OA
BRANCH  24  25
ATOM     25  C   UNL A   1      37.707  19.877  24.972  1.00  0.00     0.202 C 
BRANCH  25  26
ATOM     26  C   UNL A   1      39.010  19.380  25.643  1.00  0.00     0.261 C 
BRANCH  26  27
ATOM     27  O   UNL A   1      40.058  20.359  25.821  1.00  0.00    -0.460 OA
BRANCH  27  28
ATOM     28  C   UNL A   1      40.596  20.508  27.058  1.00  0.00     0.338 C 
ATOM     29  O   UNL A   1      40.786  19.618  27.864  1.00  0.00    -0.246 OA
BRANCH  28  30
ATOM     30  C   UNL A   1      41.175  21.884  27.165  1.00  0.00     0.060 A 
ATOM     31  C   UNL A   1      41.884  22.212  28.331  1.00  0.00     0.016 A 
ATOM     32  C   UNL A   1      41.106  22.815  26.123  1.00  0.00     0.016 A 
ATOM     33  C   UNL A   1      42.476  23.473  28.478  1.00  0.00     0.010 A 
ATOM     34  C   UNL A   1      41.690  24.083  26.275  1.00  0.00     0.010 A 
ATOM     35  C   UNL A   1      42.347  24.435  27.468  1.00  0.00    -0.014 A 
BRANCH  35  36
ATOM     36  C   UNL A   1      42.701  25.856  27.739  1.00  0.00     0.031 A 
ATOM     37  C   UNL A   1      44.061  26.347  27.306  1.00  0.00     0.074 A 
ATOM     38  C   UNL A   1      41.856  26.713  28.344  1.00  0.00     0.049 A 
ATOM     39  N   UNL A   1      44.610  27.524  27.456  1.00  0.00    -0.248 NA
ATOM     40  C   UNL A   1      44.913  25.371  26.606  1.00  0.00     0.031 C 
ATOM     41  C   UNL A   1      40.506  26.396  28.803  1.00  0.00     0.029 A 
ATOM     42  N   UNL A   1      42.027  28.033  28.696  1.00  0.00    -0.354 N 
ATOM     43  C   UNL A   1      45.880  27.423  26.899  1.00  0.00     0.074 A 
ATOM     44  C   UNL A   1      46.024  26.067  26.418  1.00  0.00     0.031 C 
ATOM     45  C   UNL A   1      39.981  27.483  29.398  1.00  0.00     0.029 A 
ATOM     46  C   UNL A   1      40.965  28.567  29.388  1.00  0.00     0.049 A 
ATOM     47  H   UNL A   1      42.837  28.548  28.474  1.00  0.00     0.167 HD
ATOM     48  C   UNL A   1      46.838  28.372  26.777  1.00  0.00     0.034 A 
ATOM     49  C   UNL A   1      40.810  29.778  29.964  1.00  0.00     0.034 A 
ATOM     50  C   UNL A   1      46.705  29.728  27.238  1.00  0.00     0.049 A 
ATOM     51  C   UNL A   1      41.913  30.805  29.861  1.00  0.00     0.074 A 
ATOM     52  C   UNL A   1      47.614  30.766  27.125  1.00  0.00     0.029 A 
ATOM     53  N   UNL A   1      45.607  30.231  27.914  1.00  0.00    -0.354 N 
ATOM     54  N   UNL A   1      43.063  30.728  29.234  1.00  0.00    -0.248 NA
ATOM     55  C   UNL A   1      41.684  32.100  30.524  1.00  0.00     0.031 C 
ATOM     56  C   UNL A   1      47.077  31.889  27.762  1.00  0.00     0.029 A 
ATOM     57  C   UNL A   1      45.818  31.561  28.238  1.00  0.00     0.049 A 
ATOM     58  H   UNL A   1      44.794  29.719  28.132  1.00  0.00     0.167 HD
ATOM     59  C   UNL A   1      43.671  31.971  29.393  1.00  0.00     0.074 A 
ATOM     60  C   UNL A   1      42.757  32.790  30.159  1.00  0.00     0.031 C 
ATOM     61  C   UNL A   1      44.883  32.392  28.952  1.00  0.00     0.034 A 
BRANCH  48  62
ATOM     62  C   UNL A   1      48.123  27.976  26.098  1.00  0.00     0.023 A 
ATOM     63  C   UNL A   1      49.250  27.637  26.877  1.00  0.00     0.012 A 
ATOM     64  C   UNL A   1      48.203  27.899  24.695  1.00  0.00     0.148 A 
ATOM     65  C   UNL A   1      50.447  27.267  26.268  1.00  0.00     0.002 A 
ATOM     66  C   UNL A   1      49.386  27.482  24.096  1.00  0.00     0.091 A 
ATOM     67  F   UNL A   1      47.129  28.247  23.972  1.00  0.00    -0.205 F 
ATOM     68  C   UNL A   1      50.513  27.179  24.879  1.00  0.00     0.022 A 
BRANCH  66  69
ATOM     69  S   UNL A   1      49.547  27.264  22.321  1.00  0.00     0.127 S 
ATOM     70  O   UNL A   1      48.624  26.157  22.076  1.00  0.00    -0.237 OA
ATOM     71  O   UNL A   1      49.097  28.559  21.810  1.00  0.00    -0.237 OA
ATOM     72  O   UNL A   1      50.953  26.971  22.078  1.00  0.00    -0.744 OA
ENDBRANCH  66  69
ENDBRANCH  48  62
BRANCH  49  73
ATOM     73  C   UNL A   1      39.543  30.115  30.680  1.00  0.00     0.023 A 
ATOM     74  C   UNL A   1      39.296  29.565  31.953  1.00  0.00     0.012 A 
ATOM     75  C   UNL A   1      38.578  30.961  30.101  1.00  0.00     0.148 A 
ATOM     76  C   UNL A   1      38.098  29.824  32.622  1.00  0.00     0.002 A 
ATOM     77  C   UNL A   1      37.411  31.258  30.794  1.00  0.00     0.091 A 
ATOM     78  F   UNL A   1      38.820  31.454  28.878  1.00  0.00    -0.205 F 
ATOM     79  C   UNL A   1      37.161  30.678  32.047  1.00  0.00     0.022 A 
BRANCH  77  80
ATOM     80  S   UNL A   1      36.194  32.430  30.185  1.00  0.00     0.127 S 
ATOM     81  O   UNL A   1      36.288  32.236  28.740  1.00  0.00    -0.237 OA
ATOM     82  O   UNL A   1      34.963  31.928  30.795  1.00  0.00    -0.237 OA
ATOM     83  O   UNL A   1      36.623  33.734  30.674  1.00  0.00    -0.744 OA
ENDBRANCH  77  80
ENDBRANCH  49  73
BRANCH  61  84
ATOM     84  C   UNL A   1      45.290  33.817  29.237  1.00  0.00     0.023 A 
ATOM     85  C   UNL A   1      45.965  34.134  30.433  1.00  0.00     0.012 A 
ATOM     86  C   UNL A   1      45.074  34.830  28.279  1.00  0.00     0.148 A 
ATOM     87  C   UNL A   1      46.389  35.439  30.685  1.00  0.00     0.002 A 
ATOM     88  C   UNL A   1      45.544  36.117  28.516  1.00  0.00     0.091 A 
ATOM     89  F   UNL A   1      44.418  34.516  27.154  1.00  0.00    -0.205 F 
ATOM     90  C   UNL A   1      46.190  36.427  29.724  1.00  0.00     0.022 A 
BRANCH  88  91
ATOM     91  S   UNL A   1      45.421  37.431  27.295  1.00  0.00     0.127 S 
ATOM     92  O   UNL A   1      46.270  36.919  26.220  1.00  0.00    -0.237 OA
ATOM     93  O   UNL A   1      43.990  37.439  26.990  1.00  0.00    -0.237 OA
ATOM     94  O   UNL A   1      45.906  38.637  27.952  1.00  0.00    -0.744 OA
ENDBRANCH  88  91
ENDBRANCH  61  84
ENDBRANCH  35  36
ENDBRANCH  28  30
ENDBRANCH  27  28
ENDBRANCH  26  27
ENDBRANCH  25  26
ENDBRANCH  24  25
ENDBRANCH  23  24
ENDBRANCH   1  23
TORSDOF 25
ENDMDL
