MODEL 1
REMARK VINA RESULT:      -7.0      0.000      0.000
REMARK SMILES CS(=O)(=O)c1ccc(C2=NN(c3ccc(C(=O)OCCOCCOCCOC(=O)c4ccc(-c5c6nc(c(-c7cccc(S(=O)(=O)[O-])c7F)c7ccc([nH]7)c(-c7cccc(S(=O)(=O)[O-])c7F)c7nc(c(-c8cccc(S(=O)(=O)[O-])c8F)c8ccc5[nH]8)C=C7)C=C6)cc4)cc3)[C@H](c3ccccc3)C2)cc1
REMARK SMILES IDX 22 1 21 2 20 3 19 4 18 5 16 6 17 7 15 8 12 9 13 10 94 11
REMARK SMILES IDX 14 12 93 13 11 14 9 15 10 16 102 17 95 18 8 19 5 20 6 21
REMARK SMILES IDX 104 22 7 23 103 24 2 25 1 26 3 27 4 28 96 29 97 30 101 31
REMARK SMILES IDX 98 32 100 33 99 34 23 35 24 36 25 37 26 38 27 39 28 40 29 41
REMARK SMILES IDX 30 42 31 43 92 44 32 45 91 46 33 47 34 48 35 49 85 50 36 51
REMARK SMILES IDX 90 52 84 53 86 54 37 55 89 56 83 57 82 58 38 60 70 61 50 62
REMARK SMILES IDX 69 63 51 64 54 65 68 66 87 67 52 68 53 69 67 71 88 72 55 73
REMARK SMILES IDX 39 74 40 75 48 76 41 77 43 78 49 79 42 80 44 81 45 82 46 83
REMARK SMILES IDX 47 84 71 85 72 86 80 87 73 88 75 89 81 90 74 91 76 92 77 93
REMARK SMILES IDX 78 94 79 95 56 96 57 97 65 98 58 99 60 100 66 101 59 102
REMARK SMILES IDX 61 103 62 104 63 105 64 106
REMARK H PARENT 86 59 54 70
REMARK Flexibility Score: inf
ROOT
ATOM      1  C   UNL A   1      41.527  19.661  26.238  1.00  0.00     0.188 C 
ENDROOT
BRANCH   1   2
ATOM      2  O   UNL A   1      41.376  20.998  25.802  1.00  0.00    -0.376 OA
BRANCH   2   3
ATOM      3  C   UNL A   1      41.465  22.072  26.723  1.00  0.00     0.202 C 
BRANCH   3   4
ATOM      4  C   UNL A   1      41.871  23.492  26.307  1.00  0.00     0.261 C 
BRANCH   4   5
ATOM      5  O   UNL A   1      41.382  24.532  27.160  1.00  0.00    -0.460 OA
BRANCH   5   6
ATOM      6  C   UNL A   1      41.242  25.745  26.569  1.00  0.00     0.338 C 
ATOM      7  O   UNL A   1      41.158  25.967  25.371  1.00  0.00    -0.246 OA
BRANCH   6   8
ATOM      8  C   UNL A   1      41.094  26.808  27.587  1.00  0.00     0.060 A 
ATOM      9  C   UNL A   1      40.859  29.011  29.306  1.00  0.00     0.060 A 
ATOM     10  C   UNL A   1      39.841  28.722  28.390  1.00  0.00     0.029 A 
ATOM     11  C   UNL A   1      41.924  28.107  29.441  1.00  0.00     0.029 A 
ATOM     12  C   UNL A   1      39.961  27.630  27.528  1.00  0.00     0.018 A 
ATOM     13  C   UNL A   1      42.057  27.018  28.577  1.00  0.00     0.018 A 
BRANCH   9  14
ATOM     14  N   UNL A   1      40.954  30.265  29.921  1.00  0.00    -0.257 N 
ATOM     15  C   UNL A   1      41.957  32.131  30.141  1.00  0.00     0.071 C 
ATOM     16  N   UNL A   1      41.456  31.333  29.249  1.00  0.00    -0.176 NA
ATOM     17  C   UNL A   1      41.972  31.609  31.553  1.00  0.00     0.091 C 
ATOM     18  C   UNL A   1      41.200  30.298  31.372  1.00  0.00     0.144 C 
BRANCH  15  19
ATOM     19  C   UNL A   1      42.460  33.482  29.825  1.00  0.00    -0.002 A 
ATOM     20  C   UNL A   1      43.478  36.035  29.336  1.00  0.00     0.067 A 
ATOM     21  C   UNL A   1      42.941  35.726  30.592  1.00  0.00     0.021 A 
ATOM     22  C   UNL A   1      43.501  35.075  28.320  1.00  0.00     0.021 A 
ATOM     23  C   UNL A   1      42.421  34.453  30.830  1.00  0.00     0.011 A 
ATOM     24  C   UNL A   1      42.999  33.791  28.571  1.00  0.00     0.011 A 
BRANCH  20  25
ATOM     25  S   UNL A   1      44.137  37.675  29.122  1.00  0.00     0.175 S 
ATOM     26  C   UNL A   1      45.198  37.646  27.707  1.00  0.00     0.163 C 
ATOM     27  O   UNL A   1      44.985  37.922  30.275  1.00  0.00    -0.224 OA
ATOM     28  O   UNL A   1      43.015  38.538  28.817  1.00  0.00    -0.224 OA
ENDBRANCH  20  25
ENDBRANCH  15  19
BRANCH  18  29
ATOM     29  C   UNL A   1      39.888  30.121  32.129  1.00  0.00    -0.023 A 
ATOM     30  C   UNL A   1      39.238  31.154  32.815  1.00  0.00     0.006 A 
ATOM     31  C   UNL A   1      39.232  28.874  32.044  1.00  0.00     0.006 A 
ATOM     32  C   UNL A   1      37.975  30.951  33.384  1.00  0.00     0.000 A 
ATOM     33  C   UNL A   1      37.953  28.685  32.570  1.00  0.00     0.000 A 
ATOM     34  C   UNL A   1      37.326  29.726  33.245  1.00  0.00     0.000 A 
ENDBRANCH  18  29
ENDBRANCH   9  14
ENDBRANCH   6   8
ENDBRANCH   5   6
ENDBRANCH   4   5
ENDBRANCH   3   4
ENDBRANCH   2   3
ENDBRANCH   1   2
BRANCH   1  35
ATOM     35  C   UNL A   1      42.720  18.820  25.739  1.00  0.00     0.188 C 
BRANCH  35  36
ATOM     36  O   UNL A   1      44.031  19.320  25.867  1.00  0.00    -0.376 OA
BRANCH  36  37
ATOM     37  C   UNL A   1      44.701  19.878  24.750  1.00  0.00     0.202 C 
BRANCH  37  38
ATOM     38  C   UNL A   1      46.017  20.675  24.797  1.00  0.00     0.261 C 
BRANCH  38  39
ATOM     39  O   UNL A   1      46.020  21.918  25.500  1.00  0.00    -0.460 OA
BRANCH  39  40
ATOM     40  C   UNL A   1      46.023  23.025  24.715  1.00  0.00     0.338 C 
ATOM     41  O   UNL A   1      45.922  23.071  23.501  1.00  0.00    -0.246 OA
BRANCH  40  42
ATOM     42  C   UNL A   1      45.993  24.219  25.578  1.00  0.00     0.060 A 
ATOM     43  C   UNL A   1      47.023  24.400  26.510  1.00  0.00     0.016 A 
ATOM     44  C   UNL A   1      44.943  25.134  25.491  1.00  0.00     0.016 A 
ATOM     45  C   UNL A   1      46.996  25.493  27.373  1.00  0.00     0.010 A 
ATOM     46  C   UNL A   1      44.908  26.219  26.371  1.00  0.00     0.010 A 
ATOM     47  C   UNL A   1      45.919  26.388  27.334  1.00  0.00    -0.014 A 
BRANCH  47  48
ATOM     48  C   UNL A   1      45.782  27.420  28.388  1.00  0.00     0.031 A 
ATOM     49  C   UNL A   1      46.141  28.843  28.065  1.00  0.00     0.074 A 
ATOM     50  C   UNL A   1      45.363  27.094  29.623  1.00  0.00     0.049 A 
ATOM     51  N   UNL A   1      46.114  29.900  28.836  1.00  0.00    -0.248 NA
ATOM     52  C   UNL A   1      46.597  29.110  26.691  1.00  0.00     0.031 C 
ATOM     53  C   UNL A   1      45.002  25.749  30.064  1.00  0.00     0.029 A 
ATOM     54  N   UNL A   1      45.203  27.873  30.742  1.00  0.00    -0.354 N 
ATOM     55  C   UNL A   1      46.581  30.949  28.054  1.00  0.00     0.074 A 
ATOM     56  C   UNL A   1      46.891  30.400  26.752  1.00  0.00     0.031 C 
ATOM     57  C   UNL A   1      44.700  25.789  31.372  1.00  0.00     0.029 A 
ATOM     58  C   UNL A   1      44.863  27.157  31.863  1.00  0.00     0.049 A 
ATOM     59  H   UNL A   1      45.320  28.852  30.740  1.00  0.00     0.167 HD
ATOM     60  C   UNL A   1      46.727  32.254  28.386  1.00  0.00     0.034 A 
ATOM     61  C   UNL A   1      44.725  27.554  33.145  1.00  0.00     0.034 A 
ATOM     62  C   UNL A   1      46.405  32.801  29.677  1.00  0.00     0.049 A 
ATOM     63  C   UNL A   1      44.897  29.010  33.492  1.00  0.00     0.074 A 
ATOM     64  C   UNL A   1      46.445  34.122  30.084  1.00  0.00     0.029 A 
ATOM     65  N   UNL A   1      46.011  32.055  30.777  1.00  0.00    -0.354 N 
ATOM     66  N   UNL A   1      45.188  30.018  32.707  1.00  0.00    -0.248 NA
ATOM     67  C   UNL A   1      44.686  29.387  34.898  1.00  0.00     0.031 C 
ATOM     68  C   UNL A   1      46.111  34.171  31.442  1.00  0.00     0.029 A 
ATOM     69  C   UNL A   1      45.827  32.885  31.871  1.00  0.00     0.049 A 
ATOM     70  H   UNL A   1      45.880  31.080  30.779  1.00  0.00     0.167 HD
ATOM     71  C   UNL A   1      45.169  31.151  33.515  1.00  0.00     0.074 A 
ATOM     72  C   UNL A   1      44.812  30.707  34.846  1.00  0.00     0.031 C 
ATOM     73  C   UNL A   1      45.436  32.441  33.185  1.00  0.00     0.034 A 
BRANCH  60  74
ATOM     74  C   UNL A   1      47.256  33.184  27.325  1.00  0.00     0.023 A 
ATOM     75  C   UNL A   1      46.381  34.082  26.679  1.00  0.00     0.012 A 
ATOM     76  C   UNL A   1      48.624  33.192  26.992  1.00  0.00     0.148 A 
ATOM     77  C   UNL A   1      46.852  34.945  25.690  1.00  0.00     0.002 A 
ATOM     78  C   UNL A   1      49.095  34.086  26.039  1.00  0.00     0.091 A 
ATOM     79  F   UNL A   1      49.435  32.313  27.598  1.00  0.00    -0.205 F 
ATOM     80  C   UNL A   1      48.210  34.954  25.377  1.00  0.00     0.022 A 
BRANCH  78  81
ATOM     81  S   UNL A   1      50.838  34.227  25.628  1.00  0.00     0.127 S 
ATOM     82  O   UNL A   1      51.400  34.713  26.887  1.00  0.00    -0.237 OA
ATOM     83  O   UNL A   1      51.190  32.846  25.296  1.00  0.00    -0.237 OA
ATOM     84  O   UNL A   1      50.911  35.155  24.508  1.00  0.00    -0.744 OA
ENDBRANCH  78  81
ENDBRANCH  60  74
BRANCH  61  85
ATOM     85  C   UNL A   1      44.378  26.551  34.190  1.00  0.00     0.023 A 
ATOM     86  C   UNL A   1      43.027  26.300  34.496  1.00  0.00     0.012 A 
ATOM     87  C   UNL A   1      45.382  25.819  34.852  1.00  0.00     0.148 A 
ATOM     88  C   UNL A   1      42.682  25.351  35.459  1.00  0.00     0.002 A 
ATOM     89  C   UNL A   1      45.031  24.837  35.771  1.00  0.00     0.091 A 
ATOM     90  F   UNL A   1      46.662  26.086  34.556  1.00  0.00    -0.205 F 
ATOM     91  C   UNL A   1      43.682  24.612  36.086  1.00  0.00     0.022 A 
BRANCH  89  92
ATOM     92  S   UNL A   1      46.239  23.751  36.536  1.00  0.00     0.127 S 
ATOM     93  O   UNL A   1      47.356  24.663  36.768  1.00  0.00    -0.237 OA
ATOM     94  O   UNL A   1      45.531  23.323  37.743  1.00  0.00    -0.237 OA
ATOM     95  O   UNL A   1      46.485  22.688  35.570  1.00  0.00    -0.744 OA
ENDBRANCH  89  92
ENDBRANCH  61  85
BRANCH  73  96
ATOM     96  C   UNL A   1      45.334  33.479  34.276  1.00  0.00     0.023 A 
ATOM     97  C   UNL A   1      46.473  33.813  35.036  1.00  0.00     0.012 A 
ATOM     98  C   UNL A   1      44.127  34.169  34.505  1.00  0.00     0.148 A 
ATOM     99  C   UNL A   1      46.404  34.790  36.028  1.00  0.00     0.002 A 
ATOM    100  C   UNL A   1      44.078  35.177  35.462  1.00  0.00     0.091 A 
ATOM    101  F   UNL A   1      43.047  33.827  33.787  1.00  0.00    -0.205 F 
ATOM    102  C   UNL A   1      45.212  35.480  36.234  1.00  0.00     0.022 A 
BRANCH 100 103
ATOM    103  S   UNL A   1      42.612  36.180  35.730  1.00  0.00     0.127 S 
ATOM    104  O   UNL A   1      41.620  35.168  36.092  1.00  0.00    -0.237 OA
ATOM    105  O   UNL A   1      43.025  37.049  36.833  1.00  0.00    -0.237 OA
ATOM    106  O   UNL A   1      42.367  36.876  34.475  1.00  0.00    -0.744 OA
ENDBRANCH 100 103
ENDBRANCH  73  96
ENDBRANCH  47  48
ENDBRANCH  40  42
ENDBRANCH  39  40
ENDBRANCH  38  39
ENDBRANCH  37  38
ENDBRANCH  36  37
ENDBRANCH  35  36
ENDBRANCH   1  35
TORSDOF 24
ENDMDL
MODEL 2
REMARK VINA RESULT:      -6.8      4.116     10.428
REMARK SMILES CS(=O)(=O)c1ccc(C2=NN(c3ccc(C(=O)OCCOCCOCCOC(=O)c4ccc(-c5c6nc(c(-c7cccc(S(=O)(=O)[O-])c7F)c7ccc([nH]7)c(-c7cccc(S(=O)(=O)[O-])c7F)c7nc(c(-c8cccc(S(=O)(=O)[O-])c8F)c8ccc5[nH]8)C=C7)C=C6)cc4)cc3)[C@H](c3ccccc3)C2)cc1
REMARK SMILES IDX 22 1 21 2 20 3 19 4 18 5 16 6 17 7 15 8 12 9 13 10 94 11
REMARK SMILES IDX 14 12 93 13 11 14 9 15 10 16 102 17 95 18 8 19 5 20 6 21
REMARK SMILES IDX 104 22 7 23 103 24 2 25 1 26 3 27 4 28 96 29 97 30 101 31
REMARK SMILES IDX 98 32 100 33 99 34 23 35 24 36 25 37 26 38 27 39 28 40 29 41
REMARK SMILES IDX 30 42 31 43 92 44 32 45 91 46 33 47 34 48 35 49 85 50 36 51
REMARK SMILES IDX 90 52 84 53 86 54 37 55 89 56 83 57 82 58 38 60 70 61 50 62
REMARK SMILES IDX 69 63 51 64 54 65 68 66 87 67 52 68 53 69 67 71 88 72 55 73
REMARK SMILES IDX 39 74 40 75 48 76 41 77 43 78 49 79 42 80 44 81 45 82 46 83
REMARK SMILES IDX 47 84 71 85 72 86 80 87 73 88 75 89 81 90 74 91 76 92 77 93
REMARK SMILES IDX 78 94 79 95 56 96 57 97 65 98 58 99 60 100 66 101 59 102
REMARK SMILES IDX 61 103 62 104 63 105 64 106
REMARK H PARENT 86 59 54 70
REMARK Flexibility Score: inf
ROOT
ATOM      1  C   UNL A   1      36.345  33.027  33.353  1.00  0.00     0.188 C 
ENDROOT
BRANCH   1   2
ATOM      2  O   UNL A   1      36.787  31.955  34.165  1.00  0.00    -0.376 OA
BRANCH   2   3
ATOM      3  C   UNL A   1      38.091  31.962  34.721  1.00  0.00     0.202 C 
BRANCH   3   4
ATOM      4  C   UNL A   1      38.392  31.459  36.139  1.00  0.00     0.261 C 
BRANCH   4   5
ATOM      5  O   UNL A   1      39.427  30.474  36.222  1.00  0.00    -0.460 OA
BRANCH   5   6
ATOM      6  C   UNL A   1      40.672  30.919  35.918  1.00  0.00     0.338 C 
ATOM      7  O   UNL A   1      41.200  31.943  36.323  1.00  0.00    -0.246 OA
BRANCH   6   8
ATOM      8  C   UNL A   1      41.390  29.930  35.084  1.00  0.00     0.060 A 
ATOM      9  C   UNL A   1      42.664  27.857  33.691  1.00  0.00     0.060 A 
ATOM     10  C   UNL A   1      41.270  27.974  33.658  1.00  0.00     0.029 A 
ATOM     11  C   UNL A   1      43.413  28.867  34.316  1.00  0.00     0.029 A 
ATOM     12  C   UNL A   1      40.634  29.001  34.358  1.00  0.00     0.018 A 
ATOM     13  C   UNL A   1      42.786  29.892  35.026  1.00  0.00     0.018 A 
BRANCH   9  14
ATOM     14  N   UNL A   1      43.306  26.670  33.320  1.00  0.00    -0.257 N 
ATOM     15  C   UNL A   1      44.585  25.039  33.816  1.00  0.00     0.071 C 
ATOM     16  N   UNL A   1      43.542  25.691  34.231  1.00  0.00    -0.176 NA
ATOM     17  C   UNL A   1      45.277  25.612  32.609  1.00  0.00     0.091 C 
ATOM     18  C   UNL A   1      44.310  26.743  32.244  1.00  0.00     0.144 C 
BRANCH  15  19
ATOM     19  C   UNL A   1      45.067  23.798  34.451  1.00  0.00    -0.002 A 
ATOM     20  C   UNL A   1      45.966  21.505  35.766  1.00  0.00     0.067 A 
ATOM     21  C   UNL A   1      46.491  22.757  36.107  1.00  0.00     0.021 A 
ATOM     22  C   UNL A   1      44.998  21.393  34.764  1.00  0.00     0.021 A 
ATOM     23  C   UNL A   1      46.050  23.901  35.440  1.00  0.00     0.011 A 
ATOM     24  C   UNL A   1      44.540  22.546  34.112  1.00  0.00     0.011 A 
BRANCH  20  25
ATOM     25  S   UNL A   1      46.569  20.101  36.678  1.00  0.00     0.175 S 
ATOM     26  C   UNL A   1      46.480  20.501  38.399  1.00  0.00     0.163 C 
ATOM     27  O   UNL A   1      47.978  19.982  36.350  1.00  0.00    -0.224 OA
ATOM     28  O   UNL A   1      45.646  19.014  36.428  1.00  0.00    -0.224 OA
ENDBRANCH  20  25
ENDBRANCH  15  19
BRANCH  18  29
ATOM     29  C   UNL A   1      43.622  26.697  30.884  1.00  0.00    -0.023 A 
ATOM     30  C   UNL A   1      42.781  27.707  30.400  1.00  0.00     0.006 A 
ATOM     31  C   UNL A   1      43.934  25.629  30.014  1.00  0.00     0.006 A 
ATOM     32  C   UNL A   1      42.282  27.657  29.094  1.00  0.00     0.000 A 
ATOM     33  C   UNL A   1      43.474  25.604  28.697  1.00  0.00     0.000 A 
ATOM     34  C   UNL A   1      42.644  26.618  28.238  1.00  0.00     0.000 A 
ENDBRANCH  18  29
ENDBRANCH   9  14
ENDBRANCH   6   8
ENDBRANCH   5   6
ENDBRANCH   4   5
ENDBRANCH   3   4
ENDBRANCH   2   3
ENDBRANCH   1   2
BRANCH   1  35
ATOM     35  C   UNL A   1      36.387  32.894  31.817  1.00  0.00     0.188 C 
BRANCH  35  36
ATOM     36  O   UNL A   1      37.613  33.027  31.136  1.00  0.00    -0.376 OA
BRANCH  36  37
ATOM     37  C   UNL A   1      37.867  34.162  30.327  1.00  0.00     0.202 C 
BRANCH  37  38
ATOM     38  C   UNL A   1      39.248  34.606  29.810  1.00  0.00     0.261 C 
BRANCH  38  39
ATOM     39  O   UNL A   1      40.322  33.669  29.886  1.00  0.00    -0.460 OA
BRANCH  39  40
ATOM     40  C   UNL A   1      41.551  34.177  29.610  1.00  0.00     0.338 C 
ATOM     41  O   UNL A   1      41.809  35.261  29.117  1.00  0.00    -0.246 OA
BRANCH  40  42
ATOM     42  C   UNL A   1      42.573  33.273  30.167  1.00  0.00     0.060 A 
ATOM     43  C   UNL A   1      43.923  33.616  30.021  1.00  0.00     0.016 A 
ATOM     44  C   UNL A   1      42.204  32.085  30.800  1.00  0.00     0.016 A 
ATOM     45  C   UNL A   1      44.913  32.758  30.494  1.00  0.00     0.010 A 
ATOM     46  C   UNL A   1      43.199  31.217  31.256  1.00  0.00     0.010 A 
ATOM     47  C   UNL A   1      44.558  31.537  31.081  1.00  0.00    -0.014 A 
BRANCH  47  48
ATOM     48  C   UNL A   1      45.606  30.535  31.387  1.00  0.00     0.031 A 
ATOM     49  C   UNL A   1      46.009  29.553  30.324  1.00  0.00     0.074 A 
ATOM     50  C   UNL A   1      46.180  30.486  32.602  1.00  0.00     0.049 A 
ATOM     51  N   UNL A   1      46.886  28.585  30.379  1.00  0.00    -0.248 NA
ATOM     52  C   UNL A   1      45.324  29.675  29.026  1.00  0.00     0.031 C 
ATOM     53  C   UNL A   1      45.864  31.370  33.721  1.00  0.00     0.029 A 
ATOM     54  N   UNL A   1      47.129  29.630  33.103  1.00  0.00    -0.354 N 
ATOM     55  C   UNL A   1      46.837  27.960  29.139  1.00  0.00     0.074 A 
ATOM     56  C   UNL A   1      45.838  28.654  28.355  1.00  0.00     0.031 C 
ATOM     57  C   UNL A   1      46.579  30.986  34.792  1.00  0.00     0.029 A 
ATOM     58  C   UNL A   1      47.387  29.818  34.438  1.00  0.00     0.049 A 
ATOM     59  H   UNL A   1      47.581  28.946  32.556  1.00  0.00     0.167 HD
ATOM     60  C   UNL A   1      47.567  26.912  28.688  1.00  0.00     0.034 A 
ATOM     61  C   UNL A   1      48.166  29.116  35.286  1.00  0.00     0.034 A 
ATOM     62  C   UNL A   1      48.570  26.233  29.463  1.00  0.00     0.049 A 
ATOM     63  C   UNL A   1      48.964  27.950  34.764  1.00  0.00     0.074 A 
ATOM     64  C   UNL A   1      49.416  25.212  29.068  1.00  0.00     0.029 A 
ATOM     65  N   UNL A   1      48.846  26.485  30.798  1.00  0.00    -0.354 N 
ATOM     66  N   UNL A   1      49.024  27.467  33.547  1.00  0.00    -0.248 NA
ATOM     67  C   UNL A   1      49.831  27.254  35.727  1.00  0.00     0.031 C 
ATOM     68  C   UNL A   1      50.177  24.821  30.176  1.00  0.00     0.029 A 
ATOM     69  C   UNL A   1      49.831  25.624  31.251  1.00  0.00     0.049 A 
ATOM     70  H   UNL A   1      48.406  27.177  31.344  1.00  0.00     0.167 HD
ATOM     71  C   UNL A   1      49.951  26.431  33.590  1.00  0.00     0.074 A 
ATOM     72  C   UNL A   1      50.448  26.373  34.950  1.00  0.00     0.031 C 
ATOM     73  C   UNL A   1      50.347  25.595  32.596  1.00  0.00     0.034 A 
BRANCH  60  74
ATOM     74  C   UNL A   1      47.307  26.440  27.282  1.00  0.00     0.023 A 
ATOM     75  C   UNL A   1      46.458  25.337  27.056  1.00  0.00     0.012 A 
ATOM     76  C   UNL A   1      47.877  27.109  26.181  1.00  0.00     0.148 A 
ATOM     77  C   UNL A   1      46.211  24.883  25.761  1.00  0.00     0.002 A 
ATOM     78  C   UNL A   1      47.590  26.680  24.891  1.00  0.00     0.091 A 
ATOM     79  F   UNL A   1      48.703  28.139  26.416  1.00  0.00    -0.205 F 
ATOM     80  C   UNL A   1      46.769  25.560  24.679  1.00  0.00     0.022 A 
BRANCH  78  81
ATOM     81  S   UNL A   1      48.197  27.537  23.434  1.00  0.00     0.127 S 
ATOM     82  O   UNL A   1      47.185  28.577  23.259  1.00  0.00    -0.237 OA
ATOM     83  O   UNL A   1      49.502  28.025  23.883  1.00  0.00    -0.237 OA
ATOM     84  O   UNL A   1      48.258  26.536  22.378  1.00  0.00    -0.744 OA
ENDBRANCH  78  81
ENDBRANCH  60  74
BRANCH  61  85
ATOM     85  C   UNL A   1      48.243  29.521  36.717  1.00  0.00     0.023 A 
ATOM     86  C   UNL A   1      49.173  30.499  37.117  1.00  0.00     0.012 A 
ATOM     87  C   UNL A   1      47.372  28.966  37.675  1.00  0.00     0.148 A 
ATOM     88  C   UNL A   1      49.247  30.904  38.450  1.00  0.00     0.002 A 
ATOM     89  C   UNL A   1      47.414  29.413  38.990  1.00  0.00     0.091 A 
ATOM     90  F   UNL A   1      46.505  28.024  37.274  1.00  0.00    -0.205 F 
ATOM     91  C   UNL A   1      48.362  30.371  39.382  1.00  0.00     0.022 A 
BRANCH  89  92
ATOM     92  S   UNL A   1      46.233  28.878  40.232  1.00  0.00     0.127 S 
ATOM     93  O   UNL A   1      46.687  27.517  40.509  1.00  0.00    -0.237 OA
ATOM     94  O   UNL A   1      46.476  29.840  41.308  1.00  0.00    -0.237 OA
ATOM     95  O   UNL A   1      44.922  28.989  39.607  1.00  0.00    -0.744 OA
ENDBRANCH  89  92
ENDBRANCH  61  85
BRANCH  73  96
ATOM     96  C   UNL A   1      51.385  24.551  32.929  1.00  0.00     0.023 A 
ATOM     97  C   UNL A   1      52.753  24.844  32.762  1.00  0.00     0.012 A 
ATOM     98  C   UNL A   1      51.008  23.304  33.467  1.00  0.00     0.148 A 
ATOM     99  C   UNL A   1      53.727  23.902  33.091  1.00  0.00     0.002 A 
ATOM    100  C   UNL A   1      51.986  22.389  33.840  1.00  0.00     0.091 A 
ATOM    101  F   UNL A   1      49.702  23.033  33.603  1.00  0.00    -0.205 F 
ATOM    102  C   UNL A   1      53.346  22.680  33.640  1.00  0.00     0.022 A 
BRANCH 100 103
ATOM    103  S   UNL A   1      51.591  20.829  34.640  1.00  0.00     0.127 S 
ATOM    104  O   UNL A   1      52.921  20.270  34.876  1.00  0.00    -0.237 OA
ATOM    105  O   UNL A   1      50.891  21.266  35.848  1.00  0.00    -0.237 OA
ATOM    106  O   UNL A   1      50.762  20.094  33.696  1.00  0.00    -0.744 OA
ENDBRANCH 100 103
ENDBRANCH  73  96
ENDBRANCH  47  48
ENDBRANCH  40  42
ENDBRANCH  39  40
ENDBRANCH  38  39
ENDBRANCH  37  38
ENDBRANCH  36  37
ENDBRANCH  35  36
ENDBRANCH   1  35
TORSDOF 24
ENDMDL
MODEL 3
REMARK VINA RESULT:      -6.8      2.398      4.004
REMARK SMILES CS(=O)(=O)c1ccc(C2=NN(c3ccc(C(=O)OCCOCCOCCOC(=O)c4ccc(-c5c6nc(c(-c7cccc(S(=O)(=O)[O-])c7F)c7ccc([nH]7)c(-c7cccc(S(=O)(=O)[O-])c7F)c7nc(c(-c8cccc(S(=O)(=O)[O-])c8F)c8ccc5[nH]8)C=C7)C=C6)cc4)cc3)[C@H](c3ccccc3)C2)cc1
REMARK SMILES IDX 22 1 21 2 20 3 19 4 18 5 16 6 17 7 15 8 12 9 13 10 94 11
REMARK SMILES IDX 14 12 93 13 11 14 9 15 10 16 102 17 95 18 8 19 5 20 6 21
REMARK SMILES IDX 104 22 7 23 103 24 2 25 1 26 3 27 4 28 96 29 97 30 101 31
REMARK SMILES IDX 98 32 100 33 99 34 23 35 24 36 25 37 26 38 27 39 28 40 29 41
REMARK SMILES IDX 30 42 31 43 92 44 32 45 91 46 33 47 34 48 35 49 85 50 36 51
REMARK SMILES IDX 90 52 84 53 86 54 37 55 89 56 83 57 82 58 38 60 70 61 50 62
REMARK SMILES IDX 69 63 51 64 54 65 68 66 87 67 52 68 53 69 67 71 88 72 55 73
REMARK SMILES IDX 39 74 40 75 48 76 41 77 43 78 49 79 42 80 44 81 45 82 46 83
REMARK SMILES IDX 47 84 71 85 72 86 80 87 73 88 75 89 81 90 74 91 76 92 77 93
REMARK SMILES IDX 78 94 79 95 56 96 57 97 65 98 58 99 60 100 66 101 59 102
REMARK SMILES IDX 61 103 62 104 63 105 64 106
REMARK H PARENT 86 59 54 70
REMARK Flexibility Score: inf
ROOT
ATOM      1  C   UNL A   1      41.695  19.843  26.246  1.00  0.00     0.188 C 
ENDROOT
BRANCH   1   2
ATOM      2  O   UNL A   1      41.131  21.133  26.104  1.00  0.00    -0.376 OA
BRANCH   2   3
ATOM      3  C   UNL A   1      41.428  22.157  27.037  1.00  0.00     0.202 C 
BRANCH   3   4
ATOM      4  C   UNL A   1      41.683  23.612  26.622  1.00  0.00     0.261 C 
BRANCH   4   5
ATOM      5  O   UNL A   1      41.499  24.576  27.663  1.00  0.00    -0.460 OA
BRANCH   5   6
ATOM      6  C   UNL A   1      41.066  25.794  27.252  1.00  0.00     0.338 C 
ATOM      7  O   UNL A   1      40.923  26.167  26.098  1.00  0.00    -0.246 OA
BRANCH   6   8
ATOM      8  C   UNL A   1      40.672  26.626  28.411  1.00  0.00     0.060 A 
ATOM      9  C   UNL A   1      39.700  28.289  30.449  1.00  0.00     0.060 A 
ATOM     10  C   UNL A   1      39.040  27.093  30.142  1.00  0.00     0.029 A 
ATOM     11  C   UNL A   1      40.921  28.568  29.817  1.00  0.00     0.029 A 
ATOM     12  C   UNL A   1      39.518  26.268  29.121  1.00  0.00     0.018 A 
ATOM     13  C   UNL A   1      41.403  27.755  28.790  1.00  0.00     0.018 A 
BRANCH   9  14
ATOM     14  N   UNL A   1      39.074  29.297  31.190  1.00  0.00    -0.257 N 
ATOM     15  C   UNL A   1      38.675  30.216  33.071  1.00  0.00     0.071 C 
ATOM     16  N   UNL A   1      39.644  29.783  32.323  1.00  0.00    -0.176 NA
ATOM     17  C   UNL A   1      37.285  29.936  32.568  1.00  0.00     0.091 C 
ATOM     18  C   UNL A   1      37.602  29.328  31.198  1.00  0.00     0.144 C 
BRANCH  15  19
ATOM     19  C   UNL A   1      38.894  30.964  34.323  1.00  0.00    -0.002 A 
ATOM     20  C   UNL A   1      39.194  32.340  36.735  1.00  0.00     0.067 A 
ATOM     21  C   UNL A   1      38.004  32.459  36.005  1.00  0.00     0.021 A 
ATOM     22  C   UNL A   1      40.238  31.541  36.260  1.00  0.00     0.021 A 
ATOM     23  C   UNL A   1      37.862  31.781  34.794  1.00  0.00     0.011 A 
ATOM     24  C   UNL A   1      40.082  30.843  35.054  1.00  0.00     0.011 A 
BRANCH  20  25
ATOM     25  S   UNL A   1      39.286  33.222  38.278  1.00  0.00     0.175 S 
ATOM     26  C   UNL A   1      40.975  33.211  38.802  1.00  0.00     0.163 C 
ATOM     27  O   UNL A   1      38.545  32.428  39.241  1.00  0.00    -0.224 OA
ATOM     28  O   UNL A   1      38.918  34.594  37.995  1.00  0.00    -0.224 OA
ENDBRANCH  20  25
ENDBRANCH  15  19
BRANCH  18  29
ATOM     29  C   UNL A   1      37.088  30.043  29.953  1.00  0.00    -0.023 A 
ATOM     30  C   UNL A   1      36.458  29.392  28.884  1.00  0.00     0.006 A 
ATOM     31  C   UNL A   1      37.149  31.453  29.919  1.00  0.00     0.006 A 
ATOM     32  C   UNL A   1      35.902  30.125  27.830  1.00  0.00     0.000 A 
ATOM     33  C   UNL A   1      36.553  32.184  28.891  1.00  0.00     0.000 A 
ATOM     34  C   UNL A   1      35.931  31.518  27.843  1.00  0.00     0.000 A 
ENDBRANCH  18  29
ENDBRANCH   9  14
ENDBRANCH   6   8
ENDBRANCH   5   6
ENDBRANCH   4   5
ENDBRANCH   3   4
ENDBRANCH   2   3
ENDBRANCH   1   2
BRANCH   1  35
ATOM     35  C   UNL A   1      42.908  19.434  25.385  1.00  0.00     0.188 C 
BRANCH  35  36
ATOM     36  O   UNL A   1      44.093  20.195  25.440  1.00  0.00    -0.376 OA
BRANCH  36  37
ATOM     37  C   UNL A   1      44.571  20.865  24.286  1.00  0.00     0.202 C 
BRANCH  37  38
ATOM     38  C   UNL A   1      45.677  21.935  24.263  1.00  0.00     0.261 C 
BRANCH  38  39
ATOM     39  O   UNL A   1      45.428  23.169  24.937  1.00  0.00    -0.460 OA
BRANCH  39  40
ATOM     40  C   UNL A   1      46.379  24.122  24.768  1.00  0.00     0.338 C 
ATOM     41  O   UNL A   1      47.265  24.141  23.930  1.00  0.00    -0.246 OA
BRANCH  40  42
ATOM     42  C   UNL A   1      46.079  25.256  25.660  1.00  0.00     0.060 A 
ATOM     43  C   UNL A   1      47.132  25.856  26.360  1.00  0.00     0.016 A 
ATOM     44  C   UNL A   1      44.767  25.702  25.826  1.00  0.00     0.016 A 
ATOM     45  C   UNL A   1      46.873  26.899  27.247  1.00  0.00     0.010 A 
ATOM     46  C   UNL A   1      44.507  26.735  26.731  1.00  0.00     0.010 A 
ATOM     47  C   UNL A   1      45.554  27.319  27.465  1.00  0.00    -0.014 A 
BRANCH  47  48
ATOM     48  C   UNL A   1      45.258  28.273  28.560  1.00  0.00     0.031 A 
ATOM     49  C   UNL A   1      45.392  29.746  28.299  1.00  0.00     0.074 A 
ATOM     50  C   UNL A   1      44.893  27.834  29.777  1.00  0.00     0.049 A 
ATOM     51  N   UNL A   1      45.202  30.753  29.112  1.00  0.00    -0.248 NA
ATOM     52  C   UNL A   1      45.803  30.137  26.940  1.00  0.00     0.031 C 
ATOM     53  C   UNL A   1      44.745  26.432  30.160  1.00  0.00     0.029 A 
ATOM     54  N   UNL A   1      44.613  28.532  30.926  1.00  0.00    -0.354 N 
ATOM     55  C   UNL A   1      45.501  31.893  28.377  1.00  0.00     0.074 A 
ATOM     56  C   UNL A   1      45.893  31.454  27.056  1.00  0.00     0.031 C 
ATOM     57  C   UNL A   1      44.439  26.370  31.467  1.00  0.00     0.029 A 
ATOM     58  C   UNL A   1      44.387  27.726  32.015  1.00  0.00     0.049 A 
ATOM     59  H   UNL A   1      44.577  29.516  30.965  1.00  0.00     0.167 HD
ATOM     60  C   UNL A   1      45.443  33.190  28.763  1.00  0.00     0.034 A 
ATOM     61  C   UNL A   1      44.188  28.043  33.310  1.00  0.00     0.034 A 
ATOM     62  C   UNL A   1      45.039  33.626  30.073  1.00  0.00     0.049 A 
ATOM     63  C   UNL A   1      44.132  29.492  33.718  1.00  0.00     0.074 A 
ATOM     64  C   UNL A   1      44.873  34.920  30.534  1.00  0.00     0.029 A 
ATOM     65  N   UNL A   1      44.763  32.784  31.138  1.00  0.00    -0.354 N 
ATOM     66  N   UNL A   1      44.264  30.565  32.978  1.00  0.00    -0.248 NA
ATOM     67  C   UNL A   1      43.863  29.773  35.137  1.00  0.00     0.031 C 
ATOM     68  C   UNL A   1      44.534  34.860  31.891  1.00  0.00     0.029 A 
ATOM     69  C   UNL A   1      44.452  33.528  32.265  1.00  0.00     0.049 A 
ATOM     70  H   UNL A   1      44.785  31.800  31.100  1.00  0.00     0.167 HD
ATOM     71  C   UNL A   1      44.069  31.647  33.831  1.00  0.00     0.074 A 
ATOM     72  C   UNL A   1      43.784  31.097  35.140  1.00  0.00     0.031 C 
ATOM     73  C   UNL A   1      44.134  32.975  33.557  1.00  0.00     0.034 A 
BRANCH  60  74
ATOM     74  C   UNL A   1      45.822  34.234  27.746  1.00  0.00     0.023 A 
ATOM     75  C   UNL A   1      44.824  34.836  26.951  1.00  0.00     0.012 A 
ATOM     76  C   UNL A   1      47.162  34.643  27.599  1.00  0.00     0.148 A 
ATOM     77  C   UNL A   1      45.158  35.799  26.000  1.00  0.00     0.002 A 
ATOM     78  C   UNL A   1      47.481  35.636  26.681  1.00  0.00     0.091 A 
ATOM     79  F   UNL A   1      48.100  34.040  28.344  1.00  0.00    -0.205 F 
ATOM     80  C   UNL A   1      46.484  36.206  25.872  1.00  0.00     0.022 A 
BRANCH  78  81
ATOM     81  S   UNL A   1      49.148  36.282  26.502  1.00  0.00     0.127 S 
ATOM     82  O   UNL A   1      48.970  37.269  25.439  1.00  0.00    -0.237 OA
ATOM     83  O   UNL A   1      49.402  36.853  27.826  1.00  0.00    -0.237 OA
ATOM     84  O   UNL A   1      49.985  35.140  26.166  1.00  0.00    -0.744 OA
ENDBRANCH  78  81
ENDBRANCH  60  74
BRANCH  61  85
ATOM     85  C   UNL A   1      43.999  26.955  34.311  1.00  0.00     0.023 A 
ATOM     86  C   UNL A   1      45.116  26.244  34.787  1.00  0.00     0.012 A 
ATOM     87  C   UNL A   1      42.720  26.653  34.819  1.00  0.00     0.148 A 
ATOM     88  C   UNL A   1      44.961  25.234  35.739  1.00  0.00     0.002 A 
ATOM     89  C   UNL A   1      42.580  25.685  35.806  1.00  0.00     0.091 A 
ATOM     90  F   UNL A   1      41.670  27.333  34.339  1.00  0.00    -0.205 F 
ATOM     91  C   UNL A   1      43.697  24.964  36.255  1.00  0.00     0.022 A 
BRANCH  89  92
ATOM     92  S   UNL A   1      41.015  25.354  36.620  1.00  0.00     0.127 S 
ATOM     93  O   UNL A   1      41.332  24.163  37.405  1.00  0.00    -0.237 OA
ATOM     94  O   UNL A   1      40.823  26.575  37.404  1.00  0.00    -0.237 OA
ATOM     95  O   UNL A   1      40.043  25.162  35.552  1.00  0.00    -0.744 OA
ENDBRANCH  89  92
ENDBRANCH  61  85
BRANCH  73  96
ATOM     96  C   UNL A   1      43.871  33.938  34.688  1.00  0.00     0.023 A 
ATOM     97  C   UNL A   1      42.547  34.296  35.012  1.00  0.00     0.012 A 
ATOM     98  C   UNL A   1      44.931  34.438  35.472  1.00  0.00     0.148 A 
ATOM     99  C   UNL A   1      42.284  35.163  36.073  1.00  0.00     0.002 A 
ATOM    100  C   UNL A   1      44.658  35.261  36.558  1.00  0.00     0.091 A 
ATOM    101  F   UNL A   1      46.186  34.103  35.140  1.00  0.00    -0.205 F 
ATOM    102  C   UNL A   1      43.336  35.636  36.853  1.00  0.00     0.022 A 
BRANCH 100 103
ATOM    103  S   UNL A   1      45.942  35.842  37.673  1.00  0.00     0.127 S 
ATOM    104  O   UNL A   1      46.510  34.585  38.156  1.00  0.00    -0.237 OA
ATOM    105  O   UNL A   1      46.816  36.599  36.775  1.00  0.00    -0.237 OA
ATOM    106  O   UNL A   1      45.265  36.650  38.677  1.00  0.00    -0.744 OA
ENDBRANCH 100 103
ENDBRANCH  73  96
ENDBRANCH  47  48
ENDBRANCH  40  42
ENDBRANCH  39  40
ENDBRANCH  38  39
ENDBRANCH  37  38
ENDBRANCH  36  37
ENDBRANCH  35  36
ENDBRANCH   1  35
TORSDOF 24
ENDMDL
