MODEL 1
REMARK VINA RESULT:     -11.3      0.000      0.000
REMARK SMILES O=C(OCCOCCOCCOC(=O)c1ccc(-c2c3nc(c(-c4cccc(S(=O)(=O)[O-])c4F)c4ccc([nH]4)c(-c4cccc(S(=O)(=O)[O-])c4F)c4nc(c(-c5cccc(S(=O)(=O)[O-])c5F)c5ccc2[nH]5)C=C4)C=C3)cc1)C1=Cc2cc(S(F)(F)(F)(F)F)cc(Br)c2O[C@H]1C(F)(F)F
REMARK SMILES IDX 8 1 7 2 6 3 5 4 4 5 3 6 2 7 1 8 78 9 79 10 94 11 80 12 93 13
REMARK SMILES IDX 81 14 92 15 82 16 90 17 89 18 91 19 95 20 96 21 97 22 98 23
REMARK SMILES IDX 83 24 84 25 85 26 86 27 87 28 88 29 9 30 10 31 11 32 12 33
REMARK SMILES IDX 13 34 14 35 15 36 16 37 77 38 17 39 76 40 18 41 19 42 20 43
REMARK SMILES IDX 70 44 21 45 75 46 69 47 71 48 22 49 74 50 68 51 67 52 23 54
REMARK SMILES IDX 55 55 35 56 54 57 36 58 39 59 53 60 72 61 37 62 38 63 52 65
REMARK SMILES IDX 73 66 40 67 24 68 25 69 33 70 26 71 28 72 34 73 27 74 29 75
REMARK SMILES IDX 30 76 31 77 32 78 56 79 57 80 65 81 58 82 60 83 66 84 59 85
REMARK SMILES IDX 61 86 62 87 63 88 64 89 41 90 42 91 50 92 43 93 45 94 51 95
REMARK SMILES IDX 44 96 46 97 47 98 48 99 49 100
REMARK H PARENT 71 53 39 64
REMARK Flexibility Score: inf
ROOT
ATOM      1  C   UNL A   1      32.984  30.664  26.996  1.00  0.00     0.188 C 
ENDROOT
BRANCH   1   2
ATOM      2  C   UNL A   1      33.058  29.147  27.013  1.00  0.00     0.188 C 
BRANCH   2   3
ATOM      3  O   UNL A   1      31.859  28.608  26.477  1.00  0.00    -0.376 OA
BRANCH   3   4
ATOM      4  C   UNL A   1      31.597  27.347  27.076  1.00  0.00     0.202 C 
BRANCH   4   5
ATOM      5  C   UNL A   1      32.269  26.251  26.266  1.00  0.00     0.261 C 
BRANCH   5   6
ATOM      6  O   UNL A   1      31.280  25.480  25.600  1.00  0.00    -0.460 OA
BRANCH   6   7
ATOM      7  C   UNL A   1      31.282  25.395  24.181  1.00  0.00     0.338 C 
ATOM      8  O   UNL A   1      30.412  24.685  23.586  1.00  0.00    -0.246 OA
BRANCH   7   9
ATOM      9  C   UNL A   1      32.325  26.153  23.377  1.00  0.00     0.087 C 
ATOM     10  C   UNL A   1      33.592  25.668  23.276  1.00  0.00     0.027 C 
ATOM     11  C   UNL A   1      31.951  27.453  22.683  1.00  0.00     0.316 C 
ATOM     12  C   UNL A   1      33.966  24.368  23.969  1.00  0.00     0.020 A 
ATOM     13  O   UNL A   1      31.882  23.444  23.297  1.00  0.00    -0.474 OA
ATOM     14  C   UNL A   1      35.154  24.318  24.678  1.00  0.00     0.036 A 
ATOM     15  C   UNL A   1      33.163  23.312  23.894  1.00  0.00     0.142 A 
ATOM     16  C   UNL A   1      35.551  23.009  25.039  1.00  0.00     0.109 A 
ATOM     17  C   UNL A   1      33.562  22.094  24.390  1.00  0.00     0.062 A 
ATOM     18  C   UNL A   1      34.751  21.959  25.051  1.00  0.00     0.044 A 
ATOM     19  Br  UNL A   1      32.409  20.528  24.145  1.00  0.00    -0.047 Br
BRANCH  11  20
ATOM     20  C   UNL A   1      30.489  27.768  22.951  1.00  0.00     0.430 C 
ATOM     21  F   UNL A   1      29.758  26.660  22.874  1.00  0.00    -0.167 F 
ATOM     22  F   UNL A   1      30.327  28.323  24.149  1.00  0.00    -0.167 F 
ATOM     23  F   UNL A   1      30.100  28.623  22.010  1.00  0.00    -0.167 F 
ENDBRANCH  11  20
BRANCH  16  24
ATOM     24  S   UNL A   1      37.279  22.756  25.518  1.00  0.00     0.310 S 
ATOM     25  F   UNL A   1      37.723  24.132  24.867  1.00  0.00    -0.094 F 
ATOM     26  F   UNL A   1      37.540  22.087  24.116  1.00  0.00    -0.094 F 
ATOM     27  F   UNL A   1      38.763  22.541  25.929  1.00  0.00    -0.094 F 
ATOM     28  F   UNL A   1      37.032  23.554  26.858  1.00  0.00    -0.094 F 
ATOM     29  F   UNL A   1      35.799  23.081  25.068  1.00  0.00    -0.094 F 
ENDBRANCH  16  24
ENDBRANCH   7   9
ENDBRANCH   6   7
ENDBRANCH   5   6
ENDBRANCH   4   5
ENDBRANCH   3   4
ENDBRANCH   2   3
ENDBRANCH   1   2
BRANCH   1  30
ATOM     30  O   UNL A   1      31.868  31.076  26.220  1.00  0.00    -0.376 OA
BRANCH  30  31
ATOM     31  C   UNL A   1      31.469  32.379  26.618  1.00  0.00     0.202 C 
BRANCH  31  32
ATOM     32  C   UNL A   1      32.647  33.096  27.258  1.00  0.00     0.261 C 
BRANCH  32  33
ATOM     33  O   UNL A   1      32.183  34.247  27.946  1.00  0.00    -0.460 OA
BRANCH  33  34
ATOM     34  C   UNL A   1      33.092  35.045  28.690  1.00  0.00     0.338 C 
ATOM     35  O   UNL A   1      32.907  36.300  28.783  1.00  0.00    -0.246 OA
BRANCH  34  36
ATOM     36  C   UNL A   1      34.284  34.400  29.377  1.00  0.00     0.060 A 
ATOM     37  C   UNL A   1      35.544  34.611  28.840  1.00  0.00     0.016 A 
ATOM     38  C   UNL A   1      34.110  33.629  30.445  1.00  0.00     0.016 A 
ATOM     39  C   UNL A   1      36.532  33.725  29.331  1.00  0.00     0.010 A 
ATOM     40  C   UNL A   1      35.155  32.895  30.954  1.00  0.00     0.010 A 
ATOM     41  C   UNL A   1      36.414  33.009  30.434  1.00  0.00    -0.014 A 
BRANCH  41  42
ATOM     42  C   UNL A   1      37.614  32.347  31.091  1.00  0.00     0.031 A 
ATOM     43  C   UNL A   1      38.104  32.834  32.305  1.00  0.00     0.074 A 
ATOM     44  C   UNL A   1      38.139  31.250  30.429  1.00  0.00     0.049 A 
ATOM     45  N   UNL A   1      39.102  32.336  33.037  1.00  0.00    -0.248 NA
ATOM     46  C   UNL A   1      37.569  34.018  32.993  1.00  0.00     0.031 C 
ATOM     47  C   UNL A   1      37.646  30.747  29.209  1.00  0.00     0.029 A 
ATOM     48  N   UNL A   1      39.204  30.463  30.809  1.00  0.00    -0.354 N 
ATOM     49  C   UNL A   1      39.266  33.064  34.145  1.00  0.00     0.074 A 
ATOM     50  C   UNL A   1      38.287  34.160  34.129  1.00  0.00     0.031 C 
ATOM     51  C   UNL A   1      38.408  29.681  28.853  1.00  0.00     0.029 A 
ATOM     52  C   UNL A   1      39.390  29.498  29.845  1.00  0.00     0.049 A 
ATOM     53  H   UNL A   1      39.738  30.571  31.629  1.00  0.00     0.167 HD
ATOM     54  C   UNL A   1      40.193  32.855  35.168  1.00  0.00     0.034 A 
ATOM     55  C   UNL A   1      40.359  28.506  29.812  1.00  0.00     0.034 A 
ATOM     56  C   UNL A   1      41.133  31.837  35.156  1.00  0.00     0.049 A 
ATOM     57  C   UNL A   1      41.323  28.332  30.808  1.00  0.00     0.074 A 
ATOM     58  C   UNL A   1      42.069  31.607  36.183  1.00  0.00     0.029 A 
ATOM     59  N   UNL A   1      41.336  30.886  34.180  1.00  0.00    -0.354 N 
ATOM     60  N   UNL A   1      41.463  29.035  31.933  1.00  0.00    -0.248 NA
ATOM     61  C   UNL A   1      42.374  27.307  30.769  1.00  0.00     0.031 C 
ATOM     62  C   UNL A   1      42.832  30.540  35.827  1.00  0.00     0.029 A 
ATOM     63  C   UNL A   1      42.386  30.085  34.571  1.00  0.00     0.049 A 
ATOM     64  H   UNL A   1      40.820  30.796  33.347  1.00  0.00     0.167 HD
ATOM     65  C   UNL A   1      42.487  28.563  32.646  1.00  0.00     0.074 A 
ATOM     66  C   UNL A   1      43.093  27.448  31.904  1.00  0.00     0.031 C 
ATOM     67  C   UNL A   1      42.940  29.014  33.888  1.00  0.00     0.034 A 
BRANCH  54  68
ATOM     68  C   UNL A   1      40.170  33.797  36.360  1.00  0.00     0.023 A 
ATOM     69  C   UNL A   1      40.697  35.069  36.209  1.00  0.00     0.012 A 
ATOM     70  C   UNL A   1      39.597  33.419  37.497  1.00  0.00     0.148 A 
ATOM     71  C   UNL A   1      40.826  35.783  37.423  1.00  0.00     0.002 A 
ATOM     72  C   UNL A   1      39.644  34.227  38.606  1.00  0.00     0.091 A 
ATOM     73  F   UNL A   1      38.969  32.249  37.561  1.00  0.00    -0.205 F 
ATOM     74  C   UNL A   1      40.201  35.474  38.545  1.00  0.00     0.022 A 
BRANCH  72  75
ATOM     75  S   UNL A   1      38.960  33.633  40.174  1.00  0.00     0.127 S 
ATOM     76  O   UNL A   1      39.847  32.515  40.727  1.00  0.00    -0.237 OA
ATOM     77  O   UNL A   1      38.908  34.786  41.177  1.00  0.00    -0.237 OA
ATOM     78  O   UNL A   1      37.380  33.032  39.913  1.00  0.00    -0.744 OA
ENDBRANCH  72  75
ENDBRANCH  54  68
BRANCH  55  79
ATOM     79  C   UNL A   1      40.371  27.554  28.628  1.00  0.00     0.023 A 
ATOM     80  C   UNL A   1      39.506  26.472  28.619  1.00  0.00     0.012 A 
ATOM     81  C   UNL A   1      41.258  27.735  27.657  1.00  0.00     0.148 A 
ATOM     82  C   UNL A   1      39.852  25.470  27.683  1.00  0.00     0.002 A 
ATOM     83  C   UNL A   1      41.448  26.772  26.695  1.00  0.00     0.091 A 
ATOM     84  F   UNL A   1      41.969  28.858  27.614  1.00  0.00    -0.205 F 
ATOM     85  C   UNL A   1      40.669  25.649  26.660  1.00  0.00     0.022 A 
BRANCH  83  86
ATOM     86  S   UNL A   1      42.749  26.994  25.457  1.00  0.00     0.127 S 
ATOM     87  O   UNL A   1      42.841  25.741  24.582  1.00  0.00    -0.237 OA
ATOM     88  O   UNL A   1      42.418  28.204  24.581  1.00  0.00    -0.237 OA
ATOM     89  O   UNL A   1      44.247  27.251  26.242  1.00  0.00    -0.744 OA
ENDBRANCH  83  86
ENDBRANCH  55  79
BRANCH  67  90
ATOM     90  C   UNL A   1      44.110  28.286  34.528  1.00  0.00     0.023 A 
ATOM     91  C   UNL A   1      45.388  28.744  34.250  1.00  0.00     0.012 A 
ATOM     92  C   UNL A   1      43.912  27.223  35.297  1.00  0.00     0.148 A 
ATOM     93  C   UNL A   1      46.412  27.832  34.599  1.00  0.00     0.002 A 
ATOM     94  C   UNL A   1      44.972  26.453  35.713  1.00  0.00     0.091 A 
ATOM     95  F   UNL A   1      42.676  26.897  35.667  1.00  0.00    -0.205 F 
ATOM     96  C   UNL A   1      46.258  26.813  35.425  1.00  0.00     0.022 A 
BRANCH  94  97
ATOM     97  S   UNL A   1      44.659  24.940  36.657  1.00  0.00     0.127 S 
ATOM     98  O   UNL A   1      43.541  24.141  35.983  1.00  0.00    -0.237 OA
ATOM     99  O   UNL A   1      45.934  24.096  36.703  1.00  0.00    -0.237 OA
ATOM    100  O   UNL A   1      44.188  25.348  38.250  1.00  0.00    -0.744 OA
ENDBRANCH  94  97
ENDBRANCH  67  90
ENDBRANCH  41  42
ENDBRANCH  34  36
ENDBRANCH  33  34
ENDBRANCH  32  33
ENDBRANCH  31  32
ENDBRANCH  30  31
ENDBRANCH   1  30
TORSDOF 22
ENDMDL
MODEL 2
REMARK VINA RESULT:     -11.3      5.457      9.516
REMARK SMILES O=C(OCCOCCOCCOC(=O)c1ccc(-c2c3nc(c(-c4cccc(S(=O)(=O)[O-])c4F)c4ccc([nH]4)c(-c4cccc(S(=O)(=O)[O-])c4F)c4nc(c(-c5cccc(S(=O)(=O)[O-])c5F)c5ccc2[nH]5)C=C4)C=C3)cc1)C1=Cc2cc(S(F)(F)(F)(F)F)cc(Br)c2O[C@H]1C(F)(F)F
REMARK SMILES IDX 8 1 7 2 6 3 5 4 4 5 3 6 2 7 1 8 78 9 79 10 94 11 80 12 93 13
REMARK SMILES IDX 81 14 92 15 82 16 90 17 89 18 91 19 95 20 96 21 97 22 98 23
REMARK SMILES IDX 83 24 84 25 85 26 86 27 87 28 88 29 9 30 10 31 11 32 12 33
REMARK SMILES IDX 13 34 14 35 15 36 16 37 77 38 17 39 76 40 18 41 19 42 20 43
REMARK SMILES IDX 70 44 21 45 75 46 69 47 71 48 22 49 74 50 68 51 67 52 23 54
REMARK SMILES IDX 55 55 35 56 54 57 36 58 39 59 53 60 72 61 37 62 38 63 52 65
REMARK SMILES IDX 73 66 40 67 24 68 25 69 33 70 26 71 28 72 34 73 27 74 29 75
REMARK SMILES IDX 30 76 31 77 32 78 56 79 57 80 65 81 58 82 60 83 66 84 59 85
REMARK SMILES IDX 61 86 62 87 63 88 64 89 41 90 42 91 50 92 43 93 45 94 51 95
REMARK SMILES IDX 44 96 46 97 47 98 48 99 49 100
REMARK H PARENT 71 53 39 64
REMARK Flexibility Score: inf
ROOT
ATOM      1  C   UNL A   1      37.294  22.622  25.321  1.00  0.00     0.188 C 
ENDROOT
BRANCH   1   2
ATOM      2  C   UNL A   1      35.776  22.613  25.405  1.00  0.00     0.188 C 
BRANCH   2   3
ATOM      3  O   UNL A   1      35.314  23.903  25.778  1.00  0.00    -0.376 OA
BRANCH   3   4
ATOM      4  C   UNL A   1      33.946  23.826  26.150  1.00  0.00     0.202 C 
BRANCH   4   5
ATOM      5  C   UNL A   1      33.313  25.204  26.044  1.00  0.00     0.261 C 
BRANCH   5   6
ATOM      6  O   UNL A   1      33.286  25.609  24.683  1.00  0.00    -0.460 OA
BRANCH   6   7
ATOM      7  C   UNL A   1      32.051  25.663  23.983  1.00  0.00     0.338 C 
ATOM      8  O   UNL A   1      30.956  25.525  24.614  1.00  0.00    -0.246 OA
BRANCH   7   9
ATOM      9  C   UNL A   1      32.039  25.885  22.480  1.00  0.00     0.087 C 
ATOM     10  C   UNL A   1      31.570  27.055  21.968  1.00  0.00     0.027 C 
ATOM     11  C   UNL A   1      32.553  24.799  21.548  1.00  0.00     0.316 C 
ATOM     12  C   UNL A   1      31.057  28.141  22.900  1.00  0.00     0.020 A 
ATOM     13  O   UNL A   1      32.870  27.694  24.371  1.00  0.00    -0.474 OA
ATOM     14  C   UNL A   1      29.865  28.771  22.583  1.00  0.00     0.036 A 
ATOM     15  C   UNL A   1      31.740  28.466  23.992  1.00  0.00     0.142 A 
ATOM     16  C   UNL A   1      29.620  29.943  23.336  1.00  0.00     0.109 A 
ATOM     17  C   UNL A   1      31.363  29.543  24.757  1.00  0.00     0.062 A 
ATOM     18  C   UNL A   1      30.228  30.249  24.468  1.00  0.00     0.044 A 
ATOM     19  Br  UNL A   1      32.469  30.077  26.285  1.00  0.00    -0.047 Br
BRANCH  11  20
ATOM     20  C   UNL A   1      33.015  23.605  22.366  1.00  0.00     0.430 C 
ATOM     21  F   UNL A   1      34.221  23.836  22.876  1.00  0.00    -0.167 F 
ATOM     22  F   UNL A   1      32.162  23.335  23.350  1.00  0.00    -0.167 F 
ATOM     23  F   UNL A   1      33.076  22.569  21.535  1.00  0.00    -0.167 F 
ENDBRANCH  11  20
BRANCH  16  24
ATOM     24  S   UNL A   1      28.384  31.106  22.705  1.00  0.00     0.310 S 
ATOM     25  F   UNL A   1      28.022  30.153  21.490  1.00  0.00    -0.094 F 
ATOM     26  F   UNL A   1      29.494  31.742  21.785  1.00  0.00    -0.094 F 
ATOM     27  F   UNL A   1      27.323  32.102  22.160  1.00  0.00    -0.094 F 
ATOM     28  F   UNL A   1      27.257  30.366  23.526  1.00  0.00    -0.094 F 
ATOM     29  F   UNL A   1      29.427  30.017  23.180  1.00  0.00    -0.094 F 
ENDBRANCH  16  24
ENDBRANCH   7   9
ENDBRANCH   6   7
ENDBRANCH   5   6
ENDBRANCH   4   5
ENDBRANCH   3   4
ENDBRANCH   2   3
ENDBRANCH   1   2
BRANCH   1  30
ATOM     30  O   UNL A   1      37.810  21.454  25.942  1.00  0.00    -0.376 OA
BRANCH  30  31
ATOM     31  C   UNL A   1      38.073  20.470  24.953  1.00  0.00     0.202 C 
BRANCH  31  32
ATOM     32  C   UNL A   1      38.877  19.335  25.568  1.00  0.00     0.261 C 
BRANCH  32  33
ATOM     33  O   UNL A   1      40.234  19.732  25.695  1.00  0.00    -0.460 OA
BRANCH  33  34
ATOM     34  C   UNL A   1      40.736  20.156  26.954  1.00  0.00     0.338 C 
ATOM     35  O   UNL A   1      40.818  19.329  27.916  1.00  0.00    -0.246 OA
BRANCH  34  36
ATOM     36  C   UNL A   1      41.177  21.597  27.151  1.00  0.00     0.060 A 
ATOM     37  C   UNL A   1      41.837  21.926  28.324  1.00  0.00     0.016 A 
ATOM     38  C   UNL A   1      40.902  22.517  26.233  1.00  0.00     0.016 A 
ATOM     39  C   UNL A   1      41.912  23.318  28.568  1.00  0.00     0.010 A 
ATOM     40  C   UNL A   1      41.128  23.848  26.488  1.00  0.00     0.010 A 
ATOM     41  C   UNL A   1      41.723  24.250  27.652  1.00  0.00    -0.014 A 
BRANCH  41  42
ATOM     42  C   UNL A   1      42.144  25.693  27.879  1.00  0.00     0.031 A 
ATOM     43  C   UNL A   1      41.270  26.588  28.497  1.00  0.00     0.074 A 
ATOM     44  C   UNL A   1      43.424  26.023  27.464  1.00  0.00     0.049 A 
ATOM     45  N   UNL A   1      41.503  27.860  28.822  1.00  0.00    -0.248 NA
ATOM     46  C   UNL A   1      39.899  26.248  28.908  1.00  0.00     0.031 C 
ATOM     47  C   UNL A   1      44.315  25.124  26.847  1.00  0.00     0.029 A 
ATOM     48  N   UNL A   1      44.057  27.242  27.564  1.00  0.00    -0.354 N 
ATOM     49  C   UNL A   1      40.431  28.387  29.418  1.00  0.00     0.074 A 
ATOM     50  C   UNL A   1      39.381  27.360  29.477  1.00  0.00     0.031 C 
ATOM     51  C   UNL A   1      45.464  25.794  26.569  1.00  0.00     0.029 A 
ATOM     52  C   UNL A   1      45.311  27.122  27.009  1.00  0.00     0.049 A 
ATOM     53  H   UNL A   1      43.678  28.057  27.965  1.00  0.00     0.167 HD
ATOM     54  C   UNL A   1      40.288  29.683  29.918  1.00  0.00     0.034 A 
ATOM     55  C   UNL A   1      46.280  28.106  26.879  1.00  0.00     0.034 A 
ATOM     56  C   UNL A   1      41.273  30.653  29.828  1.00  0.00     0.049 A 
ATOM     57  C   UNL A   1      46.115  29.418  27.327  1.00  0.00     0.074 A 
ATOM     58  C   UNL A   1      41.148  31.962  30.334  1.00  0.00     0.029 A 
ATOM     59  N   UNL A   1      42.518  30.541  29.250  1.00  0.00    -0.354 N 
ATOM     60  N   UNL A   1      45.059  29.934  27.958  1.00  0.00    -0.248 NA
ATOM     61  C   UNL A   1      47.121  30.477  27.168  1.00  0.00     0.031 C 
ATOM     62  C   UNL A   1      42.298  32.632  30.055  1.00  0.00     0.029 A 
ATOM     63  C   UNL A   1      43.159  31.754  29.371  1.00  0.00     0.049 A 
ATOM     64  H   UNL A   1      42.886  29.733  28.823  1.00  0.00     0.167 HD
ATOM     65  C   UNL A   1      45.277  31.219  28.246  1.00  0.00     0.074 A 
ATOM     66  C   UNL A   1      46.604  31.588  27.735  1.00  0.00     0.031 C 
ATOM     67  C   UNL A   1      44.424  32.097  28.917  1.00  0.00     0.034 A 
BRANCH  54  68
ATOM     68  C   UNL A   1      38.979  30.050  30.597  1.00  0.00     0.023 A 
ATOM     69  C   UNL A   1      38.776  29.643  31.906  1.00  0.00     0.012 A 
ATOM     70  C   UNL A   1      38.085  30.798  29.963  1.00  0.00     0.148 A 
ATOM     71  C   UNL A   1      37.454  29.840  32.369  1.00  0.00     0.002 A 
ATOM     72  C   UNL A   1      36.864  31.064  30.533  1.00  0.00     0.091 A 
ATOM     73  F   UNL A   1      38.375  31.297  28.764  1.00  0.00    -0.205 F 
ATOM     74  C   UNL A   1      36.573  30.643  31.800  1.00  0.00     0.022 A 
BRANCH  72  75
ATOM     75  S   UNL A   1      35.622  31.985  29.592  1.00  0.00     0.127 S 
ATOM     76  O   UNL A   1      36.271  33.219  28.960  1.00  0.00    -0.237 OA
ATOM     77  O   UNL A   1      35.047  31.091  28.492  1.00  0.00    -0.237 OA
ATOM     78  O   UNL A   1      34.363  32.478  30.641  1.00  0.00    -0.744 OA
ENDBRANCH  72  75
ENDBRANCH  54  68
BRANCH  55  79
ATOM     79  C   UNL A   1      47.594  27.734  26.216  1.00  0.00     0.023 A 
ATOM     80  C   UNL A   1      47.775  28.002  24.869  1.00  0.00     0.012 A 
ATOM     81  C   UNL A   1      48.520  27.093  26.920  1.00  0.00     0.148 A 
ATOM     82  C   UNL A   1      48.850  27.294  24.283  1.00  0.00     0.002 A 
ATOM     83  C   UNL A   1      49.616  26.542  26.299  1.00  0.00     0.091 A 
ATOM     84  F   UNL A   1      48.386  26.982  28.239  1.00  0.00    -0.205 F 
ATOM     85  C   UNL A   1      49.827  26.718  24.960  1.00  0.00     0.022 A 
BRANCH  83  86
ATOM     86  S   UNL A   1      50.795  25.571  27.268  1.00  0.00     0.127 S 
ATOM     87  O   UNL A   1      50.139  24.258  27.705  1.00  0.00    -0.237 OA
ATOM     88  O   UNL A   1      52.028  25.265  26.414  1.00  0.00    -0.237 OA
ATOM     89  O   UNL A   1      51.267  26.459  28.651  1.00  0.00    -0.744 OA
ENDBRANCH  83  86
ENDBRANCH  55  79
BRANCH  67  90
ATOM     90  C   UNL A   1      44.911  33.515  29.165  1.00  0.00     0.023 A 
ATOM     91  C   UNL A   1      45.678  33.748  30.295  1.00  0.00     0.012 A 
ATOM     92  C   UNL A   1      44.575  34.503  28.345  1.00  0.00     0.148 A 
ATOM     93  C   UNL A   1      45.803  35.117  30.631  1.00  0.00     0.002 A 
ATOM     94  C   UNL A   1      44.850  35.809  28.674  1.00  0.00     0.091 A 
ATOM     95  F   UNL A   1      43.968  34.227  27.194  1.00  0.00    -0.205 F 
ATOM     96  C   UNL A   1      45.552  36.117  29.805  1.00  0.00     0.022 A 
BRANCH  94  97
ATOM     97  S   UNL A   1      44.270  37.141  27.594  1.00  0.00     0.127 S 
ATOM     98  O   UNL A   1      45.440  37.669  26.761  1.00  0.00    -0.237 OA
ATOM     99  O   UNL A   1      43.182  36.604  26.662  1.00  0.00    -0.237 OA
ATOM    100  O   UNL A   1      43.630  38.410  28.546  1.00  0.00    -0.744 OA
ENDBRANCH  94  97
ENDBRANCH  67  90
ENDBRANCH  41  42
ENDBRANCH  34  36
ENDBRANCH  33  34
ENDBRANCH  32  33
ENDBRANCH  31  32
ENDBRANCH  30  31
ENDBRANCH   1  30
TORSDOF 22
ENDMDL
MODEL 3
REMARK VINA RESULT:     -11.3      1.824      8.209
REMARK SMILES O=C(OCCOCCOCCOC(=O)c1ccc(-c2c3nc(c(-c4cccc(S(=O)(=O)[O-])c4F)c4ccc([nH]4)c(-c4cccc(S(=O)(=O)[O-])c4F)c4nc(c(-c5cccc(S(=O)(=O)[O-])c5F)c5ccc2[nH]5)C=C4)C=C3)cc1)C1=Cc2cc(S(F)(F)(F)(F)F)cc(Br)c2O[C@H]1C(F)(F)F
REMARK SMILES IDX 8 1 7 2 6 3 5 4 4 5 3 6 2 7 1 8 78 9 79 10 94 11 80 12 93 13
REMARK SMILES IDX 81 14 92 15 82 16 90 17 89 18 91 19 95 20 96 21 97 22 98 23
REMARK SMILES IDX 83 24 84 25 85 26 86 27 87 28 88 29 9 30 10 31 11 32 12 33
REMARK SMILES IDX 13 34 14 35 15 36 16 37 77 38 17 39 76 40 18 41 19 42 20 43
REMARK SMILES IDX 70 44 21 45 75 46 69 47 71 48 22 49 74 50 68 51 67 52 23 54
REMARK SMILES IDX 55 55 35 56 54 57 36 58 39 59 53 60 72 61 37 62 38 63 52 65
REMARK SMILES IDX 73 66 40 67 24 68 25 69 33 70 26 71 28 72 34 73 27 74 29 75
REMARK SMILES IDX 30 76 31 77 32 78 56 79 57 80 65 81 58 82 60 83 66 84 59 85
REMARK SMILES IDX 61 86 62 87 63 88 64 89 41 90 42 91 50 92 43 93 45 94 51 95
REMARK SMILES IDX 44 96 46 97 47 98 48 99 49 100
REMARK H PARENT 71 53 39 64
REMARK Flexibility Score: inf
ROOT
ATOM      1  C   UNL A   1      33.465  31.044  27.288  1.00  0.00     0.188 C 
ENDROOT
BRANCH   1   2
ATOM      2  C   UNL A   1      33.846  29.581  27.450  1.00  0.00     0.188 C 
BRANCH   2   3
ATOM      3  O   UNL A   1      33.464  28.861  26.287  1.00  0.00    -0.376 OA
BRANCH   3   4
ATOM      4  C   UNL A   1      32.788  27.672  26.668  1.00  0.00     0.202 C 
BRANCH   4   5
ATOM      5  C   UNL A   1      33.533  26.466  26.120  1.00  0.00     0.261 C 
BRANCH   5   6
ATOM      6  O   UNL A   1      32.631  25.379  25.971  1.00  0.00    -0.460 OA
BRANCH   6   7
ATOM      7  C   UNL A   1      32.659  24.591  24.789  1.00  0.00     0.338 C 
ATOM      8  O   UNL A   1      33.768  24.333  24.223  1.00  0.00    -0.246 OA
BRANCH   7   9
ATOM      9  C   UNL A   1      31.364  24.055  24.203  1.00  0.00     0.087 C 
ATOM     10  C   UNL A   1      30.506  24.896  23.563  1.00  0.00     0.027 C 
ATOM     11  C   UNL A   1      31.026  22.578  24.330  1.00  0.00     0.316 C 
ATOM     12  C   UNL A   1      30.844  26.372  23.436  1.00  0.00     0.020 A 
ATOM     13  O   UNL A   1      33.099  25.787  22.966  1.00  0.00    -0.474 OA
ATOM     14  C   UNL A   1      29.852  27.300  23.705  1.00  0.00     0.036 A 
ATOM     15  C   UNL A   1      32.066  26.754  23.079  1.00  0.00     0.142 A 
ATOM     16  C   UNL A   1      30.168  28.614  23.287  1.00  0.00     0.109 A 
ATOM     17  C   UNL A   1      32.337  28.075  22.817  1.00  0.00     0.062 A 
ATOM     18  C   UNL A   1      31.386  29.039  23.005  1.00  0.00     0.044 A 
ATOM     19  Br  UNL A   1      34.113  28.585  22.165  1.00  0.00    -0.047 Br
BRANCH  11  20
ATOM     20  C   UNL A   1      32.139  21.867  25.081  1.00  0.00     0.430 C 
ATOM     21  F   UNL A   1      31.805  20.599  25.306  1.00  0.00    -0.167 F 
ATOM     22  F   UNL A   1      33.282  21.909  24.403  1.00  0.00    -0.167 F 
ATOM     23  F   UNL A   1      32.288  22.499  26.241  1.00  0.00    -0.167 F 
ENDBRANCH  11  20
BRANCH  16  24
ATOM     24  S   UNL A   1      28.806  29.797  23.128  1.00  0.00     0.310 S 
ATOM     25  F   UNL A   1      29.544  30.579  21.961  1.00  0.00    -0.094 F 
ATOM     26  F   UNL A   1      29.551  30.747  24.141  1.00  0.00    -0.094 F 
ATOM     27  F   UNL A   1      27.639  30.814  22.988  1.00  0.00    -0.094 F 
ATOM     28  F   UNL A   1      28.147  28.899  22.009  1.00  0.00    -0.094 F 
ATOM     29  F   UNL A   1      30.039  28.809  23.174  1.00  0.00    -0.094 F 
ENDBRANCH  16  24
ENDBRANCH   7   9
ENDBRANCH   6   7
ENDBRANCH   5   6
ENDBRANCH   4   5
ENDBRANCH   3   4
ENDBRANCH   2   3
ENDBRANCH   1   2
BRANCH   1  30
ATOM     30  O   UNL A   1      32.066  31.147  27.065  1.00  0.00    -0.376 OA
BRANCH  30  31
ATOM     31  C   UNL A   1      31.722  32.506  26.841  1.00  0.00     0.202 C 
BRANCH  31  32
ATOM     32  C   UNL A   1      32.885  33.397  27.247  1.00  0.00     0.261 C 
BRANCH  32  33
ATOM     33  O   UNL A   1      32.426  34.391  28.151  1.00  0.00    -0.460 OA
BRANCH  33  34
ATOM     34  C   UNL A   1      33.325  34.976  29.081  1.00  0.00     0.338 C 
ATOM     35  O   UNL A   1      33.152  36.175  29.464  1.00  0.00    -0.246 OA
BRANCH  34  36
ATOM     36  C   UNL A   1      34.494  34.167  29.620  1.00  0.00     0.060 A 
ATOM     37  C   UNL A   1      34.248  33.254  30.633  1.00  0.00     0.016 A 
ATOM     38  C   UNL A   1      35.721  34.361  29.150  1.00  0.00     0.016 A 
ATOM     39  C   UNL A   1      35.416  32.799  31.289  1.00  0.00     0.010 A 
ATOM     40  C   UNL A   1      36.804  33.774  29.760  1.00  0.00     0.010 A 
ATOM     41  C   UNL A   1      36.639  32.908  30.804  1.00  0.00    -0.014 A 
BRANCH  41  42
ATOM     42  C   UNL A   1      37.801  32.113  31.376  1.00  0.00     0.031 A 
ATOM     43  C   UNL A   1      38.313  31.020  30.674  1.00  0.00     0.074 A 
ATOM     44  C   UNL A   1      38.306  32.562  32.585  1.00  0.00     0.049 A 
ATOM     45  N   UNL A   1      39.359  30.259  31.003  1.00  0.00    -0.248 NA
ATOM     46  C   UNL A   1      37.757  30.521  29.407  1.00  0.00     0.031 C 
ATOM     47  C   UNL A   1      37.801  33.668  33.295  1.00  0.00     0.029 A 
ATOM     48  N   UNL A   1      39.357  32.041  33.308  1.00  0.00    -0.354 N 
ATOM     49  C   UNL A   1      39.556  29.322  30.073  1.00  0.00     0.074 A 
ATOM     50  C   UNL A   1      38.525  29.473  29.037  1.00  0.00     0.031 C 
ATOM     51  C   UNL A   1      38.528  33.806  34.434  1.00  0.00     0.029 A 
ATOM     52  C   UNL A   1      39.501  32.788  34.455  1.00  0.00     0.049 A 
ATOM     53  H   UNL A   1      39.909  31.269  33.048  1.00  0.00     0.167 HD
ATOM     54  C   UNL A   1      40.557  28.348  30.048  1.00  0.00     0.034 A 
ATOM     55  C   UNL A   1      40.422  32.607  35.476  1.00  0.00     0.034 A 
ATOM     56  C   UNL A   1      41.504  28.195  31.048  1.00  0.00     0.049 A 
ATOM     57  C   UNL A   1      41.386  31.597  35.479  1.00  0.00     0.074 A 
ATOM     58  C   UNL A   1      42.524  27.224  31.034  1.00  0.00     0.029 A 
ATOM     59  N   UNL A   1      41.633  28.926  32.208  1.00  0.00    -0.354 N 
ATOM     60  N   UNL A   1      41.608  30.684  34.531  1.00  0.00    -0.248 NA
ATOM     61  C   UNL A   1      42.345  31.375  36.569  1.00  0.00     0.031 C 
ATOM     62  C   UNL A   1      43.252  27.362  32.174  1.00  0.00     0.029 A 
ATOM     63  C   UNL A   1      42.698  28.420  32.919  1.00  0.00     0.049 A 
ATOM     64  H   UNL A   1      41.062  29.681  32.481  1.00  0.00     0.167 HD
ATOM     65  C   UNL A   1      42.628  29.898  34.880  1.00  0.00     0.074 A 
ATOM     66  C   UNL A   1      43.112  30.326  36.200  1.00  0.00     0.031 C 
ATOM     67  C   UNL A   1      43.177  28.842  34.150  1.00  0.00     0.034 A 
BRANCH  54  68
ATOM     68  C   UNL A   1      40.609  27.404  28.858  1.00  0.00     0.023 A 
ATOM     69  C   UNL A   1      39.744  26.322  28.833  1.00  0.00     0.012 A 
ATOM     70  C   UNL A   1      41.425  27.657  27.842  1.00  0.00     0.148 A 
ATOM     71  C   UNL A   1      40.020  25.392  27.804  1.00  0.00     0.002 A 
ATOM     72  C   UNL A   1      41.544  26.767  26.803  1.00  0.00     0.091 A 
ATOM     73  F   UNL A   1      42.133  28.783  27.830  1.00  0.00    -0.205 F 
ATOM     74  C   UNL A   1      40.762  25.648  26.742  1.00  0.00     0.022 A 
BRANCH  72  75
ATOM     75  S   UNL A   1      42.753  27.081  25.493  1.00  0.00     0.127 S 
ATOM     76  O   UNL A   1      42.902  25.830  24.624  1.00  0.00    -0.237 OA
ATOM     77  O   UNL A   1      42.277  28.250  24.627  1.00  0.00    -0.237 OA
ATOM     78  O   UNL A   1      44.264  27.471  26.194  1.00  0.00    -0.744 OA
ENDBRANCH  72  75
ENDBRANCH  54  68
BRANCH  55  79
ATOM     79  C   UNL A   1      40.379  33.562  36.657  1.00  0.00     0.023 A 
ATOM     80  C   UNL A   1      41.145  34.716  36.623  1.00  0.00     0.012 A 
ATOM     81  C   UNL A   1      39.666  33.240  37.729  1.00  0.00     0.148 A 
ATOM     82  C   UNL A   1      41.321  35.324  37.889  1.00  0.00     0.002 A 
ATOM     83  C   UNL A   1      39.786  33.961  38.893  1.00  0.00     0.091 A 
ATOM     84  F   UNL A   1      38.826  32.210  37.677  1.00  0.00    -0.205 F 
ATOM     85  C   UNL A   1      40.572  35.080  38.949  1.00  0.00     0.022 A 
BRANCH  83  86
ATOM     86  S   UNL A   1      38.893  33.424  40.372  1.00  0.00     0.127 S 
ATOM     87  O   UNL A   1      37.390  33.400  40.081  1.00  0.00    -0.237 OA
ATOM     88  O   UNL A   1      39.358  32.019  40.766  1.00  0.00    -0.237 OA
ATOM     89  O   UNL A   1      39.208  34.508  41.655  1.00  0.00    -0.744 OA
ENDBRANCH  83  86
ENDBRANCH  55  79
BRANCH  67  90
ATOM     90  C   UNL A   1      44.371  28.111  34.740  1.00  0.00     0.023 A 
ATOM     91  C   UNL A   1      45.637  28.581  34.430  1.00  0.00     0.012 A 
ATOM     92  C   UNL A   1      44.204  27.032  35.495  1.00  0.00     0.148 A 
ATOM     93  C   UNL A   1      46.677  27.669  34.729  1.00  0.00     0.002 A 
ATOM     94  C   UNL A   1      45.280  26.262  35.864  1.00  0.00     0.091 A 
ATOM     95  F   UNL A   1      42.982  26.692  35.898  1.00  0.00    -0.205 F 
ATOM     96  C   UNL A   1      46.555  26.634  35.541  1.00  0.00     0.022 A 
BRANCH  94  97
ATOM     97  S   UNL A   1      45.006  24.730  36.789  1.00  0.00     0.127 S 
ATOM     98  O   UNL A   1      44.077  23.812  35.992  1.00  0.00    -0.237 OA
ATOM     99  O   UNL A   1      46.346  24.026  37.017  1.00  0.00    -0.237 OA
ATOM    100  O   UNL A   1      44.290  25.095  38.298  1.00  0.00    -0.744 OA
ENDBRANCH  94  97
ENDBRANCH  67  90
ENDBRANCH  41  42
ENDBRANCH  34  36
ENDBRANCH  33  34
ENDBRANCH  32  33
ENDBRANCH  31  32
ENDBRANCH  30  31
ENDBRANCH   1  30
TORSDOF 22
ENDMDL
