MODEL 1
REMARK VINA RESULT:      -9.6      0.000      0.000
REMARK SMILES O=C(CN(CC(F)(F)F)S(=O)(=O)c1cccc(F)c1)OCCOCCOCCOC(=O)c1ccc(-c2c3nc(c(-c4cccc(S(=O)(=O)[O-])c4F)c4ccc([nH]4)c(-c4cccc(S(=O)(=O)[O-])c4F)c4nc(c(-c5cccc(S(=O)(=O)[O-])c5F)c5ccc2[nH]5)C=C4)C=C3)cc1
REMARK SMILES IDX 24 1 23 2 22 3 21 4 20 5 2 6 1 7 3 8 4 9 5 10 6 11 7 12 8 13
REMARK SMILES IDX 9 14 10 15 11 16 12 17 13 18 14 19 19 20 15 21 17 22 16 23
REMARK SMILES IDX 18 24 25 25 26 26 27 27 28 28 29 29 30 30 31 31 32 32 33 33
REMARK SMILES IDX 94 34 34 35 93 36 35 37 36 38 37 39 87 40 38 41 92 42 86 43
REMARK SMILES IDX 88 44 39 45 91 46 85 47 84 48 40 50 72 51 52 52 71 53 53 54
REMARK SMILES IDX 56 55 70 56 89 57 54 58 55 59 69 61 90 62 57 63 41 64 42 65
REMARK SMILES IDX 50 66 43 67 45 68 51 69 44 70 46 71 47 72 48 73 49 74 73 75
REMARK SMILES IDX 74 76 82 77 75 78 77 79 83 80 76 81 78 82 79 83 80 84 81 85
REMARK SMILES IDX 58 86 59 87 67 88 60 89 62 90 68 91 61 92 63 93 64 94 65 95
REMARK SMILES IDX 66 96
REMARK H PARENT 88 49 56 60
REMARK Flexibility Score: inf
ROOT
ATOM      1  C   UNL A   1      34.270  31.508  27.605  1.00  0.00     0.188 C 
ENDROOT
BRANCH   1   2
ATOM      2  O   UNL A   1      33.012  30.868  27.678  1.00  0.00    -0.376 OA
BRANCH   2   3
ATOM      3  C   UNL A   1      32.422  30.395  26.490  1.00  0.00     0.202 C 
BRANCH   3   4
ATOM      4  C   UNL A   1      33.282  29.342  25.791  1.00  0.00     0.261 C 
BRANCH   4   5
ATOM      5  O   UNL A   1      33.408  28.055  26.436  1.00  0.00    -0.462 OA
BRANCH   5   6
ATOM      6  C   UNL A   1      32.623  26.963  26.289  1.00  0.00     0.321 C 
ATOM      7  O   UNL A   1      31.607  26.855  26.974  1.00  0.00    -0.251 OA
BRANCH   6   8
ATOM      8  C   UNL A   1      33.112  25.816  25.427  1.00  0.00     0.225 C 
BRANCH   8   9
ATOM      9  N   UNL A   1      32.057  24.895  24.915  1.00  0.00    -0.178 NA
BRANCH   9  10
ATOM     10  C   UNL A   1      31.653  25.253  23.485  1.00  0.00     0.218 C 
BRANCH  10  11
ATOM     11  C   UNL A   1      32.609  26.100  22.630  1.00  0.00     0.402 C 
ATOM     12  F   UNL A   1      32.345  26.016  21.320  1.00  0.00    -0.170 F 
ATOM     13  F   UNL A   1      32.498  27.396  22.996  1.00  0.00    -0.170 F 
ATOM     14  F   UNL A   1      33.895  25.741  22.850  1.00  0.00    -0.170 F 
ENDBRANCH  10  11
ENDBRANCH   9  10
BRANCH   9  15
ATOM     15  S   UNL A   1      32.523  23.279  25.248  1.00  0.00     0.244 S 
ATOM     16  O   UNL A   1      32.210  22.996  26.632  1.00  0.00    -0.207 OA
ATOM     17  O   UNL A   1      31.963  22.473  24.192  1.00  0.00    -0.207 OA
BRANCH  15  18
ATOM     18  C   UNL A   1      34.273  23.234  25.036  1.00  0.00     0.085 A 
ATOM     19  C   UNL A   1      35.089  23.568  26.128  1.00  0.00     0.022 A 
ATOM     20  C   UNL A   1      34.830  22.977  23.786  1.00  0.00     0.061 A 
ATOM     21  C   UNL A   1      36.472  23.627  25.970  1.00  0.00     0.004 A 
ATOM     22  C   UNL A   1      36.212  22.994  23.659  1.00  0.00     0.124 A 
ATOM     23  C   UNL A   1      37.034  23.324  24.733  1.00  0.00     0.039 A 
ATOM     24  F   UNL A   1      36.766  22.696  22.479  1.00  0.00    -0.207 F 
ENDBRANCH  15  18
ENDBRANCH   9  15
ENDBRANCH   8   9
ENDBRANCH   6   8
ENDBRANCH   5   6
ENDBRANCH   4   5
ENDBRANCH   3   4
ENDBRANCH   2   3
ENDBRANCH   1   2
BRANCH   1  25
ATOM     25  C   UNL A   1      34.805  31.907  28.984  1.00  0.00     0.188 C 
BRANCH  25  26
ATOM     26  O   UNL A   1      34.338  33.112  29.574  1.00  0.00    -0.376 OA
BRANCH  26  27
ATOM     27  C   UNL A   1      34.038  34.212  28.726  1.00  0.00     0.202 C 
BRANCH  27  28
ATOM     28  C   UNL A   1      33.135  35.326  29.276  1.00  0.00     0.261 C 
BRANCH  28  29
ATOM     29  O   UNL A   1      32.439  35.042  30.509  1.00  0.00    -0.460 OA
BRANCH  29  30
ATOM     30  C   UNL A   1      32.800  35.799  31.579  1.00  0.00     0.338 C 
ATOM     31  O   UNL A   1      32.293  36.848  31.937  1.00  0.00    -0.246 OA
BRANCH  30  32
ATOM     32  C   UNL A   1      33.870  35.136  32.358  1.00  0.00     0.060 A 
ATOM     33  C   UNL A   1      35.188  35.613  32.287  1.00  0.00     0.016 A 
ATOM     34  C   UNL A   1      33.589  33.955  33.043  1.00  0.00     0.016 A 
ATOM     35  C   UNL A   1      36.234  34.895  32.886  1.00  0.00     0.010 A 
ATOM     36  C   UNL A   1      34.638  33.230  33.621  1.00  0.00     0.010 A 
ATOM     37  C   UNL A   1      35.970  33.676  33.523  1.00  0.00    -0.014 A 
BRANCH  37  38
ATOM     38  C   UNL A   1      37.057  32.759  33.964  1.00  0.00     0.031 A 
ATOM     39  C   UNL A   1      37.809  33.090  35.228  1.00  0.00     0.074 A 
ATOM     40  C   UNL A   1      37.441  31.708  33.216  1.00  0.00     0.049 A 
ATOM     41  N   UNL A   1      38.933  32.596  35.678  1.00  0.00    -0.248 NA
ATOM     42  C   UNL A   1      37.215  34.122  36.096  1.00  0.00     0.031 C 
ATOM     43  C   UNL A   1      36.777  31.247  32.000  1.00  0.00     0.029 A 
ATOM     44  N   UNL A   1      38.519  30.864  33.351  1.00  0.00    -0.354 N 
ATOM     45  C   UNL A   1      39.203  33.282  36.857  1.00  0.00     0.074 A 
ATOM     46  C   UNL A   1      38.124  34.224  37.057  1.00  0.00     0.031 C 
ATOM     47  C   UNL A   1      37.485  30.232  31.472  1.00  0.00     0.029 A 
ATOM     48  C   UNL A   1      38.678  30.003  32.287  1.00  0.00     0.049 A 
ATOM     49  H   UNL A   1      39.118  30.874  34.131  1.00  0.00     0.167 HD
ATOM     50  C   UNL A   1      40.251  33.133  37.701  1.00  0.00     0.034 A 
ATOM     51  C   UNL A   1      39.687  29.159  31.985  1.00  0.00     0.034 A 
ATOM     52  C   UNL A   1      41.315  32.184  37.514  1.00  0.00     0.049 A 
ATOM     53  C   UNL A   1      40.876  29.061  32.914  1.00  0.00     0.074 A 
ATOM     54  C   UNL A   1      42.414  31.958  38.325  1.00  0.00     0.029 A 
ATOM     55  N   UNL A   1      41.415  31.302  36.452  1.00  0.00    -0.354 N 
ATOM     56  N   UNL A   1      41.093  29.675  34.052  1.00  0.00    -0.248 NA
ATOM     57  C   UNL A   1      41.950  28.131  32.527  1.00  0.00     0.031 C 
ATOM     58  C   UNL A   1      43.193  30.958  37.738  1.00  0.00     0.029 A 
ATOM     59  C   UNL A   1      42.556  30.530  36.586  1.00  0.00     0.049 A 
ATOM     60  H   UNL A   1      40.769  31.233  35.711  1.00  0.00     0.167 HD
ATOM     61  C   UNL A   1      42.296  29.171  34.538  1.00  0.00     0.074 A 
ATOM     62  C   UNL A   1      42.754  28.188  33.580  1.00  0.00     0.031 C 
ATOM     63  C   UNL A   1      42.970  29.503  35.667  1.00  0.00     0.034 A 
BRANCH  50  64
ATOM     64  C   UNL A   1      40.302  33.991  38.938  1.00  0.00     0.023 A 
ATOM     65  C   UNL A   1      41.081  35.165  38.933  1.00  0.00     0.012 A 
ATOM     66  C   UNL A   1      39.472  33.713  40.043  1.00  0.00     0.148 A 
ATOM     67  C   UNL A   1      41.035  36.049  40.010  1.00  0.00     0.002 A 
ATOM     68  C   UNL A   1      39.397  34.621  41.092  1.00  0.00     0.091 A 
ATOM     69  F   UNL A   1      38.751  32.583  40.029  1.00  0.00    -0.205 F 
ATOM     70  C   UNL A   1      40.183  35.786  41.080  1.00  0.00     0.022 A 
BRANCH  68  71
ATOM     71  S   UNL A   1      38.267  34.423  42.474  1.00  0.00     0.127 S 
ATOM     72  O   UNL A   1      38.843  33.269  43.164  1.00  0.00    -0.237 OA
ATOM     73  O   UNL A   1      38.423  35.695  43.180  1.00  0.00    -0.237 OA
ATOM     74  O   UNL A   1      36.950  34.198  41.893  1.00  0.00    -0.744 OA
ENDBRANCH  68  71
ENDBRANCH  50  64
BRANCH  51  75
ATOM     75  C   UNL A   1      39.629  28.315  30.754  1.00  0.00     0.023 A 
ATOM     76  C   UNL A   1      38.927  27.092  30.791  1.00  0.00     0.012 A 
ATOM     77  C   UNL A   1      40.275  28.694  29.561  1.00  0.00     0.148 A 
ATOM     78  C   UNL A   1      38.905  26.246  29.681  1.00  0.00     0.002 A 
ATOM     79  C   UNL A   1      40.195  27.877  28.437  1.00  0.00     0.091 A 
ATOM     80  F   UNL A   1      40.958  29.847  29.547  1.00  0.00    -0.205 F 
ATOM     81  C   UNL A   1      39.531  26.643  28.503  1.00  0.00     0.022 A 
BRANCH  79  82
ATOM     82  S   UNL A   1      40.855  28.366  26.840  1.00  0.00     0.127 S 
ATOM     83  O   UNL A   1      40.877  27.095  26.121  1.00  0.00    -0.237 OA
ATOM     84  O   UNL A   1      39.847  29.321  26.375  1.00  0.00    -0.237 OA
ATOM     85  O   UNL A   1      42.158  28.960  27.113  1.00  0.00    -0.744 OA
ENDBRANCH  79  82
ENDBRANCH  51  75
BRANCH  63  86
ATOM     86  C   UNL A   1      44.246  28.762  35.983  1.00  0.00     0.023 A 
ATOM     87  C   UNL A   1      45.485  29.271  35.546  1.00  0.00     0.012 A 
ATOM     88  C   UNL A   1      44.223  27.612  36.799  1.00  0.00     0.148 A 
ATOM     89  C   UNL A   1      46.676  28.628  35.885  1.00  0.00     0.002 A 
ATOM     90  C   UNL A   1      45.417  27.009  37.179  1.00  0.00     0.091 A 
ATOM     91  F   UNL A   1      43.035  27.134  37.196  1.00  0.00    -0.205 F 
ATOM     92  C   UNL A   1      46.643  27.507  36.711  1.00  0.00     0.022 A 
BRANCH  90  93
ATOM     93  S   UNL A   1      45.480  25.629  38.328  1.00  0.00     0.127 S 
ATOM     94  O   UNL A   1      46.855  25.162  38.157  1.00  0.00    -0.237 OA
ATOM     95  O   UNL A   1      45.212  26.281  39.610  1.00  0.00    -0.237 OA
ATOM     96  O   UNL A   1      44.447  24.697  37.895  1.00  0.00    -0.744 OA
ENDBRANCH  90  93
ENDBRANCH  63  86
ENDBRANCH  37  38
ENDBRANCH  30  32
ENDBRANCH  29  30
ENDBRANCH  28  29
ENDBRANCH  27  28
ENDBRANCH  26  27
ENDBRANCH  25  26
ENDBRANCH   1  25
TORSDOF 25
ENDMDL
MODEL 2
REMARK VINA RESULT:      -9.2      7.083     13.157
REMARK SMILES O=C(CN(CC(F)(F)F)S(=O)(=O)c1cccc(F)c1)OCCOCCOCCOC(=O)c1ccc(-c2c3nc(c(-c4cccc(S(=O)(=O)[O-])c4F)c4ccc([nH]4)c(-c4cccc(S(=O)(=O)[O-])c4F)c4nc(c(-c5cccc(S(=O)(=O)[O-])c5F)c5ccc2[nH]5)C=C4)C=C3)cc1
REMARK SMILES IDX 24 1 23 2 22 3 21 4 20 5 2 6 1 7 3 8 4 9 5 10 6 11 7 12 8 13
REMARK SMILES IDX 9 14 10 15 11 16 12 17 13 18 14 19 19 20 15 21 17 22 16 23
REMARK SMILES IDX 18 24 25 25 26 26 27 27 28 28 29 29 30 30 31 31 32 32 33 33
REMARK SMILES IDX 94 34 34 35 93 36 35 37 36 38 37 39 87 40 38 41 92 42 86 43
REMARK SMILES IDX 88 44 39 45 91 46 85 47 84 48 40 50 72 51 52 52 71 53 53 54
REMARK SMILES IDX 56 55 70 56 89 57 54 58 55 59 69 61 90 62 57 63 41 64 42 65
REMARK SMILES IDX 50 66 43 67 45 68 51 69 44 70 46 71 47 72 48 73 49 74 73 75
REMARK SMILES IDX 74 76 82 77 75 78 77 79 83 80 76 81 78 82 79 83 80 84 81 85
REMARK SMILES IDX 58 86 59 87 67 88 60 89 62 90 68 91 61 92 63 93 64 94 65 95
REMARK SMILES IDX 66 96
REMARK H PARENT 88 49 56 60
REMARK Flexibility Score: inf
ROOT
ATOM      1  C   UNL A   1      39.801  22.342  26.355  1.00  0.00     0.188 C 
ENDROOT
BRANCH   1   2
ATOM      2  O   UNL A   1      38.421  22.091  26.185  1.00  0.00    -0.376 OA
BRANCH   2   3
ATOM      3  C   UNL A   1      38.015  21.176  25.195  1.00  0.00     0.202 C 
BRANCH   3   4
ATOM      4  C   UNL A   1      36.721  21.603  24.502  1.00  0.00     0.261 C 
BRANCH   4   5
ATOM      5  O   UNL A   1      36.354  22.998  24.586  1.00  0.00    -0.462 OA
BRANCH   5   6
ATOM      6  C   UNL A   1      35.455  23.580  25.412  1.00  0.00     0.321 C 
ATOM      7  O   UNL A   1      35.404  23.229  26.590  1.00  0.00    -0.251 OA
BRANCH   6   8
ATOM      8  C   UNL A   1      34.409  24.509  24.826  1.00  0.00     0.225 C 
BRANCH   8   9
ATOM      9  N   UNL A   1      33.017  23.976  24.790  1.00  0.00    -0.178 NA
BRANCH   9  10
ATOM     10  C   UNL A   1      32.277  24.270  26.095  1.00  0.00     0.218 C 
BRANCH  10  11
ATOM     11  C   UNL A   1      31.367  23.187  26.695  1.00  0.00     0.402 C 
ATOM     12  F   UNL A   1      31.868  22.650  27.815  1.00  0.00    -0.170 F 
ATOM     13  F   UNL A   1      30.168  23.735  26.996  1.00  0.00    -0.170 F 
ATOM     14  F   UNL A   1      31.132  22.203  25.796  1.00  0.00    -0.170 F 
ENDBRANCH  10  11
ENDBRANCH   9  10
BRANCH   9  15
ATOM     15  S   UNL A   1      32.282  24.446  23.314  1.00  0.00     0.244 S 
ATOM     16  O   UNL A   1      32.956  23.757  22.235  1.00  0.00    -0.207 OA
ATOM     17  O   UNL A   1      30.862  24.292  23.506  1.00  0.00    -0.207 OA
BRANCH  15  18
ATOM     18  C   UNL A   1      32.580  26.177  23.163  1.00  0.00     0.085 A 
ATOM     19  C   UNL A   1      33.513  26.615  22.210  1.00  0.00     0.022 A 
ATOM     20  C   UNL A   1      31.984  27.080  24.039  1.00  0.00     0.061 A 
ATOM     21  C   UNL A   1      33.836  27.968  22.125  1.00  0.00     0.004 A 
ATOM     22  C   UNL A   1      32.282  28.428  23.908  1.00  0.00     0.124 A 
ATOM     23  C   UNL A   1      33.206  28.878  22.969  1.00  0.00     0.039 A 
ATOM     24  F   UNL A   1      31.676  29.315  24.705  1.00  0.00    -0.207 F 
ENDBRANCH  15  18
ENDBRANCH   9  15
ENDBRANCH   8   9
ENDBRANCH   6   8
ENDBRANCH   5   6
ENDBRANCH   4   5
ENDBRANCH   3   4
ENDBRANCH   2   3
ENDBRANCH   1   2
BRANCH   1  25
ATOM     25  C   UNL A   1      40.549  21.137  26.934  1.00  0.00     0.188 C 
BRANCH  25  26
ATOM     26  O   UNL A   1      41.371  20.365  26.070  1.00  0.00    -0.376 OA
BRANCH  26  27
ATOM     27  C   UNL A   1      41.997  19.200  26.589  1.00  0.00     0.202 C 
BRANCH  27  28
ATOM     28  C   UNL A   1      42.875  18.367  25.644  1.00  0.00     0.261 C 
BRANCH  28  29
ATOM     29  O   UNL A   1      44.303  18.544  25.766  1.00  0.00    -0.460 OA
BRANCH  29  30
ATOM     30  C   UNL A   1      44.895  19.270  24.781  1.00  0.00     0.338 C 
ATOM     31  O   UNL A   1      45.473  18.837  23.799  1.00  0.00    -0.246 OA
BRANCH  30  32
ATOM     32  C   UNL A   1      44.675  20.719  24.989  1.00  0.00     0.060 A 
ATOM     33  C   UNL A   1      44.644  21.590  23.888  1.00  0.00     0.016 A 
ATOM     34  C   UNL A   1      44.646  21.231  26.285  1.00  0.00     0.016 A 
ATOM     35  C   UNL A   1      44.603  22.978  24.084  1.00  0.00     0.010 A 
ATOM     36  C   UNL A   1      44.628  22.617  26.478  1.00  0.00     0.010 A 
ATOM     37  C   UNL A   1      44.636  23.502  25.383  1.00  0.00    -0.014 A 
BRANCH  37  38
ATOM     38  C   UNL A   1      44.835  24.954  25.647  1.00  0.00     0.031 A 
ATOM     39  C   UNL A   1      46.233  25.512  25.581  1.00  0.00     0.074 A 
ATOM     40  C   UNL A   1      43.818  25.747  26.033  1.00  0.00     0.049 A 
ATOM     41  N   UNL A   1      46.688  26.663  26.003  1.00  0.00    -0.248 NA
ATOM     42  C   UNL A   1      47.257  24.652  24.962  1.00  0.00     0.031 C 
ATOM     43  C   UNL A   1      42.414  25.353  26.096  1.00  0.00     0.029 A 
ATOM     44  N   UNL A   1      43.824  27.044  26.492  1.00  0.00    -0.354 N 
ATOM     45  C   UNL A   1      48.053  26.652  25.738  1.00  0.00     0.074 A 
ATOM     46  C   UNL A   1      48.354  25.381  25.116  1.00  0.00     0.031 C 
ATOM     47  C   UNL A   1      41.696  26.368  26.609  1.00  0.00     0.029 A 
ATOM     48  C   UNL A   1      42.597  27.468  26.954  1.00  0.00     0.049 A 
ATOM     49  H   UNL A   1      44.626  27.614  26.491  1.00  0.00     0.167 HD
ATOM     50  C   UNL A   1      48.970  27.616  25.985  1.00  0.00     0.034 A 
ATOM     51  C   UNL A   1      42.249  28.592  27.616  1.00  0.00     0.034 A 
ATOM     52  C   UNL A   1      48.670  28.888  26.586  1.00  0.00     0.049 A 
ATOM     53  C   UNL A   1      43.308  29.623  27.934  1.00  0.00     0.074 A 
ATOM     54  C   UNL A   1      49.537  29.929  26.866  1.00  0.00     0.029 A 
ATOM     55  N   UNL A   1      47.412  29.294  26.997  1.00  0.00    -0.354 N 
ATOM     56  N   UNL A   1      44.583  29.624  27.631  1.00  0.00    -0.248 NA
ATOM     57  C   UNL A   1      42.871  30.824  28.666  1.00  0.00     0.031 C 
ATOM     58  C   UNL A   1      48.808  30.956  27.470  1.00  0.00     0.029 A 
ATOM     59  C   UNL A   1      47.479  30.571  27.527  1.00  0.00     0.049 A 
ATOM     60  H   UNL A   1      46.590  28.756  26.923  1.00  0.00     0.167 HD
ATOM     61  C   UNL A   1      45.086  30.838  28.088  1.00  0.00     0.074 A 
ATOM     62  C   UNL A   1      43.976  31.557  28.674  1.00  0.00     0.031 C 
ATOM     63  C   UNL A   1      46.357  31.310  28.042  1.00  0.00     0.034 A 
BRANCH  50  64
ATOM     64  C   UNL A   1      50.399  27.367  25.578  1.00  0.00     0.023 A 
ATOM     65  C   UNL A   1      51.265  26.704  26.470  1.00  0.00     0.012 A 
ATOM     66  C   UNL A   1      50.837  27.656  24.270  1.00  0.00     0.148 A 
ATOM     67  C   UNL A   1      52.548  26.335  26.067  1.00  0.00     0.002 A 
ATOM     68  C   UNL A   1      52.100  27.244  23.861  1.00  0.00     0.091 A 
ATOM     69  F   UNL A   1      49.998  28.299  23.445  1.00  0.00    -0.205 F 
ATOM     70  C   UNL A   1      52.958  26.591  24.760  1.00  0.00     0.022 A 
BRANCH  68  71
ATOM     71  S   UNL A   1      52.692  27.444  22.177  1.00  0.00     0.127 S 
ATOM     72  O   UNL A   1      51.833  26.510  21.449  1.00  0.00    -0.237 OA
ATOM     73  O   UNL A   1      52.410  28.857  21.921  1.00  0.00    -0.237 OA
ATOM     74  O   UNL A   1      54.104  27.091  22.198  1.00  0.00    -0.744 OA
ENDBRANCH  68  71
ENDBRANCH  50  64
BRANCH  51  75
ATOM     75  C   UNL A   1      40.830  28.829  28.018  1.00  0.00     0.023 A 
ATOM     76  C   UNL A   1      39.888  29.196  27.035  1.00  0.00     0.012 A 
ATOM     77  C   UNL A   1      40.409  28.718  29.358  1.00  0.00     0.148 A 
ATOM     78  C   UNL A   1      38.568  29.489  27.382  1.00  0.00     0.002 A 
ATOM     79  C   UNL A   1      39.077  28.948  29.689  1.00  0.00     0.091 A 
ATOM     80  F   UNL A   1      41.319  28.391  30.286  1.00  0.00    -0.205 F 
ATOM     81  C   UNL A   1      38.161  29.356  28.707  1.00  0.00     0.022 A 
BRANCH  79  82
ATOM     82  S   UNL A   1      38.432  28.672  31.342  1.00  0.00     0.127 S 
ATOM     83  O   UNL A   1      37.018  28.998  31.173  1.00  0.00    -0.237 OA
ATOM     84  O   UNL A   1      38.717  27.251  31.546  1.00  0.00    -0.237 OA
ATOM     85  O   UNL A   1      39.185  29.563  32.216  1.00  0.00    -0.744 OA
ENDBRANCH  79  82
ENDBRANCH  51  75
BRANCH  63  86
ATOM     86  C   UNL A   1      46.626  32.696  28.577  1.00  0.00     0.023 A 
ATOM     87  C   UNL A   1      47.025  32.871  29.917  1.00  0.00     0.012 A 
ATOM     88  C   UNL A   1      46.578  33.816  27.721  1.00  0.00     0.148 A 
ATOM     89  C   UNL A   1      47.335  34.141  30.405  1.00  0.00     0.002 A 
ATOM     90  C   UNL A   1      46.943  35.069  28.200  1.00  0.00     0.091 A 
ATOM     91  F   UNL A   1      46.185  33.634  26.452  1.00  0.00    -0.205 F 
ATOM     92  C   UNL A   1      47.307  35.235  29.545  1.00  0.00     0.022 A 
BRANCH  90  93
ATOM     93  S   UNL A   1      47.045  36.517  27.140  1.00  0.00     0.127 S 
ATOM     94  O   UNL A   1      47.525  37.535  28.072  1.00  0.00    -0.237 OA
ATOM     95  O   UNL A   1      48.023  36.098  26.136  1.00  0.00    -0.237 OA
ATOM     96  O   UNL A   1      45.699  36.732  26.622  1.00  0.00    -0.744 OA
ENDBRANCH  90  93
ENDBRANCH  63  86
ENDBRANCH  37  38
ENDBRANCH  30  32
ENDBRANCH  29  30
ENDBRANCH  28  29
ENDBRANCH  27  28
ENDBRANCH  26  27
ENDBRANCH  25  26
ENDBRANCH   1  25
TORSDOF 25
ENDMDL
MODEL 3
REMARK VINA RESULT:      -8.9      1.944      2.267
REMARK SMILES O=C(CN(CC(F)(F)F)S(=O)(=O)c1cccc(F)c1)OCCOCCOCCOC(=O)c1ccc(-c2c3nc(c(-c4cccc(S(=O)(=O)[O-])c4F)c4ccc([nH]4)c(-c4cccc(S(=O)(=O)[O-])c4F)c4nc(c(-c5cccc(S(=O)(=O)[O-])c5F)c5ccc2[nH]5)C=C4)C=C3)cc1
REMARK SMILES IDX 24 1 23 2 22 3 21 4 20 5 2 6 1 7 3 8 4 9 5 10 6 11 7 12 8 13
REMARK SMILES IDX 9 14 10 15 11 16 12 17 13 18 14 19 19 20 15 21 17 22 16 23
REMARK SMILES IDX 18 24 25 25 26 26 27 27 28 28 29 29 30 30 31 31 32 32 33 33
REMARK SMILES IDX 94 34 34 35 93 36 35 37 36 38 37 39 87 40 38 41 92 42 86 43
REMARK SMILES IDX 88 44 39 45 91 46 85 47 84 48 40 50 72 51 52 52 71 53 53 54
REMARK SMILES IDX 56 55 70 56 89 57 54 58 55 59 69 61 90 62 57 63 41 64 42 65
REMARK SMILES IDX 50 66 43 67 45 68 51 69 44 70 46 71 47 72 48 73 49 74 73 75
REMARK SMILES IDX 74 76 82 77 75 78 77 79 83 80 76 81 78 82 79 83 80 84 81 85
REMARK SMILES IDX 58 86 59 87 67 88 60 89 62 90 68 91 61 92 63 93 64 94 65 95
REMARK SMILES IDX 66 96
REMARK H PARENT 88 49 56 60
REMARK Flexibility Score: inf
ROOT
ATOM      1  C   UNL A   1      34.065  31.259  27.311  1.00  0.00     0.188 C 
ENDROOT
BRANCH   1   2
ATOM      2  O   UNL A   1      32.818  30.595  27.367  1.00  0.00    -0.376 OA
BRANCH   2   3
ATOM      3  C   UNL A   1      31.934  30.721  26.279  1.00  0.00     0.202 C 
BRANCH   3   4
ATOM      4  C   UNL A   1      32.043  29.551  25.301  1.00  0.00     0.261 C 
BRANCH   4   5
ATOM      5  O   UNL A   1      31.808  28.225  25.825  1.00  0.00    -0.462 OA
BRANCH   5   6
ATOM      6  C   UNL A   1      31.143  27.200  25.246  1.00  0.00     0.321 C 
ATOM      7  O   UNL A   1      30.051  27.412  24.719  1.00  0.00    -0.251 OA
BRANCH   6   8
ATOM      8  C   UNL A   1      31.663  25.787  25.428  1.00  0.00     0.225 C 
BRANCH   8   9
ATOM      9  N   UNL A   1      31.992  25.052  24.174  1.00  0.00    -0.178 NA
BRANCH   9  10
ATOM     10  C   UNL A   1      32.985  25.836  23.315  1.00  0.00     0.218 C 
BRANCH  10  11
ATOM     11  C   UNL A   1      32.474  26.563  22.061  1.00  0.00     0.402 C 
ATOM     12  F   UNL A   1      31.163  26.385  21.857  1.00  0.00    -0.170 F 
ATOM     13  F   UNL A   1      32.698  27.890  22.198  1.00  0.00    -0.170 F 
ATOM     14  F   UNL A   1      33.155  26.164  20.962  1.00  0.00    -0.170 F 
ENDBRANCH  10  11
ENDBRANCH   9  10
BRANCH   9  15
ATOM     15  S   UNL A   1      32.364  23.425  24.566  1.00  0.00     0.244 S 
ATOM     16  O   UNL A   1      31.854  23.153  25.893  1.00  0.00    -0.207 OA
ATOM     17  O   UNL A   1      31.936  22.632  23.441  1.00  0.00    -0.207 OA
BRANCH  15  18
ATOM     18  C   UNL A   1      34.125  23.333  24.600  1.00  0.00     0.085 A 
ATOM     19  C   UNL A   1      34.793  23.728  25.770  1.00  0.00     0.022 A 
ATOM     20  C   UNL A   1      34.840  22.979  23.460  1.00  0.00     0.061 A 
ATOM     21  C   UNL A   1      36.187  23.750  25.800  1.00  0.00     0.004 A 
ATOM     22  C   UNL A   1      36.226  22.961  23.523  1.00  0.00     0.124 A 
ATOM     23  C   UNL A   1      36.903  23.351  24.675  1.00  0.00     0.039 A 
ATOM     24  F   UNL A   1      36.927  22.570  22.453  1.00  0.00    -0.207 F 
ENDBRANCH  15  18
ENDBRANCH   9  15
ENDBRANCH   8   9
ENDBRANCH   6   8
ENDBRANCH   5   6
ENDBRANCH   4   5
ENDBRANCH   3   4
ENDBRANCH   2   3
ENDBRANCH   1   2
BRANCH   1  25
ATOM     25  C   UNL A   1      34.652  31.519  28.702  1.00  0.00     0.188 C 
BRANCH  25  26
ATOM     26  O   UNL A   1      34.344  32.742  29.355  1.00  0.00    -0.376 OA
BRANCH  26  27
ATOM     27  C   UNL A   1      34.178  33.911  28.565  1.00  0.00     0.202 C 
BRANCH  27  28
ATOM     28  C   UNL A   1      33.266  35.025  29.102  1.00  0.00     0.261 C 
BRANCH  28  29
ATOM     29  O   UNL A   1      32.611  34.770  30.363  1.00  0.00    -0.460 OA
BRANCH  29  30
ATOM     30  C   UNL A   1      33.018  35.542  31.406  1.00  0.00     0.338 C 
ATOM     31  O   UNL A   1      32.543  36.609  31.756  1.00  0.00    -0.246 OA
BRANCH  30  32
ATOM     32  C   UNL A   1      34.095  34.873  32.169  1.00  0.00     0.060 A 
ATOM     33  C   UNL A   1      35.396  35.400  32.157  1.00  0.00     0.016 A 
ATOM     34  C   UNL A   1      33.845  33.643  32.776  1.00  0.00     0.016 A 
ATOM     35  C   UNL A   1      36.455  34.685  32.737  1.00  0.00     0.010 A 
ATOM     36  C   UNL A   1      34.908  32.923  33.334  1.00  0.00     0.010 A 
ATOM     37  C   UNL A   1      36.224  33.422  33.294  1.00  0.00    -0.014 A 
BRANCH  37  38
ATOM     38  C   UNL A   1      37.335  32.520  33.705  1.00  0.00     0.031 A 
ATOM     39  C   UNL A   1      38.076  32.827  34.981  1.00  0.00     0.074 A 
ATOM     40  C   UNL A   1      37.749  31.507  32.921  1.00  0.00     0.049 A 
ATOM     41  N   UNL A   1      39.213  32.348  35.416  1.00  0.00    -0.248 NA
ATOM     42  C   UNL A   1      37.453  33.811  35.883  1.00  0.00     0.031 C 
ATOM     43  C   UNL A   1      37.099  31.071  31.688  1.00  0.00     0.029 A 
ATOM     44  N   UNL A   1      38.850  30.689  33.028  1.00  0.00    -0.354 N 
ATOM     45  C   UNL A   1      39.462  32.999  36.619  1.00  0.00     0.074 A 
ATOM     46  C   UNL A   1      38.357  33.904  36.850  1.00  0.00     0.031 C 
ATOM     47  C   UNL A   1      37.836  30.096  31.126  1.00  0.00     0.029 A 
ATOM     48  C   UNL A   1      39.033  29.870  31.935  1.00  0.00     0.049 A 
ATOM     49  H   UNL A   1      39.447  30.688  33.810  1.00  0.00     0.167 HD
ATOM     50  C   UNL A   1      40.513  32.850  37.460  1.00  0.00     0.034 A 
ATOM     51  C   UNL A   1      40.066  29.066  31.605  1.00  0.00     0.034 A 
ATOM     52  C   UNL A   1      41.603  31.937  37.242  1.00  0.00     0.049 A 
ATOM     53  C   UNL A   1      41.256  28.967  32.533  1.00  0.00     0.074 A 
ATOM     54  C   UNL A   1      42.707  31.713  38.047  1.00  0.00     0.029 A 
ATOM     55  N   UNL A   1      41.728  31.096  36.149  1.00  0.00    -0.354 N 
ATOM     56  N   UNL A   1      41.454  29.547  33.693  1.00  0.00    -0.248 NA
ATOM     57  C   UNL A   1      42.356  28.082  32.116  1.00  0.00     0.031 C 
ATOM     58  C   UNL A   1      43.513  30.756  37.427  1.00  0.00     0.029 A 
ATOM     59  C   UNL A   1      42.890  30.352  36.259  1.00  0.00     0.049 A 
ATOM     60  H   UNL A   1      41.086  31.035  35.405  1.00  0.00     0.167 HD
ATOM     61  C   UNL A   1      42.670  29.059  34.163  1.00  0.00     0.074 A 
ATOM     62  C   UNL A   1      43.157  28.123  33.173  1.00  0.00     0.031 C 
ATOM     63  C   UNL A   1      43.333  29.369  35.305  1.00  0.00     0.034 A 
BRANCH  50  64
ATOM     64  C   UNL A   1      40.539  33.664  38.726  1.00  0.00     0.023 A 
ATOM     65  C   UNL A   1      40.162  33.061  39.943  1.00  0.00     0.012 A 
ATOM     66  C   UNL A   1      41.073  34.968  38.734  1.00  0.00     0.148 A 
ATOM     67  C   UNL A   1      40.311  33.746  41.148  1.00  0.00     0.002 A 
ATOM     68  C   UNL A   1      41.261  35.627  39.943  1.00  0.00     0.091 A 
ATOM     69  F   UNL A   1      41.412  35.524  37.562  1.00  0.00    -0.205 F 
ATOM     70  C   UNL A   1      40.875  35.020  41.149  1.00  0.00     0.022 A 
BRANCH  68  71
ATOM     71  S   UNL A   1      42.059  37.232  40.064  1.00  0.00     0.127 S 
ATOM     72  O   UNL A   1      43.381  36.947  39.506  1.00  0.00    -0.237 OA
ATOM     73  O   UNL A   1      41.205  38.062  39.215  1.00  0.00    -0.237 OA
ATOM     74  O   UNL A   1      42.052  37.583  41.477  1.00  0.00    -0.744 OA
ENDBRANCH  68  71
ENDBRANCH  50  64
BRANCH  51  75
ATOM     75  C   UNL A   1      40.033  28.264  30.346  1.00  0.00     0.023 A 
ATOM     76  C   UNL A   1      39.202  27.127  30.275  1.00  0.00     0.012 A 
ATOM     77  C   UNL A   1      40.826  28.599  29.230  1.00  0.00     0.148 A 
ATOM     78  C   UNL A   1      39.193  26.316  29.139  1.00  0.00     0.002 A 
ATOM     79  C   UNL A   1      40.764  27.824  28.076  1.00  0.00     0.091 A 
ATOM     80  F   UNL A   1      41.628  29.668  29.319  1.00  0.00    -0.205 F 
ATOM     81  C   UNL A   1      39.966  26.670  28.037  1.00  0.00     0.022 A 
BRANCH  79  82
ATOM     82  S   UNL A   1      41.621  28.276  26.563  1.00  0.00     0.127 S 
ATOM     83  O   UNL A   1      42.803  28.960  27.080  1.00  0.00    -0.237 OA
ATOM     84  O   UNL A   1      41.879  26.968  25.959  1.00  0.00    -0.237 OA
ATOM     85  O   UNL A   1      40.688  29.106  25.811  1.00  0.00    -0.744 OA
ENDBRANCH  79  82
ENDBRANCH  51  75
BRANCH  63  86
ATOM     86  C   UNL A   1      44.629  28.653  35.598  1.00  0.00     0.023 A 
ATOM     87  C   UNL A   1      44.616  27.420  36.280  1.00  0.00     0.012 A 
ATOM     88  C   UNL A   1      45.852  29.157  35.109  1.00  0.00     0.148 A 
ATOM     89  C   UNL A   1      45.802  26.720  36.503  1.00  0.00     0.002 A 
ATOM     90  C   UNL A   1      47.021  28.426  35.286  1.00  0.00     0.091 A 
ATOM     91  F   UNL A   1      45.848  30.337  34.473  1.00  0.00    -0.205 F 
ATOM     92  C   UNL A   1      47.000  27.215  35.995  1.00  0.00     0.022 A 
BRANCH  90  93
ATOM     93  S   UNL A   1      48.592  28.929  34.573  1.00  0.00     0.127 S 
ATOM     94  O   UNL A   1      49.499  27.915  35.107  1.00  0.00    -0.237 OA
ATOM     95  O   UNL A   1      48.330  28.818  33.138  1.00  0.00    -0.237 OA
ATOM     96  O   UNL A   1      48.831  30.288  35.042  1.00  0.00    -0.744 OA
ENDBRANCH  90  93
ENDBRANCH  63  86
ENDBRANCH  37  38
ENDBRANCH  30  32
ENDBRANCH  29  30
ENDBRANCH  28  29
ENDBRANCH  27  28
ENDBRANCH  26  27
ENDBRANCH  25  26
ENDBRANCH   1  25
TORSDOF 25
ENDMDL
