MODEL 1
REMARK VINA RESULT:     -10.4      0.000      0.000
REMARK SMILES C[C@@H](C(=O)OCCOCCOCCOC(=O)c1ccc(-c2c3nc(c(-c4cccc(S(=O)(=O)[O-])c4F)c4ccc([nH]4)c(-c4cccc(S(=O)(=O)[O-])c4F)c4nc(c(-c5cccc(S(=O)(=O)[O-])c5F)c5ccc2[nH]5)C=C4)C=C3)cc1)[C@@H](C)C(=O)c1cccc(Cl)c1
REMARK SMILES IDX 9 1 8 2 7 3 6 4 5 5 3 6 4 7 2 8 1 9 80 10 81 11 82 12 83 13
REMARK SMILES IDX 84 14 85 15 90 16 86 17 88 18 87 19 89 20 10 21 11 22 12 23
REMARK SMILES IDX 13 24 14 25 15 26 16 27 17 28 18 29 79 30 19 31 78 32 20 33
REMARK SMILES IDX 21 34 22 35 72 36 23 37 77 38 71 39 73 40 24 41 76 42 70 43
REMARK SMILES IDX 69 44 25 46 57 47 37 48 56 49 38 50 41 51 55 52 74 53 39 54
REMARK SMILES IDX 40 55 54 57 75 58 42 59 26 60 27 61 35 62 28 63 30 64 36 65
REMARK SMILES IDX 29 66 31 67 32 68 33 69 34 70 58 71 59 72 67 73 60 74 62 75
REMARK SMILES IDX 68 76 61 77 63 78 64 79 65 80 66 81 43 82 44 83 52 84 45 85
REMARK SMILES IDX 47 86 53 87 46 88 48 89 49 90 50 91 51 92
REMARK H PARENT 73 45 41 56
REMARK Flexibility Score: inf
ROOT
ATOM      1  C   UNL A   1      33.265  27.014  23.320  1.00  0.00     0.188 C 
ENDROOT
BRANCH   1   2
ATOM      2  O   UNL A   1      32.203  27.647  22.643  1.00  0.00    -0.376 OA
BRANCH   2   3
ATOM      3  C   UNL A   1      30.899  27.092  22.699  1.00  0.00     0.202 C 
BRANCH   3   4
ATOM      4  C   UNL A   1      29.916  27.340  23.857  1.00  0.00     0.261 C 
BRANCH   4   5
ATOM      5  O   UNL A   1      29.542  26.196  24.655  1.00  0.00    -0.463 OA
BRANCH   5   6
ATOM      6  C   UNL A   1      30.461  25.821  25.573  1.00  0.00     0.309 C 
ATOM      7  O   UNL A   1      30.708  26.501  26.563  1.00  0.00    -0.252 OA
BRANCH   6   8
ATOM      8  C   UNL A   1      31.199  24.493  25.306  1.00  0.00     0.106 C 
ATOM      9  C   UNL A   1      30.889  23.750  23.997  1.00  0.00     0.021 C 
BRANCH   8  10
ATOM     10  C   UNL A   1      31.070  23.586  26.557  1.00  0.00     0.072 C 
ATOM     11  C   UNL A   1      29.919  22.579  26.504  1.00  0.00     0.017 C 
BRANCH  10  12
ATOM     12  C   UNL A   1      32.323  22.834  27.046  1.00  0.00     0.166 C 
ATOM     13  O   UNL A   1      32.624  22.904  28.241  1.00  0.00    -0.294 OA
BRANCH  12  14
ATOM     14  C   UNL A   1      33.112  21.891  26.179  1.00  0.00     0.019 A 
ATOM     15  C   UNL A   1      32.414  20.835  25.576  1.00  0.00     0.012 A 
ATOM     16  C   UNL A   1      34.498  21.946  26.001  1.00  0.00     0.032 A 
ATOM     17  C   UNL A   1      33.085  19.883  24.800  1.00  0.00     0.002 A 
ATOM     18  C   UNL A   1      35.166  20.993  25.236  1.00  0.00     0.041 A 
ATOM     19  C   UNL A   1      34.466  19.964  24.626  1.00  0.00     0.020 A 
ATOM     20  Cl  UNL A   1      36.880  21.090  25.080  1.00  0.00    -0.084 Cl
ENDBRANCH  12  14
ENDBRANCH  10  12
ENDBRANCH   8  10
ENDBRANCH   6   8
ENDBRANCH   5   6
ENDBRANCH   4   5
ENDBRANCH   3   4
ENDBRANCH   2   3
ENDBRANCH   1   2
BRANCH   1  21
ATOM     21  C   UNL A   1      33.624  27.506  24.722  1.00  0.00     0.188 C 
BRANCH  21  22
ATOM     22  O   UNL A   1      33.701  28.883  24.988  1.00  0.00    -0.376 OA
BRANCH  22  23
ATOM     23  C   UNL A   1      32.550  29.707  24.938  1.00  0.00     0.202 C 
BRANCH  23  24
ATOM     24  C   UNL A   1      31.793  30.290  26.148  1.00  0.00     0.261 C 
BRANCH  24  25
ATOM     25  O   UNL A   1      32.512  30.539  27.356  1.00  0.00    -0.460 OA
BRANCH  25  26
ATOM     26  C   UNL A   1      33.238  31.684  27.396  1.00  0.00     0.338 C 
ATOM     27  O   UNL A   1      32.821  32.822  27.245  1.00  0.00    -0.246 OA
BRANCH  26  28
ATOM     28  C   UNL A   1      34.578  31.340  27.924  1.00  0.00     0.060 A 
ATOM     29  C   UNL A   1      34.856  29.998  28.233  1.00  0.00     0.016 A 
ATOM     30  C   UNL A   1      35.563  32.317  28.065  1.00  0.00     0.016 A 
ATOM     31  C   UNL A   1      36.117  29.634  28.702  1.00  0.00     0.010 A 
ATOM     32  C   UNL A   1      36.814  31.955  28.570  1.00  0.00     0.010 A 
ATOM     33  C   UNL A   1      37.086  30.619  28.919  1.00  0.00    -0.014 A 
BRANCH  33  34
ATOM     34  C   UNL A   1      38.299  30.298  29.709  1.00  0.00     0.031 A 
ATOM     35  C   UNL A   1      39.263  29.291  29.143  1.00  0.00     0.074 A 
ATOM     36  C   UNL A   1      38.541  30.868  30.902  1.00  0.00     0.049 A 
ATOM     37  N   UNL A   1      40.342  28.782  29.675  1.00  0.00    -0.248 NA
ATOM     38  C   UNL A   1      38.962  28.789  27.790  1.00  0.00     0.031 C 
ATOM     39  C   UNL A   1      37.703  31.875  31.549  1.00  0.00     0.029 A 
ATOM     40  N   UNL A   1      39.557  30.646  31.799  1.00  0.00    -0.354 N 
ATOM     41  C   UNL A   1      40.830  27.876  28.741  1.00  0.00     0.074 A 
ATOM     42  C   UNL A   1      39.925  27.897  27.614  1.00  0.00     0.031 C 
ATOM     43  C   UNL A   1      38.215  32.151  32.761  1.00  0.00     0.029 A 
ATOM     44  C   UNL A   1      39.398  31.321  32.986  1.00  0.00     0.049 A 
ATOM     45  H   UNL A   1      40.325  30.059  31.610  1.00  0.00     0.167 HD
ATOM     46  C   UNL A   1      41.939  27.102  28.810  1.00  0.00     0.034 A 
ATOM     47  C   UNL A   1      40.106  31.249  34.132  1.00  0.00     0.034 A 
ATOM     48  C   UNL A   1      42.841  27.085  29.927  1.00  0.00     0.049 A 
ATOM     49  C   UNL A   1      41.313  30.345  34.203  1.00  0.00     0.074 A 
ATOM     50  C   UNL A   1      44.010  26.361  30.076  1.00  0.00     0.029 A 
ATOM     51  N   UNL A   1      42.669  27.811  31.096  1.00  0.00    -0.354 N 
ATOM     52  N   UNL A   1      41.823  29.569  33.277  1.00  0.00    -0.248 NA
ATOM     53  C   UNL A   1      42.061  30.332  35.469  1.00  0.00     0.031 C 
ATOM     54  C   UNL A   1      44.525  26.621  31.350  1.00  0.00     0.029 A 
ATOM     55  C   UNL A   1      43.701  27.542  31.977  1.00  0.00     0.049 A 
ATOM     56  H   UNL A   1      41.922  28.427  31.273  1.00  0.00     0.167 HD
ATOM     57  C   UNL A   1      42.970  29.010  33.832  1.00  0.00     0.074 A 
ATOM     58  C   UNL A   1      43.090  29.549  35.171  1.00  0.00     0.031 C 
ATOM     59  C   UNL A   1      43.841  28.124  33.288  1.00  0.00     0.034 A 
BRANCH  46  60
ATOM     60  C   UNL A   1      42.238  26.213  27.632  1.00  0.00     0.023 A 
ATOM     61  C   UNL A   1      42.986  26.713  26.547  1.00  0.00     0.012 A 
ATOM     62  C   UNL A   1      41.814  24.870  27.619  1.00  0.00     0.148 A 
ATOM     63  C   UNL A   1      43.277  25.902  25.451  1.00  0.00     0.002 A 
ATOM     64  C   UNL A   1      42.150  24.054  26.545  1.00  0.00     0.091 A 
ATOM     65  F   UNL A   1      41.084  24.419  28.649  1.00  0.00    -0.205 F 
ATOM     66  C   UNL A   1      42.868  24.572  25.455  1.00  0.00     0.022 A 
BRANCH  64  67
ATOM     67  S   UNL A   1      41.741  22.306  26.493  1.00  0.00     0.127 S 
ATOM     68  O   UNL A   1      42.286  21.838  27.767  1.00  0.00    -0.237 OA
ATOM     69  O   UNL A   1      40.279  22.337  26.429  1.00  0.00    -0.237 OA
ATOM     70  O   UNL A   1      42.390  21.775  25.303  1.00  0.00    -0.744 OA
ENDBRANCH  64  67
ENDBRANCH  46  60
BRANCH  47  71
ATOM     71  C   UNL A   1      39.704  32.068  35.310  1.00  0.00     0.023 A 
ATOM     72  C   UNL A   1      40.167  33.393  35.431  1.00  0.00     0.012 A 
ATOM     73  C   UNL A   1      38.868  31.539  36.314  1.00  0.00     0.148 A 
ATOM     74  C   UNL A   1      39.833  34.165  36.545  1.00  0.00     0.002 A 
ATOM     75  C   UNL A   1      38.495  32.331  37.393  1.00  0.00     0.091 A 
ATOM     76  F   UNL A   1      38.454  30.270  36.190  1.00  0.00    -0.205 F 
ATOM     77  C   UNL A   1      38.991  33.638  37.520  1.00  0.00     0.022 A 
BRANCH  75  78
ATOM     78  S   UNL A   1      37.331  31.778  38.644  1.00  0.00     0.127 S 
ATOM     79  O   UNL A   1      38.088  31.996  39.875  1.00  0.00    -0.237 OA
ATOM     80  O   UNL A   1      36.211  32.698  38.440  1.00  0.00    -0.237 OA
ATOM     81  O   UNL A   1      37.037  30.387  38.326  1.00  0.00    -0.744 OA
ENDBRANCH  75  78
ENDBRANCH  47  71
BRANCH  59  82
ATOM     82  C   UNL A   1      45.037  27.710  34.109  1.00  0.00     0.023 A 
ATOM     83  C   UNL A   1      46.210  28.490  34.096  1.00  0.00     0.012 A 
ATOM     84  C   UNL A   1      44.966  26.586  34.959  1.00  0.00     0.148 A 
ATOM     85  C   UNL A   1      47.304  28.139  34.887  1.00  0.00     0.002 A 
ATOM     86  C   UNL A   1      46.039  26.273  35.783  1.00  0.00     0.091 A 
ATOM     87  F   UNL A   1      43.846  25.847  34.947  1.00  0.00    -0.205 F 
ATOM     88  C   UNL A   1      47.216  27.039  35.738  1.00  0.00     0.022 A 
BRANCH  86  89
ATOM     89  S   UNL A   1      45.980  24.935  36.981  1.00  0.00     0.127 S 
ATOM     90  O   UNL A   1      44.826  25.314  37.794  1.00  0.00    -0.237 OA
ATOM     91  O   UNL A   1      45.767  23.765  36.128  1.00  0.00    -0.237 OA
ATOM     92  O   UNL A   1      47.262  24.955  37.671  1.00  0.00    -0.744 OA
ENDBRANCH  86  89
ENDBRANCH  59  82
ENDBRANCH  33  34
ENDBRANCH  26  28
ENDBRANCH  25  26
ENDBRANCH  24  25
ENDBRANCH  23  24
ENDBRANCH  22  23
ENDBRANCH  21  22
ENDBRANCH   1  21
TORSDOF 23
ENDMDL
MODEL 2
REMARK VINA RESULT:     -10.3      1.729      7.915
REMARK SMILES C[C@@H](C(=O)OCCOCCOCCOC(=O)c1ccc(-c2c3nc(c(-c4cccc(S(=O)(=O)[O-])c4F)c4ccc([nH]4)c(-c4cccc(S(=O)(=O)[O-])c4F)c4nc(c(-c5cccc(S(=O)(=O)[O-])c5F)c5ccc2[nH]5)C=C4)C=C3)cc1)[C@@H](C)C(=O)c1cccc(Cl)c1
REMARK SMILES IDX 9 1 8 2 7 3 6 4 5 5 3 6 4 7 2 8 1 9 80 10 81 11 82 12 83 13
REMARK SMILES IDX 84 14 85 15 90 16 86 17 88 18 87 19 89 20 10 21 11 22 12 23
REMARK SMILES IDX 13 24 14 25 15 26 16 27 17 28 18 29 79 30 19 31 78 32 20 33
REMARK SMILES IDX 21 34 22 35 72 36 23 37 77 38 71 39 73 40 24 41 76 42 70 43
REMARK SMILES IDX 69 44 25 46 57 47 37 48 56 49 38 50 41 51 55 52 74 53 39 54
REMARK SMILES IDX 40 55 54 57 75 58 42 59 26 60 27 61 35 62 28 63 30 64 36 65
REMARK SMILES IDX 29 66 31 67 32 68 33 69 34 70 58 71 59 72 67 73 60 74 62 75
REMARK SMILES IDX 68 76 61 77 63 78 64 79 65 80 66 81 43 82 44 83 52 84 45 85
REMARK SMILES IDX 47 86 53 87 46 88 48 89 49 90 50 91 51 92
REMARK H PARENT 73 45 41 56
REMARK Flexibility Score: inf
ROOT
ATOM      1  C   UNL A   1      29.781  27.643  23.182  1.00  0.00     0.188 C 
ENDROOT
BRANCH   1   2
ATOM      2  O   UNL A   1      28.919  26.771  23.877  1.00  0.00    -0.376 OA
BRANCH   2   3
ATOM      3  C   UNL A   1      29.430  25.956  24.920  1.00  0.00     0.202 C 
BRANCH   3   4
ATOM      4  C   UNL A   1      30.739  26.256  25.672  1.00  0.00     0.261 C 
BRANCH   4   5
ATOM      5  O   UNL A   1      31.020  25.457  26.842  1.00  0.00    -0.463 OA
BRANCH   5   6
ATOM      6  C   UNL A   1      31.000  24.121  26.634  1.00  0.00     0.309 C 
ATOM      7  O   UNL A   1      30.246  23.377  27.253  1.00  0.00    -0.252 OA
BRANCH   6   8
ATOM      8  C   UNL A   1      31.990  23.573  25.586  1.00  0.00     0.106 C 
ATOM      9  C   UNL A   1      31.704  22.189  24.984  1.00  0.00     0.021 C 
BRANCH   8  10
ATOM     10  C   UNL A   1      33.432  23.701  26.142  1.00  0.00     0.072 C 
ATOM     11  C   UNL A   1      34.095  22.374  26.519  1.00  0.00     0.017 C 
BRANCH  10  12
ATOM     12  C   UNL A   1      34.457  24.518  25.331  1.00  0.00     0.166 C 
ATOM     13  O   UNL A   1      35.658  24.273  25.483  1.00  0.00    -0.294 OA
BRANCH  12  14
ATOM     14  C   UNL A   1      34.071  25.489  24.250  1.00  0.00     0.019 A 
ATOM     15  C   UNL A   1      34.051  26.851  24.585  1.00  0.00     0.012 A 
ATOM     16  C   UNL A   1      33.653  25.125  22.966  1.00  0.00     0.032 A 
ATOM     17  C   UNL A   1      33.649  27.813  23.650  1.00  0.00     0.002 A 
ATOM     18  C   UNL A   1      33.245  26.081  22.040  1.00  0.00     0.041 A 
ATOM     19  C   UNL A   1      33.248  27.427  22.372  1.00  0.00     0.020 A 
ATOM     20  Cl  UNL A   1      32.706  25.571  20.485  1.00  0.00    -0.084 Cl
ENDBRANCH  12  14
ENDBRANCH  10  12
ENDBRANCH   8  10
ENDBRANCH   6   8
ENDBRANCH   5   6
ENDBRANCH   4   5
ENDBRANCH   3   4
ENDBRANCH   2   3
ENDBRANCH   1   2
BRANCH   1  21
ATOM     21  C   UNL A   1      29.834  29.107  23.617  1.00  0.00     0.188 C 
BRANCH  21  22
ATOM     22  O   UNL A   1      31.049  29.677  24.031  1.00  0.00    -0.376 OA
BRANCH  22  23
ATOM     23  C   UNL A   1      31.244  30.103  25.367  1.00  0.00     0.202 C 
BRANCH  23  24
ATOM     24  C   UNL A   1      32.545  30.681  25.958  1.00  0.00     0.261 C 
BRANCH  24  25
ATOM     25  O   UNL A   1      32.533  31.179  27.296  1.00  0.00    -0.460 OA
BRANCH  25  26
ATOM     26  C   UNL A   1      33.381  32.204  27.563  1.00  0.00     0.338 C 
ATOM     27  O   UNL A   1      33.103  33.392  27.606  1.00  0.00    -0.246 OA
BRANCH  26  28
ATOM     28  C   UNL A   1      34.644  31.614  28.060  1.00  0.00     0.060 A 
ATOM     29  C   UNL A   1      34.699  30.228  28.282  1.00  0.00     0.016 A 
ATOM     30  C   UNL A   1      35.775  32.407  28.256  1.00  0.00     0.016 A 
ATOM     31  C   UNL A   1      35.882  29.635  28.720  1.00  0.00     0.010 A 
ATOM     32  C   UNL A   1      36.948  31.815  28.730  1.00  0.00     0.010 A 
ATOM     33  C   UNL A   1      36.998  30.433  28.993  1.00  0.00    -0.014 A 
BRANCH  33  34
ATOM     34  C   UNL A   1      38.139  29.871  29.754  1.00  0.00     0.031 A 
ATOM     35  C   UNL A   1      38.369  30.373  31.153  1.00  0.00     0.074 A 
ATOM     36  C   UNL A   1      38.964  28.953  29.221  1.00  0.00     0.049 A 
ATOM     37  N   UNL A   1      39.341  30.105  31.984  1.00  0.00    -0.248 NA
ATOM     38  C   UNL A   1      37.363  31.311  31.684  1.00  0.00     0.031 C 
ATOM     39  C   UNL A   1      38.836  28.366  27.889  1.00  0.00     0.029 A 
ATOM     40  N   UNL A   1      40.100  28.378  29.737  1.00  0.00    -0.354 N 
ATOM     41  C   UNL A   1      39.085  30.863  33.120  1.00  0.00     0.074 A 
ATOM     42  C   UNL A   1      37.873  31.610  32.869  1.00  0.00     0.031 C 
ATOM     43  C   UNL A   1      39.881  27.547  27.675  1.00  0.00     0.029 A 
ATOM     44  C   UNL A   1      40.763  27.575  28.841  1.00  0.00     0.049 A 
ATOM     45  H   UNL A   1      40.409  28.528  30.660  1.00  0.00     0.167 HD
ATOM     46  C   UNL A   1      39.789  30.925  34.274  1.00  0.00     0.034 A 
ATOM     47  C   UNL A   1      41.961  26.962  28.939  1.00  0.00     0.034 A 
ATOM     48  C   UNL A   1      40.990  30.178  34.526  1.00  0.00     0.049 A 
ATOM     49  C   UNL A   1      42.752  27.081  30.220  1.00  0.00     0.074 A 
ATOM     50  C   UNL A   1      41.757  30.147  35.677  1.00  0.00     0.029 A 
ATOM     51  N   UNL A   1      41.612  29.345  33.609  1.00  0.00    -0.354 N 
ATOM     52  N   UNL A   1      42.450  27.720  31.324  1.00  0.00    -0.248 NA
ATOM     53  C   UNL A   1      44.036  26.367  30.277  1.00  0.00     0.031 C 
ATOM     54  C   UNL A   1      42.862  29.323  35.444  1.00  0.00     0.029 A 
ATOM     55  C   UNL A   1      42.760  28.806  34.162  1.00  0.00     0.049 A 
ATOM     56  H   UNL A   1      41.284  29.163  32.699  1.00  0.00     0.167 HD
ATOM     57  C   UNL A   1      43.482  27.452  32.219  1.00  0.00     0.074 A 
ATOM     58  C   UNL A   1      44.411  26.578  31.532  1.00  0.00     0.031 C 
ATOM     59  C   UNL A   1      43.652  27.895  33.489  1.00  0.00     0.034 A 
BRANCH  46  60
ATOM     60  C   UNL A   1      39.268  31.832  35.358  1.00  0.00     0.023 A 
ATOM     61  C   UNL A   1      38.285  31.362  36.252  1.00  0.00     0.012 A 
ATOM     62  C   UNL A   1      39.780  33.134  35.514  1.00  0.00     0.148 A 
ATOM     63  C   UNL A   1      37.795  32.186  37.264  1.00  0.00     0.002 A 
ATOM     64  C   UNL A   1      39.322  33.932  36.555  1.00  0.00     0.091 A 
ATOM     65  F   UNL A   1      40.697  33.570  34.639  1.00  0.00    -0.205 F 
ATOM     66  C   UNL A   1      38.320  33.465  37.421  1.00  0.00     0.022 A 
BRANCH  64  67
ATOM     67  S   UNL A   1      39.993  35.563  36.891  1.00  0.00     0.127 S 
ATOM     68  O   UNL A   1      41.417  35.270  37.051  1.00  0.00    -0.237 OA
ATOM     69  O   UNL A   1      39.653  36.291  35.668  1.00  0.00    -0.237 OA
ATOM     70  O   UNL A   1      39.316  36.039  38.089  1.00  0.00    -0.744 OA
ENDBRANCH  64  67
ENDBRANCH  46  60
BRANCH  47  71
ATOM     71  C   UNL A   1      42.488  26.165  27.796  1.00  0.00     0.023 A 
ATOM     72  C   UNL A   1      43.414  26.746  26.907  1.00  0.00     0.012 A 
ATOM     73  C   UNL A   1      42.073  24.835  27.582  1.00  0.00     0.148 A 
ATOM     74  C   UNL A   1      43.891  26.030  25.809  1.00  0.00     0.002 A 
ATOM     75  C   UNL A   1      42.594  24.109  26.518  1.00  0.00     0.091 A 
ATOM     76  F   UNL A   1      41.176  24.307  28.427  1.00  0.00    -0.205 F 
ATOM     77  C   UNL A   1      43.490  24.711  25.619  1.00  0.00     0.022 A 
BRANCH  75  78
ATOM     78  S   UNL A   1      42.218  22.374  26.252  1.00  0.00     0.127 S 
ATOM     79  O   UNL A   1      40.762  22.398  26.131  1.00  0.00    -0.237 OA
ATOM     80  O   UNL A   1      42.934  22.099  25.005  1.00  0.00    -0.237 OA
ATOM     81  O   UNL A   1      42.740  21.672  27.417  1.00  0.00    -0.744 OA
ENDBRANCH  75  78
ENDBRANCH  47  71
BRANCH  59  82
ATOM     82  C   UNL A   1      44.858  27.409  34.254  1.00  0.00     0.023 A 
ATOM     83  C   UNL A   1      46.049  28.161  34.252  1.00  0.00     0.012 A 
ATOM     84  C   UNL A   1      44.780  26.242  35.043  1.00  0.00     0.148 A 
ATOM     85  C   UNL A   1      47.154  27.742  34.993  1.00  0.00     0.002 A 
ATOM     86  C   UNL A   1      45.866  25.859  35.820  1.00  0.00     0.091 A 
ATOM     87  F   UNL A   1      43.643  25.531  35.022  1.00  0.00    -0.205 F 
ATOM     88  C   UNL A   1      47.060  26.599  35.785  1.00  0.00     0.022 A 
BRANCH  86  89
ATOM     89  S   UNL A   1      45.805  24.459  36.945  1.00  0.00     0.127 S 
ATOM     90  O   UNL A   1      47.144  24.487  37.530  1.00  0.00    -0.237 OA
ATOM     91  O   UNL A   1      44.730  24.846  37.861  1.00  0.00    -0.237 OA
ATOM     92  O   UNL A   1      45.508  23.294  36.123  1.00  0.00    -0.744 OA
ENDBRANCH  86  89
ENDBRANCH  59  82
ENDBRANCH  33  34
ENDBRANCH  26  28
ENDBRANCH  25  26
ENDBRANCH  24  25
ENDBRANCH  23  24
ENDBRANCH  22  23
ENDBRANCH  21  22
ENDBRANCH   1  21
TORSDOF 23
ENDMDL
MODEL 3
REMARK VINA RESULT:      -9.9      1.047      7.588
REMARK SMILES C[C@@H](C(=O)OCCOCCOCCOC(=O)c1ccc(-c2c3nc(c(-c4cccc(S(=O)(=O)[O-])c4F)c4ccc([nH]4)c(-c4cccc(S(=O)(=O)[O-])c4F)c4nc(c(-c5cccc(S(=O)(=O)[O-])c5F)c5ccc2[nH]5)C=C4)C=C3)cc1)[C@@H](C)C(=O)c1cccc(Cl)c1
REMARK SMILES IDX 9 1 8 2 7 3 6 4 5 5 3 6 4 7 2 8 1 9 80 10 81 11 82 12 83 13
REMARK SMILES IDX 84 14 85 15 90 16 86 17 88 18 87 19 89 20 10 21 11 22 12 23
REMARK SMILES IDX 13 24 14 25 15 26 16 27 17 28 18 29 79 30 19 31 78 32 20 33
REMARK SMILES IDX 21 34 22 35 72 36 23 37 77 38 71 39 73 40 24 41 76 42 70 43
REMARK SMILES IDX 69 44 25 46 57 47 37 48 56 49 38 50 41 51 55 52 74 53 39 54
REMARK SMILES IDX 40 55 54 57 75 58 42 59 26 60 27 61 35 62 28 63 30 64 36 65
REMARK SMILES IDX 29 66 31 67 32 68 33 69 34 70 58 71 59 72 67 73 60 74 62 75
REMARK SMILES IDX 68 76 61 77 63 78 64 79 65 80 66 81 43 82 44 83 52 84 45 85
REMARK SMILES IDX 47 86 53 87 46 88 48 89 49 90 50 91 51 92
REMARK H PARENT 73 45 41 56
REMARK Flexibility Score: inf
ROOT
ATOM      1  C   UNL A   1      30.560  27.470  23.286  1.00  0.00     0.188 C 
ENDROOT
BRANCH   1   2
ATOM      2  O   UNL A   1      29.582  27.085  24.226  1.00  0.00    -0.376 OA
BRANCH   2   3
ATOM      3  C   UNL A   1      29.949  26.288  25.341  1.00  0.00     0.202 C 
BRANCH   3   4
ATOM      4  C   UNL A   1      31.396  26.143  25.845  1.00  0.00     0.261 C 
BRANCH   4   5
ATOM      5  O   UNL A   1      31.636  25.156  26.871  1.00  0.00    -0.463 OA
BRANCH   5   6
ATOM      6  C   UNL A   1      31.235  23.903  26.557  1.00  0.00     0.309 C 
ATOM      7  O   UNL A   1      30.403  23.299  27.226  1.00  0.00    -0.252 OA
BRANCH   6   8
ATOM      8  C   UNL A   1      31.891  23.261  25.318  1.00  0.00     0.106 C 
ATOM      9  C   UNL A   1      31.100  23.270  24.001  1.00  0.00     0.021 C 
BRANCH   8  10
ATOM     10  C   UNL A   1      32.408  21.849  25.699  1.00  0.00     0.072 C 
ATOM     11  C   UNL A   1      32.581  20.889  24.520  1.00  0.00     0.017 C 
BRANCH  10  12
ATOM     12  C   UNL A   1      33.675  21.747  26.571  1.00  0.00     0.166 C 
ATOM     13  O   UNL A   1      33.548  21.451  27.763  1.00  0.00    -0.294 OA
BRANCH  12  14
ATOM     14  C   UNL A   1      35.070  21.834  26.015  1.00  0.00     0.019 A 
ATOM     15  C   UNL A   1      35.550  20.724  25.305  1.00  0.00     0.012 A 
ATOM     16  C   UNL A   1      35.945  22.904  26.227  1.00  0.00     0.032 A 
ATOM     17  C   UNL A   1      36.858  20.704  24.804  1.00  0.00     0.002 A 
ATOM     18  C   UNL A   1      37.248  22.880  25.736  1.00  0.00     0.041 A 
ATOM     19  C   UNL A   1      37.708  21.788  25.017  1.00  0.00     0.020 A 
ATOM     20  Cl  UNL A   1      38.293  24.212  26.058  1.00  0.00    -0.084 Cl
ENDBRANCH  12  14
ENDBRANCH  10  12
ENDBRANCH   8  10
ENDBRANCH   6   8
ENDBRANCH   5   6
ENDBRANCH   4   5
ENDBRANCH   3   4
ENDBRANCH   2   3
ENDBRANCH   1   2
BRANCH   1  21
ATOM     21  C   UNL A   1      31.113  28.893  23.360  1.00  0.00     0.188 C 
BRANCH  21  22
ATOM     22  O   UNL A   1      32.231  29.175  24.161  1.00  0.00    -0.376 OA
BRANCH  22  23
ATOM     23  C   UNL A   1      32.094  29.810  25.419  1.00  0.00     0.202 C 
BRANCH  23  24
ATOM     24  C   UNL A   1      33.239  30.362  26.292  1.00  0.00     0.261 C 
BRANCH  24  25
ATOM     25  O   UNL A   1      32.914  31.122  27.454  1.00  0.00    -0.460 OA
BRANCH  25  26
ATOM     26  C   UNL A   1      33.763  32.133  27.766  1.00  0.00     0.338 C 
ATOM     27  O   UNL A   1      33.481  33.314  27.895  1.00  0.00    -0.246 OA
BRANCH  26  28
ATOM     28  C   UNL A   1      35.043  31.521  28.191  1.00  0.00     0.060 A 
ATOM     29  C   UNL A   1      35.070  30.144  28.471  1.00  0.00     0.016 A 
ATOM     30  C   UNL A   1      36.210  32.281  28.264  1.00  0.00     0.016 A 
ATOM     31  C   UNL A   1      36.264  29.529  28.843  1.00  0.00     0.010 A 
ATOM     32  C   UNL A   1      37.397  31.668  28.672  1.00  0.00     0.010 A 
ATOM     33  C   UNL A   1      37.423  30.298  28.993  1.00  0.00    -0.014 A 
BRANCH  33  34
ATOM     34  C   UNL A   1      38.602  29.728  29.688  1.00  0.00     0.031 A 
ATOM     35  C   UNL A   1      38.969  30.295  31.032  1.00  0.00     0.074 A 
ATOM     36  C   UNL A   1      39.342  28.747  29.143  1.00  0.00     0.049 A 
ATOM     37  N   UNL A   1      39.996  30.029  31.794  1.00  0.00    -0.248 NA
ATOM     38  C   UNL A   1      38.049  31.303  31.589  1.00  0.00     0.031 C 
ATOM     39  C   UNL A   1      39.079  28.095  27.862  1.00  0.00     0.029 A 
ATOM     40  N   UNL A   1      40.494  28.153  29.596  1.00  0.00    -0.354 N 
ATOM     41  C   UNL A   1      39.868  30.858  32.902  1.00  0.00     0.074 A 
ATOM     42  C   UNL A   1      38.669  31.644  32.709  1.00  0.00     0.031 C 
ATOM     43  C   UNL A   1      40.069  27.221  27.610  1.00  0.00     0.029 A 
ATOM     44  C   UNL A   1      41.047  27.273  28.695  1.00  0.00     0.049 A 
ATOM     45  H   UNL A   1      40.886  28.338  30.480  1.00  0.00     0.167 HD
ATOM     46  C   UNL A   1      40.669  30.952  33.988  1.00  0.00     0.034 A 
ATOM     47  C   UNL A   1      42.224  26.615  28.730  1.00  0.00     0.034 A 
ATOM     48  C   UNL A   1      41.857  30.168  34.183  1.00  0.00     0.049 A 
ATOM     49  C   UNL A   1      43.125  26.769  29.932  1.00  0.00     0.074 A 
ATOM     50  C   UNL A   1      42.716  30.166  35.267  1.00  0.00     0.029 A 
ATOM     51  N   UNL A   1      42.365  29.260  33.268  1.00  0.00    -0.354 N 
ATOM     52  N   UNL A   1      42.943  27.479  31.019  1.00  0.00    -0.248 NA
ATOM     53  C   UNL A   1      44.381  26.003  29.924  1.00  0.00     0.031 C 
ATOM     54  C   UNL A   1      43.765  29.283  34.991  1.00  0.00     0.029 A 
ATOM     55  C   UNL A   1      43.534  28.702  33.755  1.00  0.00     0.049 A 
ATOM     56  H   UNL A   1      41.955  29.044  32.399  1.00  0.00     0.167 HD
ATOM     57  C   UNL A   1      44.036  27.215  31.839  1.00  0.00     0.074 A 
ATOM     58  C   UNL A   1      44.868  26.265  31.130  1.00  0.00     0.031 C 
ATOM     59  C   UNL A   1      44.329  27.718  33.064  1.00  0.00     0.034 A 
BRANCH  46  60
ATOM     60  C   UNL A   1      40.277  31.938  35.057  1.00  0.00     0.023 A 
ATOM     61  C   UNL A   1      40.871  33.216  35.085  1.00  0.00     0.012 A 
ATOM     62  C   UNL A   1      39.291  31.613  36.009  1.00  0.00     0.148 A 
ATOM     63  C   UNL A   1      40.516  34.143  36.064  1.00  0.00     0.002 A 
ATOM     64  C   UNL A   1      38.907  32.559  36.952  1.00  0.00     0.091 A 
ATOM     65  F   UNL A   1      38.755  30.384  35.980  1.00  0.00    -0.205 F 
ATOM     66  C   UNL A   1      39.528  33.818  36.989  1.00  0.00     0.022 A 
BRANCH  64  67
ATOM     67  S   UNL A   1      37.588  32.267  38.134  1.00  0.00     0.127 S 
ATOM     68  O   UNL A   1      38.143  32.862  39.349  1.00  0.00    -0.237 OA
ATOM     69  O   UNL A   1      36.477  33.013  37.542  1.00  0.00    -0.237 OA
ATOM     70  O   UNL A   1      37.396  30.825  38.178  1.00  0.00    -0.744 OA
ENDBRANCH  64  67
ENDBRANCH  46  60
BRANCH  47  71
ATOM     71  C   UNL A   1      42.621  25.735  27.595  1.00  0.00     0.023 A 
ATOM     72  C   UNL A   1      43.403  26.257  26.546  1.00  0.00     0.012 A 
ATOM     73  C   UNL A   1      42.223  24.384  27.547  1.00  0.00     0.148 A 
ATOM     74  C   UNL A   1      43.754  25.461  25.455  1.00  0.00     0.002 A 
ATOM     75  C   UNL A   1      42.622  23.581  26.485  1.00  0.00     0.091 A 
ATOM     76  F   UNL A   1      41.462  23.911  28.544  1.00  0.00    -0.205 F 
ATOM     77  C   UNL A   1      43.372  24.123  25.429  1.00  0.00     0.022 A 
BRANCH  75  78
ATOM     78  S   UNL A   1      42.269  21.822  26.414  1.00  0.00     0.127 S 
ATOM     79  O   UNL A   1      42.802  21.358  27.693  1.00  0.00    -0.237 OA
ATOM     80  O   UNL A   1      40.809  21.812  26.316  1.00  0.00    -0.237 OA
ATOM     81  O   UNL A   1      42.959  21.327  25.230  1.00  0.00    -0.744 OA
ENDBRANCH  75  78
ENDBRANCH  47  71
BRANCH  59  82
ATOM     82  C   UNL A   1      45.576  27.222  33.754  1.00  0.00     0.023 A 
ATOM     83  C   UNL A   1      46.789  27.925  33.618  1.00  0.00     0.012 A 
ATOM     84  C   UNL A   1      45.522  26.098  34.604  1.00  0.00     0.148 A 
ATOM     85  C   UNL A   1      47.936  27.498  34.288  1.00  0.00     0.002 A 
ATOM     86  C   UNL A   1      46.654  25.710  35.310  1.00  0.00     0.091 A 
ATOM     87  F   UNL A   1      44.362  25.432  34.711  1.00  0.00    -0.205 F 
ATOM     88  C   UNL A   1      47.866  26.399  35.142  1.00  0.00     0.022 A 
BRANCH  86  89
ATOM     89  S   UNL A   1      46.635  24.370  36.507  1.00  0.00     0.127 S 
ATOM     90  O   UNL A   1      46.240  23.234  35.677  1.00  0.00    -0.237 OA
ATOM     91  O   UNL A   1      48.027  24.340  36.959  1.00  0.00    -0.237 OA
ATOM     92  O   UNL A   1      45.674  24.757  37.531  1.00  0.00    -0.744 OA
ENDBRANCH  86  89
ENDBRANCH  59  82
ENDBRANCH  33  34
ENDBRANCH  26  28
ENDBRANCH  25  26
ENDBRANCH  24  25
ENDBRANCH  23  24
ENDBRANCH  22  23
ENDBRANCH  21  22
ENDBRANCH   1  21
TORSDOF 23
ENDMDL
