MODEL 1
REMARK VINA RESULT:      -9.6      0.000      0.000
REMARK SMILES O=C(N[C@@H]1[C@@H](C(=O)OCCOCCOCCOC(=O)c2ccc(-c3c4nc(c(-c5cccc(S(=O)(=O)[O-])c5F)c5ccc([nH]5)c(-c5cccc(S(=O)(=O)[O-])c5F)c5nc(c(-c6cccc(S(=O)(=O)[O-])c6F)c6ccc3[nH]6)C=C5)C=C4)cc2)[C@H]2C=C[C@@H]1C2)OCc1ccccc1
REMARK SMILES IDX 12 1 11 2 10 3 9 4 8 5 6 6 7 7 5 8 4 9 86 10 83 11 85 12
REMARK SMILES IDX 87 13 84 14 3 15 1 16 2 17 88 19 89 20 90 21 91 22 95 23
REMARK SMILES IDX 92 24 94 25 93 26 13 27 14 28 15 29 16 30 17 31 18 32 19 33
REMARK SMILES IDX 20 34 21 35 82 36 22 37 81 38 23 39 24 40 25 41 75 42 26 43
REMARK SMILES IDX 80 44 74 45 76 46 27 47 79 48 73 49 72 50 28 52 60 53 40 54
REMARK SMILES IDX 59 55 41 56 44 57 58 58 77 59 42 60 43 61 57 63 78 64 45 65
REMARK SMILES IDX 29 66 30 67 38 68 31 69 33 70 39 71 32 72 34 73 35 74 36 75
REMARK SMILES IDX 37 76 61 77 62 78 70 79 63 80 65 81 71 82 64 83 66 84 67 85
REMARK SMILES IDX 68 86 69 87 46 88 47 89 55 90 48 91 50 92 56 93 49 94 51 95
REMARK SMILES IDX 52 96 53 97 54 98
REMARK H PARENT 3 18 76 51 44 62
REMARK Flexibility Score: inf
ROOT
ATOM      1  C   UNL A   1      34.543  31.822  28.080  1.00  0.00     0.188 C 
ENDROOT
BRANCH   1   2
ATOM      2  O   UNL A   1      33.527  30.914  27.675  1.00  0.00    -0.376 OA
BRANCH   2   3
ATOM      3  C   UNL A   1      33.911  29.612  27.228  1.00  0.00     0.202 C 
BRANCH   3   4
ATOM      4  C   UNL A   1      32.990  28.870  26.246  1.00  0.00     0.261 C 
BRANCH   4   5
ATOM      5  O   UNL A   1      33.332  27.477  26.113  1.00  0.00    -0.463 OA
BRANCH   5   6
ATOM      6  C   UNL A   1      33.463  26.994  24.852  1.00  0.00     0.311 C 
ATOM      7  O   UNL A   1      34.025  27.584  23.936  1.00  0.00    -0.252 OA
BRANCH   6   8
ATOM      8  C   UNL A   1      32.937  25.579  24.713  1.00  0.00     0.129 C 
ATOM      9  C   UNL A   1      32.717  24.951  26.131  1.00  0.00     0.107 C 
ATOM     10  C   UNL A   1      33.435  23.578  25.994  1.00  0.00     0.035 C 
ATOM     11  C   UNL A   1      33.887  24.552  24.033  1.00  0.00     0.028 C 
ATOM     12  C   UNL A   1      34.926  23.867  25.958  1.00  0.00    -0.025 C 
ATOM     13  C   UNL A   1      33.271  23.241  24.508  1.00  0.00     0.018 C 
ATOM     14  C   UNL A   1      35.191  24.449  24.779  1.00  0.00    -0.027 C 
BRANCH   9  15
ATOM     15  N   UNL A   1      31.323  24.963  26.586  1.00  0.00    -0.317 N 
ATOM     16  O   UNL A   1      29.153  25.574  26.673  1.00  0.00    -0.225 OA
ATOM     17  C   UNL A   1      30.211  25.565  26.073  1.00  0.00     0.407 C 
ATOM     18  H   UNL A   1      31.161  24.445  27.406  1.00  0.00     0.167 HD
BRANCH  17  19
ATOM     19  O   UNL A   1      30.451  26.206  24.911  1.00  0.00    -0.445 OA
BRANCH  19  20
ATOM     20  C   UNL A   1      29.395  26.173  23.939  1.00  0.00     0.270 C 
BRANCH  20  21
ATOM     21  C   UNL A   1      29.323  27.520  23.250  1.00  0.00    -0.011 A 
ATOM     22  C   UNL A   1      28.104  28.209  23.127  1.00  0.00     0.007 A 
ATOM     23  C   UNL A   1      30.492  28.141  22.789  1.00  0.00     0.007 A 
ATOM     24  C   UNL A   1      28.064  29.511  22.638  1.00  0.00     0.000 A 
ATOM     25  C   UNL A   1      30.448  29.433  22.269  1.00  0.00     0.000 A 
ATOM     26  C   UNL A   1      29.239  30.117  22.206  1.00  0.00     0.000 A 
ENDBRANCH  20  21
ENDBRANCH  19  20
ENDBRANCH  17  19
ENDBRANCH   9  15
ENDBRANCH   6   8
ENDBRANCH   5   6
ENDBRANCH   4   5
ENDBRANCH   3   4
ENDBRANCH   2   3
ENDBRANCH   1   2
BRANCH   1  27
ATOM     27  C   UNL A   1      34.311  33.322  27.832  1.00  0.00     0.188 C 
BRANCH  27  28
ATOM     28  O   UNL A   1      33.380  33.914  28.714  1.00  0.00    -0.376 OA
BRANCH  28  29
ATOM     29  C   UNL A   1      33.280  35.333  28.673  1.00  0.00     0.202 C 
BRANCH  29  30
ATOM     30  C   UNL A   1      32.597  36.119  29.818  1.00  0.00     0.261 C 
BRANCH  30  31
ATOM     31  O   UNL A   1      33.318  36.254  31.057  1.00  0.00    -0.460 OA
BRANCH  31  32
ATOM     32  C   UNL A   1      33.175  35.260  31.964  1.00  0.00     0.338 C 
ATOM     33  O   UNL A   1      32.152  34.952  32.551  1.00  0.00    -0.246 OA
BRANCH  32  34
ATOM     34  C   UNL A   1      34.420  34.462  32.027  1.00  0.00     0.060 A 
ATOM     35  C   UNL A   1      34.417  33.284  32.777  1.00  0.00     0.016 A 
ATOM     36  C   UNL A   1      35.612  34.921  31.473  1.00  0.00     0.016 A 
ATOM     37  C   UNL A   1      35.598  32.589  33.025  1.00  0.00     0.010 A 
ATOM     38  C   UNL A   1      36.801  34.206  31.703  1.00  0.00     0.010 A 
ATOM     39  C   UNL A   1      36.809  33.055  32.513  1.00  0.00    -0.014 A 
BRANCH  39  40
ATOM     40  C   UNL A   1      38.077  32.402  32.942  1.00  0.00     0.031 A 
ATOM     41  C   UNL A   1      38.708  31.359  32.059  1.00  0.00     0.074 A 
ATOM     42  C   UNL A   1      38.699  32.774  34.079  1.00  0.00     0.049 A 
ATOM     43  N   UNL A   1      39.743  30.594  32.287  1.00  0.00    -0.248 NA
ATOM     44  C   UNL A   1      38.088  31.149  30.740  1.00  0.00     0.031 C 
ATOM     45  C   UNL A   1      38.239  33.822  34.993  1.00  0.00     0.029 A 
ATOM     46  N   UNL A   1      39.849  32.303  34.667  1.00  0.00    -0.354 N 
ATOM     47  C   UNL A   1      39.858  29.766  31.174  1.00  0.00     0.074 A 
ATOM     48  C   UNL A   1      38.792  30.131  30.267  1.00  0.00     0.031 C 
ATOM     49  C   UNL A   1      39.090  33.906  36.028  1.00  0.00     0.029 A 
ATOM     50  C   UNL A   1      40.115  32.878  35.888  1.00  0.00     0.049 A 
ATOM     51  H   UNL A   1      40.427  31.622  34.253  1.00  0.00     0.167 HD
ATOM     52  C   UNL A   1      40.769  28.794  30.930  1.00  0.00     0.034 A 
ATOM     53  C   UNL A   1      41.049  32.578  36.814  1.00  0.00     0.034 A 
ATOM     54  C   UNL A   1      41.854  28.463  31.816  1.00  0.00     0.049 A 
ATOM     55  C   UNL A   1      42.022  31.463  36.538  1.00  0.00     0.074 A 
ATOM     56  C   UNL A   1      42.841  27.508  31.647  1.00  0.00     0.029 A 
ATOM     57  N   UNL A   1      42.092  29.072  33.038  1.00  0.00    -0.354 N 
ATOM     58  N   UNL A   1      42.139  30.713  35.469  1.00  0.00    -0.248 NA
ATOM     59  C   UNL A   1      43.005  31.164  37.590  1.00  0.00     0.031 C 
ATOM     60  C   UNL A   1      43.653  27.513  32.786  1.00  0.00     0.029 A 
ATOM     61  C   UNL A   1      43.201  28.504  33.643  1.00  0.00     0.049 A 
ATOM     62  H   UNL A   1      41.552  29.801  33.421  1.00  0.00     0.167 HD
ATOM     63  C   UNL A   1      43.226  29.878  35.704  1.00  0.00     0.074 A 
ATOM     64  C   UNL A   1      43.748  30.234  37.009  1.00  0.00     0.031 C 
ATOM     65  C   UNL A   1      43.737  28.895  34.921  1.00  0.00     0.034 A 
BRANCH  52  66
ATOM     66  C   UNL A   1      40.622  28.003  29.654  1.00  0.00     0.023 A 
ATOM     67  C   UNL A   1      39.591  27.050  29.522  1.00  0.00     0.012 A 
ATOM     68  C   UNL A   1      41.489  28.236  28.568  1.00  0.00     0.148 A 
ATOM     69  C   UNL A   1      39.452  26.316  28.344  1.00  0.00     0.002 A 
ATOM     70  C   UNL A   1      41.313  27.536  27.380  1.00  0.00     0.091 A 
ATOM     71  F   UNL A   1      42.475  29.133  28.718  1.00  0.00    -0.205 F 
ATOM     72  C   UNL A   1      40.305  26.565  27.272  1.00  0.00     0.022 A 
BRANCH  70  73
ATOM     73  S   UNL A   1      42.308  27.842  25.917  1.00  0.00     0.127 S 
ATOM     74  O   UNL A   1      41.822  26.806  25.008  1.00  0.00    -0.237 OA
ATOM     75  O   UNL A   1      41.912  29.203  25.557  1.00  0.00    -0.237 OA
ATOM     76  O   UNL A   1      43.695  27.702  26.336  1.00  0.00    -0.744 OA
ENDBRANCH  70  73
ENDBRANCH  52  66
BRANCH  53  77
ATOM     77  C   UNL A   1      41.101  33.333  38.100  1.00  0.00     0.023 A 
ATOM     78  C   UNL A   1      40.398  32.855  39.222  1.00  0.00     0.012 A 
ATOM     79  C   UNL A   1      41.848  34.523  38.216  1.00  0.00     0.148 A 
ATOM     80  C   UNL A   1      40.411  33.563  40.425  1.00  0.00     0.002 A 
ATOM     81  C   UNL A   1      41.908  35.189  39.434  1.00  0.00     0.091 A 
ATOM     82  F   UNL A   1      42.494  34.974  37.132  1.00  0.00    -0.205 F 
ATOM     83  C   UNL A   1      41.174  34.722  40.535  1.00  0.00     0.022 A 
BRANCH  81  84
ATOM     84  S   UNL A   1      42.966  36.616  39.701  1.00  0.00     0.127 S 
ATOM     85  O   UNL A   1      44.281  36.083  39.354  1.00  0.00    -0.237 OA
ATOM     86  O   UNL A   1      42.417  37.578  38.745  1.00  0.00    -0.237 OA
ATOM     87  O   UNL A   1      42.784  36.985  41.098  1.00  0.00    -0.744 OA
ENDBRANCH  81  84
ENDBRANCH  53  77
BRANCH  65  88
ATOM     88  C   UNL A   1      44.952  28.162  35.430  1.00  0.00     0.023 A 
ATOM     89  C   UNL A   1      46.243  28.670  35.178  1.00  0.00     0.012 A 
ATOM     90  C   UNL A   1      44.810  26.993  36.204  1.00  0.00     0.148 A 
ATOM     91  C   UNL A   1      47.373  28.000  35.648  1.00  0.00     0.002 A 
ATOM     92  C   UNL A   1      45.938  26.363  36.716  1.00  0.00     0.091 A 
ATOM     93  F   UNL A   1      43.576  26.515  36.421  1.00  0.00    -0.205 F 
ATOM     94  C   UNL A   1      47.220  26.855  36.426  1.00  0.00     0.022 A 
BRANCH  92  95
ATOM     95  S   UNL A   1      45.833  24.942  37.811  1.00  0.00     0.127 S 
ATOM     96  O   UNL A   1      44.949  25.440  38.862  1.00  0.00    -0.237 OA
ATOM     97  O   UNL A   1      45.235  23.927  36.943  1.00  0.00    -0.237 OA
ATOM     98  O   UNL A   1      47.199  24.653  38.226  1.00  0.00    -0.744 OA
ENDBRANCH  92  95
ENDBRANCH  65  88
ENDBRANCH  39  40
ENDBRANCH  32  34
ENDBRANCH  31  32
ENDBRANCH  30  31
ENDBRANCH  29  30
ENDBRANCH  28  29
ENDBRANCH  27  28
ENDBRANCH   1  27
TORSDOF 24
ENDMDL
MODEL 2
REMARK VINA RESULT:      -9.6      1.103      2.963
REMARK SMILES O=C(N[C@@H]1[C@@H](C(=O)OCCOCCOCCOC(=O)c2ccc(-c3c4nc(c(-c5cccc(S(=O)(=O)[O-])c5F)c5ccc([nH]5)c(-c5cccc(S(=O)(=O)[O-])c5F)c5nc(c(-c6cccc(S(=O)(=O)[O-])c6F)c6ccc3[nH]6)C=C5)C=C4)cc2)[C@H]2C=C[C@@H]1C2)OCc1ccccc1
REMARK SMILES IDX 12 1 11 2 10 3 9 4 8 5 6 6 7 7 5 8 4 9 86 10 83 11 85 12
REMARK SMILES IDX 87 13 84 14 3 15 1 16 2 17 88 19 89 20 90 21 91 22 95 23
REMARK SMILES IDX 92 24 94 25 93 26 13 27 14 28 15 29 16 30 17 31 18 32 19 33
REMARK SMILES IDX 20 34 21 35 82 36 22 37 81 38 23 39 24 40 25 41 75 42 26 43
REMARK SMILES IDX 80 44 74 45 76 46 27 47 79 48 73 49 72 50 28 52 60 53 40 54
REMARK SMILES IDX 59 55 41 56 44 57 58 58 77 59 42 60 43 61 57 63 78 64 45 65
REMARK SMILES IDX 29 66 30 67 38 68 31 69 33 70 39 71 32 72 34 73 35 74 36 75
REMARK SMILES IDX 37 76 61 77 62 78 70 79 63 80 65 81 71 82 64 83 66 84 67 85
REMARK SMILES IDX 68 86 69 87 46 88 47 89 55 90 48 91 50 92 56 93 49 94 51 95
REMARK SMILES IDX 52 96 53 97 54 98
REMARK H PARENT 3 18 76 51 44 62
REMARK Flexibility Score: inf
ROOT
ATOM      1  C   UNL A   1      34.507  32.675  28.520  1.00  0.00     0.188 C 
ENDROOT
BRANCH   1   2
ATOM      2  O   UNL A   1      33.743  31.497  28.300  1.00  0.00    -0.376 OA
BRANCH   2   3
ATOM      3  C   UNL A   1      34.190  30.567  27.312  1.00  0.00     0.202 C 
BRANCH   3   4
ATOM      4  C   UNL A   1      33.224  30.169  26.185  1.00  0.00     0.261 C 
BRANCH   4   5
ATOM      5  O   UNL A   1      33.585  28.922  25.561  1.00  0.00    -0.463 OA
BRANCH   5   6
ATOM      6  C   UNL A   1      33.280  28.782  24.246  1.00  0.00     0.311 C 
ATOM      7  O   UNL A   1      33.869  29.346  23.331  1.00  0.00    -0.252 OA
BRANCH   6   8
ATOM      8  C   UNL A   1      32.194  27.752  24.008  1.00  0.00     0.129 C 
ATOM      9  C   UNL A   1      31.941  27.589  22.471  1.00  0.00     0.107 C 
ATOM     10  C   UNL A   1      30.392  27.705  22.382  1.00  0.00     0.035 C 
ATOM     11  C   UNL A   1      30.777  28.102  24.548  1.00  0.00     0.028 C 
ATOM     12  C   UNL A   1      30.047  29.160  22.650  1.00  0.00    -0.025 C 
ATOM     13  C   UNL A   1      29.919  27.146  23.728  1.00  0.00     0.018 C 
ATOM     14  C   UNL A   1      30.278  29.392  23.950  1.00  0.00    -0.027 C 
BRANCH   9  15
ATOM     15  N   UNL A   1      32.585  26.415  21.875  1.00  0.00    -0.317 N 
ATOM     16  O   UNL A   1      33.654  24.430  21.788  1.00  0.00    -0.225 OA
ATOM     17  C   UNL A   1      33.011  25.241  22.426  1.00  0.00     0.407 C 
ATOM     18  H   UNL A   1      32.737  26.485  20.905  1.00  0.00     0.167 HD
BRANCH  17  19
ATOM     19  O   UNL A   1      32.723  25.144  23.740  1.00  0.00    -0.445 OA
BRANCH  19  20
ATOM     20  C   UNL A   1      31.991  23.978  24.145  1.00  0.00     0.270 C 
BRANCH  20  21
ATOM     21  C   UNL A   1      32.692  23.348  25.331  1.00  0.00    -0.011 A 
ATOM     22  C   UNL A   1      34.088  23.188  25.348  1.00  0.00     0.007 A 
ATOM     23  C   UNL A   1      31.962  22.984  26.471  1.00  0.00     0.007 A 
ATOM     24  C   UNL A   1      34.745  22.757  26.497  1.00  0.00     0.000 A 
ATOM     25  C   UNL A   1      32.616  22.522  27.611  1.00  0.00     0.000 A 
ATOM     26  C   UNL A   1      34.003  22.422  27.625  1.00  0.00     0.000 A 
ENDBRANCH  20  21
ENDBRANCH  19  20
ENDBRANCH  17  19
ENDBRANCH   9  15
ENDBRANCH   6   8
ENDBRANCH   5   6
ENDBRANCH   4   5
ENDBRANCH   3   4
ENDBRANCH   2   3
ENDBRANCH   1   2
BRANCH   1  27
ATOM     27  C   UNL A   1      33.968  34.001  27.955  1.00  0.00     0.188 C 
BRANCH  27  28
ATOM     28  O   UNL A   1      33.017  34.635  28.784  1.00  0.00    -0.376 OA
BRANCH  28  29
ATOM     29  C   UNL A   1      33.192  36.032  28.999  1.00  0.00     0.202 C 
BRANCH  29  30
ATOM     30  C   UNL A   1      32.660  36.716  30.280  1.00  0.00     0.261 C 
BRANCH  30  31
ATOM     31  O   UNL A   1      33.384  36.492  31.505  1.00  0.00    -0.460 OA
BRANCH  31  32
ATOM     32  C   UNL A   1      33.124  35.345  32.174  1.00  0.00     0.338 C 
ATOM     33  O   UNL A   1      32.032  34.950  32.547  1.00  0.00    -0.246 OA
BRANCH  32  34
ATOM     34  C   UNL A   1      34.353  34.522  32.245  1.00  0.00     0.060 A 
ATOM     35  C   UNL A   1      34.355  33.401  33.078  1.00  0.00     0.016 A 
ATOM     36  C   UNL A   1      35.532  34.912  31.613  1.00  0.00     0.016 A 
ATOM     37  C   UNL A   1      35.530  32.697  33.330  1.00  0.00     0.010 A 
ATOM     38  C   UNL A   1      36.713  34.186  31.848  1.00  0.00     0.010 A 
ATOM     39  C   UNL A   1      36.729  33.096  32.738  1.00  0.00    -0.014 A 
BRANCH  39  40
ATOM     40  C   UNL A   1      37.999  32.445  33.164  1.00  0.00     0.031 A 
ATOM     41  C   UNL A   1      38.605  31.370  32.300  1.00  0.00     0.074 A 
ATOM     42  C   UNL A   1      38.645  32.844  34.278  1.00  0.00     0.049 A 
ATOM     43  N   UNL A   1      39.638  30.603  32.532  1.00  0.00    -0.248 NA
ATOM     44  C   UNL A   1      37.960  31.128  31.000  1.00  0.00     0.031 C 
ATOM     45  C   UNL A   1      38.210  33.922  35.169  1.00  0.00     0.029 A 
ATOM     46  N   UNL A   1      39.801  32.380  34.859  1.00  0.00    -0.354 N 
ATOM     47  C   UNL A   1      39.726  29.742  31.442  1.00  0.00     0.074 A 
ATOM     48  C   UNL A   1      38.647  30.091  30.544  1.00  0.00     0.031 C 
ATOM     49  C   UNL A   1      39.080  34.029  36.186  1.00  0.00     0.029 A 
ATOM     50  C   UNL A   1      40.094  32.987  36.058  1.00  0.00     0.049 A 
ATOM     51  H   UNL A   1      40.366  31.682  34.455  1.00  0.00     0.167 HD
ATOM     52  C   UNL A   1      40.625  28.756  31.210  1.00  0.00     0.034 A 
ATOM     53  C   UNL A   1      41.042  32.706  36.976  1.00  0.00     0.034 A 
ATOM     54  C   UNL A   1      41.722  28.441  32.086  1.00  0.00     0.049 A 
ATOM     55  C   UNL A   1      42.000  31.575  36.716  1.00  0.00     0.074 A 
ATOM     56  C   UNL A   1      42.698  27.473  31.928  1.00  0.00     0.029 A 
ATOM     57  N   UNL A   1      41.988  29.083  33.286  1.00  0.00    -0.354 N 
ATOM     58  N   UNL A   1      42.092  30.793  35.666  1.00  0.00    -0.248 NA
ATOM     59  C   UNL A   1      42.999  31.299  37.758  1.00  0.00     0.031 C 
ATOM     60  C   UNL A   1      43.531  27.504  33.051  1.00  0.00     0.029 A 
ATOM     61  C   UNL A   1      43.102  28.523  33.887  1.00  0.00     0.049 A 
ATOM     62  H   UNL A   1      41.461  29.827  33.657  1.00  0.00     0.167 HD
ATOM     63  C   UNL A   1      43.175  29.956  35.907  1.00  0.00     0.074 A 
ATOM     64  C   UNL A   1      43.724  30.345  37.191  1.00  0.00     0.031 C 
ATOM     65  C   UNL A   1      43.665  28.946  35.144  1.00  0.00     0.034 A 
BRANCH  52  66
ATOM     66  C   UNL A   1      40.448  27.930  29.961  1.00  0.00     0.023 A 
ATOM     67  C   UNL A   1      39.439  26.946  29.894  1.00  0.00     0.012 A 
ATOM     68  C   UNL A   1      41.263  28.158  28.835  1.00  0.00     0.148 A 
ATOM     69  C   UNL A   1      39.272  26.179  28.741  1.00  0.00     0.002 A 
ATOM     70  C   UNL A   1      41.059  27.424  27.673  1.00  0.00     0.091 A 
ATOM     71  F   UNL A   1      42.230  29.084  28.923  1.00  0.00    -0.205 F 
ATOM     72  C   UNL A   1      40.074  26.424  27.629  1.00  0.00     0.022 A 
BRANCH  70  73
ATOM     73  S   UNL A   1      41.986  27.719  26.163  1.00  0.00     0.127 S 
ATOM     74  O   UNL A   1      41.608  29.096  25.848  1.00  0.00    -0.237 OA
ATOM     75  O   UNL A   1      43.367  27.555  26.616  1.00  0.00    -0.237 OA
ATOM     76  O   UNL A   1      41.534  26.716  25.210  1.00  0.00    -0.744 OA
ENDBRANCH  70  73
ENDBRANCH  52  66
BRANCH  53  77
ATOM     77  C   UNL A   1      41.123  33.498  38.238  1.00  0.00     0.023 A 
ATOM     78  C   UNL A   1      40.412  33.075  39.377  1.00  0.00     0.012 A 
ATOM     79  C   UNL A   1      41.905  34.668  38.315  1.00  0.00     0.148 A 
ATOM     80  C   UNL A   1      40.453  33.818  40.559  1.00  0.00     0.002 A 
ATOM     81  C   UNL A   1      41.991  35.369  39.511  1.00  0.00     0.091 A 
ATOM     82  F   UNL A   1      42.558  35.068  37.214  1.00  0.00    -0.205 F 
ATOM     83  C   UNL A   1      41.251  34.957  40.630  1.00  0.00     0.022 A 
BRANCH  81  84
ATOM     84  S   UNL A   1      43.092  36.771  39.730  1.00  0.00     0.127 S 
ATOM     85  O   UNL A   1      42.769  37.590  38.564  1.00  0.00    -0.237 OA
ATOM     86  O   UNL A   1      42.636  37.313  41.010  1.00  0.00    -0.237 OA
ATOM     87  O   UNL A   1      44.438  36.216  39.756  1.00  0.00    -0.744 OA
ENDBRANCH  81  84
ENDBRANCH  53  77
BRANCH  65  88
ATOM     88  C   UNL A   1      44.882  28.217  35.653  1.00  0.00     0.023 A 
ATOM     89  C   UNL A   1      46.173  28.691  35.340  1.00  0.00     0.012 A 
ATOM     90  C   UNL A   1      44.745  27.089  36.485  1.00  0.00     0.148 A 
ATOM     91  C   UNL A   1      47.306  28.025  35.808  1.00  0.00     0.002 A 
ATOM     92  C   UNL A   1      45.877  26.465  36.995  1.00  0.00     0.091 A 
ATOM     93  F   UNL A   1      43.510  26.643  36.760  1.00  0.00    -0.205 F 
ATOM     94  C   UNL A   1      47.157  26.920  36.645  1.00  0.00     0.022 A 
BRANCH  92  95
ATOM     95  S   UNL A   1      45.782  25.099  38.159  1.00  0.00     0.127 S 
ATOM     96  O   UNL A   1      44.858  25.626  39.161  1.00  0.00    -0.237 OA
ATOM     97  O   UNL A   1      45.234  24.025  37.330  1.00  0.00    -0.237 OA
ATOM     98  O   UNL A   1      47.144  24.871  38.622  1.00  0.00    -0.744 OA
ENDBRANCH  92  95
ENDBRANCH  65  88
ENDBRANCH  39  40
ENDBRANCH  32  34
ENDBRANCH  31  32
ENDBRANCH  30  31
ENDBRANCH  29  30
ENDBRANCH  28  29
ENDBRANCH  27  28
ENDBRANCH   1  27
TORSDOF 24
ENDMDL
MODEL 3
REMARK VINA RESULT:      -9.5      1.810      3.571
REMARK SMILES O=C(N[C@@H]1[C@@H](C(=O)OCCOCCOCCOC(=O)c2ccc(-c3c4nc(c(-c5cccc(S(=O)(=O)[O-])c5F)c5ccc([nH]5)c(-c5cccc(S(=O)(=O)[O-])c5F)c5nc(c(-c6cccc(S(=O)(=O)[O-])c6F)c6ccc3[nH]6)C=C5)C=C4)cc2)[C@H]2C=C[C@@H]1C2)OCc1ccccc1
REMARK SMILES IDX 12 1 11 2 10 3 9 4 8 5 6 6 7 7 5 8 4 9 86 10 83 11 85 12
REMARK SMILES IDX 87 13 84 14 3 15 1 16 2 17 88 19 89 20 90 21 91 22 95 23
REMARK SMILES IDX 92 24 94 25 93 26 13 27 14 28 15 29 16 30 17 31 18 32 19 33
REMARK SMILES IDX 20 34 21 35 82 36 22 37 81 38 23 39 24 40 25 41 75 42 26 43
REMARK SMILES IDX 80 44 74 45 76 46 27 47 79 48 73 49 72 50 28 52 60 53 40 54
REMARK SMILES IDX 59 55 41 56 44 57 58 58 77 59 42 60 43 61 57 63 78 64 45 65
REMARK SMILES IDX 29 66 30 67 38 68 31 69 33 70 39 71 32 72 34 73 35 74 36 75
REMARK SMILES IDX 37 76 61 77 62 78 70 79 63 80 65 81 71 82 64 83 66 84 67 85
REMARK SMILES IDX 68 86 69 87 46 88 47 89 55 90 48 91 50 92 56 93 49 94 51 95
REMARK SMILES IDX 52 96 53 97 54 98
REMARK H PARENT 3 18 76 51 44 62
REMARK Flexibility Score: inf
ROOT
ATOM      1  C   UNL A   1      35.661  31.252  28.208  1.00  0.00     0.188 C 
ENDROOT
BRANCH   1   2
ATOM      2  O   UNL A   1      35.078  29.971  28.006  1.00  0.00    -0.376 OA
BRANCH   2   3
ATOM      3  C   UNL A   1      33.881  29.880  27.232  1.00  0.00     0.202 C 
BRANCH   3   4
ATOM      4  C   UNL A   1      33.054  28.586  27.305  1.00  0.00     0.261 C 
BRANCH   4   5
ATOM      5  O   UNL A   1      32.570  28.164  26.016  1.00  0.00    -0.463 OA
BRANCH   5   6
ATOM      6  C   UNL A   1      31.654  27.164  26.001  1.00  0.00     0.311 C 
ATOM      7  O   UNL A   1      31.448  26.395  26.933  1.00  0.00    -0.252 OA
BRANCH   6   8
ATOM      8  C   UNL A   1      30.814  27.163  24.739  1.00  0.00     0.129 C 
ATOM      9  C   UNL A   1      31.557  26.379  23.604  1.00  0.00     0.107 C 
ATOM     10  C   UNL A   1      31.466  27.371  22.409  1.00  0.00     0.035 C 
ATOM     11  C   UNL A   1      30.557  28.549  24.078  1.00  0.00     0.028 C 
ATOM     12  C   UNL A   1      32.406  28.522  22.724  1.00  0.00    -0.025 C 
ATOM     13  C   UNL A   1      30.155  28.120  22.672  1.00  0.00     0.018 C 
ATOM     14  C   UNL A   1      31.855  29.225  23.724  1.00  0.00    -0.027 C 
BRANCH   9  15
ATOM     15  N   UNL A   1      31.078  25.008  23.407  1.00  0.00    -0.317 N 
ATOM     16  O   UNL A   1      31.174  22.763  23.209  1.00  0.00    -0.225 OA
ATOM     17  C   UNL A   1      31.700  23.803  23.556  1.00  0.00     0.407 C 
ATOM     18  H   UNL A   1      30.139  24.945  23.116  1.00  0.00     0.167 HD
BRANCH  17  19
ATOM     19  O   UNL A   1      32.959  23.918  24.025  1.00  0.00    -0.445 OA
BRANCH  19  20
ATOM     20  C   UNL A   1      34.013  23.658  23.086  1.00  0.00     0.270 C 
BRANCH  20  21
ATOM     21  C   UNL A   1      34.954  22.630  23.680  1.00  0.00    -0.011 A 
ATOM     22  C   UNL A   1      36.348  22.768  23.562  1.00  0.00     0.007 A 
ATOM     23  C   UNL A   1      34.449  21.559  24.428  1.00  0.00     0.007 A 
ATOM     24  C   UNL A   1      37.211  21.914  24.241  1.00  0.00     0.000 A 
ATOM     25  C   UNL A   1      35.313  20.683  25.082  1.00  0.00     0.000 A 
ATOM     26  C   UNL A   1      36.688  20.870  24.997  1.00  0.00     0.000 A 
ENDBRANCH  20  21
ENDBRANCH  19  20
ENDBRANCH  17  19
ENDBRANCH   9  15
ENDBRANCH   6   8
ENDBRANCH   5   6
ENDBRANCH   4   5
ENDBRANCH   3   4
ENDBRANCH   2   3
ENDBRANCH   1   2
BRANCH   1  27
ATOM     27  C   UNL A   1      34.767  32.490  28.015  1.00  0.00     0.188 C 
BRANCH  27  28
ATOM     28  O   UNL A   1      35.270  33.663  28.620  1.00  0.00    -0.376 OA
BRANCH  28  29
ATOM     29  C   UNL A   1      34.562  34.869  28.353  1.00  0.00     0.202 C 
BRANCH  29  30
ATOM     30  C   UNL A   1      33.227  35.186  29.067  1.00  0.00     0.261 C 
BRANCH  30  31
ATOM     31  O   UNL A   1      32.977  34.538  30.329  1.00  0.00    -0.460 OA
BRANCH  31  32
ATOM     32  C   UNL A   1      33.150  35.280  31.448  1.00  0.00     0.338 C 
ATOM     33  O   UNL A   1      32.413  36.159  31.860  1.00  0.00    -0.246 OA
BRANCH  32  34
ATOM     34  C   UNL A   1      34.297  34.751  32.220  1.00  0.00     0.060 A 
ATOM     35  C   UNL A   1      35.548  35.347  32.044  1.00  0.00     0.016 A 
ATOM     36  C   UNL A   1      34.185  33.606  33.005  1.00  0.00     0.016 A 
ATOM     37  C   UNL A   1      36.695  34.783  32.596  1.00  0.00     0.010 A 
ATOM     38  C   UNL A   1      35.340  33.050  33.583  1.00  0.00     0.010 A 
ATOM     39  C   UNL A   1      36.610  33.613  33.352  1.00  0.00    -0.014 A 
BRANCH  39  40
ATOM     40  C   UNL A   1      37.864  32.931  33.776  1.00  0.00     0.031 A 
ATOM     41  C   UNL A   1      38.405  31.797  32.946  1.00  0.00     0.074 A 
ATOM     42  C   UNL A   1      38.552  33.351  34.856  1.00  0.00     0.049 A 
ATOM     43  N   UNL A   1      39.413  30.999  33.188  1.00  0.00    -0.248 NA
ATOM     44  C   UNL A   1      37.719  31.524  31.673  1.00  0.00     0.031 C 
ATOM     45  C   UNL A   1      38.181  34.483  35.709  1.00  0.00     0.029 A 
ATOM     46  N   UNL A   1      39.704  32.867  35.430  1.00  0.00    -0.354 N 
ATOM     47  C   UNL A   1      39.440  30.090  32.135  1.00  0.00     0.074 A 
ATOM     48  C   UNL A   1      38.353  30.442  31.248  1.00  0.00     0.031 C 
ATOM     49  C   UNL A   1      39.080  34.599  36.699  1.00  0.00     0.029 A 
ATOM     50  C   UNL A   1      40.050  33.514  36.594  1.00  0.00     0.049 A 
ATOM     51  H   UNL A   1      40.230  32.131  35.043  1.00  0.00     0.167 HD
ATOM     52  C   UNL A   1      40.294  29.059  31.926  1.00  0.00     0.034 A 
ATOM     53  C   UNL A   1      41.008  33.234  37.501  1.00  0.00     0.034 A 
ATOM     54  C   UNL A   1      41.400  28.739  32.789  1.00  0.00     0.049 A 
ATOM     55  C   UNL A   1      41.915  32.056  37.268  1.00  0.00     0.074 A 
ATOM     56  C   UNL A   1      42.333  27.726  32.651  1.00  0.00     0.029 A 
ATOM     57  N   UNL A   1      41.720  29.420  33.953  1.00  0.00    -0.354 N 
ATOM     58  N   UNL A   1      41.950  31.227  36.253  1.00  0.00    -0.248 NA
ATOM     59  C   UNL A   1      42.929  31.785  38.298  1.00  0.00     0.031 C 
ATOM     60  C   UNL A   1      43.194  27.772  33.753  1.00  0.00     0.029 A 
ATOM     61  C   UNL A   1      42.827  28.843  34.552  1.00  0.00     0.049 A 
ATOM     62  H   UNL A   1      41.232  30.201  34.303  1.00  0.00     0.167 HD
ATOM     63  C   UNL A   1      43.006  30.357  36.505  1.00  0.00     0.074 A 
ATOM     64  C   UNL A   1      43.601  30.779  37.757  1.00  0.00     0.031 C 
ATOM     65  C   UNL A   1      43.436  29.298  35.776  1.00  0.00     0.034 A 
BRANCH  52  66
ATOM     66  C   UNL A   1      40.054  28.187  30.719  1.00  0.00     0.023 A 
ATOM     67  C   UNL A   1      39.051  27.196  30.744  1.00  0.00     0.012 A 
ATOM     68  C   UNL A   1      40.802  28.380  29.541  1.00  0.00     0.148 A 
ATOM     69  C   UNL A   1      38.825  26.387  29.630  1.00  0.00     0.002 A 
ATOM     70  C   UNL A   1      40.539  27.604  28.419  1.00  0.00     0.091 A 
ATOM     71  F   UNL A   1      41.765  29.314  29.542  1.00  0.00    -0.205 F 
ATOM     72  C   UNL A   1      39.562  26.597  28.467  1.00  0.00     0.022 A 
BRANCH  70  73
ATOM     73  S   UNL A   1      41.377  27.850  26.850  1.00  0.00     0.127 S 
ATOM     74  O   UNL A   1      40.858  26.734  26.060  1.00  0.00    -0.237 OA
ATOM     75  O   UNL A   1      40.884  29.166  26.443  1.00  0.00    -0.237 OA
ATOM     76  O   UNL A   1      42.802  27.797  27.141  1.00  0.00    -0.744 OA
ENDBRANCH  70  73
ENDBRANCH  52  66
BRANCH  53  77
ATOM     77  C   UNL A   1      41.152  34.076  38.725  1.00  0.00     0.023 A 
ATOM     78  C   UNL A   1      42.165  35.052  38.789  1.00  0.00     0.012 A 
ATOM     79  C   UNL A   1      40.286  33.915  39.825  1.00  0.00     0.148 A 
ATOM     80  C   UNL A   1      42.333  35.829  39.936  1.00  0.00     0.002 A 
ATOM     81  C   UNL A   1      40.419  34.734  40.939  1.00  0.00     0.091 A 
ATOM     82  F   UNL A   1      39.341  32.967  39.755  1.00  0.00    -0.205 F 
ATOM     83  C   UNL A   1      41.454  35.679  41.005  1.00  0.00     0.022 A 
BRANCH  81  84
ATOM     84  S   UNL A   1      39.255  34.698  42.307  1.00  0.00     0.127 S 
ATOM     85  O   UNL A   1      38.178  35.548  41.805  1.00  0.00    -0.237 OA
ATOM     86  O   UNL A   1      38.931  33.273  42.387  1.00  0.00    -0.237 OA
ATOM     87  O   UNL A   1      39.983  35.215  43.457  1.00  0.00    -0.744 OA
ENDBRANCH  81  84
ENDBRANCH  53  77
BRANCH  65  88
ATOM     88  C   UNL A   1      44.637  28.543  36.287  1.00  0.00     0.023 A 
ATOM     89  C   UNL A   1      45.937  28.960  35.937  1.00  0.00     0.012 A 
ATOM     90  C   UNL A   1      44.476  27.449  37.159  1.00  0.00     0.148 A 
ATOM     91  C   UNL A   1      47.055  28.270  36.408  1.00  0.00     0.002 A 
ATOM     92  C   UNL A   1      45.594  26.802  37.670  1.00  0.00     0.091 A 
ATOM     93  F   UNL A   1      43.231  27.056  37.470  1.00  0.00    -0.205 F 
ATOM     94  C   UNL A   1      46.883  27.200  37.283  1.00  0.00     0.022 A 
BRANCH  92  95
ATOM     95  S   UNL A   1      45.473  25.479  38.881  1.00  0.00     0.127 S 
ATOM     96  O   UNL A   1      44.848  24.415  38.097  1.00  0.00    -0.237 OA
ATOM     97  O   UNL A   1      46.876  25.242  39.221  1.00  0.00    -0.237 OA
ATOM     98  O   UNL A   1      44.667  26.007  39.973  1.00  0.00    -0.744 OA
ENDBRANCH  92  95
ENDBRANCH  65  88
ENDBRANCH  39  40
ENDBRANCH  32  34
ENDBRANCH  31  32
ENDBRANCH  30  31
ENDBRANCH  29  30
ENDBRANCH  28  29
ENDBRANCH  27  28
ENDBRANCH   1  27
TORSDOF 24
ENDMDL
