MODEL 1
REMARK VINA RESULT:      -9.6      0.000      0.000
REMARK SMILES Cc1cc(N2CC[C@H](CC(=O)OCCOCCOCCOC(=O)c3ccc(-c4c5nc(c(-c6cccc(S(=O)(=O)[O-])c6F)c6ccc([nH]6)c(-c6cccc(S(=O)(=O)[O-])c6F)c6nc(c(-c7cccc(S(=O)(=O)[O-])c7F)c7ccc4[nH]7)C=C6)C=C5)cc3)C2)ncc1[N+](=O)[O-]
REMARK SMILES IDX 16 1 15 2 14 3 13 4 12 5 10 6 11 7 9 8 8 9 5 10 6 11 87 12
REMARK SMILES IDX 7 13 4 14 1 15 2 16 3 17 90 18 89 19 88 20 91 21 92 22 93 23
REMARK SMILES IDX 17 24 18 25 19 26 20 27 21 28 22 29 23 30 24 31 25 32 86 33
REMARK SMILES IDX 26 34 85 35 27 36 28 37 29 38 79 39 30 40 84 41 78 42 80 43
REMARK SMILES IDX 31 44 83 45 77 46 76 47 32 49 64 50 44 51 63 52 45 53 48 54
REMARK SMILES IDX 62 55 81 56 46 57 47 58 61 60 82 61 49 62 33 63 34 64 42 65
REMARK SMILES IDX 35 66 37 67 43 68 36 69 38 70 39 71 40 72 41 73 65 74 66 75
REMARK SMILES IDX 74 76 67 77 69 78 75 79 68 80 70 81 71 82 72 83 73 84 50 85
REMARK SMILES IDX 51 86 59 87 52 88 54 89 60 90 53 91 55 92 56 93 57 94 58 95
REMARK H PARENT 80 48 48 59
REMARK Flexibility Score: inf
ROOT
ATOM      1  C   UNL A   1      40.183  22.168  26.770  1.00  0.00     0.188 C 
ENDROOT
BRANCH   1   2
ATOM      2  O   UNL A   1      39.849  23.414  26.167  1.00  0.00    -0.376 OA
BRANCH   2   3
ATOM      3  C   UNL A   1      38.647  24.042  26.611  1.00  0.00     0.202 C 
BRANCH   3   4
ATOM      4  C   UNL A   1      37.335  23.413  26.119  1.00  0.00     0.261 C 
BRANCH   4   5
ATOM      5  O   UNL A   1      37.501  22.559  24.966  1.00  0.00    -0.463 OA
BRANCH   5   6
ATOM      6  C   UNL A   1      36.814  21.387  25.003  1.00  0.00     0.306 C 
ATOM      7  O   UNL A   1      37.332  20.276  24.980  1.00  0.00    -0.252 OA
BRANCH   6   8
ATOM      8  C   UNL A   1      35.317  21.551  25.178  1.00  0.00     0.128 C 
BRANCH   8   9
ATOM      9  C   UNL A   1      34.417  21.589  23.944  1.00  0.00     0.021 C 
ATOM     10  N   UNL A   1      33.128  23.119  22.640  1.00  0.00    -0.356 N 
ATOM     11  C   UNL A   1      32.255  22.012  23.021  1.00  0.00     0.118 C 
ATOM     12  C   UNL A   1      34.442  22.984  23.273  1.00  0.00     0.122 C 
ATOM     13  C   UNL A   1      32.932  21.394  24.236  1.00  0.00     0.027 C 
BRANCH  10  14
ATOM     14  C   UNL A   1      32.585  24.393  22.609  1.00  0.00     0.129 A 
ATOM     15  C   UNL A   1      29.655  26.150  24.240  1.00  0.00     0.052 C 
ATOM     16  C   UNL A   1      30.869  25.964  23.371  1.00  0.00     0.032 A 
ATOM     17  C   UNL A   1      31.410  24.660  23.312  1.00  0.00     0.057 A 
ATOM     18  C   UNL A   1      31.519  26.955  22.626  1.00  0.00     0.290 A 
ATOM     19  C   UNL A   1      32.670  26.607  21.927  1.00  0.00     0.199 A 
ATOM     20  N   UNL A   1      33.214  25.364  21.919  1.00  0.00    -0.232 NA
BRANCH  18  21
ATOM     21  N   UNL A   1      31.081  28.344  22.525  1.00  0.00     0.064 N 
ATOM     22  O   UNL A   1      30.110  28.585  21.789  1.00  0.00    -0.258 OA
ATOM     23  O   UNL A   1      31.669  29.204  23.193  1.00  0.00    -0.258 OA
ENDBRANCH  18  21
ENDBRANCH  10  14
ENDBRANCH   8   9
ENDBRANCH   6   8
ENDBRANCH   5   6
ENDBRANCH   4   5
ENDBRANCH   3   4
ENDBRANCH   2   3
ENDBRANCH   1   2
BRANCH   1  24
ATOM     24  C   UNL A   1      41.635  21.714  26.601  1.00  0.00     0.188 C 
BRANCH  24  25
ATOM     25  O   UNL A   1      41.843  20.693  25.629  1.00  0.00    -0.376 OA
BRANCH  25  26
ATOM     26  C   UNL A   1      42.264  19.422  26.131  1.00  0.00     0.202 C 
BRANCH  26  27
ATOM     27  C   UNL A   1      43.478  18.771  25.433  1.00  0.00     0.261 C 
BRANCH  27  28
ATOM     28  O   UNL A   1      43.985  19.495  24.291  1.00  0.00    -0.460 OA
BRANCH  28  29
ATOM     29  C   UNL A   1      45.224  20.027  24.393  1.00  0.00     0.338 C 
ATOM     30  O   UNL A   1      46.240  19.593  23.873  1.00  0.00    -0.246 OA
BRANCH  29  31
ATOM     31  C   UNL A   1      45.115  21.375  25.012  1.00  0.00     0.060 A 
ATOM     32  C   UNL A   1      44.671  22.434  24.206  1.00  0.00     0.016 A 
ATOM     33  C   UNL A   1      45.374  21.597  26.370  1.00  0.00     0.016 A 
ATOM     34  C   UNL A   1      44.538  23.718  24.739  1.00  0.00     0.010 A 
ATOM     35  C   UNL A   1      45.247  22.889  26.900  1.00  0.00     0.010 A 
ATOM     36  C   UNL A   1      44.867  23.964  26.078  1.00  0.00    -0.014 A 
BRANCH  36  37
ATOM     37  C   UNL A   1      44.995  25.367  26.552  1.00  0.00     0.031 A 
ATOM     38  C   UNL A   1      46.350  26.025  26.490  1.00  0.00     0.074 A 
ATOM     39  C   UNL A   1      43.934  26.069  26.996  1.00  0.00     0.049 A 
ATOM     40  N   UNL A   1      46.692  27.249  26.794  1.00  0.00    -0.248 NA
ATOM     41  C   UNL A   1      47.466  25.188  26.019  1.00  0.00     0.031 C 
ATOM     42  C   UNL A   1      42.570  25.561  27.116  1.00  0.00     0.029 A 
ATOM     43  N   UNL A   1      43.852  27.365  27.443  1.00  0.00    -0.354 N 
ATOM     44  C   UNL A   1      48.060  27.328  26.567  1.00  0.00     0.074 A 
ATOM     45  C   UNL A   1      48.491  26.021  26.120  1.00  0.00     0.031 C 
ATOM     46  C   UNL A   1      41.788  26.531  27.623  1.00  0.00     0.029 A 
ATOM     47  C   UNL A   1      42.597  27.724  27.876  1.00  0.00     0.049 A 
ATOM     48  H   UNL A   1      44.620  27.981  27.453  1.00  0.00     0.167 HD
ATOM     49  C   UNL A   1      48.887  28.393  26.694  1.00  0.00     0.034 A 
ATOM     50  C   UNL A   1      42.155  28.876  28.422  1.00  0.00     0.034 A 
ATOM     51  C   UNL A   1      48.470  29.698  27.126  1.00  0.00     0.049 A 
ATOM     52  C   UNL A   1      43.103  30.040  28.581  1.00  0.00     0.074 A 
ATOM     53  C   UNL A   1      49.232  30.847  27.244  1.00  0.00     0.029 A 
ATOM     54  N   UNL A   1      47.186  30.029  27.528  1.00  0.00    -0.354 N 
ATOM     55  N   UNL A   1      44.362  30.137  28.229  1.00  0.00    -0.248 NA
ATOM     56  C   UNL A   1      42.556  31.269  29.178  1.00  0.00     0.031 C 
ATOM     57  C   UNL A   1      48.414  31.867  27.741  1.00  0.00     0.029 A 
ATOM     58  C   UNL A   1      47.136  31.360  27.905  1.00  0.00     0.049 A 
ATOM     59  H   UNL A   1      46.421  29.409  27.542  1.00  0.00     0.167 HD
ATOM     60  C   UNL A   1      44.744  31.442  28.529  1.00  0.00     0.074 A 
ATOM     61  C   UNL A   1      43.576  32.107  29.066  1.00  0.00     0.031 C 
ATOM     62  C   UNL A   1      45.958  32.033  28.387  1.00  0.00     0.034 A 
BRANCH  49  63
ATOM     63  C   UNL A   1      50.334  28.196  26.330  1.00  0.00     0.023 A 
ATOM     64  C   UNL A   1      51.269  27.893  27.341  1.00  0.00     0.012 A 
ATOM     65  C   UNL A   1      50.756  28.254  24.988  1.00  0.00     0.148 A 
ATOM     66  C   UNL A   1      52.609  27.677  27.024  1.00  0.00     0.002 A 
ATOM     67  C   UNL A   1      52.084  27.994  24.675  1.00  0.00     0.091 A 
ATOM     68  F   UNL A   1      49.855  28.568  24.048  1.00  0.00    -0.205 F 
ATOM     69  C   UNL A   1      53.014  27.716  25.692  1.00  0.00     0.022 A 
BRANCH  67  70
ATOM     70  S   UNL A   1      52.690  27.946  22.986  1.00  0.00     0.127 S 
ATOM     71  O   UNL A   1      51.963  26.799  22.445  1.00  0.00    -0.237 OA
ATOM     72  O   UNL A   1      52.257  29.244  22.467  1.00  0.00    -0.237 OA
ATOM     73  O   UNL A   1      54.133  27.781  23.082  1.00  0.00    -0.744 OA
ENDBRANCH  67  70
ENDBRANCH  49  63
BRANCH  50  74
ATOM     74  C   UNL A   1      40.728  29.013  28.835  1.00  0.00     0.023 A 
ATOM     75  C   UNL A   1      39.739  29.261  27.862  1.00  0.00     0.012 A 
ATOM     76  C   UNL A   1      40.350  28.921  30.188  1.00  0.00     0.148 A 
ATOM     77  C   UNL A   1      38.407  29.452  28.234  1.00  0.00     0.002 A 
ATOM     78  C   UNL A   1      39.013  29.056  30.546  1.00  0.00     0.091 A 
ATOM     79  F   UNL A   1      41.308  28.710  31.102  1.00  0.00    -0.205 F 
ATOM     80  C   UNL A   1      38.043  29.339  29.572  1.00  0.00     0.022 A 
BRANCH  78  81
ATOM     81  S   UNL A   1      38.438  28.810  32.230  1.00  0.00     0.127 S 
ATOM     82  O   UNL A   1      39.070  29.926  32.928  1.00  0.00    -0.237 OA
ATOM     83  O   UNL A   1      36.989  28.922  32.071  1.00  0.00    -0.237 OA
ATOM     84  O   UNL A   1      38.900  27.482  32.609  1.00  0.00    -0.744 OA
ENDBRANCH  78  81
ENDBRANCH  50  74
BRANCH  62  85
ATOM     85  C   UNL A   1      46.087  33.484  28.783  1.00  0.00     0.023 A 
ATOM     86  C   UNL A   1      46.518  33.823  30.081  1.00  0.00     0.012 A 
ATOM     87  C   UNL A   1      45.842  34.511  27.848  1.00  0.00     0.148 A 
ATOM     88  C   UNL A   1      46.662  35.159  30.456  1.00  0.00     0.002 A 
ATOM     89  C   UNL A   1      46.037  35.838  28.214  1.00  0.00     0.091 A 
ATOM     90  F   UNL A   1      45.417  34.174  26.623  1.00  0.00    -0.205 F 
ATOM     91  C   UNL A   1      46.434  36.165  29.520  1.00  0.00     0.022 A 
BRANCH  89  92
ATOM     92  S   UNL A   1      45.858  37.193  27.046  1.00  0.00     0.127 S 
ATOM     93  O   UNL A   1      44.415  37.198  26.814  1.00  0.00    -0.237 OA
ATOM     94  O   UNL A   1      46.356  38.336  27.814  1.00  0.00    -0.237 OA
ATOM     95  O   UNL A   1      46.679  36.839  25.897  1.00  0.00    -0.744 OA
ENDBRANCH  89  92
ENDBRANCH  62  85
ENDBRANCH  36  37
ENDBRANCH  29  31
ENDBRANCH  28  29
ENDBRANCH  27  28
ENDBRANCH  26  27
ENDBRANCH  25  26
ENDBRANCH  24  25
ENDBRANCH   1  24
TORSDOF 23
ENDMDL
MODEL 2
REMARK VINA RESULT:      -9.5      0.939      7.645
REMARK SMILES Cc1cc(N2CC[C@H](CC(=O)OCCOCCOCCOC(=O)c3ccc(-c4c5nc(c(-c6cccc(S(=O)(=O)[O-])c6F)c6ccc([nH]6)c(-c6cccc(S(=O)(=O)[O-])c6F)c6nc(c(-c7cccc(S(=O)(=O)[O-])c7F)c7ccc4[nH]7)C=C6)C=C5)cc3)C2)ncc1[N+](=O)[O-]
REMARK SMILES IDX 16 1 15 2 14 3 13 4 12 5 10 6 11 7 9 8 8 9 5 10 6 11 87 12
REMARK SMILES IDX 7 13 4 14 1 15 2 16 3 17 90 18 89 19 88 20 91 21 92 22 93 23
REMARK SMILES IDX 17 24 18 25 19 26 20 27 21 28 22 29 23 30 24 31 25 32 86 33
REMARK SMILES IDX 26 34 85 35 27 36 28 37 29 38 79 39 30 40 84 41 78 42 80 43
REMARK SMILES IDX 31 44 83 45 77 46 76 47 32 49 64 50 44 51 63 52 45 53 48 54
REMARK SMILES IDX 62 55 81 56 46 57 47 58 61 60 82 61 49 62 33 63 34 64 42 65
REMARK SMILES IDX 35 66 37 67 43 68 36 69 38 70 39 71 40 72 41 73 65 74 66 75
REMARK SMILES IDX 74 76 67 77 69 78 75 79 68 80 70 81 71 82 72 83 73 84 50 85
REMARK SMILES IDX 51 86 59 87 52 88 54 89 60 90 53 91 55 92 56 93 57 94 58 95
REMARK H PARENT 80 48 48 59
REMARK Flexibility Score: inf
ROOT
ATOM      1  C   UNL A   1      40.114  22.098  26.941  1.00  0.00     0.188 C 
ENDROOT
BRANCH   1   2
ATOM      2  O   UNL A   1      39.808  23.365  26.367  1.00  0.00    -0.376 OA
BRANCH   2   3
ATOM      3  C   UNL A   1      38.689  24.064  26.910  1.00  0.00     0.202 C 
BRANCH   3   4
ATOM      4  C   UNL A   1      37.354  23.878  26.172  1.00  0.00     0.261 C 
BRANCH   4   5
ATOM      5  O   UNL A   1      37.494  23.268  24.870  1.00  0.00    -0.463 OA
BRANCH   5   6
ATOM      6  C   UNL A   1      36.897  22.056  24.725  1.00  0.00     0.306 C 
ATOM      7  O   UNL A   1      37.487  21.018  24.444  1.00  0.00    -0.252 OA
BRANCH   6   8
ATOM      8  C   UNL A   1      35.414  22.054  25.039  1.00  0.00     0.128 C 
BRANCH   8   9
ATOM      9  C   UNL A   1      34.405  22.142  23.895  1.00  0.00     0.021 C 
ATOM     10  N   UNL A   1      33.041  23.733  22.748  1.00  0.00    -0.356 N 
ATOM     11  C   UNL A   1      32.178  22.639  23.186  1.00  0.00     0.118 C 
ATOM     12  C   UNL A   1      34.405  23.552  23.254  1.00  0.00     0.122 C 
ATOM     13  C   UNL A   1      32.948  21.977  24.320  1.00  0.00     0.027 C 
BRANCH  10  14
ATOM     14  C   UNL A   1      32.531  25.020  22.794  1.00  0.00     0.129 A 
ATOM     15  C   UNL A   1      33.944  28.523  22.551  1.00  0.00     0.052 C 
ATOM     16  C   UNL A   1      32.917  27.436  22.706  1.00  0.00     0.032 A 
ATOM     17  C   UNL A   1      33.401  26.110  22.742  1.00  0.00     0.057 A 
ATOM     18  C   UNL A   1      31.531  27.608  22.806  1.00  0.00     0.290 A 
ATOM     19  C   UNL A   1      30.728  26.475  22.882  1.00  0.00     0.199 A 
ATOM     20  N   UNL A   1      31.198  25.202  22.863  1.00  0.00    -0.232 NA
BRANCH  18  21
ATOM     21  N   UNL A   1      30.851  28.900  22.835  1.00  0.00     0.064 N 
ATOM     22  O   UNL A   1      30.337  29.299  21.778  1.00  0.00    -0.258 OA
ATOM     23  O   UNL A   1      30.792  29.518  23.906  1.00  0.00    -0.258 OA
ENDBRANCH  18  21
ENDBRANCH  10  14
ENDBRANCH   8   9
ENDBRANCH   6   8
ENDBRANCH   5   6
ENDBRANCH   4   5
ENDBRANCH   3   4
ENDBRANCH   2   3
ENDBRANCH   1   2
BRANCH   1  24
ATOM     24  C   UNL A   1      41.560  21.624  26.778  1.00  0.00     0.188 C 
BRANCH  24  25
ATOM     25  O   UNL A   1      41.760  20.607  25.801  1.00  0.00    -0.376 OA
BRANCH  25  26
ATOM     26  C   UNL A   1      42.192  19.336  26.293  1.00  0.00     0.202 C 
BRANCH  26  27
ATOM     27  C   UNL A   1      43.307  18.628  25.493  1.00  0.00     0.261 C 
BRANCH  27  28
ATOM     28  O   UNL A   1      43.777  19.349  24.334  1.00  0.00    -0.460 OA
BRANCH  28  29
ATOM     29  C   UNL A   1      45.073  19.738  24.327  1.00  0.00     0.338 C 
ATOM     30  O   UNL A   1      46.001  19.145  23.800  1.00  0.00    -0.246 OA
BRANCH  29  31
ATOM     31  C   UNL A   1      45.153  21.137  24.827  1.00  0.00     0.060 A 
ATOM     32  C   UNL A   1      44.926  22.175  23.912  1.00  0.00     0.016 A 
ATOM     33  C   UNL A   1      45.378  21.437  26.176  1.00  0.00     0.016 A 
ATOM     34  C   UNL A   1      44.977  23.506  24.329  1.00  0.00     0.010 A 
ATOM     35  C   UNL A   1      45.437  22.775  26.590  1.00  0.00     0.010 A 
ATOM     36  C   UNL A   1      45.276  23.818  25.662  1.00  0.00    -0.014 A 
BRANCH  36  37
ATOM     37  C   UNL A   1      45.605  25.220  26.027  1.00  0.00     0.031 A 
ATOM     38  C   UNL A   1      44.489  26.123  26.488  1.00  0.00     0.074 A 
ATOM     39  C   UNL A   1      46.868  25.688  25.992  1.00  0.00     0.049 A 
ATOM     40  N   UNL A   1      44.543  27.360  26.907  1.00  0.00    -0.248 NA
ATOM     41  C   UNL A   1      43.132  25.551  26.475  1.00  0.00     0.031 C 
ATOM     42  C   UNL A   1      48.042  24.931  25.564  1.00  0.00     0.029 A 
ATOM     43  N   UNL A   1      47.364  26.928  26.314  1.00  0.00    -0.354 N 
ATOM     44  C   UNL A   1      43.233  27.720  27.194  1.00  0.00     0.074 A 
ATOM     45  C   UNL A   1      42.401  26.578  26.880  1.00  0.00     0.031 C 
ATOM     46  C   UNL A   1      49.123  25.731  25.632  1.00  0.00     0.029 A 
ATOM     47  C   UNL A   1      48.716  27.058  26.095  1.00  0.00     0.049 A 
ATOM     48  H   UNL A   1      46.805  27.657  26.668  1.00  0.00     0.167 HD
ATOM     49  C   UNL A   1      42.757  28.885  27.695  1.00  0.00     0.034 A 
ATOM     50  C   UNL A   1      49.528  28.125  26.242  1.00  0.00     0.034 A 
ATOM     51  C   UNL A   1      43.573  30.022  28.022  1.00  0.00     0.049 A 
ATOM     52  C   UNL A   1      48.969  29.422  26.775  1.00  0.00     0.074 A 
ATOM     53  C   UNL A   1      43.180  31.229  28.574  1.00  0.00     0.029 A 
ATOM     54  N   UNL A   1      44.940  30.105  27.813  1.00  0.00    -0.354 N 
ATOM     55  N   UNL A   1      47.750  29.698  27.172  1.00  0.00    -0.248 NA
ATOM     56  C   UNL A   1      49.910  30.546  26.916  1.00  0.00     0.031 C 
ATOM     57  C   UNL A   1      44.307  32.052  28.675  1.00  0.00     0.029 A 
ATOM     58  C   UNL A   1      45.405  31.345  28.214  1.00  0.00     0.049 A 
ATOM     59  H   UNL A   1      45.498  29.386  27.436  1.00  0.00     0.167 HD
ATOM     60  C   UNL A   1      47.788  31.010  27.640  1.00  0.00     0.074 A 
ATOM     61  C   UNL A   1      49.155  31.463  27.503  1.00  0.00     0.031 C 
ATOM     62  C   UNL A   1      46.777  31.774  28.126  1.00  0.00     0.034 A 
BRANCH  49  63
ATOM     63  C   UNL A   1      41.277  28.978  27.951  1.00  0.00     0.023 A 
ATOM     64  C   UNL A   1      40.401  29.232  26.876  1.00  0.00     0.012 A 
ATOM     65  C   UNL A   1      40.751  28.758  29.238  1.00  0.00     0.148 A 
ATOM     66  C   UNL A   1      39.024  29.292  27.083  1.00  0.00     0.002 A 
ATOM     67  C   UNL A   1      39.375  28.777  29.429  1.00  0.00     0.091 A 
ATOM     68  F   UNL A   1      41.603  28.544  30.249  1.00  0.00    -0.205 F 
ATOM     69  C   UNL A   1      38.511  29.054  28.356  1.00  0.00     0.022 A 
BRANCH  67  70
ATOM     70  S   UNL A   1      38.611  28.409  31.011  1.00  0.00     0.127 S 
ATOM     71  O   UNL A   1      37.273  28.970  30.830  1.00  0.00    -0.237 OA
ATOM     72  O   UNL A   1      38.660  26.947  31.044  1.00  0.00    -0.237 OA
ATOM     73  O   UNL A   1      39.433  29.067  32.017  1.00  0.00    -0.744 OA
ENDBRANCH  67  70
ENDBRANCH  49  63
BRANCH  50  74
ATOM     74  C   UNL A   1      50.980  28.017  25.914  1.00  0.00     0.023 A 
ATOM     75  C   UNL A   1      51.919  27.833  26.948  1.00  0.00     0.012 A 
ATOM     76  C   UNL A   1      51.434  28.116  24.585  1.00  0.00     0.148 A 
ATOM     77  C   UNL A   1      53.286  27.788  26.669  1.00  0.00     0.002 A 
ATOM     78  C   UNL A   1      52.793  28.014  24.307  1.00  0.00     0.091 A 
ATOM     79  F   UNL A   1      50.529  28.315  23.617  1.00  0.00    -0.205 F 
ATOM     80  C   UNL A   1      53.722  27.869  25.350  1.00  0.00     0.022 A 
BRANCH  78  81
ATOM     81  S   UNL A   1      53.433  27.989  22.629  1.00  0.00     0.127 S 
ATOM     82  O   UNL A   1      54.863  27.803  22.857  1.00  0.00    -0.237 OA
ATOM     83  O   UNL A   1      52.742  26.831  22.062  1.00  0.00    -0.237 OA
ATOM     84  O   UNL A   1      53.044  29.265  22.045  1.00  0.00    -0.744 OA
ENDBRANCH  78  81
ENDBRANCH  50  74
BRANCH  62  85
ATOM     85  C   UNL A   1      47.109  33.174  28.583  1.00  0.00     0.023 A 
ATOM     86  C   UNL A   1      47.487  33.406  29.920  1.00  0.00     0.012 A 
ATOM     87  C   UNL A   1      47.108  34.250  27.670  1.00  0.00     0.148 A 
ATOM     88  C   UNL A   1      47.817  34.691  30.352  1.00  0.00     0.002 A 
ATOM     89  C   UNL A   1      47.487  35.517  28.097  1.00  0.00     0.091 A 
ATOM     90  F   UNL A   1      46.731  34.016  26.405  1.00  0.00    -0.205 F 
ATOM     91  C   UNL A   1      47.828  35.743  29.439  1.00  0.00     0.022 A 
BRANCH  89  92
ATOM     92  S   UNL A   1      47.621  36.911  26.969  1.00  0.00     0.127 S 
ATOM     93  O   UNL A   1      46.326  36.875  26.294  1.00  0.00    -0.237 OA
ATOM     94  O   UNL A   1      47.801  38.038  27.886  1.00  0.00    -0.237 OA
ATOM     95  O   UNL A   1      48.776  36.631  26.127  1.00  0.00    -0.744 OA
ENDBRANCH  89  92
ENDBRANCH  62  85
ENDBRANCH  36  37
ENDBRANCH  29  31
ENDBRANCH  28  29
ENDBRANCH  27  28
ENDBRANCH  26  27
ENDBRANCH  25  26
ENDBRANCH  24  25
ENDBRANCH   1  24
TORSDOF 23
ENDMDL
MODEL 3
REMARK VINA RESULT:      -9.4      1.701      8.076
REMARK SMILES Cc1cc(N2CC[C@H](CC(=O)OCCOCCOCCOC(=O)c3ccc(-c4c5nc(c(-c6cccc(S(=O)(=O)[O-])c6F)c6ccc([nH]6)c(-c6cccc(S(=O)(=O)[O-])c6F)c6nc(c(-c7cccc(S(=O)(=O)[O-])c7F)c7ccc4[nH]7)C=C6)C=C5)cc3)C2)ncc1[N+](=O)[O-]
REMARK SMILES IDX 16 1 15 2 14 3 13 4 12 5 10 6 11 7 9 8 8 9 5 10 6 11 87 12
REMARK SMILES IDX 7 13 4 14 1 15 2 16 3 17 90 18 89 19 88 20 91 21 92 22 93 23
REMARK SMILES IDX 17 24 18 25 19 26 20 27 21 28 22 29 23 30 24 31 25 32 86 33
REMARK SMILES IDX 26 34 85 35 27 36 28 37 29 38 79 39 30 40 84 41 78 42 80 43
REMARK SMILES IDX 31 44 83 45 77 46 76 47 32 49 64 50 44 51 63 52 45 53 48 54
REMARK SMILES IDX 62 55 81 56 46 57 47 58 61 60 82 61 49 62 33 63 34 64 42 65
REMARK SMILES IDX 35 66 37 67 43 68 36 69 38 70 39 71 40 72 41 73 65 74 66 75
REMARK SMILES IDX 74 76 67 77 69 78 75 79 68 80 70 81 71 82 72 83 73 84 50 85
REMARK SMILES IDX 51 86 59 87 52 88 54 89 60 90 53 91 55 92 56 93 57 94 58 95
REMARK H PARENT 80 48 48 59
REMARK Flexibility Score: inf
ROOT
ATOM      1  C   UNL A   1      35.298  20.243  24.973  1.00  0.00     0.188 C 
ENDROOT
BRANCH   1   2
ATOM      2  O   UNL A   1      34.931  21.303  25.850  1.00  0.00    -0.376 OA
BRANCH   2   3
ATOM      3  C   UNL A   1      33.810  22.097  25.465  1.00  0.00     0.202 C 
BRANCH   3   4
ATOM      4  C   UNL A   1      33.139  21.718  24.136  1.00  0.00     0.261 C 
BRANCH   4   5
ATOM      5  O   UNL A   1      33.000  22.827  23.222  1.00  0.00    -0.463 OA
BRANCH   5   6
ATOM      6  C   UNL A   1      34.151  23.478  22.914  1.00  0.00     0.306 C 
ATOM      7  O   UNL A   1      35.157  22.939  22.464  1.00  0.00    -0.252 OA
BRANCH   6   8
ATOM      8  C   UNL A   1      34.077  24.983  23.080  1.00  0.00     0.128 C 
BRANCH   8   9
ATOM      9  C   UNL A   1      33.156  25.576  24.145  1.00  0.00     0.021 C 
ATOM     10  N   UNL A   1      31.243  26.990  24.360  1.00  0.00    -0.356 N 
ATOM     11  C   UNL A   1      32.291  27.524  25.225  1.00  0.00     0.118 C 
ATOM     12  C   UNL A   1      31.745  25.860  23.573  1.00  0.00     0.122 C 
ATOM     13  C   UNL A   1      33.582  26.949  24.659  1.00  0.00     0.027 C 
BRANCH  10  14
ATOM     14  C   UNL A   1      30.429  27.892  23.694  1.00  0.00     0.129 A 
ATOM     15  C   UNL A   1      26.703  28.386  23.245  1.00  0.00     0.052 C 
ATOM     16  C   UNL A   1      28.177  28.644  23.096  1.00  0.00     0.032 A 
ATOM     17  C   UNL A   1      29.046  27.705  23.695  1.00  0.00     0.057 A 
ATOM     18  C   UNL A   1      28.771  29.726  22.435  1.00  0.00     0.290 A 
ATOM     19  C   UNL A   1      30.157  29.831  22.453  1.00  0.00     0.199 A 
ATOM     20  N   UNL A   1      30.983  28.954  23.076  1.00  0.00    -0.232 NA
BRANCH  18  21
ATOM     21  N   UNL A   1      28.039  30.768  21.719  1.00  0.00     0.064 N 
ATOM     22  O   UNL A   1      27.929  30.646  20.489  1.00  0.00    -0.258 OA
ATOM     23  O   UNL A   1      27.543  31.698  22.366  1.00  0.00    -0.258 OA
ENDBRANCH  18  21
ENDBRANCH  10  14
ENDBRANCH   8   9
ENDBRANCH   6   8
ENDBRANCH   5   6
ENDBRANCH   4   5
ENDBRANCH   3   4
ENDBRANCH   2   3
ENDBRANCH   1   2
BRANCH   1  24
ATOM     24  C   UNL A   1      36.793  19.925  24.899  1.00  0.00     0.188 C 
BRANCH  24  25
ATOM     25  O   UNL A   1      37.635  21.033  24.592  1.00  0.00    -0.376 OA
BRANCH  25  26
ATOM     26  C   UNL A   1      38.191  21.732  25.710  1.00  0.00     0.202 C 
BRANCH  26  27
ATOM     27  C   UNL A   1      39.681  21.470  26.016  1.00  0.00     0.261 C 
BRANCH  27  28
ATOM     28  O   UNL A   1      40.046  20.077  26.122  1.00  0.00    -0.460 OA
BRANCH  28  29
ATOM     29  C   UNL A   1      41.366  19.782  26.169  1.00  0.00     0.338 C 
ATOM     30  O   UNL A   1      41.875  18.708  25.888  1.00  0.00    -0.246 OA
BRANCH  29  31
ATOM     31  C   UNL A   1      42.130  21.044  26.355  1.00  0.00     0.060 A 
ATOM     32  C   UNL A   1      42.360  21.484  27.667  1.00  0.00     0.016 A 
ATOM     33  C   UNL A   1      42.673  21.756  25.279  1.00  0.00     0.016 A 
ATOM     34  C   UNL A   1      43.082  22.656  27.901  1.00  0.00     0.010 A 
ATOM     35  C   UNL A   1      43.391  22.936  25.516  1.00  0.00     0.010 A 
ATOM     36  C   UNL A   1      43.565  23.414  26.826  1.00  0.00    -0.014 A 
BRANCH  36  37
ATOM     37  C   UNL A   1      44.076  24.788  27.074  1.00  0.00     0.031 A 
ATOM     38  C   UNL A   1      43.121  25.821  27.616  1.00  0.00     0.074 A 
ATOM     39  C   UNL A   1      45.364  25.118  26.863  1.00  0.00     0.049 A 
ATOM     40  N   UNL A   1      43.350  27.062  27.959  1.00  0.00    -0.248 NA
ATOM     41  C   UNL A   1      41.723  25.395  27.796  1.00  0.00     0.031 C 
ATOM     42  C   UNL A   1      46.395  24.226  26.338  1.00  0.00     0.029 A 
ATOM     43  N   UNL A   1      46.018  26.311  27.056  1.00  0.00    -0.354 N 
ATOM     44  C   UNL A   1      42.128  27.569  28.381  1.00  0.00     0.074 A 
ATOM     45  C   UNL A   1      41.154  26.510  28.231  1.00  0.00     0.031 C 
ATOM     46  C   UNL A   1      47.550  24.909  26.233  1.00  0.00     0.029 A 
ATOM     47  C   UNL A   1      47.338  26.290  26.671  1.00  0.00     0.049 A 
ATOM     48  H   UNL A   1      45.583  27.109  27.436  1.00  0.00     0.167 HD
ATOM     49  C   UNL A   1      41.837  28.797  28.873  1.00  0.00     0.034 A 
ATOM     50  C   UNL A   1      48.265  27.270  26.662  1.00  0.00     0.034 A 
ATOM     51  C   UNL A   1      42.796  29.855  29.038  1.00  0.00     0.049 A 
ATOM     52  C   UNL A   1      47.907  28.640  27.188  1.00  0.00     0.074 A 
ATOM     53  C   UNL A   1      42.597  31.118  29.568  1.00  0.00     0.029 A 
ATOM     54  N   UNL A   1      44.127  29.784  28.663  1.00  0.00    -0.354 N 
ATOM     55  N   UNL A   1      46.782  29.058  27.712  1.00  0.00    -0.248 NA
ATOM     56  C   UNL A   1      48.966  29.663  27.154  1.00  0.00     0.031 C 
ATOM     57  C   UNL A   1      43.804  31.821  29.489  1.00  0.00     0.029 A 
ATOM     58  C   UNL A   1      44.760  30.985  28.938  1.00  0.00     0.049 A 
ATOM     59  H   UNL A   1      44.560  28.996  28.261  1.00  0.00     0.167 HD
ATOM     60  C   UNL A   1      47.008  30.377  28.102  1.00  0.00     0.074 A 
ATOM     61  C   UNL A   1      48.385  30.678  27.778  1.00  0.00     0.031 C 
ATOM     62  C   UNL A   1      46.147  31.263  28.664  1.00  0.00     0.034 A 
BRANCH  49  63
ATOM     63  C   UNL A   1      40.416  29.056  29.299  1.00  0.00     0.023 A 
ATOM     64  C   UNL A   1      39.454  29.410  28.330  1.00  0.00     0.012 A 
ATOM     65  C   UNL A   1      40.023  28.895  30.641  1.00  0.00     0.148 A 
ATOM     66  C   UNL A   1      38.127  29.625  28.696  1.00  0.00     0.002 A 
ATOM     67  C   UNL A   1      38.690  29.068  30.991  1.00  0.00     0.091 A 
ATOM     68  F   UNL A   1      40.960  28.583  31.548  1.00  0.00    -0.205 F 
ATOM     69  C   UNL A   1      37.743  29.443  30.023  1.00  0.00     0.022 A 
BRANCH  67  70
ATOM     70  S   UNL A   1      38.081  28.785  32.655  1.00  0.00     0.127 S 
ATOM     71  O   UNL A   1      38.137  27.327  32.746  1.00  0.00    -0.237 OA
ATOM     72  O   UNL A   1      39.075  29.486  33.470  1.00  0.00    -0.237 OA
ATOM     73  O   UNL A   1      36.745  29.362  32.698  1.00  0.00    -0.744 OA
ENDBRANCH  67  70
ENDBRANCH  49  63
BRANCH  50  74
ATOM     74  C   UNL A   1      49.646  26.996  26.168  1.00  0.00     0.023 A 
ATOM     75  C   UNL A   1      50.608  26.457  27.045  1.00  0.00     0.012 A 
ATOM     76  C   UNL A   1      50.015  27.288  24.842  1.00  0.00     0.148 A 
ATOM     77  C   UNL A   1      51.921  26.248  26.621  1.00  0.00     0.002 A 
ATOM     78  C   UNL A   1      51.310  27.025  24.408  1.00  0.00     0.091 A 
ATOM     79  F   UNL A   1      49.094  27.824  24.029  1.00  0.00    -0.205 F 
ATOM     80  C   UNL A   1      52.269  26.522  25.301  1.00  0.00     0.022 A 
BRANCH  78  81
ATOM     81  S   UNL A   1      51.814  27.237  22.698  1.00  0.00     0.127 S 
ATOM     82  O   UNL A   1      52.049  28.676  22.631  1.00  0.00    -0.237 OA
ATOM     83  O   UNL A   1      53.019  26.410  22.635  1.00  0.00    -0.237 OA
ATOM     84  O   UNL A   1      50.702  26.739  21.899  1.00  0.00    -0.744 OA
ENDBRANCH  78  81
ENDBRANCH  50  74
BRANCH  62  85
ATOM     85  C   UNL A   1      46.670  32.637  29.002  1.00  0.00     0.023 A 
ATOM     86  C   UNL A   1      47.313  32.861  30.235  1.00  0.00     0.012 A 
ATOM     87  C   UNL A   1      46.581  33.692  28.070  1.00  0.00     0.148 A 
ATOM     88  C   UNL A   1      47.821  34.121  30.554  1.00  0.00     0.002 A 
ATOM     89  C   UNL A   1      47.134  34.931  28.374  1.00  0.00     0.091 A 
ATOM     90  F   UNL A   1      45.952  33.468  26.908  1.00  0.00    -0.205 F 
ATOM     91  C   UNL A   1      47.743  35.151  29.620  1.00  0.00     0.022 A 
BRANCH  89  92
ATOM     92  S   UNL A   1      47.162  36.287  27.195  1.00  0.00     0.127 S 
ATOM     93  O   UNL A   1      47.958  37.285  27.906  1.00  0.00    -0.237 OA
ATOM     94  O   UNL A   1      47.831  35.683  26.040  1.00  0.00    -0.237 OA
ATOM     95  O   UNL A   1      45.769  36.642  26.963  1.00  0.00    -0.744 OA
ENDBRANCH  89  92
ENDBRANCH  62  85
ENDBRANCH  36  37
ENDBRANCH  29  31
ENDBRANCH  28  29
ENDBRANCH  27  28
ENDBRANCH  26  27
ENDBRANCH  25  26
ENDBRANCH  24  25
ENDBRANCH   1  24
TORSDOF 23
ENDMDL
