MODEL 1
REMARK VINA RESULT:      -9.4      0.000      0.000
REMARK SMILES CN(C)S(=O)(=O)c1ccc(-n2c(CCC(=O)OCCOCCOCCOC(=O)c3ccc(-c4c5nc(c(-c6cccc(S(=O)(=O)[O-])c6F)c6ccc([nH]6)c(-c6cccc(S(=O)(=O)[O-])c6F)c6nc(c(-c7cccc(S(=O)(=O)[O-])c7F)c7ccc4[nH]7)C=C6)C=C5)cc3)ccc2-c2ccc(F)cc2)cc1
REMARK SMILES IDX 21 1 20 2 19 3 18 4 17 5 15 6 16 7 14 8 13 9 12 10 11 11
REMARK SMILES IDX 94 12 92 13 93 14 10 15 7 16 8 17 103 18 9 19 102 20 4 21
REMARK SMILES IDX 5 22 6 23 2 24 1 25 3 26 95 27 96 28 101 29 97 30 100 31
REMARK SMILES IDX 98 32 99 33 22 34 23 35 24 36 25 37 26 38 27 39 28 40 29 41
REMARK SMILES IDX 30 42 91 43 31 44 90 45 32 46 33 47 34 48 84 49 35 50 89 51
REMARK SMILES IDX 83 52 85 53 36 54 88 55 82 56 81 57 37 59 69 60 49 61 68 62
REMARK SMILES IDX 50 63 53 64 67 65 86 66 51 67 52 68 66 70 87 71 54 72 38 73
REMARK SMILES IDX 39 74 47 75 40 76 42 77 48 78 41 79 43 80 44 81 45 82 46 83
REMARK SMILES IDX 70 84 71 85 79 86 72 87 74 88 80 89 73 90 75 91 76 92 77 93
REMARK SMILES IDX 78 94 55 95 56 96 64 97 57 98 59 99 65 100 58 101 60 102
REMARK SMILES IDX 61 103 62 104 63 105
REMARK H PARENT 85 58 53 69
REMARK Flexibility Score: inf
ROOT
ATOM      1  C   UNL A   1      35.077  23.331  25.340  1.00  0.00     0.188 C 
ENDROOT
BRANCH   1   2
ATOM      2  O   UNL A   1      34.828  24.815  25.066  1.00  0.00    -0.376 OA
BRANCH   2   3
ATOM      3  C   UNL A   1      33.629  26.402  25.065  1.00  0.00     0.202 C 
BRANCH   3   4
ATOM      4  C   UNL A   1      33.855  28.025  25.578  1.00  0.00     0.261 C 
BRANCH   4   5
ATOM      5  O   UNL A   1      33.852  28.359  26.992  1.00  0.00    -0.463 OA
BRANCH   5   6
ATOM      6  C   UNL A   1      34.627  29.410  27.373  1.00  0.00     0.306 C 
ATOM      7  O   UNL A   1      34.217  30.566  27.432  1.00  0.00    -0.252 OA
BRANCH   6   8
ATOM      8  C   UNL A   1      36.054  29.042  27.778  1.00  0.00     0.129 C 
BRANCH   8   9
ATOM      9  C   UNL A   1      37.257  29.819  27.224  1.00  0.00     0.066 C 
BRANCH   9  10
ATOM     10  C   UNL A   1      38.498  29.675  28.029  1.00  0.00     0.024 A 
ATOM     11  N   UNL A   1      38.712  30.201  29.304  1.00  0.00    -0.314 N 
ATOM     12  C   UNL A   1      39.904  29.615  29.785  1.00  0.00     0.053 A 
ATOM     13  C   UNL A   1      39.661  29.050  27.619  1.00  0.00     0.024 A 
ATOM     14  C   UNL A   1      40.537  29.013  28.711  1.00  0.00     0.029 A 
BRANCH  11  15
ATOM     15  C   UNL A   1      37.851  31.095  30.040  1.00  0.00     0.046 A 
ATOM     16  C   UNL A   1      35.853  33.541  31.814  1.00  0.00     0.082 A 
ATOM     17  C   UNL A   1      37.193  34.067  30.763  1.00  0.00     0.024 A 
ATOM     18  C   UNL A   1      35.496  31.789  32.048  1.00  0.00     0.024 A 
ATOM     19  C   UNL A   1      38.179  32.862  29.867  1.00  0.00     0.028 A 
ATOM     20  C   UNL A   1      36.465  30.551  31.124  1.00  0.00     0.028 A 
BRANCH  16  21
ATOM     21  S   UNL A   1      34.631  34.683  32.373  1.00  0.00     0.242 S 
ATOM     22  O   UNL A   1      35.329  35.672  33.167  1.00  0.00    -0.207 OA
ATOM     23  O   UNL A   1      33.568  33.875  32.933  1.00  0.00    -0.207 OA
BRANCH  21  24
ATOM     24  N   UNL A   1      34.022  35.479  30.976  1.00  0.00    -0.204 NA
ATOM     25  C   UNL A   1      33.722  34.520  29.873  1.00  0.00     0.124 C 
ATOM     26  C   UNL A   1      32.859  36.367  31.204  1.00  0.00     0.124 C 
ENDBRANCH  21  24
ENDBRANCH  16  21
ENDBRANCH  11  15
BRANCH  12  27
ATOM     27  C   UNL A   1      40.381  29.575  31.175  1.00  0.00    -0.001 A 
ATOM     28  C   UNL A   1      40.320  28.381  31.912  1.00  0.00     0.013 A 
ATOM     29  C   UNL A   1      40.934  30.719  31.776  1.00  0.00     0.013 A 
ATOM     30  C   UNL A   1      40.871  28.313  33.195  1.00  0.00     0.040 A 
ATOM     31  C   UNL A   1      41.495  30.646  33.052  1.00  0.00     0.040 A 
ATOM     32  C   UNL A   1      41.465  29.443  33.746  1.00  0.00     0.123 A 
ATOM     33  F   UNL A   1      42.025  29.370  34.961  1.00  0.00    -0.207 F 
ENDBRANCH  12  27
ENDBRANCH   9  10
ENDBRANCH   8   9
ENDBRANCH   6   8
ENDBRANCH   5   6
ENDBRANCH   4   5
ENDBRANCH   3   4
ENDBRANCH   2   3
ENDBRANCH   1   2
BRANCH   1  34
ATOM     34  C   UNL A   1      35.692  22.569  24.144  1.00  0.00     0.188 C 
BRANCH  34  35
ATOM     35  O   UNL A   1      37.050  22.116  24.223  1.00  0.00    -0.376 OA
BRANCH  35  36
ATOM     36  C   UNL A   1      37.500  21.468  25.410  1.00  0.00     0.202 C 
BRANCH  36  37
ATOM     37  C   UNL A   1      38.972  21.556  25.737  1.00  0.00     0.261 C 
BRANCH  37  38
ATOM     38  O   UNL A   1      39.116  22.390  26.863  1.00  0.00    -0.460 OA
BRANCH  38  39
ATOM     39  C   UNL A   1      40.413  22.583  27.197  1.00  0.00     0.338 C 
ATOM     40  O   UNL A   1      41.105  21.898  27.917  1.00  0.00    -0.246 OA
BRANCH  39  41
ATOM     41  C   UNL A   1      40.832  23.865  26.581  1.00  0.00     0.060 A 
ATOM     42  C   UNL A   1      42.159  23.758  26.162  1.00  0.00     0.016 A 
ATOM     43  C   UNL A   1      40.396  24.915  27.391  1.00  0.00     0.016 A 
ATOM     44  C   UNL A   1      43.099  24.374  26.948  1.00  0.00     0.010 A 
ATOM     45  C   UNL A   1      41.308  25.400  28.287  1.00  0.00     0.010 A 
ATOM     46  C   UNL A   1      42.656  25.137  28.041  1.00  0.00    -0.014 A 
BRANCH  46  47
ATOM     47  C   UNL A   1      43.643  26.014  28.656  1.00  0.00     0.031 A 
ATOM     48  C   UNL A   1      43.957  25.363  30.038  1.00  0.00     0.074 A 
ATOM     49  C   UNL A   1      43.929  27.162  27.966  1.00  0.00     0.049 A 
ATOM     50  N   UNL A   1      43.882  25.871  31.232  1.00  0.00    -0.248 NA
ATOM     51  C   UNL A   1      44.105  23.870  30.134  1.00  0.00     0.031 C 
ATOM     52  C   UNL A   1      43.490  27.502  26.586  1.00  0.00     0.029 A 
ATOM     53  N   UNL A   1      44.653  28.287  28.276  1.00  0.00    -0.354 N 
ATOM     54  C   UNL A   1      44.269  24.840  32.125  1.00  0.00     0.074 A 
ATOM     55  C   UNL A   1      44.079  23.612  31.440  1.00  0.00     0.031 C 
ATOM     56  C   UNL A   1      43.869  28.761  26.244  1.00  0.00     0.029 A 
ATOM     57  C   UNL A   1      44.599  29.362  27.347  1.00  0.00     0.049 A 
ATOM     58  H   UNL A   1      45.186  28.346  29.102  1.00  0.00     0.167 HD
ATOM     59  C   UNL A   1      45.028  25.068  33.238  1.00  0.00     0.034 A 
ATOM     60  C   UNL A   1      45.066  30.644  27.522  1.00  0.00     0.034 A 
ATOM     61  C   UNL A   1      45.319  26.464  33.293  1.00  0.00     0.049 A 
ATOM     62  C   UNL A   1      45.732  30.598  28.832  1.00  0.00     0.074 A 
ATOM     63  C   UNL A   1      44.537  27.558  33.548  1.00  0.00     0.029 A 
ATOM     64  N   UNL A   1      46.441  26.839  32.584  1.00  0.00    -0.354 N 
ATOM     65  N   UNL A   1      46.857  29.988  29.071  1.00  0.00    -0.248 NA
ATOM     66  C   UNL A   1      44.995  31.096  30.000  1.00  0.00     0.031 C 
ATOM     67  C   UNL A   1      44.961  28.469  32.561  1.00  0.00     0.029 A 
ATOM     68  C   UNL A   1      46.166  28.039  31.986  1.00  0.00     0.049 A 
ATOM     69  H   UNL A   1      47.285  26.338  32.520  1.00  0.00     0.167 HD
ATOM     70  C   UNL A   1      46.751  29.718  30.412  1.00  0.00     0.074 A 
ATOM     71  C   UNL A   1      45.819  30.683  30.956  1.00  0.00     0.031 C 
ATOM     72  C   UNL A   1      46.985  28.460  30.877  1.00  0.00     0.034 A 
BRANCH  59  73
ATOM     73  C   UNL A   1      45.876  24.178  34.119  1.00  0.00     0.023 A 
ATOM     74  C   UNL A   1      45.713  22.786  33.869  1.00  0.00     0.012 A 
ATOM     75  C   UNL A   1      46.536  24.542  35.305  1.00  0.00     0.148 A 
ATOM     76  C   UNL A   1      46.021  21.816  34.818  1.00  0.00     0.002 A 
ATOM     77  C   UNL A   1      46.907  23.558  36.226  1.00  0.00     0.091 A 
ATOM     78  F   UNL A   1      46.744  25.830  35.589  1.00  0.00    -0.205 F 
ATOM     79  C   UNL A   1      46.602  22.206  36.008  1.00  0.00     0.022 A 
BRANCH  77  80
ATOM     80  S   UNL A   1      47.777  23.924  37.755  1.00  0.00     0.127 S 
ATOM     81  O   UNL A   1      48.980  24.594  37.266  1.00  0.00    -0.237 OA
ATOM     82  O   UNL A   1      46.824  24.808  38.431  1.00  0.00    -0.237 OA
ATOM     83  O   UNL A   1      47.976  22.645  38.421  1.00  0.00    -0.744 OA
ENDBRANCH  77  80
ENDBRANCH  59  73
BRANCH  60  84
ATOM     84  C   UNL A   1      44.946  32.017  26.876  1.00  0.00     0.023 A 
ATOM     85  C   UNL A   1      43.743  32.701  26.660  1.00  0.00     0.012 A 
ATOM     86  C   UNL A   1      46.132  32.734  26.502  1.00  0.00     0.148 A 
ATOM     87  C   UNL A   1      43.736  34.042  26.201  1.00  0.00     0.002 A 
ATOM     88  C   UNL A   1      46.133  34.090  26.191  1.00  0.00     0.091 A 
ATOM     89  F   UNL A   1      47.295  32.085  26.393  1.00  0.00    -0.205 F 
ATOM     90  C   UNL A   1      44.926  34.753  26.019  1.00  0.00     0.022 A 
BRANCH  88  91
ATOM     91  S   UNL A   1      47.660  35.058  26.151  1.00  0.00     0.127 S 
ATOM     92  O   UNL A   1      47.163  36.431  26.142  1.00  0.00    -0.237 OA
ATOM     93  O   UNL A   1      48.300  34.645  27.400  1.00  0.00    -0.237 OA
ATOM     94  O   UNL A   1      48.374  34.651  24.947  1.00  0.00    -0.744 OA
ENDBRANCH  88  91
ENDBRANCH  60  84
BRANCH  72  95
ATOM     95  C   UNL A   1      47.906  27.596  30.012  1.00  0.00     0.023 A 
ATOM     96  C   UNL A   1      47.361  26.388  29.536  1.00  0.00     0.012 A 
ATOM     97  C   UNL A   1      49.275  27.831  29.724  1.00  0.00     0.148 A 
ATOM     98  C   UNL A   1      48.125  25.460  28.821  1.00  0.00     0.002 A 
ATOM     99  C   UNL A   1      50.053  26.888  29.035  1.00  0.00     0.091 A 
ATOM    100  F   UNL A   1      49.819  28.981  30.109  1.00  0.00    -0.205 F 
ATOM    101  C   UNL A   1      49.469  25.705  28.574  1.00  0.00     0.022 A 
BRANCH  99 102
ATOM    102  S   UNL A   1      51.835  27.049  28.753  1.00  0.00     0.127 S 
ATOM    103  O   UNL A   1      51.899  28.051  27.686  1.00  0.00    -0.237 OA
ATOM    104  O   UNL A   1      52.315  27.526  30.046  1.00  0.00    -0.237 OA
ATOM    105  O   UNL A   1      52.309  25.728  28.357  1.00  0.00    -0.744 OA
ENDBRANCH  99 102
ENDBRANCH  72  95
ENDBRANCH  46  47
ENDBRANCH  39  41
ENDBRANCH  38  39
ENDBRANCH  37  38
ENDBRANCH  36  37
ENDBRANCH  35  36
ENDBRANCH  34  35
ENDBRANCH   1  34
TORSDOF 26
ENDMDL
MODEL 2
REMARK VINA RESULT:      -9.3      3.048      6.861
REMARK SMILES CN(C)S(=O)(=O)c1ccc(-n2c(CCC(=O)OCCOCCOCCOC(=O)c3ccc(-c4c5nc(c(-c6cccc(S(=O)(=O)[O-])c6F)c6ccc([nH]6)c(-c6cccc(S(=O)(=O)[O-])c6F)c6nc(c(-c7cccc(S(=O)(=O)[O-])c7F)c7ccc4[nH]7)C=C6)C=C5)cc3)ccc2-c2ccc(F)cc2)cc1
REMARK SMILES IDX 21 1 20 2 19 3 18 4 17 5 15 6 16 7 14 8 13 9 12 10 11 11
REMARK SMILES IDX 94 12 92 13 93 14 10 15 7 16 8 17 103 18 9 19 102 20 4 21
REMARK SMILES IDX 5 22 6 23 2 24 1 25 3 26 95 27 96 28 101 29 97 30 100 31
REMARK SMILES IDX 98 32 99 33 22 34 23 35 24 36 25 37 26 38 27 39 28 40 29 41
REMARK SMILES IDX 30 42 91 43 31 44 90 45 32 46 33 47 34 48 84 49 35 50 89 51
REMARK SMILES IDX 83 52 85 53 36 54 88 55 82 56 81 57 37 59 69 60 49 61 68 62
REMARK SMILES IDX 50 63 53 64 67 65 86 66 51 67 52 68 66 70 87 71 54 72 38 73
REMARK SMILES IDX 39 74 47 75 40 76 42 77 48 78 41 79 43 80 44 81 45 82 46 83
REMARK SMILES IDX 70 84 71 85 79 86 72 87 74 88 80 89 73 90 75 91 76 92 77 93
REMARK SMILES IDX 78 94 55 95 56 96 64 97 57 98 59 99 65 100 58 101 60 102
REMARK SMILES IDX 61 103 62 104 63 105
REMARK H PARENT 85 58 53 69
REMARK Flexibility Score: inf
ROOT
ATOM      1  C   UNL A   1      34.230  23.707  25.908  1.00  0.00     0.188 C 
ENDROOT
BRANCH   1   2
ATOM      2  O   UNL A   1      34.315  25.164  25.451  1.00  0.00    -0.376 OA
BRANCH   2   3
ATOM      3  C   UNL A   1      33.444  26.897  25.008  1.00  0.00     0.202 C 
BRANCH   3   4
ATOM      4  C   UNL A   1      32.961  28.232  25.973  1.00  0.00     0.261 C 
BRANCH   4   5
ATOM      5  O   UNL A   1      33.600  28.485  27.254  1.00  0.00    -0.463 OA
BRANCH   5   6
ATOM      6  C   UNL A   1      34.469  29.530  27.306  1.00  0.00     0.306 C 
ATOM      7  O   UNL A   1      34.132  30.700  27.145  1.00  0.00    -0.252 OA
BRANCH   6   8
ATOM      8  C   UNL A   1      35.913  29.148  27.633  1.00  0.00     0.129 C 
BRANCH   8   9
ATOM      9  C   UNL A   1      37.079  30.070  27.251  1.00  0.00     0.066 C 
BRANCH   9  10
ATOM     10  C   UNL A   1      38.355  29.759  27.949  1.00  0.00     0.024 A 
ATOM     11  N   UNL A   1      38.713  30.186  29.229  1.00  0.00    -0.314 N 
ATOM     12  C   UNL A   1      39.871  29.459  29.584  1.00  0.00     0.053 A 
ATOM     13  C   UNL A   1      39.416  29.049  27.418  1.00  0.00     0.024 A 
ATOM     14  C   UNL A   1      40.361  28.863  28.435  1.00  0.00     0.029 A 
BRANCH  11  15
ATOM     15  C   UNL A   1      38.002  31.113  30.075  1.00  0.00     0.046 A 
ATOM     16  C   UNL A   1      36.062  33.238  32.276  1.00  0.00     0.082 A 
ATOM     17  C   UNL A   1      35.816  31.471  32.284  1.00  0.00     0.024 A 
ATOM     18  C   UNL A   1      37.243  34.000  31.147  1.00  0.00     0.024 A 
ATOM     19  C   UNL A   1      36.786  30.409  31.208  1.00  0.00     0.028 A 
ATOM     20  C   UNL A   1      38.259  32.937  30.069  1.00  0.00     0.028 A 
BRANCH  16  21
ATOM     21  S   UNL A   1      35.439  34.250  33.579  1.00  0.00     0.242 S 
ATOM     22  O   UNL A   1      36.459  35.242  33.848  1.00  0.00    -0.207 OA
ATOM     23  O   UNL A   1      34.984  33.334  34.603  1.00  0.00    -0.207 OA
BRANCH  21  24
ATOM     24  N   UNL A   1      34.069  35.078  32.951  1.00  0.00    -0.204 NA
ATOM     25  C   UNL A   1      34.057  36.516  33.345  1.00  0.00     0.124 C 
ATOM     26  C   UNL A   1      33.861  34.952  31.490  1.00  0.00     0.124 C 
ENDBRANCH  21  24
ENDBRANCH  16  21
ENDBRANCH  11  15
BRANCH  12  27
ATOM     27  C   UNL A   1      40.441  29.291  30.929  1.00  0.00    -0.001 A 
ATOM     28  C   UNL A   1      41.378  30.215  31.422  1.00  0.00     0.013 A 
ATOM     29  C   UNL A   1      40.034  28.228  31.752  1.00  0.00     0.013 A 
ATOM     30  C   UNL A   1      41.839  30.118  32.739  1.00  0.00     0.040 A 
ATOM     31  C   UNL A   1      40.487  28.140  33.071  1.00  0.00     0.040 A 
ATOM     32  C   UNL A   1      41.378  29.091  33.553  1.00  0.00     0.123 A 
ATOM     33  F   UNL A   1      41.793  29.018  34.825  1.00  0.00    -0.207 F 
ENDBRANCH  12  27
ENDBRANCH   9  10
ENDBRANCH   8   9
ENDBRANCH   6   8
ENDBRANCH   5   6
ENDBRANCH   4   5
ENDBRANCH   3   4
ENDBRANCH   2   3
ENDBRANCH   1   2
BRANCH   1  34
ATOM     34  C   UNL A   1      35.598  22.986  25.952  1.00  0.00     0.188 C 
BRANCH  34  35
ATOM     35  O   UNL A   1      36.801  23.758  25.841  1.00  0.00    -0.376 OA
BRANCH  35  36
ATOM     36  C   UNL A   1      38.051  23.085  25.708  1.00  0.00     0.202 C 
BRANCH  36  37
ATOM     37  C   UNL A   1      38.955  23.050  26.917  1.00  0.00     0.261 C 
BRANCH  37  38
ATOM     38  O   UNL A   1      40.228  23.502  26.518  1.00  0.00    -0.460 OA
BRANCH  38  39
ATOM     39  C   UNL A   1      41.225  22.735  27.019  1.00  0.00     0.338 C 
ATOM     40  O   UNL A   1      41.178  21.975  27.960  1.00  0.00    -0.246 OA
BRANCH  39  41
ATOM     41  C   UNL A   1      42.448  23.061  26.247  1.00  0.00     0.060 A 
ATOM     42  C   UNL A   1      43.561  22.554  26.920  1.00  0.00     0.016 A 
ATOM     43  C   UNL A   1      42.378  24.394  25.837  1.00  0.00     0.016 A 
ATOM     44  C   UNL A   1      44.325  23.461  27.609  1.00  0.00     0.010 A 
ATOM     45  C   UNL A   1      43.011  25.302  26.639  1.00  0.00     0.010 A 
ATOM     46  C   UNL A   1      43.995  24.823  27.506  1.00  0.00    -0.014 A 
BRANCH  46  47
ATOM     47  C   UNL A   1      44.995  25.766  27.987  1.00  0.00     0.031 A 
ATOM     48  C   UNL A   1      46.202  25.607  27.011  1.00  0.00     0.074 A 
ATOM     49  C   UNL A   1      44.690  26.413  29.155  1.00  0.00     0.049 A 
ATOM     50  N   UNL A   1      47.445  25.330  27.266  1.00  0.00    -0.248 NA
ATOM     51  C   UNL A   1      45.945  25.460  25.537  1.00  0.00     0.031 C 
ATOM     52  C   UNL A   1      43.382  26.396  29.863  1.00  0.00     0.029 A 
ATOM     53  N   UNL A   1      45.411  27.225  29.994  1.00  0.00    -0.354 N 
ATOM     54  C   UNL A   1      48.108  25.294  26.013  1.00  0.00     0.074 A 
ATOM     55  C   UNL A   1      47.111  25.065  25.029  1.00  0.00     0.031 C 
ATOM     56  C   UNL A   1      43.451  27.065  31.043  1.00  0.00     0.029 A 
ATOM     57  C   UNL A   1      44.793  27.593  31.219  1.00  0.00     0.049 A 
ATOM     58  H   UNL A   1      46.315  27.538  29.758  1.00  0.00     0.167 HD
ATOM     59  C   UNL A   1      49.370  25.782  25.826  1.00  0.00     0.034 A 
ATOM     60  C   UNL A   1      45.376  28.222  32.296  1.00  0.00     0.034 A 
ATOM     61  C   UNL A   1      49.834  26.293  27.076  1.00  0.00     0.049 A 
ATOM     62  C   UNL A   1      46.737  28.523  31.829  1.00  0.00     0.074 A 
ATOM     63  C   UNL A   1      50.195  25.678  28.243  1.00  0.00     0.029 A 
ATOM     64  N   UNL A   1      49.480  27.603  27.320  1.00  0.00    -0.354 N 
ATOM     65  N   UNL A   1      47.034  29.428  30.941  1.00  0.00    -0.248 NA
ATOM     66  C   UNL A   1      47.822  27.620  32.232  1.00  0.00     0.031 C 
ATOM     67  C   UNL A   1      49.575  26.488  29.215  1.00  0.00     0.029 A 
ATOM     68  C   UNL A   1      49.162  27.702  28.647  1.00  0.00     0.049 A 
ATOM     69  H   UNL A   1      49.461  28.334  26.661  1.00  0.00     0.167 HD
ATOM     70  C   UNL A   1      48.214  28.947  30.433  1.00  0.00     0.074 A 
ATOM     71  C   UNL A   1      48.787  28.095  31.454  1.00  0.00     0.031 C 
ATOM     72  C   UNL A   1      48.383  28.832  29.087  1.00  0.00     0.034 A 
BRANCH  59  73
ATOM     73  C   UNL A   1      50.148  26.214  24.603  1.00  0.00     0.023 A 
ATOM     74  C   UNL A   1      51.543  26.387  24.832  1.00  0.00     0.012 A 
ATOM     75  C   UNL A   1      49.627  26.738  23.408  1.00  0.00     0.148 A 
ATOM     76  C   UNL A   1      52.340  27.185  24.018  1.00  0.00     0.002 A 
ATOM     77  C   UNL A   1      50.447  27.483  22.557  1.00  0.00     0.091 A 
ATOM     78  F   UNL A   1      48.332  26.589  23.120  1.00  0.00    -0.205 F 
ATOM     79  C   UNL A   1      51.784  27.751  22.888  1.00  0.00     0.022 A 
BRANCH  77  80
ATOM     80  S   UNL A   1      49.877  28.170  20.997  1.00  0.00     0.127 S 
ATOM     81  O   UNL A   1      49.372  26.983  20.311  1.00  0.00    -0.237 OA
ATOM     82  O   UNL A   1      48.836  29.097  21.449  1.00  0.00    -0.237 OA
ATOM     83  O   UNL A   1      51.033  28.820  20.398  1.00  0.00    -0.744 OA
ENDBRANCH  77  80
ENDBRANCH  59  73
BRANCH  60  84
ATOM     84  C   UNL A   1      45.087  28.511  33.762  1.00  0.00     0.023 A 
ATOM     85  C   UNL A   1      44.814  27.540  34.734  1.00  0.00     0.012 A 
ATOM     86  C   UNL A   1      45.153  29.860  34.248  1.00  0.00     0.148 A 
ATOM     87  C   UNL A   1      44.717  27.884  36.105  1.00  0.00     0.002 A 
ATOM     88  C   UNL A   1      45.202  30.177  35.602  1.00  0.00     0.091 A 
ATOM     89  F   UNL A   1      45.119  30.880  33.386  1.00  0.00    -0.205 F 
ATOM     90  C   UNL A   1      44.965  29.188  36.545  1.00  0.00     0.022 A 
BRANCH  88  91
ATOM     91  S   UNL A   1      45.715  31.812  36.180  1.00  0.00     0.127 S 
ATOM     92  O   UNL A   1      45.826  31.616  37.623  1.00  0.00    -0.237 OA
ATOM     93  O   UNL A   1      46.991  31.981  35.483  1.00  0.00    -0.237 OA
ATOM     94  O   UNL A   1      44.674  32.743  35.761  1.00  0.00    -0.744 OA
ENDBRANCH  88  91
ENDBRANCH  60  84
BRANCH  72  95
ATOM     95  C   UNL A   1      47.529  29.770  28.230  1.00  0.00     0.023 A 
ATOM     96  C   UNL A   1      46.477  29.172  27.510  1.00  0.00     0.012 A 
ATOM     97  C   UNL A   1      47.745  31.155  28.007  1.00  0.00     0.148 A 
ATOM     98  C   UNL A   1      45.686  29.897  26.613  1.00  0.00     0.002 A 
ATOM     99  C   UNL A   1      46.974  31.878  27.084  1.00  0.00     0.091 A 
ATOM    100  F   UNL A   1      48.693  31.773  28.703  1.00  0.00    -0.205 F 
ATOM    101  C   UNL A   1      45.935  31.246  26.395  1.00  0.00     0.022 A 
BRANCH  99 102
ATOM    102  S   UNL A   1      47.277  33.607  26.638  1.00  0.00     0.127 S 
ATOM    103  O   UNL A   1      47.062  34.306  27.908  1.00  0.00    -0.237 OA
ATOM    104  O   UNL A   1      48.670  33.579  26.203  1.00  0.00    -0.237 OA
ATOM    105  O   UNL A   1      46.304  33.942  25.605  1.00  0.00    -0.744 OA
ENDBRANCH  99 102
ENDBRANCH  72  95
ENDBRANCH  46  47
ENDBRANCH  39  41
ENDBRANCH  38  39
ENDBRANCH  37  38
ENDBRANCH  36  37
ENDBRANCH  35  36
ENDBRANCH  34  35
ENDBRANCH   1  34
TORSDOF 26
ENDMDL
MODEL 3
REMARK VINA RESULT:      -9.0      3.301      5.332
REMARK SMILES CN(C)S(=O)(=O)c1ccc(-n2c(CCC(=O)OCCOCCOCCOC(=O)c3ccc(-c4c5nc(c(-c6cccc(S(=O)(=O)[O-])c6F)c6ccc([nH]6)c(-c6cccc(S(=O)(=O)[O-])c6F)c6nc(c(-c7cccc(S(=O)(=O)[O-])c7F)c7ccc4[nH]7)C=C6)C=C5)cc3)ccc2-c2ccc(F)cc2)cc1
REMARK SMILES IDX 21 1 20 2 19 3 18 4 17 5 15 6 16 7 14 8 13 9 12 10 11 11
REMARK SMILES IDX 94 12 92 13 93 14 10 15 7 16 8 17 103 18 9 19 102 20 4 21
REMARK SMILES IDX 5 22 6 23 2 24 1 25 3 26 95 27 96 28 101 29 97 30 100 31
REMARK SMILES IDX 98 32 99 33 22 34 23 35 24 36 25 37 26 38 27 39 28 40 29 41
REMARK SMILES IDX 30 42 91 43 31 44 90 45 32 46 33 47 34 48 84 49 35 50 89 51
REMARK SMILES IDX 83 52 85 53 36 54 88 55 82 56 81 57 37 59 69 60 49 61 68 62
REMARK SMILES IDX 50 63 53 64 67 65 86 66 51 67 52 68 66 70 87 71 54 72 38 73
REMARK SMILES IDX 39 74 47 75 40 76 42 77 48 78 41 79 43 80 44 81 45 82 46 83
REMARK SMILES IDX 70 84 71 85 79 86 72 87 74 88 80 89 73 90 75 91 76 92 77 93
REMARK SMILES IDX 78 94 55 95 56 96 64 97 57 98 59 99 65 100 58 101 60 102
REMARK SMILES IDX 61 103 62 104 63 105
REMARK H PARENT 85 58 53 69
REMARK Flexibility Score: inf
ROOT
ATOM      1  C   UNL A   1      35.225  22.939  24.764  1.00  0.00     0.188 C 
ENDROOT
BRANCH   1   2
ATOM      2  O   UNL A   1      34.764  24.370  24.486  1.00  0.00    -0.376 OA
BRANCH   2   3
ATOM      3  C   UNL A   1      33.428  25.832  24.679  1.00  0.00     0.202 C 
BRANCH   3   4
ATOM      4  C   UNL A   1      33.195  27.037  25.878  1.00  0.00     0.261 C 
BRANCH   4   5
ATOM      5  O   UNL A   1      34.037  28.221  25.907  1.00  0.00    -0.463 OA
BRANCH   5   6
ATOM      6  C   UNL A   1      33.913  29.032  26.993  1.00  0.00     0.306 C 
ATOM      7  O   UNL A   1      32.853  29.547  27.336  1.00  0.00    -0.252 OA
BRANCH   6   8
ATOM      8  C   UNL A   1      35.197  29.220  27.802  1.00  0.00     0.129 C 
BRANCH   8   9
ATOM      9  C   UNL A   1      36.349  30.080  27.265  1.00  0.00     0.066 C 
BRANCH   9  10
ATOM     10  C   UNL A   1      37.471  30.264  28.224  1.00  0.00     0.024 A 
ATOM     11  N   UNL A   1      37.487  31.148  29.304  1.00  0.00    -0.314 N 
ATOM     12  C   UNL A   1      38.620  30.812  30.079  1.00  0.00     0.053 A 
ATOM     13  C   UNL A   1      38.700  29.634  28.162  1.00  0.00     0.024 A 
ATOM     14  C   UNL A   1      39.416  29.976  29.316  1.00  0.00     0.029 A 
BRANCH  11  15
ATOM     15  C   UNL A   1      36.503  32.149  29.633  1.00  0.00     0.046 A 
ATOM     16  C   UNL A   1      33.969  34.520  30.676  1.00  0.00     0.082 A 
ATOM     17  C   UNL A   1      34.434  33.171  31.746  1.00  0.00     0.024 A 
ATOM     18  C   UNL A   1      34.717  34.703  29.045  1.00  0.00     0.024 A 
ATOM     19  C   UNL A   1      35.701  32.001  31.243  1.00  0.00     0.028 A 
ATOM     20  C   UNL A   1      36.025  33.545  28.529  1.00  0.00     0.028 A 
BRANCH  16  21
ATOM     21  S   UNL A   1      33.049  35.894  31.289  1.00  0.00     0.242 S 
ATOM     22  O   UNL A   1      31.761  35.373  31.696  1.00  0.00    -0.207 OA
ATOM     23  O   UNL A   1      33.165  36.924  30.279  1.00  0.00    -0.207 OA
BRANCH  21  24
ATOM     24  N   UNL A   1      33.857  36.438  32.706  1.00  0.00    -0.204 NA
ATOM     25  C   UNL A   1      35.123  35.687  32.950  1.00  0.00     0.124 C 
ATOM     26  C   UNL A   1      34.111  37.894  32.777  1.00  0.00     0.124 C 
ENDBRANCH  21  24
ENDBRANCH  16  21
ENDBRANCH  11  15
BRANCH  12  27
ATOM     27  C   UNL A   1      38.899  31.207  31.467  1.00  0.00    -0.001 A 
ATOM     28  C   UNL A   1      39.223  32.540  31.773  1.00  0.00     0.013 A 
ATOM     29  C   UNL A   1      38.815  30.270  32.511  1.00  0.00     0.013 A 
ATOM     30  C   UNL A   1      39.383  32.941  33.103  1.00  0.00     0.040 A 
ATOM     31  C   UNL A   1      38.962  30.675  33.839  1.00  0.00     0.040 A 
ATOM     32  C   UNL A   1      39.238  32.007  34.122  1.00  0.00     0.123 A 
ATOM     33  F   UNL A   1      39.356  32.397  35.399  1.00  0.00    -0.207 F 
ENDBRANCH  12  27
ENDBRANCH   9  10
ENDBRANCH   8   9
ENDBRANCH   6   8
ENDBRANCH   5   6
ENDBRANCH   4   5
ENDBRANCH   3   4
ENDBRANCH   2   3
ENDBRANCH   1   2
BRANCH   1  34
ATOM     34  C   UNL A   1      36.696  22.669  24.371  1.00  0.00     0.188 C 
BRANCH  34  35
ATOM     35  O   UNL A   1      37.709  22.693  25.386  1.00  0.00    -0.376 OA
BRANCH  35  36
ATOM     36  C   UNL A   1      38.315  21.469  25.794  1.00  0.00     0.202 C 
BRANCH  36  37
ATOM     37  C   UNL A   1      39.797  21.489  26.087  1.00  0.00     0.261 C 
BRANCH  37  38
ATOM     38  O   UNL A   1      39.978  22.069  27.357  1.00  0.00    -0.460 OA
BRANCH  38  39
ATOM     39  C   UNL A   1      40.468  23.329  27.282  1.00  0.00     0.338 C 
ATOM     40  O   UNL A   1      39.881  24.368  27.490  1.00  0.00    -0.246 OA
BRANCH  39  41
ATOM     41  C   UNL A   1      41.866  23.221  26.801  1.00  0.00     0.060 A 
ATOM     42  C   UNL A   1      42.680  22.803  27.854  1.00  0.00     0.016 A 
ATOM     43  C   UNL A   1      42.166  24.353  26.039  1.00  0.00     0.016 A 
ATOM     44  C   UNL A   1      43.457  23.767  28.446  1.00  0.00     0.010 A 
ATOM     45  C   UNL A   1      42.795  25.372  26.701  1.00  0.00     0.010 A 
ATOM     46  C   UNL A   1      43.452  25.058  27.893  1.00  0.00    -0.014 A 
BRANCH  46  47
ATOM     47  C   UNL A   1      44.505  25.956  28.344  1.00  0.00     0.031 A 
ATOM     48  C   UNL A   1      43.780  27.016  29.231  1.00  0.00     0.074 A 
ATOM     49  C   UNL A   1      45.748  25.728  27.816  1.00  0.00     0.049 A 
ATOM     50  N   UNL A   1      43.766  28.311  29.134  1.00  0.00    -0.248 NA
ATOM     51  C   UNL A   1      42.704  26.570  30.182  1.00  0.00     0.031 C 
ATOM     52  C   UNL A   1      46.164  24.559  26.996  1.00  0.00     0.029 A 
ATOM     53  N   UNL A   1      46.928  26.428  27.858  1.00  0.00    -0.354 N 
ATOM     54  C   UNL A   1      42.941  28.778  30.188  1.00  0.00     0.074 A 
ATOM     55  C   UNL A   1      42.103  27.695  30.562  1.00  0.00     0.031 C 
ATOM     56  C   UNL A   1      47.441  24.696  26.554  1.00  0.00     0.029 A 
ATOM     57  C   UNL A   1      47.990  25.948  27.045  1.00  0.00     0.049 A 
ATOM     58  H   UNL A   1      47.035  27.226  28.426  1.00  0.00     0.167 HD
ATOM     59  C   UNL A   1      43.221  29.906  30.906  1.00  0.00     0.034 A 
ATOM     60  C   UNL A   1      49.181  26.576  26.764  1.00  0.00     0.034 A 
ATOM     61  C   UNL A   1      44.433  30.462  30.397  1.00  0.00     0.049 A 
ATOM     62  C   UNL A   1      49.141  27.789  27.595  1.00  0.00     0.074 A 
ATOM     63  C   UNL A   1      44.734  31.085  29.217  1.00  0.00     0.029 A 
ATOM     64  N   UNL A   1      45.578  29.946  30.966  1.00  0.00    -0.354 N 
ATOM     65  N   UNL A   1      49.257  27.804  28.892  1.00  0.00    -0.248 NA
ATOM     66  C   UNL A   1      48.744  29.050  26.958  1.00  0.00     0.031 C 
ATOM     67  C   UNL A   1      45.966  30.495  28.870  1.00  0.00     0.029 A 
ATOM     68  C   UNL A   1      46.508  29.816  29.971  1.00  0.00     0.049 A 
ATOM     69  H   UNL A   1      45.705  29.714  31.914  1.00  0.00     0.167 HD
ATOM     70  C   UNL A   1      48.591  28.957  29.221  1.00  0.00     0.074 A 
ATOM     71  C   UNL A   1      48.621  29.802  28.046  1.00  0.00     0.031 C 
ATOM     72  C   UNL A   1      47.633  28.941  30.188  1.00  0.00     0.034 A 
BRANCH  59  73
ATOM     73  C   UNL A   1      42.773  30.416  32.258  1.00  0.00     0.023 A 
ATOM     74  C   UNL A   1      42.878  31.828  32.410  1.00  0.00     0.012 A 
ATOM     75  C   UNL A   1      42.571  29.660  33.425  1.00  0.00     0.148 A 
ATOM     76  C   UNL A   1      42.960  32.440  33.657  1.00  0.00     0.002 A 
ATOM     77  C   UNL A   1      42.586  30.288  34.673  1.00  0.00     0.091 A 
ATOM     78  F   UNL A   1      42.440  28.334  33.350  1.00  0.00    -0.205 F 
ATOM     79  C   UNL A   1      42.833  31.664  34.792  1.00  0.00     0.022 A 
BRANCH  77  80
ATOM     80  S   UNL A   1      42.311  29.409  36.217  1.00  0.00     0.127 S 
ATOM     81  O   UNL A   1      40.926  28.969  36.072  1.00  0.00    -0.237 OA
ATOM     82  O   UNL A   1      43.302  28.334  36.122  1.00  0.00    -0.237 OA
ATOM     83  O   UNL A   1      42.577  30.369  37.278  1.00  0.00    -0.744 OA
ENDBRANCH  77  80
ENDBRANCH  59  73
BRANCH  60  84
ATOM     84  C   UNL A   1      50.347  26.466  25.792  1.00  0.00     0.023 A 
ATOM     85  C   UNL A   1      50.371  27.010  24.502  1.00  0.00     0.012 A 
ATOM     86  C   UNL A   1      51.560  25.820  26.206  1.00  0.00     0.148 A 
ATOM     87  C   UNL A   1      51.557  26.999  23.725  1.00  0.00     0.002 A 
ATOM     88  C   UNL A   1      52.758  25.936  25.507  1.00  0.00     0.091 A 
ATOM     89  F   UNL A   1      51.559  25.027  27.281  1.00  0.00    -0.205 F 
ATOM     90  C   UNL A   1      52.760  26.514  24.245  1.00  0.00     0.022 A 
BRANCH  88  91
ATOM     91  S   UNL A   1      54.344  25.492  26.254  1.00  0.00     0.127 S 
ATOM     92  O   UNL A   1      54.509  24.101  25.839  1.00  0.00    -0.237 OA
ATOM     93  O   UNL A   1      55.249  26.438  25.600  1.00  0.00    -0.237 OA
ATOM     94  O   UNL A   1      54.195  25.695  27.689  1.00  0.00    -0.744 OA
ENDBRANCH  88  91
ENDBRANCH  60  84
BRANCH  72  95
ATOM     95  C   UNL A   1      47.767  27.832  31.235  1.00  0.00     0.023 A 
ATOM     96  C   UNL A   1      46.784  26.825  31.205  1.00  0.00     0.012 A 
ATOM     97  C   UNL A   1      48.714  27.765  32.290  1.00  0.00     0.148 A 
ATOM     98  C   UNL A   1      46.732  25.810  32.167  1.00  0.00     0.002 A 
ATOM     99  C   UNL A   1      48.645  26.768  33.275  1.00  0.00     0.091 A 
ATOM    100  F   UNL A   1      49.690  28.665  32.329  1.00  0.00    -0.205 F 
ATOM    101  C   UNL A   1      47.656  25.783  33.203  1.00  0.00     0.022 A 
BRANCH  99 102
ATOM    102  S   UNL A   1      49.723  26.696  34.728  1.00  0.00     0.127 S 
ATOM    103  O   UNL A   1      49.516  28.009  35.344  1.00  0.00    -0.237 OA
ATOM    104  O   UNL A   1      49.154  25.587  35.487  1.00  0.00    -0.237 OA
ATOM    105  O   UNL A   1      51.076  26.484  34.226  1.00  0.00    -0.744 OA
ENDBRANCH  99 102
ENDBRANCH  72  95
ENDBRANCH  46  47
ENDBRANCH  39  41
ENDBRANCH  38  39
ENDBRANCH  37  38
ENDBRANCH  36  37
ENDBRANCH  35  36
ENDBRANCH  34  35
ENDBRANCH   1  34
TORSDOF 26
ENDMDL
