MODEL 1
REMARK VINA RESULT:     -11.7      0.000      0.000
REMARK SMILES O=C(OCCOCCOCCOC(=O)[C@H]1CC2=c3ccccc3=N[C@H]2[C@@H](c2ccccc2)[NH2+]1)c1ccc(-c2c3nc(c(-c4cccc(S(=O)(=O)[O-])c4F)c4ccc([nH]4)c(-c4cccc(S(=O)(=O)[O-])c4F)c4nc(c(-c5cccc(S(=O)(=O)[O-])c5F)c5ccc2[nH]5)C=C4)C=C3)cc1
REMARK SMILES IDX 7 1 6 2 5 3 4 4 3 5 2 6 1 7 34 8 35 9 96 10 36 11 95 12
REMARK SMILES IDX 37 13 38 14 39 15 89 16 40 17 94 18 88 19 90 20 41 21 93 22
REMARK SMILES IDX 87 23 86 24 42 26 74 27 54 28 73 29 55 30 58 31 72 32 91 33
REMARK SMILES IDX 56 34 57 35 71 37 92 38 59 39 43 40 44 41 52 42 45 43 47 44
REMARK SMILES IDX 53 45 46 46 48 47 49 48 50 49 51 50 75 51 76 52 84 53 77 54
REMARK SMILES IDX 79 55 85 56 78 57 80 58 81 59 82 60 83 61 60 62 61 63 69 64
REMARK SMILES IDX 62 65 64 66 70 67 63 68 65 69 66 70 67 71 68 72 8 73 9 74
REMARK SMILES IDX 10 75 11 76 12 77 13 78 14 79 15 80 16 81 33 82 17 83 26 84
REMARK SMILES IDX 18 87 25 88 19 89 23 90 24 91 20 92 22 93 21 94 27 95 28 96
REMARK SMILES IDX 32 97 29 98 31 99 30 100
REMARK H PARENT 90 25 58 36 33 85 33 86
REMARK Flexibility Score: inf
ROOT
ATOM      1  C   UNL A   1      33.245  34.614  29.210  1.00  0.00     0.188 C 
ENDROOT
BRANCH   1   2
ATOM      2  O   UNL A   1      33.981  35.476  30.056  1.00  0.00    -0.376 OA
BRANCH   2   3
ATOM      3  C   UNL A   1      33.698  35.580  31.446  1.00  0.00     0.202 C 
BRANCH   3   4
ATOM      4  C   UNL A   1      34.794  35.552  32.521  1.00  0.00     0.261 C 
BRANCH   4   5
ATOM      5  O   UNL A   1      35.168  34.267  33.044  1.00  0.00    -0.460 OA
BRANCH   5   6
ATOM      6  C   UNL A   1      35.175  33.077  32.412  1.00  0.00     0.338 C 
ATOM      7  O   UNL A   1      34.127  32.584  32.004  1.00  0.00    -0.246 OA
BRANCH   6   8
ATOM      8  C   UNL A   1      36.396  32.256  32.308  1.00  0.00     0.060 A 
ATOM      9  C   UNL A   1      36.960  31.965  30.621  1.00  0.00     0.016 A 
ATOM     10  C   UNL A   1      37.008  31.327  33.694  1.00  0.00     0.016 A 
ATOM     11  C   UNL A   1      38.184  30.731  30.193  1.00  0.00     0.010 A 
ATOM     12  C   UNL A   1      38.282  30.070  33.413  1.00  0.00     0.010 A 
ATOM     13  C   UNL A   1      38.963  29.733  31.526  1.00  0.00    -0.014 A 
BRANCH  13  14
ATOM     14  C   UNL A   1      40.227  29.063  30.803  1.00  0.00     0.031 A 
ATOM     15  C   UNL A   1      41.603  29.668  30.790  1.00  0.00     0.074 A 
ATOM     16  C   UNL A   1      40.068  27.940  30.063  1.00  0.00     0.049 A 
ATOM     17  N   UNL A   1      42.370  29.942  29.771  1.00  0.00    -0.248 NA
ATOM     18  C   UNL A   1      42.150  30.087  32.077  1.00  0.00     0.031 C 
ATOM     19  C   UNL A   1      38.876  27.086  29.982  1.00  0.00     0.029 A 
ATOM     20  N   UNL A   1      40.934  27.348  29.178  1.00  0.00    -0.354 N 
ATOM     21  C   UNL A   1      43.353  30.811  30.260  1.00  0.00     0.074 A 
ATOM     22  C   UNL A   1      43.151  30.876  31.684  1.00  0.00     0.031 C 
ATOM     23  C   UNL A   1      39.086  26.084  29.122  1.00  0.00     0.029 A 
ATOM     24  C   UNL A   1      40.389  26.274  28.515  1.00  0.00     0.049 A 
ATOM     25  H   UNL A   1      41.856  27.662  29.033  1.00  0.00     0.167 HD
ATOM     26  C   UNL A   1      44.297  31.465  29.527  1.00  0.00     0.034 A 
ATOM     27  C   UNL A   1      40.874  25.543  27.498  1.00  0.00     0.034 A 
ATOM     28  C   UNL A   1      44.816  30.803  28.350  1.00  0.00     0.049 A 
ATOM     29  C   UNL A   1      42.201  25.939  26.944  1.00  0.00     0.074 A 
ATOM     30  C   UNL A   1      45.995  31.057  27.672  1.00  0.00     0.029 A 
ATOM     31  N   UNL A   1      44.295  29.628  27.829  1.00  0.00    -0.354 N 
ATOM     32  N   UNL A   1      42.882  27.034  27.181  1.00  0.00    -0.248 NA
ATOM     33  C   UNL A   1      42.853  24.997  26.031  1.00  0.00     0.031 C 
ATOM     34  C   UNL A   1      46.244  29.972  26.832  1.00  0.00     0.029 A 
ATOM     35  C   UNL A   1      45.215  29.055  26.981  1.00  0.00     0.049 A 
ATOM     36  H   UNL A   1      43.405  29.260  28.035  1.00  0.00     0.167 HD
ATOM     37  C   UNL A   1      44.075  26.888  26.495  1.00  0.00     0.074 A 
ATOM     38  C   UNL A   1      44.015  25.603  25.824  1.00  0.00     0.031 C 
ATOM     39  C   UNL A   1      45.125  27.736  26.418  1.00  0.00     0.034 A 
BRANCH  26  40
ATOM     40  C   UNL A   1      45.030  32.730  29.975  1.00  0.00     0.023 A 
ATOM     41  C   UNL A   1      44.632  34.016  29.578  1.00  0.00     0.012 A 
ATOM     42  C   UNL A   1      46.039  32.640  30.980  1.00  0.00     0.148 A 
ATOM     43  C   UNL A   1      45.234  35.163  30.112  1.00  0.00     0.002 A 
ATOM     44  C   UNL A   1      46.568  33.788  31.580  1.00  0.00     0.091 A 
ATOM     45  F   UNL A   1      46.441  31.421  31.374  1.00  0.00    -0.205 F 
ATOM     46  C   UNL A   1      46.182  35.053  31.125  1.00  0.00     0.022 A 
BRANCH  44  47
ATOM     47  S   UNL A   1      47.737  33.740  32.957  1.00  0.00     0.127 S 
ATOM     48  O   UNL A   1      48.901  33.064  32.378  1.00  0.00    -0.237 OA
ATOM     49  O   UNL A   1      47.951  35.159  33.228  1.00  0.00    -0.237 OA
ATOM     50  O   UNL A   1      47.082  32.986  34.017  1.00  0.00    -0.744 OA
ENDBRANCH  44  47
ENDBRANCH  26  40
BRANCH  27  51
ATOM     51  C   UNL A   1      40.161  24.298  27.118  1.00  0.00     0.023 A 
ATOM     52  C   UNL A   1      38.912  24.431  26.480  1.00  0.00     0.012 A 
ATOM     53  C   UNL A   1      40.764  23.029  27.200  1.00  0.00     0.148 A 
ATOM     54  C   UNL A   1      38.273  23.323  25.928  1.00  0.00     0.002 A 
ATOM     55  C   UNL A   1      40.134  21.931  26.622  1.00  0.00     0.091 A 
ATOM     56  F   UNL A   1      41.967  22.933  27.784  1.00  0.00    -0.205 F 
ATOM     57  C   UNL A   1      38.888  22.077  25.989  1.00  0.00     0.022 A 
BRANCH  55  58
ATOM     58  S   UNL A   1      40.898  20.306  26.549  1.00  0.00     0.127 S 
ATOM     59  O   UNL A   1      42.166  20.603  25.889  1.00  0.00    -0.237 OA
ATOM     60  O   UNL A   1      41.007  19.956  27.966  1.00  0.00    -0.237 OA
ATOM     61  O   UNL A   1      39.971  19.471  25.798  1.00  0.00    -0.744 OA
ENDBRANCH  55  58
ENDBRANCH  27  51
BRANCH  39  62
ATOM     62  C   UNL A   1      46.333  27.278  25.673  1.00  0.00     0.023 A 
ATOM     63  C   UNL A   1      46.509  27.688  24.341  1.00  0.00     0.012 A 
ATOM     64  C   UNL A   1      47.369  26.623  26.363  1.00  0.00     0.148 A 
ATOM     65  C   UNL A   1      47.721  27.458  23.701  1.00  0.00     0.002 A 
ATOM     66  C   UNL A   1      48.586  26.430  25.730  1.00  0.00     0.091 A 
ATOM     67  F   UNL A   1      47.154  26.240  27.630  1.00  0.00    -0.205 F 
ATOM     68  C   UNL A   1      48.762  26.847  24.399  1.00  0.00     0.022 A 
BRANCH  66  69
ATOM     69  S   UNL A   1      50.005  25.735  26.580  1.00  0.00     0.127 S 
ATOM     70  O   UNL A   1      50.908  25.459  25.465  1.00  0.00    -0.237 OA
ATOM     71  O   UNL A   1      50.420  26.838  27.445  1.00  0.00    -0.237 OA
ATOM     72  O   UNL A   1      49.514  24.560  27.290  1.00  0.00    -0.744 OA
ENDBRANCH  66  69
ENDBRANCH  39  62
ENDBRANCH  13  14
ENDBRANCH   6   8
ENDBRANCH   5   6
ENDBRANCH   4   5
ENDBRANCH   3   4
ENDBRANCH   2   3
ENDBRANCH   1   2
BRANCH   1  73
ATOM     73  C   UNL A   1      33.924  34.321  27.866  1.00  0.00     0.188 C 
BRANCH  73  74
ATOM     74  O   UNL A   1      34.832  33.240  27.772  1.00  0.00    -0.376 OA
BRANCH  74  75
ATOM     75  C   UNL A   1      34.374  31.918  28.022  1.00  0.00     0.202 C 
BRANCH  75  76
ATOM     76  C   UNL A   1      33.899  30.994  26.884  1.00  0.00     0.261 C 
BRANCH  76  77
ATOM     77  O   UNL A   1      34.206  29.599  26.952  1.00  0.00    -0.459 OA
BRANCH  77  78
ATOM     78  C   UNL A   1      33.238  28.800  26.419  1.00  0.00     0.365 C 
ATOM     79  O   UNL A   1      32.630  27.934  27.040  1.00  0.00    -0.245 OA
BRANCH  78  80
ATOM     80  C   UNL A   1      33.169  28.943  24.896  1.00  0.00     0.298 C 
ATOM     81  C   UNL A   1      34.052  27.973  24.056  1.00  0.00     0.111 C 
ATOM     82  N   UNL A   1      31.729  28.987  24.583  1.00  0.00    -0.326 N 
ATOM     83  C   UNL A   1      33.261  26.910  23.366  1.00  0.00    -0.024 C 
ATOM     84  C   UNL A   1      31.459  28.663  23.186  1.00  0.00     0.243 C 
ATOM     85  H   UNL A   1      31.379  29.925  24.777  1.00  0.00     0.347 HD
ATOM     86  H   UNL A   1      31.261  28.289  25.163  1.00  0.00     0.347 HD
ATOM     87  C   UNL A   1      33.485  25.608  23.315  1.00  0.00     0.002 A 
ATOM     88  C   UNL A   1      31.861  27.209  22.846  1.00  0.00     0.196 C 
ATOM     89  C   UNL A   1      34.754  24.440  23.937  1.00  0.00     0.010 A 
ATOM     90  C   UNL A   1      31.728  25.030  23.349  1.00  0.00     0.066 A 
ATOM     91  N   UNL A   1      30.938  26.067  23.250  1.00  0.00    -0.270 NA
ATOM     92  C   UNL A   1      34.237  22.723  24.456  1.00  0.00     0.001 A 
ATOM     93  C   UNL A   1      31.343  23.243  23.888  1.00  0.00     0.028 A 
ATOM     94  C   UNL A   1      32.397  22.253  24.376  1.00  0.00     0.002 A 
BRANCH  84  95
ATOM     95  C   UNL A   1      30.087  29.181  22.847  1.00  0.00     0.012 A 
ATOM     96  C   UNL A   1      29.857  30.146  21.866  1.00  0.00     0.010 A 
ATOM     97  C   UNL A   1      28.982  28.526  23.431  1.00  0.00     0.010 A 
ATOM     98  C   UNL A   1      28.557  30.408  21.445  1.00  0.00     0.001 A 
ATOM     99  C   UNL A   1      27.684  28.813  23.031  1.00  0.00     0.001 A 
ATOM    100  C   UNL A   1      27.477  29.743  22.023  1.00  0.00     0.000 A 
ENDBRANCH  84  95
ENDBRANCH  78  80
ENDBRANCH  77  78
ENDBRANCH  76  77
ENDBRANCH  75  76
ENDBRANCH  74  75
ENDBRANCH  73  74
ENDBRANCH   1  73
TORSDOF 21
ENDMDL
MODEL 2
REMARK VINA RESULT:     -11.1      3.869     10.143
REMARK SMILES O=C(OCCOCCOCCOC(=O)[C@H]1CC2=c3ccccc3=N[C@H]2[C@@H](c2ccccc2)[NH2+]1)c1ccc(-c2c3nc(c(-c4cccc(S(=O)(=O)[O-])c4F)c4ccc([nH]4)c(-c4cccc(S(=O)(=O)[O-])c4F)c4nc(c(-c5cccc(S(=O)(=O)[O-])c5F)c5ccc2[nH]5)C=C4)C=C3)cc1
REMARK SMILES IDX 7 1 6 2 5 3 4 4 3 5 2 6 1 7 34 8 35 9 96 10 36 11 95 12
REMARK SMILES IDX 37 13 38 14 39 15 89 16 40 17 94 18 88 19 90 20 41 21 93 22
REMARK SMILES IDX 87 23 86 24 42 26 74 27 54 28 73 29 55 30 58 31 72 32 91 33
REMARK SMILES IDX 56 34 57 35 71 37 92 38 59 39 43 40 44 41 52 42 45 43 47 44
REMARK SMILES IDX 53 45 46 46 48 47 49 48 50 49 51 50 75 51 76 52 84 53 77 54
REMARK SMILES IDX 79 55 85 56 78 57 80 58 81 59 82 60 83 61 60 62 61 63 69 64
REMARK SMILES IDX 62 65 64 66 70 67 63 68 65 69 66 70 67 71 68 72 8 73 9 74
REMARK SMILES IDX 10 75 11 76 12 77 13 78 14 79 15 80 16 81 33 82 17 83 26 84
REMARK SMILES IDX 18 87 25 88 19 89 23 90 24 91 20 92 22 93 21 94 27 95 28 96
REMARK SMILES IDX 32 97 29 98 31 99 30 100
REMARK H PARENT 90 25 58 36 33 85 33 86
REMARK Flexibility Score: inf
ROOT
ATOM      1  C   UNL A   1      41.985  19.648  26.390  1.00  0.00     0.188 C 
ENDROOT
BRANCH   1   2
ATOM      2  O   UNL A   1      42.584  19.240  25.175  1.00  0.00    -0.376 OA
BRANCH   2   3
ATOM      3  C   UNL A   1      43.996  19.147  25.032  1.00  0.00     0.202 C 
BRANCH   3   4
ATOM      4  C   UNL A   1      44.873  20.348  24.654  1.00  0.00     0.261 C 
BRANCH   4   5
ATOM      5  O   UNL A   1      44.679  21.563  25.396  1.00  0.00    -0.460 OA
BRANCH   5   6
ATOM      6  C   UNL A   1      44.001  22.669  25.028  1.00  0.00     0.338 C 
ATOM      7  O   UNL A   1      43.547  22.769  23.893  1.00  0.00    -0.246 OA
BRANCH   6   8
ATOM      8  C   UNL A   1      43.897  23.847  25.908  1.00  0.00     0.060 A 
ATOM      9  C   UNL A   1      43.635  25.406  25.042  1.00  0.00     0.016 A 
ATOM     10  C   UNL A   1      44.381  23.773  27.617  1.00  0.00     0.016 A 
ATOM     11  C   UNL A   1      43.827  27.008  25.819  1.00  0.00     0.010 A 
ATOM     12  C   UNL A   1      44.573  25.319  28.541  1.00  0.00     0.010 A 
ATOM     13  C   UNL A   1      44.260  27.097  27.605  1.00  0.00    -0.014 A 
BRANCH  13  14
ATOM     14  C   UNL A   1      43.955  28.623  27.987  1.00  0.00     0.031 A 
ATOM     15  C   UNL A   1      44.972  29.727  27.908  1.00  0.00     0.074 A 
ATOM     16  C   UNL A   1      42.754  28.963  28.516  1.00  0.00     0.049 A 
ATOM     17  N   UNL A   1      45.347  30.567  28.833  1.00  0.00    -0.248 NA
ATOM     18  C   UNL A   1      45.715  29.849  26.656  1.00  0.00     0.031 C 
ATOM     19  C   UNL A   1      41.553  28.125  28.611  1.00  0.00     0.029 A 
ATOM     20  N   UNL A   1      42.370  30.129  29.130  1.00  0.00    -0.354 N 
ATOM     21  C   UNL A   1      46.548  31.123  28.376  1.00  0.00     0.074 A 
ATOM     22  C   UNL A   1      46.731  30.624  27.037  1.00  0.00     0.031 C 
ATOM     23  C   UNL A   1      40.572  28.798  29.223  1.00  0.00     0.029 A 
ATOM     24  C   UNL A   1      41.098  30.078  29.651  1.00  0.00     0.049 A 
ATOM     25  H   UNL A   1      42.948  30.923  29.191  1.00  0.00     0.167 HD
ATOM     26  C   UNL A   1      47.373  31.956  29.068  1.00  0.00     0.034 A 
ATOM     27  C   UNL A   1      40.440  30.957  30.424  1.00  0.00     0.034 A 
ATOM     28  C   UNL A   1      46.770  32.878  30.005  1.00  0.00     0.049 A 
ATOM     29  C   UNL A   1      41.176  32.188  30.837  1.00  0.00     0.074 A 
ATOM     30  C   UNL A   1      47.307  34.040  30.533  1.00  0.00     0.029 A 
ATOM     31  N   UNL A   1      45.431  32.852  30.365  1.00  0.00    -0.354 N 
ATOM     32  N   UNL A   1      42.455  32.446  30.712  1.00  0.00    -0.248 NA
ATOM     33  C   UNL A   1      40.389  33.264  31.444  1.00  0.00     0.031 C 
ATOM     34  C   UNL A   1      46.264  34.769  31.104  1.00  0.00     0.029 A 
ATOM     35  C   UNL A   1      45.087  34.054  30.939  1.00  0.00     0.049 A 
ATOM     36  H   UNL A   1      44.822  32.091  30.230  1.00  0.00     0.167 HD
ATOM     37  C   UNL A   1      42.621  33.741  31.170  1.00  0.00     0.074 A 
ATOM     38  C   UNL A   1      41.312  34.208  31.585  1.00  0.00     0.031 C 
ATOM     39  C   UNL A   1      43.750  34.480  31.248  1.00  0.00     0.034 A 
BRANCH  26  40
ATOM     40  C   UNL A   1      48.857  32.168  28.765  1.00  0.00     0.023 A 
ATOM     41  C   UNL A   1      49.857  31.295  29.223  1.00  0.00     0.012 A 
ATOM     42  C   UNL A   1      49.247  33.173  27.830  1.00  0.00     0.148 A 
ATOM     43  C   UNL A   1      51.190  31.435  28.815  1.00  0.00     0.002 A 
ATOM     44  C   UNL A   1      50.560  33.248  27.352  1.00  0.00     0.091 A 
ATOM     45  F   UNL A   1      48.311  34.024  27.379  1.00  0.00    -0.205 F 
ATOM     46  C   UNL A   1      51.538  32.391  27.866  1.00  0.00     0.022 A 
BRANCH  44  47
ATOM     47  S   UNL A   1      51.083  34.399  26.061  1.00  0.00     0.127 S 
ATOM     48  O   UNL A   1      50.358  33.923  24.881  1.00  0.00    -0.237 OA
ATOM     49  O   UNL A   1      50.600  35.678  26.576  1.00  0.00    -0.237 OA
ATOM     50  O   UNL A   1      52.530  34.264  25.961  1.00  0.00    -0.744 OA
ENDBRANCH  44  47
ENDBRANCH  26  40
BRANCH  27  51
ATOM     51  C   UNL A   1      38.991  30.744  30.663  1.00  0.00     0.023 A 
ATOM     52  C   UNL A   1      38.623  29.947  31.765  1.00  0.00     0.012 A 
ATOM     53  C   UNL A   1      37.999  31.450  29.958  1.00  0.00     0.148 A 
ATOM     54  C   UNL A   1      37.291  29.854  32.163  1.00  0.00     0.002 A 
ATOM     55  C   UNL A   1      36.675  31.376  30.378  1.00  0.00     0.091 A 
ATOM     56  F   UNL A   1      38.379  32.226  28.933  1.00  0.00    -0.205 F 
ATOM     57  C   UNL A   1      36.320  30.576  31.477  1.00  0.00     0.022 A 
BRANCH  55  58
ATOM     58  S   UNL A   1      35.367  32.357  29.631  1.00  0.00     0.127 S 
ATOM     59  O   UNL A   1      34.985  31.525  28.494  1.00  0.00    -0.237 OA
ATOM     60  O   UNL A   1      34.379  32.421  30.709  1.00  0.00    -0.237 OA
ATOM     61  O   UNL A   1      35.978  33.639  29.304  1.00  0.00    -0.744 OA
ENDBRANCH  55  58
ENDBRANCH  27  51
BRANCH  39  62
ATOM     62  C   UNL A   1      43.622  35.896  31.701  1.00  0.00     0.023 A 
ATOM     63  C   UNL A   1      43.594  36.171  33.078  1.00  0.00     0.012 A 
ATOM     64  C   UNL A   1      43.737  36.939  30.764  1.00  0.00     0.148 A 
ATOM     65  C   UNL A   1      43.695  37.484  33.522  1.00  0.00     0.002 A 
ATOM     66  C   UNL A   1      43.874  38.241  31.216  1.00  0.00     0.091 A 
ATOM     67  F   UNL A   1      43.750  36.631  29.459  1.00  0.00    -0.205 F 
ATOM     68  C   UNL A   1      43.853  38.515  32.595  1.00  0.00     0.022 A 
BRANCH  66  69
ATOM     69  S   UNL A   1      44.171  39.614  30.100  1.00  0.00     0.127 S 
ATOM     70  O   UNL A   1      42.882  39.723  29.420  1.00  0.00    -0.237 OA
ATOM     71  O   UNL A   1      44.470  40.707  31.024  1.00  0.00    -0.237 OA
ATOM     72  O   UNL A   1      45.289  39.212  29.255  1.00  0.00    -0.744 OA
ENDBRANCH  66  69
ENDBRANCH  39  62
ENDBRANCH  13  14
ENDBRANCH   6   8
ENDBRANCH   5   6
ENDBRANCH   4   5
ENDBRANCH   3   4
ENDBRANCH   2   3
ENDBRANCH   1   2
BRANCH   1  73
ATOM     73  C   UNL A   1      41.409  21.070  26.361  1.00  0.00     0.188 C 
BRANCH  73  74
ATOM     74  O   UNL A   1      40.610  21.515  27.441  1.00  0.00    -0.376 OA
BRANCH  74  75
ATOM     75  C   UNL A   1      40.092  22.838  27.429  1.00  0.00     0.202 C 
BRANCH  75  76
ATOM     76  C   UNL A   1      38.918  23.243  26.515  1.00  0.00     0.261 C 
BRANCH  76  77
ATOM     77  O   UNL A   1      38.182  22.220  25.842  1.00  0.00    -0.459 OA
BRANCH  77  78
ATOM     78  C   UNL A   1      37.013  22.660  25.292  1.00  0.00     0.365 C 
ATOM     79  O   UNL A   1      36.924  23.588  24.495  1.00  0.00    -0.245 OA
BRANCH  78  80
ATOM     80  C   UNL A   1      35.799  22.020  25.972  1.00  0.00     0.298 C 
ATOM     81  C   UNL A   1      34.795  22.983  26.674  1.00  0.00     0.111 C 
ATOM     82  N   UNL A   1      35.251  21.087  24.971  1.00  0.00    -0.326 N 
ATOM     83  C   UNL A   1      33.511  23.137  25.926  1.00  0.00    -0.024 C 
ATOM     84  C   UNL A   1      33.862  20.735  25.249  1.00  0.00     0.243 C 
ATOM     85  H   UNL A   1      35.813  20.236  24.974  1.00  0.00     0.347 HD
ATOM     86  H   UNL A   1      35.282  21.549  24.062  1.00  0.00     0.347 HD
ATOM     87  C   UNL A   1      32.857  24.243  25.615  1.00  0.00     0.002 A 
ATOM     88  C   UNL A   1      32.928  21.963  25.150  1.00  0.00     0.196 C 
ATOM     89  C   UNL A   1      33.056  26.044  25.898  1.00  0.00     0.010 A 
ATOM     90  C   UNL A   1      32.216  23.723  23.960  1.00  0.00     0.066 A 
ATOM     91  N   UNL A   1      32.489  22.457  23.778  1.00  0.00    -0.270 NA
ATOM     92  C   UNL A   1      32.510  27.241  24.574  1.00  0.00     0.001 A 
ATOM     93  C   UNL A   1      31.678  25.053  22.706  1.00  0.00     0.028 A 
ATOM     94  C   UNL A   1      31.810  26.554  22.945  1.00  0.00     0.002 A 
BRANCH  84  95
ATOM     95  C   UNL A   1      33.547  19.467  24.501  1.00  0.00     0.012 A 
ATOM     96  C   UNL A   1      32.442  19.331  23.660  1.00  0.00     0.010 A 
ATOM     97  C   UNL A   1      34.516  18.441  24.525  1.00  0.00     0.010 A 
ATOM     98  C   UNL A   1      32.339  18.222  22.827  1.00  0.00     0.001 A 
ATOM     99  C   UNL A   1      34.393  17.320  23.715  1.00  0.00     0.001 A 
ATOM    100  C   UNL A   1      33.311  17.223  22.853  1.00  0.00     0.000 A 
ENDBRANCH  84  95
ENDBRANCH  78  80
ENDBRANCH  77  78
ENDBRANCH  76  77
ENDBRANCH  75  76
ENDBRANCH  74  75
ENDBRANCH  73  74
ENDBRANCH   1  73
TORSDOF 21
ENDMDL
MODEL 3
REMARK VINA RESULT:     -11.0      3.191      4.435
REMARK SMILES O=C(OCCOCCOCCOC(=O)[C@H]1CC2=c3ccccc3=N[C@H]2[C@@H](c2ccccc2)[NH2+]1)c1ccc(-c2c3nc(c(-c4cccc(S(=O)(=O)[O-])c4F)c4ccc([nH]4)c(-c4cccc(S(=O)(=O)[O-])c4F)c4nc(c(-c5cccc(S(=O)(=O)[O-])c5F)c5ccc2[nH]5)C=C4)C=C3)cc1
REMARK SMILES IDX 7 1 6 2 5 3 4 4 3 5 2 6 1 7 34 8 35 9 96 10 36 11 95 12
REMARK SMILES IDX 37 13 38 14 39 15 89 16 40 17 94 18 88 19 90 20 41 21 93 22
REMARK SMILES IDX 87 23 86 24 42 26 74 27 54 28 73 29 55 30 58 31 72 32 91 33
REMARK SMILES IDX 56 34 57 35 71 37 92 38 59 39 43 40 44 41 52 42 45 43 47 44
REMARK SMILES IDX 53 45 46 46 48 47 49 48 50 49 51 50 75 51 76 52 84 53 77 54
REMARK SMILES IDX 79 55 85 56 78 57 80 58 81 59 82 60 83 61 60 62 61 63 69 64
REMARK SMILES IDX 62 65 64 66 70 67 63 68 65 69 66 70 67 71 68 72 8 73 9 74
REMARK SMILES IDX 10 75 11 76 12 77 13 78 14 79 15 80 16 81 33 82 17 83 26 84
REMARK SMILES IDX 18 87 25 88 19 89 23 90 24 91 20 92 22 93 21 94 27 95 28 96
REMARK SMILES IDX 32 97 29 98 31 99 30 100
REMARK H PARENT 90 25 58 36 33 85 33 86
REMARK Flexibility Score: inf
ROOT
ATOM      1  C   UNL A   1      31.828  30.753  26.406  1.00  0.00     0.188 C 
ENDROOT
BRANCH   1   2
ATOM      2  O   UNL A   1      32.490  31.770  27.133  1.00  0.00    -0.376 OA
BRANCH   2   3
ATOM      3  C   UNL A   1      32.022  33.113  27.136  1.00  0.00     0.202 C 
BRANCH   3   4
ATOM      4  C   UNL A   1      32.662  34.214  27.994  1.00  0.00     0.261 C 
BRANCH   4   5
ATOM      5  O   UNL A   1      33.893  33.894  28.662  1.00  0.00    -0.460 OA
BRANCH   5   6
ATOM      6  C   UNL A   1      35.097  33.630  28.115  1.00  0.00     0.338 C 
ATOM      7  O   UNL A   1      35.535  34.333  27.209  1.00  0.00    -0.246 OA
BRANCH   6   8
ATOM      8  C   UNL A   1      35.866  32.424  28.471  1.00  0.00     0.060 A 
ATOM      9  C   UNL A   1      37.491  32.755  29.177  1.00  0.00     0.016 A 
ATOM     10  C   UNL A   1      35.387  30.814  27.888  1.00  0.00     0.016 A 
ATOM     11  C   UNL A   1      38.756  31.501  29.363  1.00  0.00     0.010 A 
ATOM     12  C   UNL A   1      36.556  29.440  28.050  1.00  0.00     0.010 A 
ATOM     13  C   UNL A   1      38.389  29.769  28.867  1.00  0.00    -0.014 A 
BRANCH  13  14
ATOM     14  C   UNL A   1      39.579  28.928  29.535  1.00  0.00     0.031 A 
ATOM     15  C   UNL A   1      40.265  29.316  30.814  1.00  0.00     0.074 A 
ATOM     16  C   UNL A   1      40.096  27.855  28.888  1.00  0.00     0.049 A 
ATOM     17  N   UNL A   1      41.538  29.489  31.043  1.00  0.00    -0.248 NA
ATOM     18  C   UNL A   1      39.407  29.623  31.954  1.00  0.00     0.031 C 
ATOM     19  C   UNL A   1      39.564  27.195  27.689  1.00  0.00     0.029 A 
ATOM     20  N   UNL A   1      41.248  27.155  29.144  1.00  0.00    -0.354 N 
ATOM     21  C   UNL A   1      41.613  30.189  32.254  1.00  0.00     0.074 A 
ATOM     22  C   UNL A   1      40.264  30.258  32.755  1.00  0.00     0.031 C 
ATOM     23  C   UNL A   1      40.367  26.188  27.326  1.00  0.00     0.029 A 
ATOM     24  C   UNL A   1      41.520  26.188  28.204  1.00  0.00     0.049 A 
ATOM     25  H   UNL A   1      41.823  27.327  29.924  1.00  0.00     0.167 HD
ATOM     26  C   UNL A   1      42.736  30.704  32.826  1.00  0.00     0.034 A 
ATOM     27  C   UNL A   1      42.603  25.410  28.045  1.00  0.00     0.034 A 
ATOM     28  C   UNL A   1      43.980  29.993  32.632  1.00  0.00     0.049 A 
ATOM     29  C   UNL A   1      43.733  25.610  28.999  1.00  0.00     0.074 A 
ATOM     30  C   UNL A   1      45.143  30.076  33.379  1.00  0.00     0.029 A 
ATOM     31  N   UNL A   1      44.132  28.920  31.766  1.00  0.00    -0.354 N 
ATOM     32  N   UNL A   1      43.902  26.584  29.861  1.00  0.00    -0.248 NA
ATOM     33  C   UNL A   1      44.790  24.596  29.004  1.00  0.00     0.031 C 
ATOM     34  C   UNL A   1      45.940  28.981  33.047  1.00  0.00     0.029 A 
ATOM     35  C   UNL A   1      45.277  28.229  32.088  1.00  0.00     0.049 A 
ATOM     36  H   UNL A   1      43.515  28.689  31.035  1.00  0.00     0.167 HD
ATOM     37  C   UNL A   1      45.055  26.270  30.558  1.00  0.00     0.074 A 
ATOM     38  C   UNL A   1      45.549  25.022  30.007  1.00  0.00     0.031 C 
ATOM     39  C   UNL A   1      45.659  26.950  31.557  1.00  0.00     0.034 A 
BRANCH  26  40
ATOM     40  C   UNL A   1      42.753  31.835  33.856  1.00  0.00     0.023 A 
ATOM     41  C   UNL A   1      42.735  33.191  33.493  1.00  0.00     0.012 A 
ATOM     42  C   UNL A   1      42.591  31.528  35.240  1.00  0.00     0.148 A 
ATOM     43  C   UNL A   1      42.610  34.202  34.454  1.00  0.00     0.002 A 
ATOM     44  C   UNL A   1      42.370  32.537  36.185  1.00  0.00     0.091 A 
ATOM     45  F   UNL A   1      42.609  30.239  35.615  1.00  0.00    -0.205 F 
ATOM     46  C   UNL A   1      42.406  33.878  35.792  1.00  0.00     0.022 A 
BRANCH  44  47
ATOM     47  S   UNL A   1      42.012  32.206  37.925  1.00  0.00     0.127 S 
ATOM     48  O   UNL A   1      42.669  30.919  38.158  1.00  0.00    -0.237 OA
ATOM     49  O   UNL A   1      42.663  33.332  38.591  1.00  0.00    -0.237 OA
ATOM     50  O   UNL A   1      40.561  32.160  38.037  1.00  0.00    -0.744 OA
ENDBRANCH  44  47
ENDBRANCH  26  40
BRANCH  27  51
ATOM     51  C   UNL A   1      42.537  24.295  27.068  1.00  0.00     0.023 A 
ATOM     52  C   UNL A   1      43.449  24.315  25.995  1.00  0.00     0.012 A 
ATOM     53  C   UNL A   1      41.744  23.152  27.281  1.00  0.00     0.148 A 
ATOM     54  C   UNL A   1      43.575  23.217  25.147  1.00  0.00     0.002 A 
ATOM     55  C   UNL A   1      41.894  22.048  26.447  1.00  0.00     0.091 A 
ATOM     56  F   UNL A   1      40.906  23.146  28.327  1.00  0.00    -0.205 F 
ATOM     57  C   UNL A   1      42.807  22.081  25.379  1.00  0.00     0.022 A 
BRANCH  55  58
ATOM     58  S   UNL A   1      41.033  20.497  26.733  1.00  0.00     0.127 S 
ATOM     59  O   UNL A   1      39.749  20.747  26.084  1.00  0.00    -0.237 OA
ATOM     60  O   UNL A   1      41.896  19.537  26.043  1.00  0.00    -0.237 OA
ATOM     61  O   UNL A   1      40.992  20.332  28.180  1.00  0.00    -0.744 OA
ENDBRANCH  55  58
ENDBRANCH  27  51
BRANCH  39  62
ATOM     62  C   UNL A   1      46.856  26.327  32.196  1.00  0.00     0.023 A 
ATOM     63  C   UNL A   1      46.677  25.502  33.318  1.00  0.00     0.012 A 
ATOM     64  C   UNL A   1      48.105  26.404  31.555  1.00  0.00     0.148 A 
ATOM     65  C   UNL A   1      47.740  24.743  33.793  1.00  0.00     0.002 A 
ATOM     66  C   UNL A   1      49.149  25.617  32.012  1.00  0.00     0.091 A 
ATOM     67  F   UNL A   1      48.233  27.213  30.492  1.00  0.00    -0.205 F 
ATOM     68  C   UNL A   1      48.967  24.785  33.131  1.00  0.00     0.022 A 
BRANCH  66  69
ATOM     69  S   UNL A   1      50.730  25.543  31.168  1.00  0.00     0.127 S 
ATOM     70  O   UNL A   1      50.314  25.343  29.781  1.00  0.00    -0.237 OA
ATOM     71  O   UNL A   1      51.297  26.860  31.453  1.00  0.00    -0.237 OA
ATOM     72  O   UNL A   1      51.455  24.429  31.767  1.00  0.00    -0.744 OA
ENDBRANCH  66  69
ENDBRANCH  39  62
ENDBRANCH  13  14
ENDBRANCH   6   8
ENDBRANCH   5   6
ENDBRANCH   4   5
ENDBRANCH   3   4
ENDBRANCH   2   3
ENDBRANCH   1   2
BRANCH   1  73
ATOM     73  C   UNL A   1      32.037  29.341  26.968  1.00  0.00     0.188 C 
BRANCH  73  74
ATOM     74  O   UNL A   1      31.732  28.223  26.157  1.00  0.00    -0.376 OA
BRANCH  74  75
ATOM     75  C   UNL A   1      32.509  27.038  26.277  1.00  0.00     0.202 C 
BRANCH  75  76
ATOM     76  C   UNL A   1      33.916  26.924  25.658  1.00  0.00     0.261 C 
BRANCH  76  77
ATOM     77  O   UNL A   1      34.035  26.698  24.251  1.00  0.00    -0.459 OA
BRANCH  77  78
ATOM     78  C   UNL A   1      33.837  27.820  23.500  1.00  0.00     0.365 C 
ATOM     79  O   UNL A   1      34.408  28.890  23.681  1.00  0.00    -0.245 OA
BRANCH  78  80
ATOM     80  C   UNL A   1      32.640  27.658  22.558  1.00  0.00     0.298 C 
ATOM     81  C   UNL A   1      32.184  26.202  22.241  1.00  0.00     0.111 C 
ATOM     82  N   UNL A   1      31.619  28.586  23.076  1.00  0.00    -0.326 N 
ATOM     83  C   UNL A   1      30.907  25.828  22.918  1.00  0.00    -0.024 C 
ATOM     84  C   UNL A   1      30.279  28.249  22.608  1.00  0.00     0.243 C 
ATOM     85  H   UNL A   1      31.848  29.531  22.768  1.00  0.00     0.347 HD
ATOM     86  H   UNL A   1      31.622  28.517  24.095  1.00  0.00     0.347 HD
ATOM     87  C   UNL A   1      30.618  24.735  23.605  1.00  0.00     0.002 A 
ATOM     88  C   UNL A   1      29.817  26.871  23.133  1.00  0.00     0.196 C 
ATOM     89  C   UNL A   1      31.468  23.179  24.069  1.00  0.00     0.010 A 
ATOM     90  C   UNL A   1      29.521  25.501  24.882  1.00  0.00     0.066 A 
ATOM     91  N   UNL A   1      29.306  26.751  24.563  1.00  0.00    -0.270 NA
ATOM     92  C   UNL A   1      31.106  22.401  25.726  1.00  0.00     0.001 A 
ATOM     93  C   UNL A   1      29.226  24.589  26.529  1.00  0.00     0.028 A 
ATOM     94  C   UNL A   1      29.904  23.276  26.911  1.00  0.00     0.002 A 
BRANCH  84  95
ATOM     95  C   UNL A   1      29.410  29.467  22.775  1.00  0.00     0.012 A 
ATOM     96  C   UNL A   1      29.546  30.361  23.836  1.00  0.00     0.010 A 
ATOM     97  C   UNL A   1      28.544  29.798  21.711  1.00  0.00     0.010 A 
ATOM     98  C   UNL A   1      28.874  31.579  23.806  1.00  0.00     0.001 A 
ATOM     99  C   UNL A   1      27.850  31.000  21.699  1.00  0.00     0.001 A 
ATOM    100  C   UNL A   1      28.032  31.897  22.741  1.00  0.00     0.000 A 
ENDBRANCH  84  95
ENDBRANCH  78  80
ENDBRANCH  77  78
ENDBRANCH  76  77
ENDBRANCH  75  76
ENDBRANCH  74  75
ENDBRANCH  73  74
ENDBRANCH   1  73
TORSDOF 21
ENDMDL
