MODEL 1
REMARK VINA RESULT:     -10.7      0.000      0.000
REMARK SMILES COc1ccc(-c2cc(F)cc(C(=O)OCCOCCOCCOC(=O)c3ccc(-c4c5nc(c(-c6cccc(S(=O)(=O)[O-])c6F)c6ccc([nH]6)c(-c6cccc(S(=O)(=O)[O-])c6F)c6nc(c(-c7cccc(S(=O)(=O)[O-])c7F)c7ccc4[nH]7)C=C6)C=C5)cc3)c2)cc1C
REMARK SMILES IDX 20 1 19 2 18 3 17 4 16 5 15 6 13 7 14 8 12 9 7 10 8 11 90 12
REMARK SMILES IDX 9 13 10 14 11 15 6 16 3 17 4 18 92 19 5 20 91 21 93 22 2 23
REMARK SMILES IDX 1 24 21 25 22 26 23 27 24 28 25 29 26 30 27 31 28 32 89 33
REMARK SMILES IDX 29 34 88 35 30 36 31 37 32 38 82 39 33 40 87 41 81 42 83 43
REMARK SMILES IDX 34 44 86 45 80 46 79 47 35 49 67 50 47 51 66 52 48 53 51 54
REMARK SMILES IDX 65 55 84 56 49 57 50 58 64 60 85 61 52 62 36 63 37 64 45 65
REMARK SMILES IDX 38 66 40 67 46 68 39 69 41 70 42 71 43 72 44 73 68 74 69 75
REMARK SMILES IDX 77 76 70 77 72 78 78 79 71 80 73 81 74 82 75 83 76 84 53 85
REMARK SMILES IDX 54 86 62 87 55 88 57 89 63 90 56 91 58 92 59 93 60 94 61 95
REMARK H PARENT 83 48 51 59
REMARK Flexibility Score: inf
ROOT
ATOM      1  C   UNL A   1      46.280  20.114  24.664  1.00  0.00     0.188 C 
ENDROOT
BRANCH   1   2
ATOM      2  C   UNL A   1      46.047  18.792  25.387  1.00  0.00     0.188 C 
BRANCH   2   3
ATOM      3  O   UNL A   1      44.824  18.301  24.883  1.00  0.00    -0.376 OA
BRANCH   3   4
ATOM      4  C   UNL A   1      43.822  18.091  25.871  1.00  0.00     0.202 C 
BRANCH   4   5
ATOM      5  C   UNL A   1      42.529  19.042  26.165  1.00  0.00     0.261 C 
BRANCH   5   6
ATOM      6  O   UNL A   1      42.389  20.516  26.770  1.00  0.00    -0.460 OA
BRANCH   6   7
ATOM      7  C   UNL A   1      41.105  20.862  27.145  1.00  0.00     0.338 C 
ATOM      8  O   UNL A   1      40.764  20.030  27.915  1.00  0.00    -0.246 OA
BRANCH   7   9
ATOM      9  C   UNL A   1      39.935  22.102  26.540  1.00  0.00     0.063 A 
ATOM     10  C   UNL A   1      37.435  22.699  25.658  1.00  0.00    -0.015 A 
ATOM     11  C   UNL A   1      37.732  23.974  26.091  1.00  0.00     0.048 A 
ATOM     12  C   UNL A   1      38.571  21.850  25.832  1.00  0.00     0.024 A 
ATOM     13  C   UNL A   1      39.018  24.305  26.640  1.00  0.00     0.124 A 
ATOM     14  F   UNL A   1      39.195  25.577  27.019  1.00  0.00    -0.207 F 
ATOM     15  C   UNL A   1      40.098  23.409  26.882  1.00  0.00     0.055 A 
BRANCH  10  16
ATOM     16  C   UNL A   1      35.991  22.243  25.256  1.00  0.00    -0.018 A 
ATOM     17  C   UNL A   1      33.136  21.582  24.808  1.00  0.00     0.121 A 
ATOM     18  C   UNL A   1      33.841  21.154  25.933  1.00  0.00     0.047 A 
ATOM     19  C   UNL A   1      33.849  22.321  23.857  1.00  0.00    -0.008 A 
ATOM     20  C   UNL A   1      35.222  21.458  26.142  1.00  0.00     0.012 A 
ATOM     21  C   UNL A   1      35.263  22.625  24.086  1.00  0.00     0.016 A 
ATOM     22  C   UNL A   1      33.138  22.850  22.635  1.00  0.00     0.048 C 
BRANCH  17  23
ATOM     23  O   UNL A   1      31.774  21.387  24.861  1.00  0.00    -0.496 OA
ATOM     24  C   UNL A   1      30.977  22.192  25.728  1.00  0.00     0.278 C 
ENDBRANCH  17  23
ENDBRANCH  10  16
ENDBRANCH   7   9
ENDBRANCH   6   7
ENDBRANCH   5   6
ENDBRANCH   4   5
ENDBRANCH   3   4
ENDBRANCH   2   3
ENDBRANCH   1   2
BRANCH   1  25
ATOM     25  O   UNL A   1      45.075  20.716  24.177  1.00  0.00    -0.376 OA
BRANCH  25  26
ATOM     26  C   UNL A   1      44.683  21.901  24.869  1.00  0.00     0.202 C 
BRANCH  26  27
ATOM     27  C   UNL A   1      44.810  23.271  24.103  1.00  0.00     0.261 C 
BRANCH  27  28
ATOM     28  O   UNL A   1      44.833  24.434  24.988  1.00  0.00    -0.460 OA
BRANCH  28  29
ATOM     29  C   UNL A   1      44.632  24.322  26.345  1.00  0.00     0.338 C 
ATOM     30  O   UNL A   1      45.242  23.555  27.066  1.00  0.00    -0.246 OA
BRANCH  29  31
ATOM     31  C   UNL A   1      43.486  25.217  26.761  1.00  0.00     0.060 A 
ATOM     32  C   UNL A   1      43.086  26.404  26.153  1.00  0.00     0.016 A 
ATOM     33  C   UNL A   1      42.761  24.929  27.868  1.00  0.00     0.016 A 
ATOM     34  C   UNL A   1      42.423  27.482  26.881  1.00  0.00     0.010 A 
ATOM     35  C   UNL A   1      42.115  25.993  28.538  1.00  0.00     0.010 A 
ATOM     36  C   UNL A   1      42.151  27.413  28.240  1.00  0.00    -0.014 A 
BRANCH  36  37
ATOM     37  C   UNL A   1      42.141  28.870  29.291  1.00  0.00     0.031 A 
ATOM     38  C   UNL A   1      40.955  30.128  29.758  1.00  0.00     0.074 A 
ATOM     39  C   UNL A   1      43.098  28.794  30.230  1.00  0.00     0.049 A 
ATOM     40  N   UNL A   1      41.040  31.455  29.739  1.00  0.00    -0.248 NA
ATOM     41  C   UNL A   1      39.565  29.919  30.260  1.00  0.00     0.031 C 
ATOM     42  C   UNL A   1      43.111  29.439  31.529  1.00  0.00     0.029 A 
ATOM     43  N   UNL A   1      44.286  28.093  30.192  1.00  0.00    -0.354 N 
ATOM     44  C   UNL A   1      39.764  31.966  30.262  1.00  0.00     0.074 A 
ATOM     45  C   UNL A   1      38.816  30.967  29.937  1.00  0.00     0.031 C 
ATOM     46  C   UNL A   1      44.325  29.275  32.076  1.00  0.00     0.029 A 
ATOM     47  C   UNL A   1      45.188  28.706  31.060  1.00  0.00     0.049 A 
ATOM     48  H   UNL A   1      44.465  27.294  29.644  1.00  0.00     0.167 HD
ATOM     49  C   UNL A   1      39.559  32.646  31.462  1.00  0.00     0.034 A 
ATOM     50  C   UNL A   1      46.266  29.334  30.493  1.00  0.00     0.034 A 
ATOM     51  C   UNL A   1      40.842  32.773  32.119  1.00  0.00     0.049 A 
ATOM     52  C   UNL A   1      46.125  30.856  30.505  1.00  0.00     0.074 A 
ATOM     53  C   UNL A   1      41.449  32.217  33.228  1.00  0.00     0.029 A 
ATOM     54  N   UNL A   1      41.820  33.394  31.398  1.00  0.00    -0.354 N 
ATOM     55  N   UNL A   1      45.186  31.499  31.159  1.00  0.00    -0.248 NA
ATOM     56  C   UNL A   1      47.014  31.794  29.821  1.00  0.00     0.031 C 
ATOM     57  C   UNL A   1      42.855  32.439  33.090  1.00  0.00     0.029 A 
ATOM     58  C   UNL A   1      43.068  33.144  31.918  1.00  0.00     0.049 A 
ATOM     59  H   UNL A   1      41.654  33.951  30.603  1.00  0.00     0.167 HD
ATOM     60  C   UNL A   1      45.204  32.833  30.845  1.00  0.00     0.074 A 
ATOM     61  C   UNL A   1      46.432  32.980  30.089  1.00  0.00     0.031 C 
ATOM     62  C   UNL A   1      44.183  33.691  31.162  1.00  0.00     0.034 A 
BRANCH  49  63
ATOM     63  C   UNL A   1      38.206  32.879  32.280  1.00  0.00     0.023 A 
ATOM     64  C   UNL A   1      38.185  32.401  33.620  1.00  0.00     0.012 A 
ATOM     65  C   UNL A   1      36.987  33.524  31.887  1.00  0.00     0.148 A 
ATOM     66  C   UNL A   1      37.058  32.463  34.465  1.00  0.00     0.002 A 
ATOM     67  C   UNL A   1      35.835  33.538  32.718  1.00  0.00     0.091 A 
ATOM     68  F   UNL A   1      36.933  34.208  30.736  1.00  0.00    -0.205 F 
ATOM     69  C   UNL A   1      35.873  33.007  34.008  1.00  0.00     0.022 A 
BRANCH  67  70
ATOM     70  S   UNL A   1      34.214  34.158  32.182  1.00  0.00     0.127 S 
ATOM     71  O   UNL A   1      34.423  35.608  32.137  1.00  0.00    -0.237 OA
ATOM     72  O   UNL A   1      34.047  33.536  30.871  1.00  0.00    -0.237 OA
ATOM     73  O   UNL A   1      33.277  33.734  33.215  1.00  0.00    -0.744 OA
ENDBRANCH  67  70
ENDBRANCH  49  63
BRANCH  50  74
ATOM     74  C   UNL A   1      46.926  28.387  29.516  1.00  0.00     0.023 A 
ATOM     75  C   UNL A   1      47.001  27.047  29.994  1.00  0.00     0.012 A 
ATOM     76  C   UNL A   1      46.990  28.583  28.124  1.00  0.00     0.148 A 
ATOM     77  C   UNL A   1      46.857  25.954  29.135  1.00  0.00     0.002 A 
ATOM     78  C   UNL A   1      46.951  27.470  27.262  1.00  0.00     0.091 A 
ATOM     79  F   UNL A   1      46.996  29.835  27.648  1.00  0.00    -0.205 F 
ATOM     80  C   UNL A   1      46.792  26.169  27.769  1.00  0.00     0.022 A 
BRANCH  78  81
ATOM     81  S   UNL A   1      46.959  27.668  25.465  1.00  0.00     0.127 S 
ATOM     82  O   UNL A   1      45.654  28.271  25.226  1.00  0.00    -0.237 OA
ATOM     83  O   UNL A   1      48.091  28.563  25.219  1.00  0.00    -0.237 OA
ATOM     84  O   UNL A   1      47.151  26.317  24.966  1.00  0.00    -0.744 OA
ENDBRANCH  78  81
ENDBRANCH  50  74
BRANCH  62  85
ATOM     85  C   UNL A   1      44.012  35.125  30.656  1.00  0.00     0.023 A 
ATOM     86  C   UNL A   1      44.351  36.235  31.443  1.00  0.00     0.012 A 
ATOM     87  C   UNL A   1      43.748  35.377  29.274  1.00  0.00     0.148 A 
ATOM     88  C   UNL A   1      44.362  37.532  30.913  1.00  0.00     0.002 A 
ATOM     89  C   UNL A   1      43.919  36.643  28.724  1.00  0.00     0.091 A 
ATOM     90  F   UNL A   1      43.358  34.373  28.472  1.00  0.00    -0.205 F 
ATOM     91  C   UNL A   1      44.177  37.734  29.550  1.00  0.00     0.022 A 
BRANCH  89  92
ATOM     92  S   UNL A   1      44.039  36.871  26.939  1.00  0.00     0.127 S 
ATOM     93  O   UNL A   1      42.678  36.573  26.500  1.00  0.00    -0.237 OA
ATOM     94  O   UNL A   1      44.423  38.279  26.823  1.00  0.00    -0.237 OA
ATOM     95  O   UNL A   1      45.073  35.936  26.516  1.00  0.00    -0.744 OA
ENDBRANCH  89  92
ENDBRANCH  62  85
ENDBRANCH  36  37
ENDBRANCH  29  31
ENDBRANCH  28  29
ENDBRANCH  27  28
ENDBRANCH  26  27
ENDBRANCH  25  26
ENDBRANCH   1  25
TORSDOF 22
ENDMDL
MODEL 2
REMARK VINA RESULT:     -10.5      3.229      5.552
REMARK SMILES COc1ccc(-c2cc(F)cc(C(=O)OCCOCCOCCOC(=O)c3ccc(-c4c5nc(c(-c6cccc(S(=O)(=O)[O-])c6F)c6ccc([nH]6)c(-c6cccc(S(=O)(=O)[O-])c6F)c6nc(c(-c7cccc(S(=O)(=O)[O-])c7F)c7ccc4[nH]7)C=C6)C=C5)cc3)c2)cc1C
REMARK SMILES IDX 20 1 19 2 18 3 17 4 16 5 15 6 13 7 14 8 12 9 7 10 8 11 90 12
REMARK SMILES IDX 9 13 10 14 11 15 6 16 3 17 4 18 92 19 5 20 91 21 93 22 2 23
REMARK SMILES IDX 1 24 21 25 22 26 23 27 24 28 25 29 26 30 27 31 28 32 89 33
REMARK SMILES IDX 29 34 88 35 30 36 31 37 32 38 82 39 33 40 87 41 81 42 83 43
REMARK SMILES IDX 34 44 86 45 80 46 79 47 35 49 67 50 47 51 66 52 48 53 51 54
REMARK SMILES IDX 65 55 84 56 49 57 50 58 64 60 85 61 52 62 36 63 37 64 45 65
REMARK SMILES IDX 38 66 40 67 46 68 39 69 41 70 42 71 43 72 44 73 68 74 69 75
REMARK SMILES IDX 77 76 70 77 72 78 78 79 71 80 73 81 74 82 75 83 76 84 53 85
REMARK SMILES IDX 54 86 62 87 55 88 57 89 63 90 56 91 58 92 59 93 60 94 61 95
REMARK H PARENT 83 48 51 59
REMARK Flexibility Score: inf
ROOT
ATOM      1  C   UNL A   1      35.560  20.926  24.639  1.00  0.00     0.188 C 
ENDROOT
BRANCH   1   2
ATOM      2  C   UNL A   1      34.569  21.076  25.788  1.00  0.00     0.188 C 
BRANCH   2   3
ATOM      3  O   UNL A   1      34.681  22.418  26.207  1.00  0.00    -0.376 OA
BRANCH   3   4
ATOM      4  C   UNL A   1      34.122  22.685  27.487  1.00  0.00     0.202 C 
BRANCH   4   5
ATOM      5  C   UNL A   1      32.568  22.469  27.936  1.00  0.00     0.261 C 
BRANCH   5   6
ATOM      6  O   UNL A   1      31.223  23.259  27.581  1.00  0.00    -0.460 OA
BRANCH   6   7
ATOM      7  C   UNL A   1      30.770  23.069  26.290  1.00  0.00     0.338 C 
ATOM      8  O   UNL A   1      30.306  21.980  26.273  1.00  0.00    -0.246 OA
BRANCH   7   9
ATOM      9  C   UNL A   1      30.962  24.019  24.762  1.00  0.00     0.063 A 
ATOM     10  C   UNL A   1      30.784  26.405  23.474  1.00  0.00    -0.015 A 
ATOM     11  C   UNL A   1      31.716  25.860  22.617  1.00  0.00     0.048 A 
ATOM     12  C   UNL A   1      30.398  25.437  24.452  1.00  0.00     0.024 A 
ATOM     13  C   UNL A   1      32.186  24.511  22.772  1.00  0.00     0.124 A 
ATOM     14  F   UNL A   1      33.086  24.086  21.874  1.00  0.00    -0.207 F 
ATOM     15  C   UNL A   1      31.846  23.603  23.815  1.00  0.00     0.055 A 
BRANCH  10  16
ATOM     16  C   UNL A   1      30.404  27.925  23.477  1.00  0.00    -0.018 A 
ATOM     17  C   UNL A   1      29.330  30.686  23.598  1.00  0.00     0.121 A 
ATOM     18  C   UNL A   1      28.849  29.728  22.704  1.00  0.00     0.047 A 
ATOM     19  C   UNL A   1      30.387  30.301  24.430  1.00  0.00    -0.008 A 
ATOM     20  C   UNL A   1      29.378  28.402  22.633  1.00  0.00     0.012 A 
ATOM     21  C   UNL A   1      30.916  28.938  24.346  1.00  0.00     0.016 A 
ATOM     22  C   UNL A   1      30.928  31.273  25.449  1.00  0.00     0.048 C 
BRANCH  17  23
ATOM     23  O   UNL A   1      28.579  31.836  23.683  1.00  0.00    -0.496 OA
ATOM     24  C   UNL A   1      28.743  32.862  22.705  1.00  0.00     0.278 C 
ENDBRANCH  17  23
ENDBRANCH  10  16
ENDBRANCH   7   9
ENDBRANCH   6   7
ENDBRANCH   5   6
ENDBRANCH   4   5
ENDBRANCH   3   4
ENDBRANCH   2   3
ENDBRANCH   1   2
BRANCH   1  25
ATOM     25  O   UNL A   1      36.831  20.408  25.050  1.00  0.00    -0.376 OA
BRANCH  25  26
ATOM     26  C   UNL A   1      37.849  21.396  25.210  1.00  0.00     0.202 C 
BRANCH  26  27
ATOM     27  C   UNL A   1      39.263  20.914  25.711  1.00  0.00     0.261 C 
BRANCH  27  28
ATOM     28  O   UNL A   1      39.607  21.404  27.045  1.00  0.00    -0.460 OA
BRANCH  28  29
ATOM     29  C   UNL A   1      40.765  22.108  27.286  1.00  0.00     0.338 C 
ATOM     30  O   UNL A   1      41.809  21.603  27.653  1.00  0.00    -0.246 OA
BRANCH  29  31
ATOM     31  C   UNL A   1      40.500  23.588  27.117  1.00  0.00     0.060 A 
ATOM     32  C   UNL A   1      41.340  24.527  26.523  1.00  0.00     0.016 A 
ATOM     33  C   UNL A   1      39.373  24.143  27.621  1.00  0.00     0.016 A 
ATOM     34  C   UNL A   1      41.335  25.938  26.895  1.00  0.00     0.010 A 
ATOM     35  C   UNL A   1      39.396  25.517  27.951  1.00  0.00     0.010 A 
ATOM     36  C   UNL A   1      40.502  26.454  27.878  1.00  0.00    -0.014 A 
BRANCH  36  37
ATOM     37  C   UNL A   1      40.983  27.843  28.911  1.00  0.00     0.031 A 
ATOM     38  C   UNL A   1      40.277  29.420  29.378  1.00  0.00     0.074 A 
ATOM     39  C   UNL A   1      41.879  27.467  29.838  1.00  0.00     0.049 A 
ATOM     40  N   UNL A   1      40.789  30.648  29.342  1.00  0.00    -0.248 NA
ATOM     41  C   UNL A   1      38.903  29.678  29.901  1.00  0.00     0.031 C 
ATOM     42  C   UNL A   1      42.122  28.082  31.129  1.00  0.00     0.029 A 
ATOM     43  N   UNL A   1      42.774  26.417  29.792  1.00  0.00    -0.354 N 
ATOM     44  C   UNL A   1      39.756  31.549  29.875  1.00  0.00     0.074 A 
ATOM     45  C   UNL A   1      38.530  30.910  29.575  1.00  0.00     0.031 C 
ATOM     46  C   UNL A   1      43.227  27.537  31.661  1.00  0.00     0.029 A 
ATOM     47  C   UNL A   1      43.841  26.711  30.641  1.00  0.00     0.049 A 
ATOM     48  H   UNL A   1      42.676  25.600  29.252  1.00  0.00     0.167 HD
ATOM     49  C   UNL A   1      39.803  32.268  31.070  1.00  0.00     0.034 A 
ATOM     50  C   UNL A   1      45.055  26.950  30.051  1.00  0.00     0.034 A 
ATOM     51  C   UNL A   1      41.068  31.976  31.708  1.00  0.00     0.049 A 
ATOM     52  C   UNL A   1      45.415  28.436  30.048  1.00  0.00     0.074 A 
ATOM     53  C   UNL A   1      41.480  31.261  32.816  1.00  0.00     0.029 A 
ATOM     54  N   UNL A   1      42.183  32.240  30.966  1.00  0.00    -0.354 N 
ATOM     55  N   UNL A   1      44.747  29.353  30.706  1.00  0.00    -0.248 NA
ATOM     56  C   UNL A   1      46.549  29.030  29.340  1.00  0.00     0.031 C 
ATOM     57  C   UNL A   1      42.879  31.013  32.657  1.00  0.00     0.029 A 
ATOM     58  C   UNL A   1      43.290  31.603  31.473  1.00  0.00     0.049 A 
ATOM     59  H   UNL A   1      42.193  32.816  30.168  1.00  0.00     0.167 HD
ATOM     60  C   UNL A   1      45.191  30.607  30.375  1.00  0.00     0.074 A 
ATOM     61  C   UNL A   1      46.388  30.342  29.602  1.00  0.00     0.031 C 
ATOM     62  C   UNL A   1      44.510  31.752  30.696  1.00  0.00     0.034 A 
BRANCH  49  63
ATOM     63  C   UNL A   1      38.612  32.933  31.903  1.00  0.00     0.023 A 
ATOM     64  C   UNL A   1      38.899  33.282  33.252  1.00  0.00     0.012 A 
ATOM     65  C   UNL A   1      37.276  33.265  31.502  1.00  0.00     0.148 A 
ATOM     66  C   UNL A   1      37.954  33.818  34.150  1.00  0.00     0.002 A 
ATOM     67  C   UNL A   1      36.309  33.754  32.421  1.00  0.00     0.091 A 
ATOM     68  F   UNL A   1      36.928  33.193  30.211  1.00  0.00    -0.205 F 
ATOM     69  C   UNL A   1      36.650  34.029  33.746  1.00  0.00     0.022 A 
BRANCH  67  70
ATOM     70  S   UNL A   1      34.556  33.989  32.007  1.00  0.00     0.127 S 
ATOM     71  O   UNL A   1      34.061  32.613  31.904  1.00  0.00    -0.237 OA
ATOM     72  O   UNL A   1      34.046  34.724  33.161  1.00  0.00    -0.237 OA
ATOM     73  O   UNL A   1      34.551  34.707  30.738  1.00  0.00    -0.744 OA
ENDBRANCH  67  70
ENDBRANCH  49  63
BRANCH  50  74
ATOM     74  C   UNL A   1      45.356  25.834  29.078  1.00  0.00     0.023 A 
ATOM     75  C   UNL A   1      45.008  24.544  29.575  1.00  0.00     0.012 A 
ATOM     76  C   UNL A   1      45.448  25.987  27.682  1.00  0.00     0.148 A 
ATOM     77  C   UNL A   1      44.503  23.548  28.735  1.00  0.00     0.002 A 
ATOM     78  C   UNL A   1      45.036  24.937  26.838  1.00  0.00     0.091 A 
ATOM     79  F   UNL A   1      45.844  27.167  27.186  1.00  0.00    -0.205 F 
ATOM     80  C   UNL A   1      44.480  23.761  27.367  1.00  0.00     0.022 A 
BRANCH  78  81
ATOM     81  S   UNL A   1      45.068  25.107  25.038  1.00  0.00     0.127 S 
ATOM     82  O   UNL A   1      43.778  24.541  24.663  1.00  0.00    -0.237 OA
ATOM     83  O   UNL A   1      45.177  26.552  24.827  1.00  0.00    -0.237 OA
ATOM     84  O   UNL A   1      46.247  24.358  24.638  1.00  0.00    -0.744 OA
ENDBRANCH  78  81
ENDBRANCH  50  74
BRANCH  62  85
ATOM     85  C   UNL A   1      44.805  33.161  30.175  1.00  0.00     0.023 A 
ATOM     86  C   UNL A   1      45.471  34.116  30.955  1.00  0.00     0.012 A 
ATOM     87  C   UNL A   1      44.646  33.466  28.787  1.00  0.00     0.148 A 
ATOM     88  C   UNL A   1      45.896  35.336  30.414  1.00  0.00     0.002 A 
ATOM     89  C   UNL A   1      45.213  34.606  28.228  1.00  0.00     0.091 A 
ATOM     90  F   UNL A   1      43.965  32.627  27.990  1.00  0.00    -0.205 F 
ATOM     91  C   UNL A   1      45.796  35.570  29.047  1.00  0.00     0.022 A 
BRANCH  89  92
ATOM     92  S   UNL A   1      45.414  34.763  26.442  1.00  0.00     0.127 S 
ATOM     93  O   UNL A   1      44.033  34.913  25.991  1.00  0.00    -0.237 OA
ATOM     94  O   UNL A   1      46.231  35.971  26.319  1.00  0.00    -0.237 OA
ATOM     95  O   UNL A   1      46.096  33.540  26.039  1.00  0.00    -0.744 OA
ENDBRANCH  89  92
ENDBRANCH  62  85
ENDBRANCH  36  37
ENDBRANCH  29  31
ENDBRANCH  28  29
ENDBRANCH  27  28
ENDBRANCH  26  27
ENDBRANCH  25  26
ENDBRANCH   1  25
TORSDOF 22
ENDMDL
MODEL 3
REMARK VINA RESULT:     -10.3      3.381      5.918
REMARK SMILES COc1ccc(-c2cc(F)cc(C(=O)OCCOCCOCCOC(=O)c3ccc(-c4c5nc(c(-c6cccc(S(=O)(=O)[O-])c6F)c6ccc([nH]6)c(-c6cccc(S(=O)(=O)[O-])c6F)c6nc(c(-c7cccc(S(=O)(=O)[O-])c7F)c7ccc4[nH]7)C=C6)C=C5)cc3)c2)cc1C
REMARK SMILES IDX 20 1 19 2 18 3 17 4 16 5 15 6 13 7 14 8 12 9 7 10 8 11 90 12
REMARK SMILES IDX 9 13 10 14 11 15 6 16 3 17 4 18 92 19 5 20 91 21 93 22 2 23
REMARK SMILES IDX 1 24 21 25 22 26 23 27 24 28 25 29 26 30 27 31 28 32 89 33
REMARK SMILES IDX 29 34 88 35 30 36 31 37 32 38 82 39 33 40 87 41 81 42 83 43
REMARK SMILES IDX 34 44 86 45 80 46 79 47 35 49 67 50 47 51 66 52 48 53 51 54
REMARK SMILES IDX 65 55 84 56 49 57 50 58 64 60 85 61 52 62 36 63 37 64 45 65
REMARK SMILES IDX 38 66 40 67 46 68 39 69 41 70 42 71 43 72 44 73 68 74 69 75
REMARK SMILES IDX 77 76 70 77 72 78 78 79 71 80 73 81 74 82 75 83 76 84 53 85
REMARK SMILES IDX 54 86 62 87 55 88 57 89 63 90 56 91 58 92 59 93 60 94 61 95
REMARK H PARENT 83 48 51 59
REMARK Flexibility Score: inf
ROOT
ATOM      1  C   UNL A   1      38.360  21.450  25.447  1.00  0.00     0.188 C 
ENDROOT
BRANCH   1   2
ATOM      2  C   UNL A   1      36.854  21.471  25.211  1.00  0.00     0.188 C 
BRANCH   2   3
ATOM      3  O   UNL A   1      36.519  22.832  25.050  1.00  0.00    -0.376 OA
BRANCH   3   4
ATOM      4  C   UNL A   1      35.355  23.240  25.758  1.00  0.00     0.202 C 
BRANCH   4   5
ATOM      5  C   UNL A   1      34.153  22.276  26.296  1.00  0.00     0.261 C 
BRANCH   5   6
ATOM      6  O   UNL A   1      32.560  22.403  26.236  1.00  0.00    -0.460 OA
BRANCH   6   7
ATOM      7  C   UNL A   1      32.069  22.916  25.050  1.00  0.00     0.338 C 
ATOM      8  O   UNL A   1      32.004  21.994  24.309  1.00  0.00    -0.246 OA
BRANCH   7   9
ATOM      9  C   UNL A   1      31.771  24.600  24.464  1.00  0.00     0.063 A 
ATOM     10  C   UNL A   1      32.172  27.271  24.770  1.00  0.00    -0.015 A 
ATOM     11  C   UNL A   1      31.908  27.329  23.418  1.00  0.00     0.048 A 
ATOM     12  C   UNL A   1      32.016  25.929  25.237  1.00  0.00     0.024 A 
ATOM     13  C   UNL A   1      31.552  26.157  22.666  1.00  0.00     0.124 A 
ATOM     14  F   UNL A   1      31.308  26.337  21.361  1.00  0.00    -0.207 F 
ATOM     15  C   UNL A   1      31.493  24.819  23.149  1.00  0.00     0.055 A 
BRANCH  10  16
ATOM     16  C   UNL A   1      32.769  28.471  25.581  1.00  0.00    -0.018 A 
ATOM     17  C   UNL A   1      33.634  30.653  27.392  1.00  0.00     0.121 A 
ATOM     18  C   UNL A   1      32.367  30.616  26.806  1.00  0.00     0.047 A 
ATOM     19  C   UNL A   1      34.516  29.619  27.059  1.00  0.00    -0.008 A 
ATOM     20  C   UNL A   1      31.956  29.573  25.920  1.00  0.00     0.012 A 
ATOM     21  C   UNL A   1      34.078  28.557  26.150  1.00  0.00     0.016 A 
ATOM     22  C   UNL A   1      35.886  29.574  27.688  1.00  0.00     0.048 C 
BRANCH  17  23
ATOM     23  O   UNL A   1      33.796  31.602  28.376  1.00  0.00    -0.496 OA
ATOM     24  C   UNL A   1      34.091  32.951  28.016  1.00  0.00     0.278 C 
ENDBRANCH  17  23
ENDBRANCH  10  16
ENDBRANCH   7   9
ENDBRANCH   6   7
ENDBRANCH   5   6
ENDBRANCH   4   5
ENDBRANCH   3   4
ENDBRANCH   2   3
ENDBRANCH   1   2
BRANCH   1  25
ATOM     25  O   UNL A   1      38.808  22.467  26.350  1.00  0.00    -0.376 OA
BRANCH  25  26
ATOM     26  C   UNL A   1      40.046  22.179  27.000  1.00  0.00     0.202 C 
BRANCH  26  27
ATOM     27  C   UNL A   1      41.359  22.246  26.135  1.00  0.00     0.261 C 
BRANCH  27  28
ATOM     28  O   UNL A   1      42.089  20.981  26.082  1.00  0.00    -0.460 OA
BRANCH  28  29
ATOM     29  C   UNL A   1      43.251  20.839  25.358  1.00  0.00     0.338 C 
ATOM     30  O   UNL A   1      43.523  19.863  24.685  1.00  0.00    -0.246 OA
BRANCH  29  31
ATOM     31  C   UNL A   1      44.152  22.027  25.614  1.00  0.00     0.060 A 
ATOM     32  C   UNL A   1      44.845  22.316  26.787  1.00  0.00     0.016 A 
ATOM     33  C   UNL A   1      44.308  22.983  24.668  1.00  0.00     0.016 A 
ATOM     34  C   UNL A   1      45.187  23.677  27.187  1.00  0.00     0.010 A 
ATOM     35  C   UNL A   1      44.659  24.286  25.088  1.00  0.00     0.010 A 
ATOM     36  C   UNL A   1      44.838  24.792  26.437  1.00  0.00    -0.014 A 
BRANCH  36  37
ATOM     37  C   UNL A   1      44.476  26.381  27.191  1.00  0.00     0.031 A 
ATOM     38  C   UNL A   1      43.017  27.370  27.502  1.00  0.00     0.074 A 
ATOM     39  C   UNL A   1      45.444  26.738  28.052  1.00  0.00     0.049 A 
ATOM     40  N   UNL A   1      42.753  28.645  27.226  1.00  0.00    -0.248 NA
ATOM     41  C   UNL A   1      41.742  26.927  28.139  1.00  0.00     0.031 C 
ATOM     42  C   UNL A   1      45.321  27.615  29.201  1.00  0.00     0.029 A 
ATOM     43  N   UNL A   1      46.772  26.363  28.055  1.00  0.00    -0.354 N 
ATOM     44  C   UNL A   1      41.402  28.915  27.739  1.00  0.00     0.074 A 
ATOM     45  C   UNL A   1      40.738  27.667  27.682  1.00  0.00     0.031 C 
ATOM     46  C   UNL A   1      46.550  27.874  29.674  1.00  0.00     0.029 A 
ATOM     47  C   UNL A   1      47.506  27.345  28.721  1.00  0.00     0.049 A 
ATOM     48  H   UNL A   1      47.139  25.541  27.657  1.00  0.00     0.167 HD
ATOM     49  C   UNL A   1      41.058  29.751  28.801  1.00  0.00     0.034 A 
ATOM     50  C   UNL A   1      48.368  28.093  27.964  1.00  0.00     0.034 A 
ATOM     51  C   UNL A   1      42.279  30.324  29.322  1.00  0.00     0.049 A 
ATOM     52  C   UNL A   1      47.836  29.503  27.700  1.00  0.00     0.074 A 
ATOM     53  C   UNL A   1      43.039  30.174  30.467  1.00  0.00     0.029 A 
ATOM     54  N   UNL A   1      43.044  31.011  28.424  1.00  0.00    -0.354 N 
ATOM     55  N   UNL A   1      46.780  30.008  28.291  1.00  0.00    -0.248 NA
ATOM     56  C   UNL A   1      48.434  30.474  26.785  1.00  0.00     0.031 C 
ATOM     57  C   UNL A   1      44.334  30.707  30.182  1.00  0.00     0.029 A 
ATOM     58  C   UNL A   1      44.326  31.191  28.885  1.00  0.00     0.049 A 
ATOM     59  H   UNL A   1      42.718  31.336  27.554  1.00  0.00     0.167 HD
ATOM     60  C   UNL A   1      46.442  31.213  27.730  1.00  0.00     0.074 A 
ATOM     61  C   UNL A   1      47.570  31.506  26.868  1.00  0.00     0.031 C 
ATOM     62  C   UNL A   1      45.242  31.834  27.956  1.00  0.00     0.034 A 
BRANCH  49  63
ATOM     63  C   UNL A   1      39.711  29.799  29.662  1.00  0.00     0.023 A 
ATOM     64  C   UNL A   1      39.146  28.545  30.025  1.00  0.00     0.012 A 
ATOM     65  C   UNL A   1      38.973  30.922  30.160  1.00  0.00     0.148 A 
ATOM     66  C   UNL A   1      37.932  28.397  30.726  1.00  0.00     0.002 A 
ATOM     67  C   UNL A   1      37.723  30.774  30.819  1.00  0.00     0.091 A 
ATOM     68  F   UNL A   1      39.494  32.153  30.083  1.00  0.00    -0.205 F 
ATOM     69  C   UNL A   1      37.203  29.510  31.100  1.00  0.00     0.022 A 
BRANCH  67  70
ATOM     70  S   UNL A   1      36.657  32.171  31.280  1.00  0.00     0.127 S 
ATOM     71  O   UNL A   1      36.872  33.117  30.181  1.00  0.00    -0.237 OA
ATOM     72  O   UNL A   1      35.326  31.570  31.301  1.00  0.00    -0.237 OA
ATOM     73  O   UNL A   1      37.167  32.640  32.563  1.00  0.00    -0.744 OA
ENDBRANCH  67  70
ENDBRANCH  49  63
BRANCH  50  74
ATOM     74  C   UNL A   1      49.227  27.165  27.136  1.00  0.00     0.023 A 
ATOM     75  C   UNL A   1      48.652  26.844  25.872  1.00  0.00     0.012 A 
ATOM     76  C   UNL A   1      50.621  27.028  27.267  1.00  0.00     0.148 A 
ATOM     77  C   UNL A   1      49.440  26.676  24.731  1.00  0.00     0.002 A 
ATOM     78  C   UNL A   1      51.404  26.753  26.128  1.00  0.00     0.091 A 
ATOM     79  F   UNL A   1      51.183  27.251  28.463  1.00  0.00    -0.205 F 
ATOM     80  C   UNL A   1      50.819  26.671  24.853  1.00  0.00     0.022 A 
BRANCH  78  81
ATOM     81  S   UNL A   1      53.205  26.637  26.228  1.00  0.00     0.127 S 
ATOM     82  O   UNL A   1      53.562  26.350  24.844  1.00  0.00    -0.237 OA
ATOM     83  O   UNL A   1      53.614  27.963  26.694  1.00  0.00    -0.237 OA
ATOM     84  O   UNL A   1      53.433  25.573  27.192  1.00  0.00    -0.744 OA
ENDBRANCH  78  81
ENDBRANCH  50  74
BRANCH  62  85
ATOM     85  C   UNL A   1      44.691  33.048  27.203  1.00  0.00     0.023 A 
ATOM     86  C   UNL A   1      44.385  32.996  25.836  1.00  0.00     0.012 A 
ATOM     87  C   UNL A   1      44.225  34.193  27.921  1.00  0.00     0.148 A 
ATOM     88  C   UNL A   1      43.716  34.047  25.196  1.00  0.00     0.002 A 
ATOM     89  C   UNL A   1      43.424  35.152  27.311  1.00  0.00     0.091 A 
ATOM     90  F   UNL A   1      44.533  34.341  29.220  1.00  0.00    -0.205 F 
ATOM     91  C   UNL A   1      43.209  35.110  25.936  1.00  0.00     0.022 A 
BRANCH  89  92
ATOM     92  S   UNL A   1      42.468  36.325  28.293  1.00  0.00     0.127 S 
ATOM     93  O   UNL A   1      41.792  35.448  29.244  1.00  0.00    -0.237 OA
ATOM     94  O   UNL A   1      43.509  37.172  28.878  1.00  0.00    -0.237 OA
ATOM     95  O   UNL A   1      41.619  37.009  27.327  1.00  0.00    -0.744 OA
ENDBRANCH  89  92
ENDBRANCH  62  85
ENDBRANCH  36  37
ENDBRANCH  29  31
ENDBRANCH  28  29
ENDBRANCH  27  28
ENDBRANCH  26  27
ENDBRANCH  25  26
ENDBRANCH   1  25
TORSDOF 22
ENDMDL
