MODEL 1
REMARK VINA RESULT:     -10.1      0.000      0.000
REMARK SMILES Nc1ncccc1C[N@@H+]1CC2(CC[NH2+]CC2)C[C@H]1C(=O)OCCOCCOCCOC(=O)c1ccc(-c2c3nc(c(-c4cccc(S(=O)(=O)[O-])c4F)c4ccc([nH]4)c(-c4cccc(S(=O)(=O)[O-])c4F)c4nc(c(-c5cccc(S(=O)(=O)[O-])c5F)c5ccc2[nH]5)C=C4)C=C3)cc1
REMARK SMILES IDX 25 1 24 2 23 3 22 4 21 5 19 6 20 7 18 8 9 9 10 10 11 12
REMARK SMILES IDX 17 13 12 14 16 15 13 16 15 17 14 18 8 21 7 22 2 23 3 24 4 25
REMARK SMILES IDX 6 26 5 27 1 28 26 31 27 32 28 33 29 34 30 35 31 36 32 37
REMARK SMILES IDX 33 38 34 39 95 40 35 41 94 42 36 43 37 44 38 45 88 46 39 47
REMARK SMILES IDX 93 48 87 49 89 50 40 51 92 52 86 53 85 54 41 56 73 57 53 58
REMARK SMILES IDX 72 59 54 60 57 61 71 62 90 63 55 64 56 65 70 67 91 68 58 69
REMARK SMILES IDX 42 70 43 71 51 72 44 73 46 74 52 75 45 76 47 77 48 78 49 79
REMARK SMILES IDX 50 80 74 81 75 82 83 83 76 84 78 85 84 86 77 87 79 88 80 89
REMARK SMILES IDX 81 90 82 91 59 92 60 93 68 94 61 95 63 96 69 97 62 98 64 99
REMARK SMILES IDX 65 100 66 101 67 102
REMARK H PARENT 9 11 14 19 14 20 1 29 1 30 89 55 57 66
REMARK Flexibility Score: inf
ROOT
ATOM      1  C   UNL A   1      35.507  32.304  28.424  1.00  0.00     0.188 C 
ENDROOT
BRANCH   1   2
ATOM      2  O   UNL A   1      34.257  31.643  28.473  1.00  0.00    -0.376 OA
BRANCH   2   3
ATOM      3  C   UNL A   1      33.586  31.322  27.267  1.00  0.00     0.202 C 
BRANCH   3   4
ATOM      4  C   UNL A   1      32.774  30.029  27.075  1.00  0.00     0.261 C 
BRANCH   4   5
ATOM      5  O   UNL A   1      33.287  29.065  26.142  1.00  0.00    -0.459 OA
BRANCH   5   6
ATOM      6  C   UNL A   1      32.715  29.068  24.907  1.00  0.00     0.365 C 
ATOM      7  O   UNL A   1      33.290  29.467  23.896  1.00  0.00    -0.245 OA
BRANCH   6   8
ATOM      8  C   UNL A   1      31.243  28.617  24.859  1.00  0.00     0.296 C 
ATOM      9  N   UNL A   1      30.605  28.570  23.525  1.00  0.00    -0.319 N 
ATOM     10  C   UNL A   1      30.829  27.242  22.951  1.00  0.00     0.270 C 
ATOM     11  H   UNL A   1      31.065  29.260  22.931  1.00  0.00     0.349 HD
ATOM     12  C   UNL A   1      31.241  26.293  24.100  1.00  0.00     0.036 C 
ATOM     13  C   UNL A   1      31.169  27.180  25.360  1.00  0.00     0.091 C 
ATOM     14  C   UNL A   1      32.670  25.732  23.897  1.00  0.00     0.074 C 
ATOM     15  C   UNL A   1      30.295  25.084  24.236  1.00  0.00     0.074 C 
ATOM     16  C   UNL A   1      32.742  24.674  22.792  1.00  0.00     0.261 C 
ATOM     17  C   UNL A   1      30.427  24.100  23.078  1.00  0.00     0.261 C 
ATOM     18  N   UNL A   1      31.789  23.581  23.003  1.00  0.00    -0.346 N 
ATOM     19  H   UNL A   1      32.015  23.103  23.876  1.00  0.00     0.346 HD
ATOM     20  H   UNL A   1      31.852  22.931  22.219  1.00  0.00     0.346 HD
BRANCH   9  21
ATOM     21  C   UNL A   1      29.215  29.086  23.444  1.00  0.00     0.303 C 
BRANCH  21  22
ATOM     22  C   UNL A   1      29.006  30.366  22.665  1.00  0.00     0.048 A 
ATOM     23  C   UNL A   1      29.107  31.626  23.257  1.00  0.00     0.132 A 
ATOM     24  N   UNL A   1      28.553  32.726  22.717  1.00  0.00    -0.239 NA
ATOM     25  C   UNL A   1      27.966  32.609  21.511  1.00  0.00     0.113 A 
ATOM     26  C   UNL A   1      28.561  30.321  21.341  1.00  0.00     0.015 A 
ATOM     27  C   UNL A   1      27.998  31.452  20.762  1.00  0.00     0.021 A 
BRANCH  23  28
ATOM     28  N   UNL A   1      29.774  31.830  24.449  1.00  0.00    -0.383 N 
ATOM     29  H   UNL A   1      29.331  32.309  25.186  1.00  0.00     0.158 HD
ATOM     30  H   UNL A   1      30.695  31.498  24.562  1.00  0.00     0.158 HD
ENDBRANCH  23  28
ENDBRANCH  21  22
ENDBRANCH   9  21
ENDBRANCH   6   8
ENDBRANCH   5   6
ENDBRANCH   4   5
ENDBRANCH   3   4
ENDBRANCH   2   3
ENDBRANCH   1   2
BRANCH   1  31
ATOM     31  C   UNL A   1      35.532  33.843  28.389  1.00  0.00     0.188 C 
BRANCH  31  32
ATOM     32  O   UNL A   1      34.442  34.517  27.810  1.00  0.00    -0.376 OA
BRANCH  32  33
ATOM     33  C   UNL A   1      34.057  35.789  28.294  1.00  0.00     0.202 C 
BRANCH  33  34
ATOM     34  C   UNL A   1      33.106  36.065  29.478  1.00  0.00     0.261 C 
BRANCH  34  35
ATOM     35  O   UNL A   1      32.660  34.966  30.276  1.00  0.00    -0.460 OA
BRANCH  35  36
ATOM     36  C   UNL A   1      32.979  35.021  31.592  1.00  0.00     0.338 C 
ATOM     37  O   UNL A   1      32.248  35.364  32.514  1.00  0.00    -0.246 OA
BRANCH  36  38
ATOM     38  C   UNL A   1      34.300  34.396  31.791  1.00  0.00     0.060 A 
ATOM     39  C   UNL A   1      34.377  33.007  31.977  1.00  0.00     0.016 A 
ATOM     40  C   UNL A   1      35.454  35.178  31.815  1.00  0.00     0.016 A 
ATOM     41  C   UNL A   1      35.611  32.398  32.207  1.00  0.00     0.010 A 
ATOM     42  C   UNL A   1      36.685  34.570  32.074  1.00  0.00     0.010 A 
ATOM     43  C   UNL A   1      36.767  33.183  32.299  1.00  0.00    -0.014 A 
BRANCH  43  44
ATOM     44  C   UNL A   1      38.028  32.596  32.814  1.00  0.00     0.031 A 
ATOM     45  C   UNL A   1      38.675  31.490  32.022  1.00  0.00     0.074 A 
ATOM     46  C   UNL A   1      38.585  33.020  33.965  1.00  0.00     0.049 A 
ATOM     47  N   UNL A   1      39.712  30.752  32.320  1.00  0.00    -0.248 NA
ATOM     48  C   UNL A   1      38.065  31.173  30.718  1.00  0.00     0.031 C 
ATOM     49  C   UNL A   1      38.075  34.099  34.809  1.00  0.00     0.029 A 
ATOM     50  N   UNL A   1      39.692  32.561  34.637  1.00  0.00    -0.354 N 
ATOM     51  C   UNL A   1      39.867  29.871  31.256  1.00  0.00     0.074 A 
ATOM     52  C   UNL A   1      38.807  30.153  30.312  1.00  0.00     0.031 C 
ATOM     53  C   UNL A   1      38.844  34.193  35.908  1.00  0.00     0.029 A 
ATOM     54  C   UNL A   1      39.879  33.162  35.861  1.00  0.00     0.049 A 
ATOM     55  H   UNL A   1      40.295  31.870  34.277  1.00  0.00     0.167 HD
ATOM     56  C   UNL A   1      40.814  28.923  31.070  1.00  0.00     0.034 A 
ATOM     57  C   UNL A   1      40.762  32.882  36.842  1.00  0.00     0.034 A 
ATOM     58  C   UNL A   1      41.871  28.645  32.005  1.00  0.00     0.049 A 
ATOM     59  C   UNL A   1      41.766  31.772  36.636  1.00  0.00     0.074 A 
ATOM     60  C   UNL A   1      42.883  27.708  31.903  1.00  0.00     0.029 A 
ATOM     61  N   UNL A   1      42.049  29.297  33.214  1.00  0.00    -0.354 N 
ATOM     62  N   UNL A   1      41.953  31.005  35.589  1.00  0.00    -0.248 NA
ATOM     63  C   UNL A   1      42.705  31.511  37.740  1.00  0.00     0.031 C 
ATOM     64  C   UNL A   1      43.660  27.777  33.063  1.00  0.00     0.029 A 
ATOM     65  C   UNL A   1      43.154  28.784  33.868  1.00  0.00     0.049 A 
ATOM     66  H   UNL A   1      41.474  30.019  33.556  1.00  0.00     0.167 HD
ATOM     67  C   UNL A   1      43.058  30.212  35.888  1.00  0.00     0.074 A 
ATOM     68  C   UNL A   1      43.510  30.603  37.205  1.00  0.00     0.031 C 
ATOM     69  C   UNL A   1      43.638  29.236  35.146  1.00  0.00     0.034 A 
BRANCH  56  70
ATOM     70  C   UNL A   1      40.777  28.133  29.789  1.00  0.00     0.023 A 
ATOM     71  C   UNL A   1      39.780  27.151  29.611  1.00  0.00     0.012 A 
ATOM     72  C   UNL A   1      41.671  28.410  28.737  1.00  0.00     0.148 A 
ATOM     73  C   UNL A   1      39.688  26.441  28.414  1.00  0.00     0.002 A 
ATOM     74  C   UNL A   1      41.545  27.730  27.531  1.00  0.00     0.091 A 
ATOM     75  F   UNL A   1      42.622  29.334  28.934  1.00  0.00    -0.205 F 
ATOM     76  C   UNL A   1      40.562  26.740  27.372  1.00  0.00     0.022 A 
BRANCH  74  77
ATOM     77  S   UNL A   1      42.568  28.090  26.100  1.00  0.00     0.127 S 
ATOM     78  O   UNL A   1      42.385  29.534  25.961  1.00  0.00    -0.237 OA
ATOM     79  O   UNL A   1      43.894  27.685  26.564  1.00  0.00    -0.237 OA
ATOM     80  O   UNL A   1      42.031  27.291  25.007  1.00  0.00    -0.744 OA
ENDBRANCH  74  77
ENDBRANCH  56  70
BRANCH  57  81
ATOM     81  C   UNL A   1      40.761  33.658  38.118  1.00  0.00     0.023 A 
ATOM     82  C   UNL A   1      41.698  34.695  38.303  1.00  0.00     0.012 A 
ATOM     83  C   UNL A   1      39.879  33.338  39.169  1.00  0.00     0.148 A 
ATOM     84  C   UNL A   1      41.794  35.359  39.526  1.00  0.00     0.002 A 
ATOM     85  C   UNL A   1      39.941  34.045  40.365  1.00  0.00     0.091 A 
ATOM     86  F   UNL A   1      39.007  32.337  38.985  1.00  0.00    -0.205 F 
ATOM     87  C   UNL A   1      40.912  35.039  40.554  1.00  0.00     0.022 A 
BRANCH  85  88
ATOM     88  S   UNL A   1      38.772  33.775  41.702  1.00  0.00     0.127 S 
ATOM     89  O   UNL A   1      39.217  34.755  42.690  1.00  0.00    -0.237 OA
ATOM     90  O   UNL A   1      37.497  34.089  41.056  1.00  0.00    -0.237 OA
ATOM     91  O   UNL A   1      38.926  32.377  42.080  1.00  0.00    -0.744 OA
ENDBRANCH  85  88
ENDBRANCH  57  81
BRANCH  69  92
ATOM     92  C   UNL A   1      44.874  28.572  35.698  1.00  0.00     0.023 A 
ATOM     93  C   UNL A   1      46.151  29.079  35.390  1.00  0.00     0.012 A 
ATOM     94  C   UNL A   1      44.760  27.483  36.588  1.00  0.00     0.148 A 
ATOM     95  C   UNL A   1      47.297  28.489  35.925  1.00  0.00     0.002 A 
ATOM     96  C   UNL A   1      45.902  26.936  37.160  1.00  0.00     0.091 A 
ATOM     97  F   UNL A   1      43.536  27.006  36.860  1.00  0.00    -0.205 F 
ATOM     98  C   UNL A   1      47.171  27.428  36.818  1.00  0.00     0.022 A 
BRANCH  96  99
ATOM     99  S   UNL A   1      45.834  25.634  38.396  1.00  0.00     0.127 S 
ATOM    100  O   UNL A   1      47.253  25.413  38.673  1.00  0.00    -0.237 OA
ATOM    101  O   UNL A   1      45.093  26.278  39.481  1.00  0.00    -0.237 OA
ATOM    102  O   UNL A   1      45.142  24.517  37.768  1.00  0.00    -0.744 OA
ENDBRANCH  96  99
ENDBRANCH  69  92
ENDBRANCH  43  44
ENDBRANCH  36  38
ENDBRANCH  35  36
ENDBRANCH  34  35
ENDBRANCH  33  34
ENDBRANCH  32  33
ENDBRANCH  31  32
ENDBRANCH   1  31
TORSDOF 23
ENDMDL
MODEL 2
REMARK VINA RESULT:      -9.7      2.322      7.713
REMARK SMILES Nc1ncccc1C[N@@H+]1CC2(CC[NH2+]CC2)C[C@H]1C(=O)OCCOCCOCCOC(=O)c1ccc(-c2c3nc(c(-c4cccc(S(=O)(=O)[O-])c4F)c4ccc([nH]4)c(-c4cccc(S(=O)(=O)[O-])c4F)c4nc(c(-c5cccc(S(=O)(=O)[O-])c5F)c5ccc2[nH]5)C=C4)C=C3)cc1
REMARK SMILES IDX 25 1 24 2 23 3 22 4 21 5 19 6 20 7 18 8 9 9 10 10 11 12
REMARK SMILES IDX 17 13 12 14 16 15 13 16 15 17 14 18 8 21 7 22 2 23 3 24 4 25
REMARK SMILES IDX 6 26 5 27 1 28 26 31 27 32 28 33 29 34 30 35 31 36 32 37
REMARK SMILES IDX 33 38 34 39 95 40 35 41 94 42 36 43 37 44 38 45 88 46 39 47
REMARK SMILES IDX 93 48 87 49 89 50 40 51 92 52 86 53 85 54 41 56 73 57 53 58
REMARK SMILES IDX 72 59 54 60 57 61 71 62 90 63 55 64 56 65 70 67 91 68 58 69
REMARK SMILES IDX 42 70 43 71 51 72 44 73 46 74 52 75 45 76 47 77 48 78 49 79
REMARK SMILES IDX 50 80 74 81 75 82 83 83 76 84 78 85 84 86 77 87 79 88 80 89
REMARK SMILES IDX 81 90 82 91 59 92 60 93 68 94 61 95 63 96 69 97 62 98 64 99
REMARK SMILES IDX 65 100 66 101 67 102
REMARK H PARENT 9 11 14 19 14 20 1 29 1 30 89 55 57 66
REMARK Flexibility Score: inf
ROOT
ATOM      1  C   UNL A   1      35.300  31.926  28.179  1.00  0.00     0.188 C 
ENDROOT
BRANCH   1   2
ATOM      2  O   UNL A   1      34.028  31.316  28.279  1.00  0.00    -0.376 OA
BRANCH   2   3
ATOM      3  C   UNL A   1      33.480  30.649  27.155  1.00  0.00     0.202 C 
BRANCH   3   4
ATOM      4  C   UNL A   1      32.800  29.272  27.244  1.00  0.00     0.261 C 
BRANCH   4   5
ATOM      5  O   UNL A   1      33.525  28.149  26.718  1.00  0.00    -0.459 OA
BRANCH   5   6
ATOM      6  C   UNL A   1      33.297  27.853  25.409  1.00  0.00     0.365 C 
ATOM      7  O   UNL A   1      33.874  28.413  24.479  1.00  0.00    -0.245 OA
BRANCH   6   8
ATOM      8  C   UNL A   1      32.189  26.816  25.148  1.00  0.00     0.296 C 
ATOM      9  N   UNL A   1      32.036  26.341  23.755  1.00  0.00    -0.319 N 
ATOM     10  C   UNL A   1      32.903  25.176  23.566  1.00  0.00     0.270 C 
ATOM     11  H   UNL A   1      32.354  27.083  23.132  1.00  0.00     0.349 HD
ATOM     12  C   UNL A   1      33.286  24.638  24.964  1.00  0.00     0.036 C 
ATOM     13  C   UNL A   1      32.519  25.556  25.939  1.00  0.00     0.091 C 
ATOM     14  C   UNL A   1      34.812  24.719  25.211  1.00  0.00     0.074 C 
ATOM     15  C   UNL A   1      32.871  23.168  25.167  1.00  0.00     0.074 C 
ATOM     16  C   UNL A   1      35.599  23.667  24.423  1.00  0.00     0.261 C 
ATOM     17  C   UNL A   1      33.697  22.202  24.325  1.00  0.00     0.261 C 
ATOM     18  N   UNL A   1      35.112  22.307  24.669  1.00  0.00    -0.346 N 
ATOM     19  H   UNL A   1      35.235  22.080  25.656  1.00  0.00     0.346 HD
ATOM     20  H   UNL A   1      35.643  21.656  24.090  1.00  0.00     0.346 HD
BRANCH   9  21
ATOM     21  C   UNL A   1      30.645  26.202  23.258  1.00  0.00     0.303 C 
BRANCH  21  22
ATOM     22  C   UNL A   1      29.815  27.466  23.189  1.00  0.00     0.048 A 
ATOM     23  C   UNL A   1      28.435  27.465  23.394  1.00  0.00     0.132 A 
ATOM     24  N   UNL A   1      27.637  28.457  22.960  1.00  0.00    -0.239 NA
ATOM     25  C   UNL A   1      28.220  29.532  22.394  1.00  0.00     0.113 A 
ATOM     26  C   UNL A   1      30.394  28.668  22.775  1.00  0.00     0.015 A 
ATOM     27  C   UNL A   1      29.586  29.710  22.335  1.00  0.00     0.021 A 
BRANCH  23  28
ATOM     28  N   UNL A   1      27.786  26.435  24.048  1.00  0.00    -0.383 N 
ATOM     29  H   UNL A   1      26.803  26.431  24.104  1.00  0.00     0.158 HD
ATOM     30  H   UNL A   1      28.306  25.707  24.459  1.00  0.00     0.158 HD
ENDBRANCH  23  28
ENDBRANCH  21  22
ENDBRANCH   9  21
ENDBRANCH   6   8
ENDBRANCH   5   6
ENDBRANCH   4   5
ENDBRANCH   3   4
ENDBRANCH   2   3
ENDBRANCH   1   2
BRANCH   1  31
ATOM     31  C   UNL A   1      35.394  33.462  28.240  1.00  0.00     0.188 C 
BRANCH  31  32
ATOM     32  O   UNL A   1      34.359  34.219  27.661  1.00  0.00    -0.376 OA
BRANCH  32  33
ATOM     33  C   UNL A   1      34.135  35.550  28.083  1.00  0.00     0.202 C 
BRANCH  33  34
ATOM     34  C   UNL A   1      33.212  35.999  29.236  1.00  0.00     0.261 C 
BRANCH  34  35
ATOM     35  O   UNL A   1      32.623  35.003  30.077  1.00  0.00    -0.460 OA
BRANCH  35  36
ATOM     36  C   UNL A   1      32.925  35.086  31.395  1.00  0.00     0.338 C 
ATOM     37  O   UNL A   1      32.187  35.462  32.298  1.00  0.00    -0.246 OA
BRANCH  36  38
ATOM     38  C   UNL A   1      34.235  34.449  31.627  1.00  0.00     0.060 A 
ATOM     39  C   UNL A   1      34.294  33.062  31.828  1.00  0.00     0.016 A 
ATOM     40  C   UNL A   1      35.396  35.220  31.669  1.00  0.00     0.016 A 
ATOM     41  C   UNL A   1      35.516  32.442  32.089  1.00  0.00     0.010 A 
ATOM     42  C   UNL A   1      36.615  34.601  31.959  1.00  0.00     0.010 A 
ATOM     43  C   UNL A   1      36.678  33.216  32.199  1.00  0.00    -0.014 A 
BRANCH  43  44
ATOM     44  C   UNL A   1      37.922  32.620  32.746  1.00  0.00     0.031 A 
ATOM     45  C   UNL A   1      38.274  32.901  34.183  1.00  0.00     0.074 A 
ATOM     46  C   UNL A   1      38.732  31.859  31.986  1.00  0.00     0.049 A 
ATOM     47  N   UNL A   1      39.352  32.585  34.850  1.00  0.00    -0.248 NA
ATOM     48  C   UNL A   1      37.272  33.641  34.972  1.00  0.00     0.031 C 
ATOM     49  C   UNL A   1      38.492  31.490  30.593  1.00  0.00     0.029 A 
ATOM     50  N   UNL A   1      39.946  31.287  32.281  1.00  0.00    -0.354 N 
ATOM     51  C   UNL A   1      39.172  33.105  36.128  1.00  0.00     0.074 A 
ATOM     52  C   UNL A   1      37.887  33.772  36.138  1.00  0.00     0.031 C 
ATOM     53  C   UNL A   1      39.545  30.787  30.139  1.00  0.00     0.029 A 
ATOM     54  C   UNL A   1      40.546  30.685  31.199  1.00  0.00     0.049 A 
ATOM     55  H   UNL A   1      40.347  31.305  33.180  1.00  0.00     0.167 HD
ATOM     56  C   UNL A   1      39.990  33.022  37.201  1.00  0.00     0.034 A 
ATOM     57  C   UNL A   1      41.777  30.147  31.074  1.00  0.00     0.034 A 
ATOM     58  C   UNL A   1      41.265  32.355  37.194  1.00  0.00     0.049 A 
ATOM     59  C   UNL A   1      42.699  30.129  32.271  1.00  0.00     0.074 A 
ATOM     60  C   UNL A   1      42.165  32.211  38.234  1.00  0.00     0.029 A 
ATOM     61  N   UNL A   1      41.821  31.727  36.092  1.00  0.00    -0.354 N 
ATOM     62  N   UNL A   1      42.480  30.549  33.494  1.00  0.00    -0.248 NA
ATOM     63  C   UNL A   1      44.030  29.530  32.077  1.00  0.00     0.031 C 
ATOM     64  C   UNL A   1      43.278  31.516  37.754  1.00  0.00     0.029 A 
ATOM     65  C   UNL A   1      43.052  31.192  36.426  1.00  0.00     0.049 A 
ATOM     66  H   UNL A   1      41.402  31.668  35.203  1.00  0.00     0.167 HD
ATOM     67  C   UNL A   1      43.620  30.218  34.223  1.00  0.00     0.074 A 
ATOM     68  C   UNL A   1      44.519  29.547  33.309  1.00  0.00     0.031 C 
ATOM     69  C   UNL A   1      43.905  30.461  35.526  1.00  0.00     0.034 A 
BRANCH  56  70
ATOM     70  C   UNL A   1      39.523  33.639  38.492  1.00  0.00     0.023 A 
ATOM     71  C   UNL A   1      38.999  32.810  39.505  1.00  0.00     0.012 A 
ATOM     72  C   UNL A   1      39.673  35.017  38.736  1.00  0.00     0.148 A 
ATOM     73  C   UNL A   1      38.608  33.346  40.732  1.00  0.00     0.002 A 
ATOM     74  C   UNL A   1      39.324  35.539  39.977  1.00  0.00     0.091 A 
ATOM     75  F   UNL A   1      40.157  35.791  37.754  1.00  0.00    -0.205 F 
ATOM     76  C   UNL A   1      38.783  34.706  40.970  1.00  0.00     0.022 A 
BRANCH  74  77
ATOM     77  S   UNL A   1      39.578  37.261  40.416  1.00  0.00     0.127 S 
ATOM     78  O   UNL A   1      39.034  37.303  41.772  1.00  0.00    -0.237 OA
ATOM     79  O   UNL A   1      41.033  37.383  40.338  1.00  0.00    -0.237 OA
ATOM     80  O   UNL A   1      38.843  38.043  39.430  1.00  0.00    -0.744 OA
ENDBRANCH  74  77
ENDBRANCH  56  70
BRANCH  57  81
ATOM     81  C   UNL A   1      42.233  29.569  29.775  1.00  0.00     0.023 A 
ATOM     82  C   UNL A   1      42.924  30.384  28.855  1.00  0.00     0.012 A 
ATOM     83  C   UNL A   1      41.937  28.239  29.421  1.00  0.00     0.148 A 
ATOM     84  C   UNL A   1      43.261  29.904  27.589  1.00  0.00     0.002 A 
ATOM     85  C   UNL A   1      42.328  27.748  28.180  1.00  0.00     0.091 A 
ATOM     86  F   UNL A   1      41.262  27.482  30.298  1.00  0.00    -0.205 F 
ATOM     87  C   UNL A   1      42.969  28.585  27.254  1.00  0.00     0.022 A 
BRANCH  85  88
ATOM     88  S   UNL A   1      42.092  26.031  27.707  1.00  0.00     0.127 S 
ATOM     89  O   UNL A   1      42.803  25.328  28.771  1.00  0.00    -0.237 OA
ATOM     90  O   UNL A   1      40.635  25.904  27.753  1.00  0.00    -0.237 OA
ATOM     91  O   UNL A   1      42.664  25.911  26.373  1.00  0.00    -0.744 OA
ENDBRANCH  85  88
ENDBRANCH  57  81
BRANCH  69  92
ATOM     92  C   UNL A   1      45.207  29.933  36.073  1.00  0.00     0.023 A 
ATOM     93  C   UNL A   1      45.275  28.635  36.617  1.00  0.00     0.012 A 
ATOM     94  C   UNL A   1      46.384  30.704  35.977  1.00  0.00     0.148 A 
ATOM     95  C   UNL A   1      46.485  28.130  37.094  1.00  0.00     0.002 A 
ATOM     96  C   UNL A   1      47.595  30.172  36.402  1.00  0.00     0.091 A 
ATOM     97  F   UNL A   1      46.297  31.941  35.467  1.00  0.00    -0.205 F 
ATOM     98  C   UNL A   1      47.645  28.891  36.975  1.00  0.00     0.022 A 
BRANCH  96  99
ATOM     99  S   UNL A   1      49.156  31.038  36.198  1.00  0.00     0.127 S 
ATOM    100  O   UNL A   1      49.193  31.248  34.752  1.00  0.00    -0.237 OA
ATOM    101  O   UNL A   1      48.939  32.253  36.985  1.00  0.00    -0.237 OA
ATOM    102  O   UNL A   1      50.183  30.150  36.725  1.00  0.00    -0.744 OA
ENDBRANCH  96  99
ENDBRANCH  69  92
ENDBRANCH  43  44
ENDBRANCH  36  38
ENDBRANCH  35  36
ENDBRANCH  34  35
ENDBRANCH  33  34
ENDBRANCH  32  33
ENDBRANCH  31  32
ENDBRANCH   1  31
TORSDOF 23
ENDMDL
MODEL 3
REMARK VINA RESULT:      -9.3      3.283      8.491
REMARK SMILES Nc1ncccc1C[N@@H+]1CC2(CC[NH2+]CC2)C[C@H]1C(=O)OCCOCCOCCOC(=O)c1ccc(-c2c3nc(c(-c4cccc(S(=O)(=O)[O-])c4F)c4ccc([nH]4)c(-c4cccc(S(=O)(=O)[O-])c4F)c4nc(c(-c5cccc(S(=O)(=O)[O-])c5F)c5ccc2[nH]5)C=C4)C=C3)cc1
REMARK SMILES IDX 25 1 24 2 23 3 22 4 21 5 19 6 20 7 18 8 9 9 10 10 11 12
REMARK SMILES IDX 17 13 12 14 16 15 13 16 15 17 14 18 8 21 7 22 2 23 3 24 4 25
REMARK SMILES IDX 6 26 5 27 1 28 26 31 27 32 28 33 29 34 30 35 31 36 32 37
REMARK SMILES IDX 33 38 34 39 95 40 35 41 94 42 36 43 37 44 38 45 88 46 39 47
REMARK SMILES IDX 93 48 87 49 89 50 40 51 92 52 86 53 85 54 41 56 73 57 53 58
REMARK SMILES IDX 72 59 54 60 57 61 71 62 90 63 55 64 56 65 70 67 91 68 58 69
REMARK SMILES IDX 42 70 43 71 51 72 44 73 46 74 52 75 45 76 47 77 48 78 49 79
REMARK SMILES IDX 50 80 74 81 75 82 83 83 76 84 78 85 84 86 77 87 79 88 80 89
REMARK SMILES IDX 81 90 82 91 59 92 60 93 68 94 61 95 63 96 69 97 62 98 64 99
REMARK SMILES IDX 65 100 66 101 67 102
REMARK H PARENT 9 11 14 19 14 20 1 29 1 30 89 55 57 66
REMARK Flexibility Score: inf
ROOT
ATOM      1  C   UNL A   1      35.597  31.618  27.956  1.00  0.00     0.188 C 
ENDROOT
BRANCH   1   2
ATOM      2  O   UNL A   1      34.342  31.036  28.250  1.00  0.00    -0.376 OA
BRANCH   2   3
ATOM      3  C   UNL A   1      33.402  30.832  27.209  1.00  0.00     0.202 C 
BRANCH   3   4
ATOM      4  C   UNL A   1      32.414  29.653  27.186  1.00  0.00     0.261 C 
BRANCH   4   5
ATOM      5  O   UNL A   1      32.777  28.510  26.396  1.00  0.00    -0.459 OA
BRANCH   5   6
ATOM      6  C   UNL A   1      31.785  27.608  26.163  1.00  0.00     0.365 C 
ATOM      7  O   UNL A   1      31.066  27.149  27.048  1.00  0.00    -0.245 OA
BRANCH   6   8
ATOM      8  C   UNL A   1      31.667  27.116  24.707  1.00  0.00     0.296 C 
ATOM      9  N   UNL A   1      30.327  26.675  24.260  1.00  0.00    -0.319 N 
ATOM     10  C   UNL A   1      29.615  27.836  23.722  1.00  0.00     0.270 C 
ATOM     11  H   UNL A   1      29.818  26.335  25.076  1.00  0.00     0.349 HD
ATOM     12  C   UNL A   1      30.659  28.937  23.424  1.00  0.00     0.036 C 
ATOM     13  C   UNL A   1      32.007  28.278  23.783  1.00  0.00     0.091 C 
ATOM     14  C   UNL A   1      30.416  30.204  24.281  1.00  0.00     0.074 C 
ATOM     15  C   UNL A   1      30.649  29.379  21.948  1.00  0.00     0.074 C 
ATOM     16  C   UNL A   1      29.203  31.014  23.813  1.00  0.00     0.261 C 
ATOM     17  C   UNL A   1      29.393  30.159  21.576  1.00  0.00     0.261 C 
ATOM     18  N   UNL A   1      29.281  31.364  22.392  1.00  0.00    -0.346 N 
ATOM     19  H   UNL A   1      30.099  31.953  22.236  1.00  0.00     0.346 HD
ATOM     20  H   UNL A   1      28.432  31.864  22.128  1.00  0.00     0.346 HD
BRANCH   9  21
ATOM     21  C   UNL A   1      30.284  25.445  23.432  1.00  0.00     0.303 C 
BRANCH  21  22
ATOM     22  C   UNL A   1      31.606  24.765  23.148  1.00  0.00     0.048 A 
ATOM     23  C   UNL A   1      32.281  24.921  21.938  1.00  0.00     0.132 A 
ATOM     24  N   UNL A   1      33.215  24.051  21.512  1.00  0.00    -0.239 NA
ATOM     25  C   UNL A   1      33.568  23.051  22.341  1.00  0.00     0.113 A 
ATOM     26  C   UNL A   1      32.128  23.836  24.052  1.00  0.00     0.015 A 
ATOM     27  C   UNL A   1      33.103  22.938  23.634  1.00  0.00     0.021 A 
BRANCH  23  28
ATOM     28  N   UNL A   1      32.031  25.977  21.083  1.00  0.00    -0.383 N 
ATOM     29  H   UNL A   1      32.752  26.333  20.516  1.00  0.00     0.158 HD
ATOM     30  H   UNL A   1      31.130  26.374  21.041  1.00  0.00     0.158 HD
ENDBRANCH  23  28
ENDBRANCH  21  22
ENDBRANCH   9  21
ENDBRANCH   6   8
ENDBRANCH   5   6
ENDBRANCH   4   5
ENDBRANCH   3   4
ENDBRANCH   2   3
ENDBRANCH   1   2
BRANCH   1  31
ATOM     31  C   UNL A   1      35.711  33.153  27.909  1.00  0.00     0.188 C 
BRANCH  31  32
ATOM     32  O   UNL A   1      34.528  33.913  27.927  1.00  0.00    -0.376 OA
BRANCH  32  33
ATOM     33  C   UNL A   1      34.250  34.766  29.020  1.00  0.00     0.202 C 
BRANCH  33  34
ATOM     34  C   UNL A   1      34.146  34.346  30.502  1.00  0.00     0.261 C 
BRANCH  34  35
ATOM     35  O   UNL A   1      34.316  32.968  30.843  1.00  0.00    -0.460 OA
BRANCH  35  36
ATOM     36  C   UNL A   1      34.867  32.721  32.055  1.00  0.00     0.338 C 
ATOM     37  O   UNL A   1      34.354  32.917  33.152  1.00  0.00    -0.246 OA
BRANCH  36  38
ATOM     38  C   UNL A   1      36.123  31.972  31.867  1.00  0.00     0.060 A 
ATOM     39  C   UNL A   1      36.202  30.646  32.320  1.00  0.00     0.016 A 
ATOM     40  C   UNL A   1      37.224  32.581  31.266  1.00  0.00     0.016 A 
ATOM     41  C   UNL A   1      37.392  29.929  32.188  1.00  0.00     0.010 A 
ATOM     42  C   UNL A   1      38.423  31.871  31.162  1.00  0.00     0.010 A 
ATOM     43  C   UNL A   1      38.522  30.553  31.648  1.00  0.00    -0.014 A 
BRANCH  43  44
ATOM     44  C   UNL A   1      39.854  29.909  31.756  1.00  0.00     0.031 A 
ATOM     45  C   UNL A   1      40.771  30.351  32.866  1.00  0.00     0.074 A 
ATOM     46  C   UNL A   1      40.252  28.962  30.885  1.00  0.00     0.049 A 
ATOM     47  N   UNL A   1      42.013  30.017  33.100  1.00  0.00    -0.248 NA
ATOM     48  C   UNL A   1      40.209  31.301  33.843  1.00  0.00     0.031 C 
ATOM     49  C   UNL A   1      39.451  28.427  29.786  1.00  0.00     0.029 A 
ATOM     50  N   UNL A   1      41.455  28.308  30.774  1.00  0.00    -0.354 N 
ATOM     51  C   UNL A   1      42.389  30.730  34.233  1.00  0.00     0.074 A 
ATOM     52  C   UNL A   1      41.250  31.528  34.631  1.00  0.00     0.031 C 
ATOM     53  C   UNL A   1      40.198  27.556  29.085  1.00  0.00     0.029 A 
ATOM     54  C   UNL A   1      41.538  27.496  29.667  1.00  0.00     0.049 A 
ATOM     55  H   UNL A   1      42.188  28.410  31.424  1.00  0.00     0.167 HD
ATOM     56  C   UNL A   1      43.569  30.711  34.895  1.00  0.00     0.034 A 
ATOM     57  C   UNL A   1      42.588  26.814  29.163  1.00  0.00     0.034 A 
ATOM     58  C   UNL A   1      44.700  29.913  34.503  1.00  0.00     0.049 A 
ATOM     59  C   UNL A   1      43.914  26.864  29.885  1.00  0.00     0.074 A 
ATOM     60  C   UNL A   1      45.938  29.821  35.113  1.00  0.00     0.029 A 
ATOM     61  N   UNL A   1      44.733  29.077  33.399  1.00  0.00    -0.354 N 
ATOM     62  N   UNL A   1      44.229  27.475  31.001  1.00  0.00    -0.248 NA
ATOM     63  C   UNL A   1      45.024  26.102  29.291  1.00  0.00     0.031 C 
ATOM     64  C   UNL A   1      46.729  28.946  34.364  1.00  0.00     0.029 A 
ATOM     65  C   UNL A   1      45.970  28.463  33.310  1.00  0.00     0.049 A 
ATOM     66  H   UNL A   1      43.987  28.939  32.772  1.00  0.00     0.167 HD
ATOM     67  C   UNL A   1      45.551  27.129  31.269  1.00  0.00     0.074 A 
ATOM     68  C   UNL A   1      45.972  26.240  30.208  1.00  0.00     0.031 C 
ATOM     69  C   UNL A   1      46.351  27.522  32.291  1.00  0.00     0.034 A 
BRANCH  56  70
ATOM     70  C   UNL A   1      43.693  31.553  36.136  1.00  0.00     0.023 A 
ATOM     71  C   UNL A   1      43.387  30.986  37.390  1.00  0.00     0.012 A 
ATOM     72  C   UNL A   1      44.185  32.871  36.075  1.00  0.00     0.148 A 
ATOM     73  C   UNL A   1      43.545  31.724  38.562  1.00  0.00     0.002 A 
ATOM     74  C   UNL A   1      44.382  33.586  37.250  1.00  0.00     0.091 A 
ATOM     75  F   UNL A   1      44.453  33.397  34.871  1.00  0.00    -0.205 F 
ATOM     76  C   UNL A   1      44.053  33.018  38.492  1.00  0.00     0.022 A 
BRANCH  74  77
ATOM     77  S   UNL A   1      45.103  35.231  37.279  1.00  0.00     0.127 S 
ATOM     78  O   UNL A   1      46.532  34.926  37.324  1.00  0.00    -0.237 OA
ATOM     79  O   UNL A   1      44.637  35.790  36.010  1.00  0.00    -0.237 OA
ATOM     80  O   UNL A   1      44.572  35.885  38.468  1.00  0.00    -0.744 OA
ENDBRANCH  74  77
ENDBRANCH  56  70
BRANCH  57  81
ATOM     81  C   UNL A   1      42.451  26.010  27.912  1.00  0.00     0.023 A 
ATOM     82  C   UNL A   1      42.582  26.644  26.660  1.00  0.00     0.012 A 
ATOM     83  C   UNL A   1      42.136  24.638  27.954  1.00  0.00     0.148 A 
ATOM     84  C   UNL A   1      42.346  25.943  25.477  1.00  0.00     0.002 A 
ATOM     85  C   UNL A   1      41.962  23.930  26.769  1.00  0.00     0.091 A 
ATOM     86  F   UNL A   1      41.997  24.053  29.152  1.00  0.00    -0.205 F 
ATOM     87  C   UNL A   1      42.043  24.585  25.531  1.00  0.00     0.022 A 
BRANCH  85  88
ATOM     88  S   UNL A   1      41.679  22.157  26.741  1.00  0.00     0.127 S 
ATOM     89  O   UNL A   1      42.154  21.799  25.408  1.00  0.00    -0.237 OA
ATOM     90  O   UNL A   1      42.529  21.698  27.841  1.00  0.00    -0.237 OA
ATOM     91  O   UNL A   1      40.251  21.985  26.974  1.00  0.00    -0.744 OA
ENDBRANCH  85  88
ENDBRANCH  57  81
BRANCH  69  92
ATOM     92  C   UNL A   1      47.739  26.937  32.365  1.00  0.00     0.023 A 
ATOM     93  C   UNL A   1      48.812  27.568  31.706  1.00  0.00     0.012 A 
ATOM     94  C   UNL A   1      47.989  25.797  33.156  1.00  0.00     0.148 A 
ATOM     95  C   UNL A   1      50.104  27.050  31.800  1.00  0.00     0.002 A 
ATOM     96  C   UNL A   1      49.287  25.319  33.290  1.00  0.00     0.091 A 
ATOM     97  F   UNL A   1      46.953  25.202  33.767  1.00  0.00    -0.205 F 
ATOM     98  C   UNL A   1      50.343  25.936  32.600  1.00  0.00     0.022 A 
BRANCH  96  99
ATOM     99  S   UNL A   1      49.707  23.952  34.376  1.00  0.00     0.127 S 
ATOM    100  O   UNL A   1      51.019  23.558  33.865  1.00  0.00    -0.237 OA
ATOM    101  O   UNL A   1      49.733  24.599  35.689  1.00  0.00    -0.237 OA
ATOM    102  O   UNL A   1      48.651  22.963  34.208  1.00  0.00    -0.744 OA
ENDBRANCH  96  99
ENDBRANCH  69  92
ENDBRANCH  43  44
ENDBRANCH  36  38
ENDBRANCH  35  36
ENDBRANCH  34  35
ENDBRANCH  33  34
ENDBRANCH  32  33
ENDBRANCH  31  32
ENDBRANCH   1  31
TORSDOF 23
ENDMDL
