MODEL 1
REMARK VINA RESULT:     -12.2      0.000      0.000
REMARK SMILES Cc1ccc(S(=O)(=O)n2cc(C(=O)C(=O)NCC(=O)NCC(=O)OCCOCCOCCOC(=O)c3ccc(-c4c5nc(c(-c6cccc(S(=O)(=O)[O-])c6F)c6ccc([nH]6)c(-c6cccc(S(=O)(=O)[O-])c6F)c6nc(c(-c7cccc(S(=O)(=O)[O-])c7F)c7ccc4[nH]7)C=C6)C=C5)cc3)c3ccccc32)cc1
REMARK SMILES IDX 26 1 25 2 24 3 22 4 23 5 21 6 20 7 18 8 19 9 17 11 16 12
REMARK SMILES IDX 14 13 15 14 12 16 13 17 11 18 9 19 10 20 104 21 99 22 103 23
REMARK SMILES IDX 100 24 102 25 101 26 6 27 7 28 8 29 5 30 1 31 2 32 3 33
REMARK SMILES IDX 106 34 4 35 105 36 27 37 28 38 29 39 30 40 31 41 32 42 33 43
REMARK SMILES IDX 34 44 35 45 36 46 37 47 98 48 38 49 97 50 39 51 40 52 41 53
REMARK SMILES IDX 91 54 42 55 96 56 90 57 92 58 43 59 95 60 89 61 88 62 44 64
REMARK SMILES IDX 76 65 56 66 75 67 57 68 60 69 74 70 93 71 58 72 59 73 73 75
REMARK SMILES IDX 94 76 61 77 45 78 46 79 54 80 47 81 49 82 55 83 48 84 50 85
REMARK SMILES IDX 51 86 52 87 53 88 77 89 78 90 86 91 79 92 81 93 87 94 80 95
REMARK SMILES IDX 82 96 83 97 84 98 85 99 62 100 63 101 71 102 64 103 66 104
REMARK SMILES IDX 72 105 65 106 67 107 68 108 69 109 70 110
REMARK H PARENT 20 10 16 15 92 63 60 74
REMARK Flexibility Score: inf
ROOT
ATOM      1  C   UNL A   1      36.021  32.076  28.120  1.00  0.00     0.202 C 
ENDROOT
BRANCH   1   2
ATOM      2  C   UNL A   1      35.840  30.569  28.339  1.00  0.00     0.261 C 
BRANCH   2   3
ATOM      3  O   UNL A   1      34.682  29.721  27.361  1.00  0.00    -0.462 OA
BRANCH   3   4
ATOM      4  C   UNL A   1      33.350  29.322  26.849  1.00  0.00     0.325 C 
ATOM      5  O   UNL A   1      33.148  28.185  27.237  1.00  0.00    -0.250 OA
BRANCH   4   6
ATOM      6  C   UNL A   1      32.141  30.094  25.779  1.00  0.00     0.238 C 
BRANCH   6   7
ATOM      7  N   UNL A   1      31.226  29.236  24.841  1.00  0.00    -0.344 N 
ATOM      8  C   UNL A   1      31.237  28.711  23.558  1.00  0.00     0.239 C 
ATOM      9  O   UNL A   1      30.161  28.695  22.934  1.00  0.00    -0.273 OA
ATOM     10  H   UNL A   1      30.391  28.995  25.305  1.00  0.00     0.164 HD
BRANCH   8  11
ATOM     11  C   UNL A   1      32.438  28.108  22.821  1.00  0.00     0.216 C 
BRANCH  11  12
ATOM     12  N   UNL A   1      32.071  27.216  21.777  1.00  0.00    -0.340 N 
ATOM     13  C   UNL A   1      32.279  25.903  21.535  1.00  0.00     0.292 C 
ATOM     14  O   UNL A   1      31.781  25.437  20.520  1.00  0.00    -0.265 OA
ATOM     15  H   UNL A   1      31.544  27.654  21.070  1.00  0.00     0.164 HD
BRANCH  13  16
ATOM     16  C   UNL A   1      33.199  25.068  22.408  1.00  0.00     0.252 C 
ATOM     17  O   UNL A   1      34.403  25.312  22.359  1.00  0.00    -0.283 OA
BRANCH  16  18
ATOM     18  C   UNL A   1      32.642  23.963  23.208  1.00  0.00     0.054 A 
ATOM     19  N   UNL A   1      32.081  21.614  24.038  1.00  0.00    -0.240 N 
ATOM     20  C   UNL A   1      32.721  22.625  22.918  1.00  0.00     0.117 A 
ATOM     21  C   UNL A   1      31.462  22.883  24.935  1.00  0.00     0.065 A 
ATOM     22  C   UNL A   1      31.885  24.123  24.379  1.00  0.00     0.012 A 
ATOM     23  C   UNL A   1      30.539  22.985  26.023  1.00  0.00     0.028 A 
ATOM     24  C   UNL A   1      31.501  25.353  24.978  1.00  0.00     0.011 A 
ATOM     25  C   UNL A   1      30.091  24.226  26.502  1.00  0.00     0.002 A 
ATOM     26  C   UNL A   1      30.581  25.406  26.001  1.00  0.00     0.001 A 
BRANCH  19  27
ATOM     27  S   UNL A   1      32.795  19.294  24.630  1.00  0.00     0.268 S 
ATOM     28  O   UNL A   1      33.564  18.492  23.663  1.00  0.00    -0.201 OA
ATOM     29  O   UNL A   1      32.153  18.596  25.750  1.00  0.00    -0.201 OA
BRANCH  27  30
ATOM     30  C   UNL A   1      33.691  20.326  25.256  1.00  0.00     0.088 A 
ATOM     31  C   UNL A   1      36.640  24.077  26.125  1.00  0.00     0.044 C 
ATOM     32  C   UNL A   1      35.797  22.840  26.102  1.00  0.00    -0.051 A 
ATOM     33  C   UNL A   1      36.036  21.867  24.709  1.00  0.00     0.005 A 
ATOM     34  C   UNL A   1      34.553  22.657  27.259  1.00  0.00     0.005 A 
ATOM     35  C   UNL A   1      35.075  20.652  24.243  1.00  0.00     0.022 A 
ATOM     36  C   UNL A   1      33.396  21.380  26.991  1.00  0.00     0.022 A 
ENDBRANCH  27  30
ENDBRANCH  19  27
ENDBRANCH  16  18
ENDBRANCH  13  16
ENDBRANCH  11  12
ENDBRANCH   8  11
ENDBRANCH   6   7
ENDBRANCH   4   6
ENDBRANCH   3   4
ENDBRANCH   2   3
ENDBRANCH   1   2
BRANCH   1  37
ATOM     37  O   UNL A   1      34.991  32.908  27.634  1.00  0.00    -0.376 OA
BRANCH  37  38
ATOM     38  C   UNL A   1      34.010  33.295  28.570  1.00  0.00     0.188 C 
BRANCH  38  39
ATOM     39  C   UNL A   1      33.399  34.675  28.376  1.00  0.00     0.188 C 
BRANCH  39  40
ATOM     40  O   UNL A   1      33.639  35.614  29.409  1.00  0.00    -0.376 OA
BRANCH  40  41
ATOM     41  C   UNL A   1      32.667  36.252  30.194  1.00  0.00     0.202 C 
BRANCH  41  42
ATOM     42  C   UNL A   1      33.103  36.206  31.615  1.00  0.00     0.261 C 
BRANCH  42  43
ATOM     43  O   UNL A   1      33.227  34.848  32.163  1.00  0.00    -0.460 OA
BRANCH  43  44
ATOM     44  C   UNL A   1      34.304  34.294  32.807  1.00  0.00     0.338 C 
ATOM     45  O   UNL A   1      34.391  34.362  34.030  1.00  0.00    -0.246 OA
BRANCH  44  46
ATOM     46  C   UNL A   1      35.349  33.560  32.009  1.00  0.00     0.060 A 
ATOM     47  C   UNL A   1      35.496  32.214  32.206  1.00  0.00     0.016 A 
ATOM     48  C   UNL A   1      36.312  34.137  31.176  1.00  0.00     0.016 A 
ATOM     49  C   UNL A   1      36.719  31.653  31.802  1.00  0.00     0.010 A 
ATOM     50  C   UNL A   1      37.629  33.567  31.077  1.00  0.00     0.010 A 
ATOM     51  C   UNL A   1      37.943  32.325  31.641  1.00  0.00    -0.014 A 
BRANCH  51  52
ATOM     52  C   UNL A   1      39.611  31.878  32.128  1.00  0.00     0.031 A 
ATOM     53  C   UNL A   1      40.056  31.112  30.967  1.00  0.00     0.074 A 
ATOM     54  C   UNL A   1      40.609  32.217  33.238  1.00  0.00     0.049 A 
ATOM     55  N   UNL A   1      41.222  31.046  30.463  1.00  0.00    -0.248 NA
ATOM     56  C   UNL A   1      39.043  30.318  30.259  1.00  0.00     0.031 C 
ATOM     57  C   UNL A   1      42.114  32.450  33.209  1.00  0.00     0.029 A 
ATOM     58  N   UNL A   1      40.458  32.955  34.488  1.00  0.00    -0.354 N 
ATOM     59  C   UNL A   1      41.174  29.868  29.741  1.00  0.00     0.074 A 
ATOM     60  C   UNL A   1      39.796  29.538  29.513  1.00  0.00     0.031 C 
ATOM     61  C   UNL A   1      42.609  33.035  34.352  1.00  0.00     0.029 A 
ATOM     62  C   UNL A   1      41.525  33.325  35.276  1.00  0.00     0.049 A 
ATOM     63  H   UNL A   1      39.551  33.201  34.782  1.00  0.00     0.167 HD
ATOM     64  C   UNL A   1      42.171  28.968  29.876  1.00  0.00     0.034 A 
ATOM     65  C   UNL A   1      41.400  33.219  36.646  1.00  0.00     0.034 A 
ATOM     66  C   UNL A   1      43.035  29.348  30.999  1.00  0.00     0.049 A 
ATOM     67  C   UNL A   1      41.858  31.810  36.828  1.00  0.00     0.074 A 
ATOM     68  C   UNL A   1      44.000  30.321  31.192  1.00  0.00     0.029 A 
ATOM     69  N   UNL A   1      42.592  29.021  32.275  1.00  0.00    -0.354 N 
ATOM     70  N   UNL A   1      41.596  30.889  35.937  1.00  0.00    -0.248 NA
ATOM     71  C   UNL A   1      43.006  31.525  37.665  1.00  0.00     0.031 C 
ATOM     72  C   UNL A   1      44.199  30.477  32.605  1.00  0.00     0.029 A 
ATOM     73  C   UNL A   1      43.257  29.708  33.281  1.00  0.00     0.049 A 
ATOM     74  H   UNL A   1      41.877  28.367  32.447  1.00  0.00     0.167 HD
ATOM     75  C   UNL A   1      42.824  30.348  35.654  1.00  0.00     0.074 A 
ATOM     76  C   UNL A   1      43.603  30.627  36.870  1.00  0.00     0.031 C 
ATOM     77  C   UNL A   1      42.921  29.424  34.669  1.00  0.00     0.034 A 
BRANCH  64  78
ATOM     78  C   UNL A   1      42.419  27.949  28.798  1.00  0.00     0.023 A 
ATOM     79  C   UNL A   1      41.733  26.743  28.973  1.00  0.00     0.012 A 
ATOM     80  C   UNL A   1      43.413  27.971  27.778  1.00  0.00     0.148 A 
ATOM     81  C   UNL A   1      42.129  25.583  28.305  1.00  0.00     0.002 A 
ATOM     82  C   UNL A   1      43.808  26.822  27.108  1.00  0.00     0.091 A 
ATOM     83  F   UNL A   1      44.023  29.095  27.423  1.00  0.00    -0.205 F 
ATOM     84  C   UNL A   1      43.188  25.612  27.400  1.00  0.00     0.022 A 
BRANCH  82  85
ATOM     85  S   UNL A   1      45.176  26.826  25.928  1.00  0.00     0.127 S 
ATOM     86  O   UNL A   1      46.330  27.021  26.805  1.00  0.00    -0.237 OA
ATOM     87  O   UNL A   1      45.080  25.497  25.329  1.00  0.00    -0.237 OA
ATOM     88  O   UNL A   1      44.936  27.926  24.998  1.00  0.00    -0.744 OA
ENDBRANCH  82  85
ENDBRANCH  64  78
BRANCH  65  89
ATOM     89  C   UNL A   1      40.148  33.759  37.311  1.00  0.00     0.023 A 
ATOM     90  C   UNL A   1      39.173  32.818  37.713  1.00  0.00     0.012 A 
ATOM     91  C   UNL A   1      40.038  35.078  37.810  1.00  0.00     0.148 A 
ATOM     92  C   UNL A   1      38.298  33.102  38.774  1.00  0.00     0.002 A 
ATOM     93  C   UNL A   1      39.206  35.350  38.912  1.00  0.00     0.091 A 
ATOM     94  F   UNL A   1      40.819  36.022  37.271  1.00  0.00    -0.205 F 
ATOM     95  C   UNL A   1      38.373  34.337  39.427  1.00  0.00     0.022 A 
BRANCH  93  96
ATOM     96  S   UNL A   1      39.547  36.812  39.997  1.00  0.00     0.127 S 
ATOM     97  O   UNL A   1      38.911  37.890  39.247  1.00  0.00    -0.237 OA
ATOM     98  O   UNL A   1      38.905  36.545  41.287  1.00  0.00    -0.237 OA
ATOM     99  O   UNL A   1      41.002  36.877  40.080  1.00  0.00    -0.744 OA
ENDBRANCH  93  96
ENDBRANCH  65  89
BRANCH  77 100
ATOM    100  C   UNL A   1      43.154  28.088  35.204  1.00  0.00     0.023 A 
ATOM    101  C   UNL A   1      41.763  27.164  36.276  1.00  0.00     0.012 A 
ATOM    102  C   UNL A   1      44.926  27.219  35.268  1.00  0.00     0.148 A 
ATOM    103  C   UNL A   1      42.407  25.622  37.293  1.00  0.00     0.002 A 
ATOM    104  C   UNL A   1      45.632  25.704  36.291  1.00  0.00     0.091 A 
ATOM    105  F   UNL A   1      45.835  27.896  34.545  1.00  0.00    -0.205 F 
ATOM    106  C   UNL A   1      44.170  24.826  37.532  1.00  0.00     0.022 A 
BRANCH 104 107
ATOM    107  S   UNL A   1      47.418  25.326  35.605  1.00  0.00     0.127 S 
ATOM    108  O   UNL A   1      47.851  24.147  36.351  1.00  0.00    -0.237 OA
ATOM    109  O   UNL A   1      47.260  25.149  34.162  1.00  0.00    -0.237 OA
ATOM    110  O   UNL A   1      48.169  26.530  35.933  1.00  0.00    -0.744 OA
ENDBRANCH 104 107
ENDBRANCH  77 100
ENDBRANCH  51  52
ENDBRANCH  44  46
ENDBRANCH  43  44
ENDBRANCH  42  43
ENDBRANCH  41  42
ENDBRANCH  40  41
ENDBRANCH  39  40
ENDBRANCH  38  39
ENDBRANCH  37  38
ENDBRANCH   1  37
TORSDOF 27
ENDMDL
MODEL 2
REMARK VINA RESULT:     -11.6      2.395      3.374
REMARK SMILES Cc1ccc(S(=O)(=O)n2cc(C(=O)C(=O)NCC(=O)NCC(=O)OCCOCCOCCOC(=O)c3ccc(-c4c5nc(c(-c6cccc(S(=O)(=O)[O-])c6F)c6ccc([nH]6)c(-c6cccc(S(=O)(=O)[O-])c6F)c6nc(c(-c7cccc(S(=O)(=O)[O-])c7F)c7ccc4[nH]7)C=C6)C=C5)cc3)c3ccccc32)cc1
REMARK SMILES IDX 26 1 25 2 24 3 22 4 23 5 21 6 20 7 18 8 19 9 17 11 16 12
REMARK SMILES IDX 14 13 15 14 12 16 13 17 11 18 9 19 10 20 104 21 99 22 103 23
REMARK SMILES IDX 100 24 102 25 101 26 6 27 7 28 8 29 5 30 1 31 2 32 3 33
REMARK SMILES IDX 106 34 4 35 105 36 27 37 28 38 29 39 30 40 31 41 32 42 33 43
REMARK SMILES IDX 34 44 35 45 36 46 37 47 98 48 38 49 97 50 39 51 40 52 41 53
REMARK SMILES IDX 91 54 42 55 96 56 90 57 92 58 43 59 95 60 89 61 88 62 44 64
REMARK SMILES IDX 76 65 56 66 75 67 57 68 60 69 74 70 93 71 58 72 59 73 73 75
REMARK SMILES IDX 94 76 61 77 45 78 46 79 54 80 47 81 49 82 55 83 48 84 50 85
REMARK SMILES IDX 51 86 52 87 53 88 77 89 78 90 86 91 79 92 81 93 87 94 80 95
REMARK SMILES IDX 82 96 83 97 84 98 85 99 62 100 63 101 71 102 64 103 66 104
REMARK SMILES IDX 72 105 65 106 67 107 68 108 69 109 70 110
REMARK H PARENT 20 10 16 15 92 63 60 74
REMARK Flexibility Score: inf
ROOT
ATOM      1  C   UNL A   1      35.379  33.421  27.906  1.00  0.00     0.202 C 
ENDROOT
BRANCH   1   2
ATOM      2  C   UNL A   1      35.486  31.950  28.325  1.00  0.00     0.261 C 
BRANCH   2   3
ATOM      3  O   UNL A   1      34.821  30.737  27.276  1.00  0.00    -0.462 OA
BRANCH   3   4
ATOM      4  C   UNL A   1      33.821  29.778  26.749  1.00  0.00     0.325 C 
ATOM      5  O   UNL A   1      34.257  28.660  26.960  1.00  0.00    -0.250 OA
BRANCH   4   6
ATOM      6  C   UNL A   1      32.282  29.947  25.850  1.00  0.00     0.238 C 
BRANCH   6   7
ATOM      7  N   UNL A   1      31.541  28.692  25.276  1.00  0.00    -0.344 N 
ATOM      8  C   UNL A   1      30.962  28.266  24.091  1.00  0.00     0.239 C 
ATOM      9  O   UNL A   1      29.928  27.580  24.169  1.00  0.00    -0.273 OA
ATOM     10  H   UNL A   1      31.463  27.995  25.967  1.00  0.00     0.164 HD
BRANCH   8  11
ATOM     11  C   UNL A   1      31.480  28.521  22.670  1.00  0.00     0.216 C 
BRANCH  11  12
ATOM     12  N   UNL A   1      31.465  27.363  21.846  1.00  0.00    -0.340 N 
ATOM     13  C   UNL A   1      32.275  26.290  21.704  1.00  0.00     0.292 C 
ATOM     14  O   UNL A   1      31.935  25.440  20.894  1.00  0.00    -0.265 OA
ATOM     15  H   UNL A   1      30.687  27.335  21.243  1.00  0.00     0.164 HD
BRANCH  13  16
ATOM     16  C   UNL A   1      33.613  26.202  22.416  1.00  0.00     0.252 C 
ATOM     17  O   UNL A   1      34.539  26.877  21.969  1.00  0.00    -0.283 OA
BRANCH  16  18
ATOM     18  C   UNL A   1      33.778  25.272  23.547  1.00  0.00     0.054 A 
ATOM     19  N   UNL A   1      33.418  24.075  25.773  1.00  0.00    -0.240 N 
ATOM     20  C   UNL A   1      33.081  25.291  24.727  1.00  0.00     0.117 A 
ATOM     21  C   UNL A   1      34.676  23.511  24.826  1.00  0.00     0.065 A 
ATOM     22  C   UNL A   1      34.732  24.244  23.607  1.00  0.00     0.012 A 
ATOM     23  C   UNL A   1      35.736  22.572  25.022  1.00  0.00     0.028 A 
ATOM     24  C   UNL A   1      35.710  23.938  22.623  1.00  0.00     0.011 A 
ATOM     25  C   UNL A   1      36.753  22.391  24.073  1.00  0.00     0.002 A 
ATOM     26  C   UNL A   1      36.735  23.052  22.869  1.00  0.00     0.001 A 
BRANCH  19  27
ATOM     27  S   UNL A   1      31.900  22.975  27.425  1.00  0.00     0.268 S 
ATOM     28  O   UNL A   1      30.462  23.296  27.430  1.00  0.00    -0.201 OA
ATOM     29  O   UNL A   1      32.463  22.315  28.608  1.00  0.00    -0.201 OA
BRANCH  27  30
ATOM     30  C   UNL A   1      32.211  22.067  26.269  1.00  0.00     0.088 A 
ATOM     31  C   UNL A   1      32.978  18.260  23.363  1.00  0.00     0.044 C 
ATOM     32  C   UNL A   1      32.855  19.577  24.065  1.00  0.00    -0.051 A 
ATOM     33  C   UNL A   1      33.445  19.556  25.677  1.00  0.00     0.005 A 
ATOM     34  C   UNL A   1      31.948  20.829  23.338  1.00  0.00     0.005 A 
ATOM     35  C   UNL A   1      33.180  20.708  26.782  1.00  0.00     0.022 A 
ATOM     36  C   UNL A   1      31.556  22.209  24.330  1.00  0.00     0.022 A 
ENDBRANCH  27  30
ENDBRANCH  19  27
ENDBRANCH  16  18
ENDBRANCH  13  16
ENDBRANCH  11  12
ENDBRANCH   8  11
ENDBRANCH   6   7
ENDBRANCH   4   6
ENDBRANCH   3   4
ENDBRANCH   2   3
ENDBRANCH   1   2
BRANCH   1  37
ATOM     37  O   UNL A   1      34.151  34.039  27.586  1.00  0.00    -0.376 OA
BRANCH  37  38
ATOM     38  C   UNL A   1      33.256  34.237  28.657  1.00  0.00     0.188 C 
BRANCH  38  39
ATOM     39  C   UNL A   1      33.067  35.673  29.123  1.00  0.00     0.188 C 
BRANCH  39  40
ATOM     40  O   UNL A   1      33.639  36.002  30.376  1.00  0.00    -0.376 OA
BRANCH  40  41
ATOM     41  C   UNL A   1      32.955  36.126  31.595  1.00  0.00     0.202 C 
BRANCH  41  42
ATOM     42  C   UNL A   1      33.948  36.084  32.700  1.00  0.00     0.261 C 
BRANCH  42  43
ATOM     43  O   UNL A   1      34.007  34.798  33.411  1.00  0.00    -0.460 OA
BRANCH  43  44
ATOM     44  C   UNL A   1      35.119  34.121  33.838  1.00  0.00     0.338 C 
ATOM     45  O   UNL A   1      35.561  34.313  34.967  1.00  0.00    -0.246 OA
BRANCH  44  46
ATOM     46  C   UNL A   1      35.763  33.104  32.932  1.00  0.00     0.060 A 
ATOM     47  C   UNL A   1      36.185  31.921  33.472  1.00  0.00     0.016 A 
ATOM     48  C   UNL A   1      36.122  33.297  31.594  1.00  0.00     0.016 A 
ATOM     49  C   UNL A   1      37.142  31.203  32.736  1.00  0.00     0.010 A 
ATOM     50  C   UNL A   1      37.307  32.680  31.060  1.00  0.00     0.010 A 
ATOM     51  C   UNL A   1      38.031  31.721  31.778  1.00  0.00    -0.014 A 
BRANCH  51  52
ATOM     52  C   UNL A   1      39.777  31.419  31.499  1.00  0.00     0.031 A 
ATOM     53  C   UNL A   1      39.732  30.366  30.489  1.00  0.00     0.074 A 
ATOM     54  C   UNL A   1      41.122  32.045  31.879  1.00  0.00     0.049 A 
ATOM     55  N   UNL A   1      40.532  30.163  29.521  1.00  0.00    -0.248 NA
ATOM     56  C   UNL A   1      38.617  29.412  30.564  1.00  0.00     0.031 C 
ATOM     57  C   UNL A   1      42.401  32.258  31.080  1.00  0.00     0.029 A 
ATOM     58  N   UNL A   1      41.471  33.095  32.832  1.00  0.00    -0.354 N 
ATOM     59  C   UNL A   1      40.308  28.834  29.216  1.00  0.00     0.074 A 
ATOM     60  C   UNL A   1      39.035  28.457  29.761  1.00  0.00     0.031 C 
ATOM     61  C   UNL A   1      43.287  33.130  31.670  1.00  0.00     0.029 A 
ATOM     62  C   UNL A   1      42.723  33.662  32.900  1.00  0.00     0.049 A 
ATOM     63  H   UNL A   1      40.777  33.413  33.455  1.00  0.00     0.167 HD
ATOM     64  C   UNL A   1      41.362  28.002  29.069  1.00  0.00     0.034 A 
ATOM     65  C   UNL A   1      43.257  33.932  34.142  1.00  0.00     0.034 A 
ATOM     66  C   UNL A   1      42.589  28.671  29.515  1.00  0.00     0.049 A 
ATOM     67  C   UNL A   1      43.924  32.624  34.414  1.00  0.00     0.074 A 
ATOM     68  C   UNL A   1      43.401  29.658  28.984  1.00  0.00     0.029 A 
ATOM     69  N   UNL A   1      42.829  28.703  30.882  1.00  0.00    -0.354 N 
ATOM     70  N   UNL A   1      43.401  31.496  34.007  1.00  0.00    -0.248 NA
ATOM     71  C   UNL A   1      45.354  32.575  34.642  1.00  0.00     0.031 C 
ATOM     72  C   UNL A   1      44.206  30.191  30.045  1.00  0.00     0.029 A 
ATOM     73  C   UNL A   1      43.789  29.636  31.251  1.00  0.00     0.049 A 
ATOM     74  H   UNL A   1      42.364  28.122  31.526  1.00  0.00     0.167 HD
ATOM     75  C   UNL A   1      44.419  30.896  33.310  1.00  0.00     0.074 A 
ATOM     76  C   UNL A   1      45.627  31.494  33.900  1.00  0.00     0.031 C 
ATOM     77  C   UNL A   1      44.169  29.740  32.652  1.00  0.00     0.034 A 
BRANCH  64  78
ATOM     78  C   UNL A   1      41.213  26.729  28.283  1.00  0.00     0.023 A 
ATOM     79  C   UNL A   1      40.015  26.626  27.569  1.00  0.00     0.012 A 
ATOM     80  C   UNL A   1      42.011  25.551  28.356  1.00  0.00     0.148 A 
ATOM     81  C   UNL A   1      39.550  25.391  27.113  1.00  0.00     0.002 A 
ATOM     82  C   UNL A   1      41.556  24.322  27.900  1.00  0.00     0.091 A 
ATOM     83  F   UNL A   1      43.232  25.567  28.877  1.00  0.00    -0.205 F 
ATOM     84  C   UNL A   1      40.301  24.234  27.308  1.00  0.00     0.022 A 
BRANCH  82  85
ATOM     85  S   UNL A   1      42.506  22.804  28.136  1.00  0.00     0.127 S 
ATOM     86  O   UNL A   1      43.692  23.060  27.319  1.00  0.00    -0.237 OA
ATOM     87  O   UNL A   1      42.745  22.802  29.578  1.00  0.00    -0.237 OA
ATOM     88  O   UNL A   1      41.676  21.700  27.661  1.00  0.00    -0.744 OA
ENDBRANCH  82  85
ENDBRANCH  64  78
BRANCH  65  89
ATOM     89  C   UNL A   1      42.395  34.635  35.173  1.00  0.00     0.023 A 
ATOM     90  C   UNL A   1      41.874  35.902  34.825  1.00  0.00     0.012 A 
ATOM     91  C   UNL A   1      41.849  33.985  36.305  1.00  0.00     0.148 A 
ATOM     92  C   UNL A   1      40.684  36.371  35.405  1.00  0.00     0.002 A 
ATOM     93  C   UNL A   1      40.625  34.419  36.849  1.00  0.00     0.091 A 
ATOM     94  F   UNL A   1      42.475  32.896  36.769  1.00  0.00    -0.205 F 
ATOM     95  C   UNL A   1      40.018  35.591  36.356  1.00  0.00     0.022 A 
BRANCH  93  96
ATOM     96  S   UNL A   1      39.566  33.246  37.813  1.00  0.00     0.127 S 
ATOM     97  O   UNL A   1      39.711  32.016  37.040  1.00  0.00    -0.237 OA
ATOM     98  O   UNL A   1      40.141  33.157  39.158  1.00  0.00    -0.237 OA
ATOM     99  O   UNL A   1      38.237  33.847  37.792  1.00  0.00    -0.744 OA
ENDBRANCH  93  96
ENDBRANCH  65  89
BRANCH  77 100
ATOM    100  C   UNL A   1      44.790  28.598  33.313  1.00  0.00     0.023 A 
ATOM    101  C   UNL A   1      45.991  27.374  32.315  1.00  0.00     0.012 A 
ATOM    102  C   UNL A   1      44.247  27.920  35.086  1.00  0.00     0.148 A 
ATOM    103  C   UNL A   1      46.342  25.669  33.205  1.00  0.00     0.002 A 
ATOM    104  C   UNL A   1      44.539  26.215  36.008  1.00  0.00     0.091 A 
ATOM    105  F   UNL A   1      43.418  28.775  35.709  1.00  0.00    -0.205 F 
ATOM    106  C   UNL A   1      45.700  24.876  34.865  1.00  0.00     0.022 A 
BRANCH 104 107
ATOM    107  S   UNL A   1      43.878  26.424  37.831  1.00  0.00     0.127 S 
ATOM    108  O   UNL A   1      42.424  26.469  37.687  1.00  0.00    -0.237 OA
ATOM    109  O   UNL A   1      44.412  25.288  38.581  1.00  0.00    -0.237 OA
ATOM    110  O   UNL A   1      44.459  27.689  38.260  1.00  0.00    -0.744 OA
ENDBRANCH 104 107
ENDBRANCH  77 100
ENDBRANCH  51  52
ENDBRANCH  44  46
ENDBRANCH  43  44
ENDBRANCH  42  43
ENDBRANCH  41  42
ENDBRANCH  40  41
ENDBRANCH  39  40
ENDBRANCH  38  39
ENDBRANCH  37  38
ENDBRANCH   1  37
TORSDOF 27
ENDMDL
MODEL 3
REMARK VINA RESULT:     -11.0      2.616      3.797
REMARK SMILES Cc1ccc(S(=O)(=O)n2cc(C(=O)C(=O)NCC(=O)NCC(=O)OCCOCCOCCOC(=O)c3ccc(-c4c5nc(c(-c6cccc(S(=O)(=O)[O-])c6F)c6ccc([nH]6)c(-c6cccc(S(=O)(=O)[O-])c6F)c6nc(c(-c7cccc(S(=O)(=O)[O-])c7F)c7ccc4[nH]7)C=C6)C=C5)cc3)c3ccccc32)cc1
REMARK SMILES IDX 26 1 25 2 24 3 22 4 23 5 21 6 20 7 18 8 19 9 17 11 16 12
REMARK SMILES IDX 14 13 15 14 12 16 13 17 11 18 9 19 10 20 104 21 99 22 103 23
REMARK SMILES IDX 100 24 102 25 101 26 6 27 7 28 8 29 5 30 1 31 2 32 3 33
REMARK SMILES IDX 106 34 4 35 105 36 27 37 28 38 29 39 30 40 31 41 32 42 33 43
REMARK SMILES IDX 34 44 35 45 36 46 37 47 98 48 38 49 97 50 39 51 40 52 41 53
REMARK SMILES IDX 91 54 42 55 96 56 90 57 92 58 43 59 95 60 89 61 88 62 44 64
REMARK SMILES IDX 76 65 56 66 75 67 57 68 60 69 74 70 93 71 58 72 59 73 73 75
REMARK SMILES IDX 94 76 61 77 45 78 46 79 54 80 47 81 49 82 55 83 48 84 50 85
REMARK SMILES IDX 51 86 52 87 53 88 77 89 78 90 86 91 79 92 81 93 87 94 80 95
REMARK SMILES IDX 82 96 83 97 84 98 85 99 62 100 63 101 71 102 64 103 66 104
REMARK SMILES IDX 72 105 65 106 67 107 68 108 69 109 70 110
REMARK H PARENT 20 10 16 15 92 63 60 74
REMARK Flexibility Score: inf
ROOT
ATOM      1  C   UNL A   1      35.556  31.860  27.876  1.00  0.00     0.202 C 
ENDROOT
BRANCH   1   2
ATOM      2  C   UNL A   1      35.272  30.452  28.413  1.00  0.00     0.261 C 
BRANCH   2   3
ATOM      3  O   UNL A   1      34.217  29.414  27.504  1.00  0.00    -0.462 OA
BRANCH   3   4
ATOM      4  C   UNL A   1      32.939  28.874  26.984  1.00  0.00     0.325 C 
ATOM      5  O   UNL A   1      32.665  27.900  27.662  1.00  0.00    -0.250 OA
BRANCH   4   6
ATOM      6  C   UNL A   1      31.877  29.290  25.605  1.00  0.00     0.238 C 
BRANCH   6   7
ATOM      7  N   UNL A   1      31.069  28.184  24.844  1.00  0.00    -0.344 N 
ATOM      8  C   UNL A   1      30.602  27.917  23.567  1.00  0.00     0.239 C 
ATOM      9  O   UNL A   1      29.491  27.367  23.464  1.00  0.00    -0.273 OA
ATOM     10  H   UNL A   1      30.820  27.458  25.461  1.00  0.00     0.164 HD
BRANCH   8  11
ATOM     11  C   UNL A   1      31.326  28.198  22.245  1.00  0.00     0.216 C 
BRANCH  11  12
ATOM     12  N   UNL A   1      31.540  27.032  21.459  1.00  0.00    -0.340 N 
ATOM     13  C   UNL A   1      32.468  26.050  21.453  1.00  0.00     0.292 C 
ATOM     14  O   UNL A   1      32.328  25.157  20.630  1.00  0.00    -0.265 OA
ATOM     15  H   UNL A   1      30.855  26.914  20.761  1.00  0.00     0.164 HD
BRANCH  13  16
ATOM     16  C   UNL A   1      33.702  26.115  22.335  1.00  0.00     0.252 C 
ATOM     17  O   UNL A   1      34.602  26.881  21.996  1.00  0.00    -0.283 OA
BRANCH  16  18
ATOM     18  C   UNL A   1      33.814  25.219  23.500  1.00  0.00     0.054 A 
ATOM     19  N   UNL A   1      33.363  24.102  25.751  1.00  0.00    -0.240 N 
ATOM     20  C   UNL A   1      33.082  25.289  24.656  1.00  0.00     0.117 A 
ATOM     21  C   UNL A   1      34.638  23.484  24.862  1.00  0.00     0.065 A 
ATOM     22  C   UNL A   1      34.746  24.177  23.622  1.00  0.00     0.012 A 
ATOM     23  C   UNL A   1      35.673  22.533  25.122  1.00  0.00     0.028 A 
ATOM     24  C   UNL A   1      35.747  23.820  22.680  1.00  0.00     0.011 A 
ATOM     25  C   UNL A   1      36.715  22.303  24.211  1.00  0.00     0.002 A 
ATOM     26  C   UNL A   1      36.747  22.924  22.987  1.00  0.00     0.001 A 
BRANCH  19  27
ATOM     27  S   UNL A   1      31.774  23.085  27.389  1.00  0.00     0.268 S 
ATOM     28  O   UNL A   1      30.442  23.682  27.590  1.00  0.00    -0.201 OA
ATOM     29  O   UNL A   1      32.271  22.150  28.405  1.00  0.00    -0.201 OA
BRANCH  27  30
ATOM     30  C   UNL A   1      31.796  22.324  26.094  1.00  0.00     0.088 A 
ATOM     31  C   UNL A   1      32.050  20.986  21.438  1.00  0.00     0.044 C 
ATOM     32  C   UNL A   1      31.880  21.152  22.917  1.00  0.00    -0.051 A 
ATOM     33  C   UNL A   1      31.006  22.562  23.356  1.00  0.00     0.005 A 
ATOM     34  C   UNL A   1      32.750  20.133  23.977  1.00  0.00     0.005 A 
ATOM     35  C   UNL A   1      30.919  23.179  24.849  1.00  0.00     0.022 A 
ATOM     36  C   UNL A   1      32.781  20.577  25.663  1.00  0.00     0.022 A 
ENDBRANCH  27  30
ENDBRANCH  19  27
ENDBRANCH  16  18
ENDBRANCH  13  16
ENDBRANCH  11  12
ENDBRANCH   8  11
ENDBRANCH   6   7
ENDBRANCH   4   6
ENDBRANCH   3   4
ENDBRANCH   2   3
ENDBRANCH   1   2
BRANCH   1  37
ATOM     37  O   UNL A   1      34.535  32.771  27.535  1.00  0.00    -0.376 OA
BRANCH  37  38
ATOM     38  C   UNL A   1      33.739  33.241  28.599  1.00  0.00     0.188 C 
BRANCH  38  39
ATOM     39  C   UNL A   1      34.045  34.645  29.102  1.00  0.00     0.188 C 
BRANCH  39  40
ATOM     40  O   UNL A   1      34.445  34.748  30.457  1.00  0.00    -0.376 OA
BRANCH  40  41
ATOM     41  C   UNL A   1      33.597  34.784  31.574  1.00  0.00     0.202 C 
BRANCH  41  42
ATOM     42  C   UNL A   1      34.432  34.727  32.803  1.00  0.00     0.261 C 
BRANCH  42  43
ATOM     43  O   UNL A   1      34.651  33.369  33.321  1.00  0.00    -0.460 OA
BRANCH  43  44
ATOM     44  C   UNL A   1      35.843  32.711  33.484  1.00  0.00     0.338 C 
ATOM     45  O   UNL A   1      36.419  32.740  34.567  1.00  0.00    -0.246 OA
BRANCH  44  46
ATOM     46  C   UNL A   1      36.412  31.911  32.341  1.00  0.00     0.060 A 
ATOM     47  C   UNL A   1      36.651  30.578  32.531  1.00  0.00     0.016 A 
ATOM     48  C   UNL A   1      36.874  32.420  31.124  1.00  0.00     0.016 A 
ATOM     49  C   UNL A   1      37.557  29.972  31.644  1.00  0.00     0.010 A 
ATOM     50  C   UNL A   1      38.005  31.823  30.465  1.00  0.00     0.010 A 
ATOM     51  C   UNL A   1      38.560  30.612  30.897  1.00  0.00    -0.014 A 
BRANCH  51  52
ATOM     52  C   UNL A   1      40.270  30.167  30.586  1.00  0.00     0.031 A 
ATOM     53  C   UNL A   1      40.118  29.107  29.595  1.00  0.00     0.074 A 
ATOM     54  C   UNL A   1      41.668  30.689  30.927  1.00  0.00     0.049 A 
ATOM     55  N   UNL A   1      40.878  28.825  28.614  1.00  0.00    -0.248 NA
ATOM     56  C   UNL A   1      38.933  28.245  29.710  1.00  0.00     0.031 C 
ATOM     57  C   UNL A   1      42.942  30.787  30.097  1.00  0.00     0.029 A 
ATOM     58  N   UNL A   1      42.121  31.722  31.854  1.00  0.00    -0.354 N 
ATOM     59  C   UNL A   1      40.542  27.514  28.336  1.00  0.00     0.074 A 
ATOM     60  C   UNL A   1      39.256  27.248  28.914  1.00  0.00     0.031 C 
ATOM     61  C   UNL A   1      43.908  31.594  30.654  1.00  0.00     0.029 A 
ATOM     62  C   UNL A   1      43.416  32.188  31.886  1.00  0.00     0.049 A 
ATOM     63  H   UNL A   1      41.469  32.104  32.486  1.00  0.00     0.167 HD
ATOM     64  C   UNL A   1      41.522  26.598  28.182  1.00  0.00     0.034 A 
ATOM     65  C   UNL A   1      43.998  32.434  33.112  1.00  0.00     0.034 A 
ATOM     66  C   UNL A   1      42.809  27.173  28.590  1.00  0.00     0.049 A 
ATOM     67  C   UNL A   1      44.564  31.081  33.392  1.00  0.00     0.074 A 
ATOM     68  C   UNL A   1      43.685  28.083  28.025  1.00  0.00     0.029 A 
ATOM     69  N   UNL A   1      43.081  27.207  29.951  1.00  0.00    -0.354 N 
ATOM     70  N   UNL A   1      43.944  29.993  33.015  1.00  0.00    -0.248 NA
ATOM     71  C   UNL A   1      45.990  30.921  33.591  1.00  0.00     0.031 C 
ATOM     72  C   UNL A   1      44.553  28.567  29.061  1.00  0.00     0.029 A 
ATOM     73  C   UNL A   1      44.120  28.065  30.284  1.00  0.00     0.049 A 
ATOM     74  H   UNL A   1      42.586  26.675  30.615  1.00  0.00     0.167 HD
ATOM     75  C   UNL A   1      44.894  29.302  32.308  1.00  0.00     0.074 A 
ATOM     76  C   UNL A   1      46.159  29.810  32.861  1.00  0.00     0.031 C 
ATOM     77  C   UNL A   1      44.538  28.160  31.675  1.00  0.00     0.034 A 
BRANCH  64  78
ATOM     78  C   UNL A   1      41.256  25.329  27.420  1.00  0.00     0.023 A 
ATOM     79  C   UNL A   1      40.026  24.727  27.711  1.00  0.00     0.012 A 
ATOM     80  C   UNL A   1      42.167  24.563  26.639  1.00  0.00     0.148 A 
ATOM     81  C   UNL A   1      39.787  23.387  27.401  1.00  0.00     0.002 A 
ATOM     82  C   UNL A   1      41.932  23.231  26.326  1.00  0.00     0.091 A 
ATOM     83  F   UNL A   1      43.299  25.082  26.179  1.00  0.00    -0.205 F 
ATOM     84  C   UNL A   1      40.751  22.628  26.741  1.00  0.00     0.022 A 
BRANCH  82  85
ATOM     85  S   UNL A   1      43.161  22.220  25.470  1.00  0.00     0.127 S 
ATOM     86  O   UNL A   1      44.329  22.366  26.337  1.00  0.00    -0.237 OA
ATOM     87  O   UNL A   1      42.547  20.894  25.488  1.00  0.00    -0.237 OA
ATOM     88  O   UNL A   1      43.329  22.789  24.135  1.00  0.00    -0.744 OA
ENDBRANCH  82  85
ENDBRANCH  64  78
BRANCH  65  89
ATOM     89  C   UNL A   1      43.217  33.219  34.149  1.00  0.00     0.023 A 
ATOM     90  C   UNL A   1      42.219  34.101  33.676  1.00  0.00     0.012 A 
ATOM     91  C   UNL A   1      43.220  32.905  35.528  1.00  0.00     0.148 A 
ATOM     92  C   UNL A   1      41.115  34.432  34.479  1.00  0.00     0.002 A 
ATOM     93  C   UNL A   1      42.089  33.183  36.320  1.00  0.00     0.091 A 
ATOM     94  F   UNL A   1      44.278  32.251  36.023  1.00  0.00    -0.205 F 
ATOM     95  C   UNL A   1      41.012  33.905  35.771  1.00  0.00     0.022 A 
BRANCH  93  96
ATOM     96  S   UNL A   1      41.770  32.208  37.862  1.00  0.00     0.127 S 
ATOM     97  O   UNL A   1      42.424  30.941  37.549  1.00  0.00    -0.237 OA
ATOM     98  O   UNL A   1      42.406  32.933  38.965  1.00  0.00    -0.237 OA
ATOM     99  O   UNL A   1      40.316  32.155  37.969  1.00  0.00    -0.744 OA
ENDBRANCH  93  96
ENDBRANCH  65  89
BRANCH  77 100
ATOM    100  C   UNL A   1      45.082  26.982  32.342  1.00  0.00     0.023 A 
ATOM    101  C   UNL A   1      43.980  25.936  33.617  1.00  0.00     0.012 A 
ATOM    102  C   UNL A   1      47.001  26.518  32.370  1.00  0.00     0.148 A 
ATOM    103  C   UNL A   1      44.992  24.708  34.754  1.00  0.00     0.002 A 
ATOM    104  C   UNL A   1      48.068  25.329  33.504  1.00  0.00     0.091 A 
ATOM    105  F   UNL A   1      47.704  27.270  31.505  1.00  0.00    -0.205 F 
ATOM    106  C   UNL A   1      46.895  24.334  34.947  1.00  0.00     0.022 A 
BRANCH 104 107
ATOM    107  S   UNL A   1      49.857  25.246  32.731  1.00  0.00     0.127 S 
ATOM    108  O   UNL A   1      49.630  24.915  31.327  1.00  0.00    -0.237 OA
ATOM    109  O   UNL A   1      50.464  26.552  32.992  1.00  0.00    -0.237 OA
ATOM    110  O   UNL A   1      50.503  24.179  33.484  1.00  0.00    -0.744 OA
ENDBRANCH 104 107
ENDBRANCH  77 100
ENDBRANCH  51  52
ENDBRANCH  44  46
ENDBRANCH  43  44
ENDBRANCH  42  43
ENDBRANCH  41  42
ENDBRANCH  40  41
ENDBRANCH  39  40
ENDBRANCH  38  39
ENDBRANCH  37  38
ENDBRANCH   1  37
TORSDOF 27
ENDMDL
