MODEL 1
REMARK VINA RESULT:      -9.7      0.000      0.000
REMARK SMILES Cc1cc([N+](=O)[O-])ccc1-c1ccc(/C=C/C(=O)Nc2ccc(O)c(C(=O)OCCOCCOCCOC(=O)c3ccc(-c4c5nc(c(-c6cccc(S(=O)(=O)[O-])c6F)c6ccc([nH]6)c(-c6cccc(S(=O)(=O)[O-])c6F)c6nc(c(-c7cccc(S(=O)(=O)[O-])c7F)c7ccc4[nH]7)C=C6)C=C5)cc3)c2)o1
REMARK SMILES IDX 32 1 31 2 30 3 29 4 28 5 26 6 27 7 25 8 20 9 21 10 103 11
REMARK SMILES IDX 22 12 23 13 19 14 17 15 18 16 16 18 15 19 14 20 11 21 12 22
REMARK SMILES IDX 104 23 13 24 10 25 1 26 2 27 3 28 4 29 9 30 8 31 5 32 6 33
REMARK SMILES IDX 7 34 24 35 33 37 34 38 35 39 36 40 37 41 38 42 39 43 40 44
REMARK SMILES IDX 41 45 102 46 42 47 101 48 43 49 44 50 45 51 95 52 46 53
REMARK SMILES IDX 100 54 94 55 96 56 47 57 99 58 93 59 92 60 48 62 80 63 60 64
REMARK SMILES IDX 79 65 61 66 64 67 78 68 97 69 62 70 63 71 77 73 98 74 65 75
REMARK SMILES IDX 49 76 50 77 58 78 51 79 53 80 59 81 52 82 54 83 55 84 56 85
REMARK SMILES IDX 57 86 81 87 82 88 90 89 83 90 85 91 91 92 84 93 86 94 87 95
REMARK SMILES IDX 88 96 89 97 66 98 67 99 75 100 68 101 70 102 76 103 69 104
REMARK SMILES IDX 71 105 72 106 73 107 74 108
REMARK H PARENT 19 17 24 36 96 61 64 72
REMARK Flexibility Score: inf
ROOT
ATOM      1  C   UNL A   1      37.197  31.481  29.662  1.00  0.00     0.188 C 
ENDROOT
BRANCH   1   2
ATOM      2  O   UNL A   1      36.552  30.562  28.761  1.00  0.00    -0.376 OA
BRANCH   2   3
ATOM      3  C   UNL A   1      35.534  30.935  27.809  1.00  0.00     0.202 C 
BRANCH   3   4
ATOM      4  C   UNL A   1      34.365  29.905  27.354  1.00  0.00     0.261 C 
BRANCH   4   5
ATOM      5  O   UNL A   1      32.903  30.314  27.225  1.00  0.00    -0.460 OA
BRANCH   5   6
ATOM      6  C   UNL A   1      31.988  30.076  26.216  1.00  0.00     0.342 C 
ATOM      7  O   UNL A   1      31.345  30.964  25.714  1.00  0.00    -0.246 OA
BRANCH   6   8
ATOM      8  C   UNL A   1      31.756  28.550  25.720  1.00  0.00     0.103 A 
ATOM      9  C   UNL A   1      31.544  26.674  23.979  1.00  0.00     0.042 A 
ATOM     10  C   UNL A   1      30.960  25.865  24.923  1.00  0.00     0.030 A 
ATOM     11  C   UNL A   1      31.919  27.965  24.417  1.00  0.00     0.045 A 
ATOM     12  C   UNL A   1      30.826  26.345  26.241  1.00  0.00     0.049 A 
ATOM     13  C   UNL A   1      31.223  27.648  26.634  1.00  0.00     0.130 A 
BRANCH   9  14
ATOM     14  N   UNL A   1      31.795  26.288  22.623  1.00  0.00    -0.322 N 
ATOM     15  C   UNL A   1      32.991  26.063  21.968  1.00  0.00     0.248 C 
ATOM     16  O   UNL A   1      33.139  26.131  20.754  1.00  0.00    -0.270 OA
ATOM     17  H   UNL A   1      30.989  26.164  22.070  1.00  0.00     0.170 HD
BRANCH  15  18
ATOM     18  C   UNL A   1      34.107  25.581  22.797  1.00  0.00     0.075 C 
ATOM     19  C   UNL A   1      33.951  24.355  23.310  1.00  0.00     0.053 C 
BRANCH  19  20
ATOM     20  C   UNL A   1      34.708  23.980  24.439  1.00  0.00     0.127 A 
ATOM     21  C   UNL A   1      36.379  23.397  25.746  1.00  0.00     0.135 A 
ATOM     22  C   UNL A   1      35.256  23.360  26.538  1.00  0.00     0.051 A 
ATOM     23  O   UNL A   1      36.072  23.825  24.490  1.00  0.00    -0.457 OA
ATOM     24  C   UNL A   1      34.191  23.720  25.698  1.00  0.00     0.051 A 
BRANCH  21  25
ATOM     25  C   UNL A   1      37.753  23.014  25.988  1.00  0.00     0.021 A 
ATOM     26  C   UNL A   1      37.371  20.733  24.885  1.00  0.00     0.045 C 
ATOM     27  C   UNL A   1      38.227  21.737  25.622  1.00  0.00    -0.033 A 
ATOM     28  C   UNL A   1      39.530  21.359  25.987  1.00  0.00     0.089 A 
ATOM     29  C   UNL A   1      40.353  22.257  26.677  1.00  0.00     0.269 A 
ATOM     30  C   UNL A   1      38.598  23.913  26.659  1.00  0.00     0.019 A 
ATOM     31  C   UNL A   1      39.897  23.539  27.005  1.00  0.00     0.086 A 
BRANCH  29  32
ATOM     32  N   UNL A   1      41.707  21.849  27.073  1.00  0.00     0.062 N 
ATOM     33  O   UNL A   1      42.198  22.357  28.090  1.00  0.00    -0.258 OA
ATOM     34  O   UNL A   1      42.291  21.018  26.358  1.00  0.00    -0.258 OA
ENDBRANCH  29  32
ENDBRANCH  21  25
ENDBRANCH  19  20
ENDBRANCH  15  18
ENDBRANCH   9  14
BRANCH  13  35
ATOM     35  O   UNL A   1      31.007  27.964  27.947  1.00  0.00    -0.507 OA
ATOM     36  H   UNL A   1      30.308  27.555  28.419  1.00  0.00     0.293 HD
ENDBRANCH  13  35
ENDBRANCH   6   8
ENDBRANCH   5   6
ENDBRANCH   4   5
ENDBRANCH   3   4
ENDBRANCH   2   3
ENDBRANCH   1   2
BRANCH   1  37
ATOM     37  C   UNL A   1      37.220  31.292  31.192  1.00  0.00     0.188 C 
BRANCH  37  38
ATOM     38  O   UNL A   1      38.204  32.109  31.805  1.00  0.00    -0.376 OA
BRANCH  38  39
ATOM     39  C   UNL A   1      38.780  33.128  30.993  1.00  0.00     0.202 C 
BRANCH  39  40
ATOM     40  C   UNL A   1      40.259  32.897  30.610  1.00  0.00     0.261 C 
BRANCH  40  41
ATOM     41  O   UNL A   1      40.798  31.745  31.292  1.00  0.00    -0.460 OA
BRANCH  41  42
ATOM     42  C   UNL A   1      40.950  30.613  30.528  1.00  0.00     0.338 C 
ATOM     43  O   UNL A   1      40.318  29.588  30.705  1.00  0.00    -0.246 OA
BRANCH  42  44
ATOM     44  C   UNL A   1      42.151  30.762  29.640  1.00  0.00     0.060 A 
ATOM     45  C   UNL A   1      42.333  30.135  28.398  1.00  0.00     0.016 A 
ATOM     46  C   UNL A   1      43.265  31.290  30.220  1.00  0.00     0.016 A 
ATOM     47  C   UNL A   1      43.648  29.939  27.829  1.00  0.00     0.010 A 
ATOM     48  C   UNL A   1      44.494  30.867  29.742  1.00  0.00     0.010 A 
ATOM     49  C   UNL A   1      44.813  30.265  28.524  1.00  0.00    -0.014 A 
BRANCH  49  50
ATOM     50  C   UNL A   1      46.303  29.942  28.179  1.00  0.00     0.031 A 
ATOM     51  C   UNL A   1      47.514  30.759  27.513  1.00  0.00     0.074 A 
ATOM     52  C   UNL A   1      46.715  28.810  28.795  1.00  0.00     0.049 A 
ATOM     53  N   UNL A   1      48.713  30.232  27.419  1.00  0.00    -0.248 NA
ATOM     54  C   UNL A   1      47.621  32.112  26.911  1.00  0.00     0.031 C 
ATOM     55  C   UNL A   1      48.057  28.389  29.171  1.00  0.00     0.029 A 
ATOM     56  N   UNL A   1      45.944  27.681  29.034  1.00  0.00    -0.354 N 
ATOM     57  C   UNL A   1      49.649  31.233  27.214  1.00  0.00     0.074 A 
ATOM     58  C   UNL A   1      48.923  32.353  26.765  1.00  0.00     0.031 C 
ATOM     59  C   UNL A   1      48.079  27.056  29.256  1.00  0.00     0.029 A 
ATOM     60  C   UNL A   1      46.778  26.577  28.849  1.00  0.00     0.049 A 
ATOM     61  H   UNL A   1      44.992  27.663  29.285  1.00  0.00     0.167 HD
ATOM     62  C   UNL A   1      50.959  31.072  27.531  1.00  0.00     0.034 A 
ATOM     63  C   UNL A   1      46.489  25.600  27.945  1.00  0.00     0.034 A 
ATOM     64  C   UNL A   1      51.291  29.657  27.605  1.00  0.00     0.049 A 
ATOM     65  C   UNL A   1      47.582  25.513  26.889  1.00  0.00     0.074 A 
ATOM     66  C   UNL A   1      51.762  28.752  28.532  1.00  0.00     0.029 A 
ATOM     67  N   UNL A   1      50.912  28.903  26.511  1.00  0.00    -0.354 N 
ATOM     68  N   UNL A   1      48.834  25.866  27.061  1.00  0.00    -0.248 NA
ATOM     69  C   UNL A   1      47.310  25.131  25.505  1.00  0.00     0.031 C 
ATOM     70  C   UNL A   1      51.576  27.431  27.987  1.00  0.00     0.029 A 
ATOM     71  C   UNL A   1      51.060  27.548  26.707  1.00  0.00     0.049 A 
ATOM     72  H   UNL A   1      50.568  29.294  25.675  1.00  0.00     0.167 HD
ATOM     73  C   UNL A   1      49.432  26.017  25.827  1.00  0.00     0.074 A 
ATOM     74  C   UNL A   1      48.459  25.466  24.896  1.00  0.00     0.031 C 
ATOM     75  C   UNL A   1      50.604  26.704  25.606  1.00  0.00     0.034 A 
BRANCH  62  76
ATOM     76  C   UNL A   1      51.934  32.225  27.746  1.00  0.00     0.023 A 
ATOM     77  C   UNL A   1      52.119  32.703  29.059  1.00  0.00     0.012 A 
ATOM     78  C   UNL A   1      52.616  32.944  26.721  1.00  0.00     0.148 A 
ATOM     79  C   UNL A   1      52.933  33.812  29.343  1.00  0.00     0.002 A 
ATOM     80  C   UNL A   1      53.496  33.993  27.015  1.00  0.00     0.091 A 
ATOM     81  F   UNL A   1      52.344  32.687  25.434  1.00  0.00    -0.205 F 
ATOM     82  C   UNL A   1      53.641  34.443  28.327  1.00  0.00     0.022 A 
BRANCH  80  83
ATOM     83  S   UNL A   1      54.515  34.791  25.755  1.00  0.00     0.127 S 
ATOM     84  O   UNL A   1      53.518  35.496  24.951  1.00  0.00    -0.237 OA
ATOM     85  O   UNL A   1      55.380  35.665  26.551  1.00  0.00    -0.237 OA
ATOM     86  O   UNL A   1      55.222  33.712  25.075  1.00  0.00    -0.744 OA
ENDBRANCH  80  83
ENDBRANCH  62  76
BRANCH  63  87
ATOM     87  C   UNL A   1      45.000  25.401  27.839  1.00  0.00     0.023 A 
ATOM     88  C   UNL A   1      44.378  24.982  29.049  1.00  0.00     0.012 A 
ATOM     89  C   UNL A   1      44.184  26.003  26.861  1.00  0.00     0.148 A 
ATOM     90  C   UNL A   1      43.047  25.294  29.340  1.00  0.00     0.002 A 
ATOM     91  C   UNL A   1      42.834  26.262  27.140  1.00  0.00     0.091 A 
ATOM     92  F   UNL A   1      44.741  26.439  25.726  1.00  0.00    -0.205 F 
ATOM     93  C   UNL A   1      42.280  25.957  28.393  1.00  0.00     0.022 A 
BRANCH  91  94
ATOM     94  S   UNL A   1      41.804  27.137  25.944  1.00  0.00     0.127 S 
ATOM     95  O   UNL A   1      40.794  27.734  26.808  1.00  0.00    -0.237 OA
ATOM     96  O   UNL A   1      42.739  28.085  25.340  1.00  0.00    -0.237 OA
ATOM     97  O   UNL A   1      41.366  26.084  25.037  1.00  0.00    -0.744 OA
ENDBRANCH  91  94
ENDBRANCH  63  87
BRANCH  75  98
ATOM     98  C   UNL A   1      51.281  26.819  24.230  1.00  0.00     0.023 A 
ATOM     99  C   UNL A   1      52.610  26.394  24.042  1.00  0.00     0.012 A 
ATOM    100  C   UNL A   1      50.666  27.426  23.095  1.00  0.00     0.148 A 
ATOM    101  C   UNL A   1      53.231  26.411  22.784  1.00  0.00     0.002 A 
ATOM    102  C   UNL A   1      51.281  27.446  21.844  1.00  0.00     0.091 A 
ATOM    103  F   UNL A   1      49.497  28.061  23.217  1.00  0.00    -0.205 F 
ATOM    104  C   UNL A   1      52.556  26.911  21.678  1.00  0.00     0.022 A 
BRANCH 102 105
ATOM    105  S   UNL A   1      50.470  28.156  20.400  1.00  0.00     0.127 S 
ATOM    106  O   UNL A   1      49.663  29.215  21.006  1.00  0.00    -0.237 OA
ATOM    107  O   UNL A   1      51.606  28.630  19.608  1.00  0.00    -0.237 OA
ATOM    108  O   UNL A   1      49.728  27.064  19.785  1.00  0.00    -0.744 OA
ENDBRANCH 102 105
ENDBRANCH  75  98
ENDBRANCH  49  50
ENDBRANCH  42  44
ENDBRANCH  41  42
ENDBRANCH  40  41
ENDBRANCH  39  40
ENDBRANCH  38  39
ENDBRANCH  37  38
ENDBRANCH   1  37
TORSDOF 26
ENDMDL
MODEL 2
REMARK VINA RESULT:      -9.0      9.304     13.289
REMARK SMILES Cc1cc([N+](=O)[O-])ccc1-c1ccc(/C=C/C(=O)Nc2ccc(O)c(C(=O)OCCOCCOCCOC(=O)c3ccc(-c4c5nc(c(-c6cccc(S(=O)(=O)[O-])c6F)c6ccc([nH]6)c(-c6cccc(S(=O)(=O)[O-])c6F)c6nc(c(-c7cccc(S(=O)(=O)[O-])c7F)c7ccc4[nH]7)C=C6)C=C5)cc3)c2)o1
REMARK SMILES IDX 32 1 31 2 30 3 29 4 28 5 26 6 27 7 25 8 20 9 21 10 103 11
REMARK SMILES IDX 22 12 23 13 19 14 17 15 18 16 16 18 15 19 14 20 11 21 12 22
REMARK SMILES IDX 104 23 13 24 10 25 1 26 2 27 3 28 4 29 9 30 8 31 5 32 6 33
REMARK SMILES IDX 7 34 24 35 33 37 34 38 35 39 36 40 37 41 38 42 39 43 40 44
REMARK SMILES IDX 41 45 102 46 42 47 101 48 43 49 44 50 45 51 95 52 46 53
REMARK SMILES IDX 100 54 94 55 96 56 47 57 99 58 93 59 92 60 48 62 80 63 60 64
REMARK SMILES IDX 79 65 61 66 64 67 78 68 97 69 62 70 63 71 77 73 98 74 65 75
REMARK SMILES IDX 49 76 50 77 58 78 51 79 53 80 59 81 52 82 54 83 55 84 56 85
REMARK SMILES IDX 57 86 81 87 82 88 90 89 83 90 85 91 91 92 84 93 86 94 87 95
REMARK SMILES IDX 88 96 89 97 66 98 67 99 75 100 68 101 70 102 76 103 69 104
REMARK SMILES IDX 71 105 72 106 73 107 74 108
REMARK H PARENT 19 17 24 36 96 61 64 72
REMARK Flexibility Score: inf
ROOT
ATOM      1  C   UNL A   1      37.794  31.500  29.349  1.00  0.00     0.188 C 
ENDROOT
BRANCH   1   2
ATOM      2  O   UNL A   1      37.067  30.989  28.216  1.00  0.00    -0.376 OA
BRANCH   2   3
ATOM      3  C   UNL A   1      35.782  30.339  28.300  1.00  0.00     0.202 C 
BRANCH   3   4
ATOM      4  C   UNL A   1      34.430  31.033  27.730  1.00  0.00     0.261 C 
BRANCH   4   5
ATOM      5  O   UNL A   1      33.626  30.456  26.571  1.00  0.00    -0.460 OA
BRANCH   5   6
ATOM      6  C   UNL A   1      32.269  30.220  26.447  1.00  0.00     0.342 C 
ATOM      7  O   UNL A   1      31.447  31.056  26.727  1.00  0.00    -0.246 OA
BRANCH   6   8
ATOM      8  C   UNL A   1      31.778  28.762  25.938  1.00  0.00     0.103 A 
ATOM      9  C   UNL A   1      30.964  27.054  24.200  1.00  0.00     0.042 A 
ATOM     10  C   UNL A   1      30.557  26.220  25.213  1.00  0.00     0.030 A 
ATOM     11  C   UNL A   1      31.558  28.272  24.603  1.00  0.00     0.045 A 
ATOM     12  C   UNL A   1      30.797  26.602  26.547  1.00  0.00     0.049 A 
ATOM     13  C   UNL A   1      31.402  27.834  26.902  1.00  0.00     0.130 A 
BRANCH   9  14
ATOM     14  N   UNL A   1      30.836  26.760  22.805  1.00  0.00    -0.322 N 
ATOM     15  C   UNL A   1      31.688  26.078  21.956  1.00  0.00     0.248 C 
ATOM     16  O   UNL A   1      31.705  26.213  20.738  1.00  0.00    -0.270 OA
ATOM     17  H   UNL A   1      30.011  27.095  22.384  1.00  0.00     0.170 HD
BRANCH  15  18
ATOM     18  C   UNL A   1      32.522  25.034  22.571  1.00  0.00     0.075 C 
ATOM     19  C   UNL A   1      31.868  23.934  22.961  1.00  0.00     0.053 C 
BRANCH  19  20
ATOM     20  C   UNL A   1      32.452  23.094  23.930  1.00  0.00     0.127 A 
ATOM     21  C   UNL A   1      33.267  21.329  24.962  1.00  0.00     0.135 A 
ATOM     22  C   UNL A   1      33.321  22.354  25.877  1.00  0.00     0.051 A 
ATOM     23  O   UNL A   1      32.797  21.775  23.764  1.00  0.00    -0.457 OA
ATOM     24  C   UNL A   1      32.790  23.474  25.220  1.00  0.00     0.051 A 
BRANCH  21  25
ATOM     25  C   UNL A   1      33.547  19.914  25.068  1.00  0.00     0.021 A 
ATOM     26  C   UNL A   1      36.057  20.331  24.755  1.00  0.00     0.045 C 
ATOM     27  C   UNL A   1      34.863  19.422  24.931  1.00  0.00    -0.033 A 
ATOM     28  C   UNL A   1      35.076  18.033  24.915  1.00  0.00     0.089 A 
ATOM     29  C   UNL A   1      33.995  17.156  25.066  1.00  0.00     0.269 A 
ATOM     30  C   UNL A   1      32.477  19.023  25.244  1.00  0.00     0.019 A 
ATOM     31  C   UNL A   1      32.695  17.645  25.244  1.00  0.00     0.086 A 
BRANCH  29  32
ATOM     32  N   UNL A   1      34.223  15.706  25.029  1.00  0.00     0.062 N 
ATOM     33  O   UNL A   1      33.239  14.961  24.914  1.00  0.00    -0.258 OA
ATOM     34  O   UNL A   1      35.393  15.303  25.122  1.00  0.00    -0.258 OA
ENDBRANCH  29  32
ENDBRANCH  21  25
ENDBRANCH  19  20
ENDBRANCH  15  18
ENDBRANCH   9  14
BRANCH  13  35
ATOM     35  O   UNL A   1      31.548  28.059  28.244  1.00  0.00    -0.507 OA
ATOM     36  H   UNL A   1      31.843  28.894  28.550  1.00  0.00     0.293 HD
ENDBRANCH  13  35
ENDBRANCH   6   8
ENDBRANCH   5   6
ENDBRANCH   4   5
ENDBRANCH   3   4
ENDBRANCH   2   3
ENDBRANCH   1   2
BRANCH   1  37
ATOM     37  C   UNL A   1      38.067  30.675  30.622  1.00  0.00     0.188 C 
BRANCH  37  38
ATOM     38  O   UNL A   1      37.421  31.232  31.755  1.00  0.00    -0.376 OA
BRANCH  38  39
ATOM     39  C   UNL A   1      35.998  31.265  31.723  1.00  0.00     0.202 C 
BRANCH  39  40
ATOM     40  C   UNL A   1      35.362  32.536  32.330  1.00  0.00     0.261 C 
BRANCH  40  41
ATOM     41  O   UNL A   1      36.342  33.584  32.485  1.00  0.00    -0.460 OA
BRANCH  41  42
ATOM     42  C   UNL A   1      36.534  34.039  33.767  1.00  0.00     0.338 C 
ATOM     43  O   UNL A   1      35.974  35.017  34.228  1.00  0.00    -0.246 OA
BRANCH  42  44
ATOM     44  C   UNL A   1      37.686  33.311  34.394  1.00  0.00     0.060 A 
ATOM     45  C   UNL A   1      37.584  32.256  35.314  1.00  0.00     0.016 A 
ATOM     46  C   UNL A   1      38.902  33.919  34.304  1.00  0.00     0.016 A 
ATOM     47  C   UNL A   1      38.668  31.922  36.213  1.00  0.00     0.010 A 
ATOM     48  C   UNL A   1      39.800  33.707  35.336  1.00  0.00     0.010 A 
ATOM     49  C   UNL A   1      39.830  32.689  36.290  1.00  0.00    -0.014 A 
BRANCH  49  50
ATOM     50  C   UNL A   1      41.001  32.621  37.323  1.00  0.00     0.031 A 
ATOM     51  C   UNL A   1      42.465  31.959  37.335  1.00  0.00     0.074 A 
ATOM     52  C   UNL A   1      40.827  33.516  38.322  1.00  0.00     0.049 A 
ATOM     53  N   UNL A   1      43.279  32.140  38.348  1.00  0.00    -0.248 NA
ATOM     54  C   UNL A   1      43.201  31.098  36.376  1.00  0.00     0.031 C 
ATOM     55  C   UNL A   1      41.811  34.148  39.190  1.00  0.00     0.029 A 
ATOM     56  N   UNL A   1      39.614  33.891  38.883  1.00  0.00    -0.354 N 
ATOM     57  C   UNL A   1      44.577  31.848  37.962  1.00  0.00     0.074 A 
ATOM     58  C   UNL A   1      44.466  31.076  36.790  1.00  0.00     0.031 C 
ATOM     59  C   UNL A   1      41.206  34.523  40.321  1.00  0.00     0.029 A 
ATOM     60  C   UNL A   1      39.838  34.061  40.251  1.00  0.00     0.049 A 
ATOM     61  H   UNL A   1      38.761  34.013  38.409  1.00  0.00     0.167 HD
ATOM     62  C   UNL A   1      45.656  32.363  38.608  1.00  0.00     0.034 A 
ATOM     63  C   UNL A   1      39.141  33.361  41.187  1.00  0.00     0.034 A 
ATOM     64  C   UNL A   1      45.286  32.784  39.951  1.00  0.00     0.049 A 
ATOM     65  C   UNL A   1      40.082  32.502  42.020  1.00  0.00     0.074 A 
ATOM     66  C   UNL A   1      45.265  33.940  40.703  1.00  0.00     0.029 A 
ATOM     67  N   UNL A   1      44.615  31.839  40.704  1.00  0.00    -0.354 N 
ATOM     68  N   UNL A   1      41.352  32.757  42.236  1.00  0.00    -0.248 NA
ATOM     69  C   UNL A   1      39.685  31.211  42.575  1.00  0.00     0.031 C 
ATOM     70  C   UNL A   1      44.492  33.673  41.890  1.00  0.00     0.029 A 
ATOM     71  C   UNL A   1      44.111  32.342  41.882  1.00  0.00     0.049 A 
ATOM     72  H   UNL A   1      44.508  30.901  40.426  1.00  0.00     0.167 HD
ATOM     73  C   UNL A   1      41.970  31.609  42.687  1.00  0.00     0.074 A 
ATOM     74  C   UNL A   1      40.867  30.700  42.958  1.00  0.00     0.031 C 
ATOM     75  C   UNL A   1      43.330  31.401  42.680  1.00  0.00     0.034 A 
BRANCH  62  76
ATOM     76  C   UNL A   1      47.052  32.449  38.002  1.00  0.00     0.023 A 
ATOM     77  C   UNL A   1      47.478  33.688  37.484  1.00  0.00     0.012 A 
ATOM     78  C   UNL A   1      47.951  31.357  37.818  1.00  0.00     0.148 A 
ATOM     79  C   UNL A   1      48.714  33.843  36.836  1.00  0.00     0.002 A 
ATOM     80  C   UNL A   1      49.220  31.533  37.251  1.00  0.00     0.091 A 
ATOM     81  F   UNL A   1      47.550  30.109  38.100  1.00  0.00    -0.205 F 
ATOM     82  C   UNL A   1      49.596  32.774  36.739  1.00  0.00     0.022 A 
BRANCH  80  83
ATOM     83  S   UNL A   1      50.447  30.209  37.181  1.00  0.00     0.127 S 
ATOM     84  O   UNL A   1      50.581  29.837  38.588  1.00  0.00    -0.237 OA
ATOM     85  O   UNL A   1      49.784  29.204  36.348  1.00  0.00    -0.237 OA
ATOM     86  O   UNL A   1      51.633  30.799  36.571  1.00  0.00    -0.744 OA
ENDBRANCH  80  83
ENDBRANCH  62  76
BRANCH  63  87
ATOM     87  C   UNL A   1      37.733  33.105  40.716  1.00  0.00     0.023 A 
ATOM     88  C   UNL A   1      37.614  32.035  39.785  1.00  0.00     0.012 A 
ATOM     89  C   UNL A   1      36.575  33.488  41.421  1.00  0.00     0.148 A 
ATOM     90  C   UNL A   1      36.445  31.277  39.680  1.00  0.00     0.002 A 
ATOM     91  C   UNL A   1      35.390  32.755  41.268  1.00  0.00     0.091 A 
ATOM     92  F   UNL A   1      36.659  34.467  42.329  1.00  0.00    -0.205 F 
ATOM     93  C   UNL A   1      35.338  31.622  40.441  1.00  0.00     0.022 A 
BRANCH  91  94
ATOM     94  S   UNL A   1      33.930  33.159  42.250  1.00  0.00     0.127 S 
ATOM     95  O   UNL A   1      32.903  33.262  41.221  1.00  0.00    -0.237 OA
ATOM     96  O   UNL A   1      33.803  32.002  43.136  1.00  0.00    -0.237 OA
ATOM     97  O   UNL A   1      34.310  34.386  42.938  1.00  0.00    -0.744 OA
ENDBRANCH  91  94
ENDBRANCH  63  87
BRANCH  75  98
ATOM     98  C   UNL A   1      44.004  30.133  43.233  1.00  0.00     0.023 A 
ATOM     99  C   UNL A   1      44.166  28.992  42.425  1.00  0.00     0.012 A 
ATOM    100  C   UNL A   1      44.424  29.989  44.588  1.00  0.00     0.148 A 
ATOM    101  C   UNL A   1      44.845  27.848  42.872  1.00  0.00     0.002 A 
ATOM    102  C   UNL A   1      45.098  28.854  45.035  1.00  0.00     0.091 A 
ATOM    103  F   UNL A   1      44.119  30.921  45.494  1.00  0.00    -0.205 F 
ATOM    104  C   UNL A   1      45.337  27.790  44.169  1.00  0.00     0.022 A 
BRANCH 102 105
ATOM    105  S   UNL A   1      45.686  28.707  46.733  1.00  0.00     0.127 S 
ATOM    106  O   UNL A   1      46.149  27.320  46.765  1.00  0.00    -0.237 OA
ATOM    107  O   UNL A   1      46.752  29.709  46.780  1.00  0.00    -0.237 OA
ATOM    108  O   UNL A   1      44.540  29.015  47.577  1.00  0.00    -0.744 OA
ENDBRANCH 102 105
ENDBRANCH  75  98
ENDBRANCH  49  50
ENDBRANCH  42  44
ENDBRANCH  41  42
ENDBRANCH  40  41
ENDBRANCH  39  40
ENDBRANCH  38  39
ENDBRANCH  37  38
ENDBRANCH   1  37
TORSDOF 26
ENDMDL
MODEL 3
REMARK VINA RESULT:      -9.0      3.159      4.026
REMARK SMILES Cc1cc([N+](=O)[O-])ccc1-c1ccc(/C=C/C(=O)Nc2ccc(O)c(C(=O)OCCOCCOCCOC(=O)c3ccc(-c4c5nc(c(-c6cccc(S(=O)(=O)[O-])c6F)c6ccc([nH]6)c(-c6cccc(S(=O)(=O)[O-])c6F)c6nc(c(-c7cccc(S(=O)(=O)[O-])c7F)c7ccc4[nH]7)C=C6)C=C5)cc3)c2)o1
REMARK SMILES IDX 32 1 31 2 30 3 29 4 28 5 26 6 27 7 25 8 20 9 21 10 103 11
REMARK SMILES IDX 22 12 23 13 19 14 17 15 18 16 16 18 15 19 14 20 11 21 12 22
REMARK SMILES IDX 104 23 13 24 10 25 1 26 2 27 3 28 4 29 9 30 8 31 5 32 6 33
REMARK SMILES IDX 7 34 24 35 33 37 34 38 35 39 36 40 37 41 38 42 39 43 40 44
REMARK SMILES IDX 41 45 102 46 42 47 101 48 43 49 44 50 45 51 95 52 46 53
REMARK SMILES IDX 100 54 94 55 96 56 47 57 99 58 93 59 92 60 48 62 80 63 60 64
REMARK SMILES IDX 79 65 61 66 64 67 78 68 97 69 62 70 63 71 77 73 98 74 65 75
REMARK SMILES IDX 49 76 50 77 58 78 51 79 53 80 59 81 52 82 54 83 55 84 56 85
REMARK SMILES IDX 57 86 81 87 82 88 90 89 83 90 85 91 91 92 84 93 86 94 87 95
REMARK SMILES IDX 88 96 89 97 66 98 67 99 75 100 68 101 70 102 76 103 69 104
REMARK SMILES IDX 71 105 72 106 73 107 74 108
REMARK H PARENT 19 17 24 36 96 61 64 72
REMARK Flexibility Score: inf
ROOT
ATOM      1  C   UNL A   1      38.035  29.982  28.284  1.00  0.00     0.188 C 
ENDROOT
BRANCH   1   2
ATOM      2  O   UNL A   1      36.879  30.014  27.427  1.00  0.00    -0.376 OA
BRANCH   2   3
ATOM      3  C   UNL A   1      35.562  29.572  27.819  1.00  0.00     0.202 C 
BRANCH   3   4
ATOM      4  C   UNL A   1      34.240  30.477  27.559  1.00  0.00     0.261 C 
BRANCH   4   5
ATOM      5  O   UNL A   1      33.466  30.456  26.246  1.00  0.00    -0.460 OA
BRANCH   5   6
ATOM      6  C   UNL A   1      32.128  30.212  25.994  1.00  0.00     0.342 C 
ATOM      7  O   UNL A   1      31.288  31.068  26.124  1.00  0.00    -0.246 OA
BRANCH   6   8
ATOM      8  C   UNL A   1      31.681  28.722  25.541  1.00  0.00     0.103 A 
ATOM      9  C   UNL A   1      30.927  26.925  23.869  1.00  0.00     0.042 A 
ATOM     10  C   UNL A   1      30.537  26.119  24.911  1.00  0.00     0.030 A 
ATOM     11  C   UNL A   1      31.483  28.174  24.226  1.00  0.00     0.045 A 
ATOM     12  C   UNL A   1      30.759  26.560  26.231  1.00  0.00     0.049 A 
ATOM     13  C   UNL A   1      31.327  27.822  26.539  1.00  0.00     0.130 A 
BRANCH   9  14
ATOM     14  N   UNL A   1      30.814  26.572  22.485  1.00  0.00    -0.322 N 
ATOM     15  C   UNL A   1      31.719  25.944  21.650  1.00  0.00     0.248 C 
ATOM     16  O   UNL A   1      31.714  26.037  20.428  1.00  0.00    -0.270 OA
ATOM     17  H   UNL A   1      29.959  26.815  22.063  1.00  0.00     0.170 HD
BRANCH  15  18
ATOM     18  C   UNL A   1      32.652  25.003  22.290  1.00  0.00     0.075 C 
ATOM     19  C   UNL A   1      32.150  23.791  22.555  1.00  0.00     0.053 C 
BRANCH  19  20
ATOM     20  C   UNL A   1      32.772  22.988  23.534  1.00  0.00     0.127 A 
ATOM     21  C   UNL A   1      33.569  21.255  24.629  1.00  0.00     0.135 A 
ATOM     22  C   UNL A   1      33.781  22.341  25.445  1.00  0.00     0.051 A 
ATOM     23  O   UNL A   1      33.013  21.639  23.447  1.00  0.00    -0.457 OA
ATOM     24  C   UNL A   1      33.260  23.442  24.749  1.00  0.00     0.051 A 
BRANCH  21  25
ATOM     25  C   UNL A   1      33.767  19.835  24.828  1.00  0.00     0.021 A 
ATOM     26  C   UNL A   1      36.312  20.120  24.734  1.00  0.00     0.045 C 
ATOM     27  C   UNL A   1      35.063  19.277  24.839  1.00  0.00    -0.033 A 
ATOM     28  C   UNL A   1      35.206  17.881  24.908  1.00  0.00     0.089 A 
ATOM     29  C   UNL A   1      34.073  17.063  24.998  1.00  0.00     0.269 A 
ATOM     30  C   UNL A   1      32.641  19.005  24.944  1.00  0.00     0.019 A 
ATOM     31  C   UNL A   1      32.789  17.620  25.028  1.00  0.00     0.086 A 
BRANCH  29  32
ATOM     32  N   UNL A   1      34.229  15.604  25.050  1.00  0.00     0.062 N 
ATOM     33  O   UNL A   1      35.373  15.142  25.164  1.00  0.00    -0.258 OA
ATOM     34  O   UNL A   1      33.202  14.910  24.971  1.00  0.00    -0.258 OA
ENDBRANCH  29  32
ENDBRANCH  21  25
ENDBRANCH  19  20
ENDBRANCH  15  18
ENDBRANCH   9  14
BRANCH  13  35
ATOM     35  O   UNL A   1      31.459  28.104  27.872  1.00  0.00    -0.507 OA
ATOM     36  H   UNL A   1      31.674  27.421  28.476  1.00  0.00     0.293 HD
ENDBRANCH  13  35
ENDBRANCH   6   8
ENDBRANCH   5   6
ENDBRANCH   4   5
ENDBRANCH   3   4
ENDBRANCH   2   3
ENDBRANCH   1   2
BRANCH   1  37
ATOM     37  C   UNL A   1      38.579  28.691  28.926  1.00  0.00     0.188 C 
BRANCH  37  38
ATOM     38  O   UNL A   1      38.323  28.651  30.320  1.00  0.00    -0.376 OA
BRANCH  38  39
ATOM     39  C   UNL A   1      37.396  29.608  30.824  1.00  0.00     0.202 C 
BRANCH  39  40
ATOM     40  C   UNL A   1      38.013  30.698  31.728  1.00  0.00     0.261 C 
BRANCH  40  41
ATOM     41  O   UNL A   1      39.371  30.991  31.336  1.00  0.00    -0.460 OA
BRANCH  41  42
ATOM     42  C   UNL A   1      40.279  31.102  32.362  1.00  0.00     0.338 C 
ATOM     43  O   UNL A   1      40.278  32.011  33.170  1.00  0.00    -0.246 OA
BRANCH  42  44
ATOM     44  C   UNL A   1      41.376  30.095  32.174  1.00  0.00     0.060 A 
ATOM     45  C   UNL A   1      42.218  29.604  33.184  1.00  0.00     0.016 A 
ATOM     46  C   UNL A   1      41.783  29.881  30.892  1.00  0.00     0.016 A 
ATOM     47  C   UNL A   1      43.510  29.026  32.885  1.00  0.00     0.010 A 
ATOM     48  C   UNL A   1      43.110  29.540  30.691  1.00  0.00     0.010 A 
ATOM     49  C   UNL A   1      44.037  29.017  31.593  1.00  0.00    -0.014 A 
BRANCH  49  50
ATOM     50  C   UNL A   1      45.473  28.639  31.106  1.00  0.00     0.031 A 
ATOM     51  C   UNL A   1      46.791  29.470  30.713  1.00  0.00     0.074 A 
ATOM     52  C   UNL A   1      45.723  27.323  31.288  1.00  0.00     0.049 A 
ATOM     53  N   UNL A   1      47.908  28.855  30.404  1.00  0.00    -0.248 NA
ATOM     54  C   UNL A   1      47.085  30.920  30.601  1.00  0.00     0.031 C 
ATOM     55  C   UNL A   1      46.992  26.628  31.452  1.00  0.00     0.029 A 
ATOM     56  N   UNL A   1      44.805  26.290  31.158  1.00  0.00    -0.354 N 
ATOM     57  C   UNL A   1      48.973  29.735  30.516  1.00  0.00     0.074 A 
ATOM     58  C   UNL A   1      48.409  31.025  30.499  1.00  0.00     0.031 C 
ATOM     59  C   UNL A   1      46.834  25.354  31.080  1.00  0.00     0.029 A 
ATOM     60  C   UNL A   1      45.484  25.216  30.581  1.00  0.00     0.049 A 
ATOM     61  H   UNL A   1      43.857  26.311  31.422  1.00  0.00     0.167 HD
ATOM     62  C   UNL A   1      50.246  29.306  30.714  1.00  0.00     0.034 A 
ATOM     63  C   UNL A   1      45.077  24.650  29.412  1.00  0.00     0.034 A 
ATOM     64  C   UNL A   1      50.384  27.920  30.292  1.00  0.00     0.049 A 
ATOM     65  C   UNL A   1      46.160  24.786  28.350  1.00  0.00     0.074 A 
ATOM     66  C   UNL A   1      50.719  26.701  30.842  1.00  0.00     0.029 A 
ATOM     67  N   UNL A   1      49.919  27.639  29.022  1.00  0.00    -0.354 N 
ATOM     68  N   UNL A   1      47.446  24.894  28.587  1.00  0.00    -0.248 NA
ATOM     69  C   UNL A   1      45.854  24.936  26.929  1.00  0.00     0.031 C 
ATOM     70  C   UNL A   1      50.363  25.680  29.889  1.00  0.00     0.029 A 
ATOM     71  C   UNL A   1      49.882  26.292  28.743  1.00  0.00     0.049 A 
ATOM     72  H   UNL A   1      49.640  28.333  28.381  1.00  0.00     0.167 HD
ATOM     73  C   UNL A   1      48.073  25.376  27.456  1.00  0.00     0.074 A 
ATOM     74  C   UNL A   1      47.045  25.305  26.429  1.00  0.00     0.031 C 
ATOM     75  C   UNL A   1      49.328  25.938  27.439  1.00  0.00     0.034 A 
BRANCH  62  76
ATOM     76  C   UNL A   1      51.364  30.181  31.272  1.00  0.00     0.023 A 
ATOM     77  C   UNL A   1      51.586  30.170  32.663  1.00  0.00     0.012 A 
ATOM     78  C   UNL A   1      52.159  31.098  30.522  1.00  0.00     0.148 A 
ATOM     79  C   UNL A   1      52.538  31.002  33.275  1.00  0.00     0.002 A 
ATOM     80  C   UNL A   1      53.169  31.862  31.123  1.00  0.00     0.091 A 
ATOM     81  F   UNL A   1      51.882  31.318  29.230  1.00  0.00    -0.205 F 
ATOM     82  C   UNL A   1      53.346  31.830  32.506  1.00  0.00     0.022 A 
BRANCH  80  83
ATOM     83  S   UNL A   1      54.313  32.884  30.170  1.00  0.00     0.127 S 
ATOM     84  O   UNL A   1      54.496  32.093  28.955  1.00  0.00    -0.237 OA
ATOM     85  O   UNL A   1      53.553  34.121  29.980  1.00  0.00    -0.237 OA
ATOM     86  O   UNL A   1      55.498  33.037  31.006  1.00  0.00    -0.744 OA
ENDBRANCH  80  83
ENDBRANCH  62  76
BRANCH  63  87
ATOM     87  C   UNL A   1      43.576  24.695  29.297  1.00  0.00     0.023 A 
ATOM     88  C   UNL A   1      43.025  26.008  29.342  1.00  0.00     0.012 A 
ATOM     89  C   UNL A   1      42.790  23.678  28.722  1.00  0.00     0.148 A 
ATOM     90  C   UNL A   1      41.825  26.325  28.701  1.00  0.00     0.002 A 
ATOM     91  C   UNL A   1      41.561  23.996  28.128  1.00  0.00     0.091 A 
ATOM     92  F   UNL A   1      43.290  22.440  28.632  1.00  0.00    -0.205 F 
ATOM     93  C   UNL A   1      41.103  25.322  28.071  1.00  0.00     0.022 A 
BRANCH  91  94
ATOM     94  S   UNL A   1      40.595  22.726  27.283  1.00  0.00     0.127 S 
ATOM     95  O   UNL A   1      39.308  23.390  27.128  1.00  0.00    -0.237 OA
ATOM     96  O   UNL A   1      41.340  22.524  26.040  1.00  0.00    -0.237 OA
ATOM     97  O   UNL A   1      40.654  21.591  28.195  1.00  0.00    -0.744 OA
ENDBRANCH  91  94
ENDBRANCH  63  87
BRANCH  75  98
ATOM     98  C   UNL A   1      50.030  26.426  26.159  1.00  0.00     0.023 A 
ATOM     99  C   UNL A   1      49.419  27.377  25.320  1.00  0.00     0.012 A 
ATOM    100  C   UNL A   1      51.272  25.906  25.693  1.00  0.00     0.148 A 
ATOM    101  C   UNL A   1      50.063  27.902  24.190  1.00  0.00     0.002 A 
ATOM    102  C   UNL A   1      51.914  26.424  24.569  1.00  0.00     0.091 A 
ATOM    103  F   UNL A   1      51.830  24.848  26.287  1.00  0.00    -0.205 F 
ATOM    104  C   UNL A   1      51.325  27.445  23.829  1.00  0.00     0.022 A 
BRANCH 102 105
ATOM    105  S   UNL A   1      53.517  25.806  24.023  1.00  0.00     0.127 S 
ATOM    106  O   UNL A   1      53.444  26.033  22.580  1.00  0.00    -0.237 OA
ATOM    107  O   UNL A   1      54.447  26.685  24.734  1.00  0.00    -0.237 OA
ATOM    108  O   UNL A   1      53.570  24.413  24.446  1.00  0.00    -0.744 OA
ENDBRANCH 102 105
ENDBRANCH  75  98
ENDBRANCH  49  50
ENDBRANCH  42  44
ENDBRANCH  41  42
ENDBRANCH  40  41
ENDBRANCH  39  40
ENDBRANCH  38  39
ENDBRANCH  37  38
ENDBRANCH   1  37
TORSDOF 26
ENDMDL
