MODEL 1
REMARK VINA RESULT:     -11.2      0.000      0.000
REMARK SMILES CS(=O)(=O)c1cc(F)ccc1N1CCC[C@@H](C(=O)OCCOCCOCCOC(=O)c2ccc(-c3c4nc(c(-c5cccc(S(=O)(=O)[O-])c5F)c5ccc([nH]5)c(-c5cccc(S(=O)(=O)[O-])c5F)c5nc(c(-c6cccc(S(=O)(=O)[O-])c6F)c6ccc3[nH]6)C=C5)C=C4)cc2)C1
REMARK SMILES IDX 24 1 23 2 22 3 21 4 20 5 19 6 17 7 18 8 16 9 12 10 13 11
REMARK SMILES IDX 94 12 14 13 15 14 11 15 5 16 6 17 7 18 10 19 8 20 9 21 2 22
REMARK SMILES IDX 1 23 3 24 4 25 25 26 26 27 27 28 28 29 29 30 30 31 31 32
REMARK SMILES IDX 32 33 93 34 33 35 92 36 34 37 35 38 36 39 86 40 37 41 91 42
REMARK SMILES IDX 85 43 87 44 38 45 90 46 84 47 83 48 39 50 71 51 51 52 70 53
REMARK SMILES IDX 52 54 55 55 69 56 88 57 53 58 54 59 68 61 89 62 56 63 40 64
REMARK SMILES IDX 41 65 49 66 42 67 44 68 50 69 43 70 45 71 46 72 47 73 48 74
REMARK SMILES IDX 72 75 73 76 81 77 74 78 76 79 82 80 75 81 77 82 78 83 79 84
REMARK SMILES IDX 80 85 57 86 58 87 66 88 59 89 61 90 67 91 60 92 62 93 63 94
REMARK SMILES IDX 64 95 65 96
REMARK H PARENT 87 49 55 60
REMARK Flexibility Score: inf
ROOT
ATOM      1  C   UNL A   1      31.788  28.664  23.112  1.00  0.00     0.188 C 
ENDROOT
BRANCH   1   2
ATOM      2  C   UNL A   1      31.026  27.400  22.651  1.00  0.00     0.188 C 
BRANCH   2   3
ATOM      3  O   UNL A   1      29.681  27.384  23.066  1.00  0.00    -0.376 OA
BRANCH   3   4
ATOM      4  C   UNL A   1      29.338  26.827  24.321  1.00  0.00     0.202 C 
BRANCH   4   5
ATOM      5  C   UNL A   1      30.071  25.630  24.957  1.00  0.00     0.261 C 
BRANCH   5   6
ATOM      6  O   UNL A   1      31.019  25.901  25.994  1.00  0.00    -0.463 OA
BRANCH   6   7
ATOM      7  C   UNL A   1      31.697  24.832  26.479  1.00  0.00     0.310 C 
ATOM      8  O   UNL A   1      31.286  24.095  27.366  1.00  0.00    -0.252 OA
BRANCH   7   9
ATOM      9  C   UNL A   1      33.051  24.682  25.805  1.00  0.00     0.118 C 
ATOM     10  N   UNL A   1      34.028  22.980  24.277  1.00  0.00    -0.370 N 
ATOM     11  C   UNL A   1      34.263  23.965  23.213  1.00  0.00     0.116 C 
ATOM     12  C   UNL A   1      32.990  23.285  25.238  1.00  0.00     0.131 C 
ATOM     13  C   UNL A   1      34.435  25.367  23.805  1.00  0.00     0.022 C 
ATOM     14  C   UNL A   1      33.269  25.741  24.720  1.00  0.00     0.019 C 
BRANCH  10  15
ATOM     15  C   UNL A   1      34.850  21.887  24.467  1.00  0.00     0.056 A 
ATOM     16  C   UNL A   1      34.459  20.529  24.533  1.00  0.00     0.093 A 
ATOM     17  C   UNL A   1      35.428  19.533  24.806  1.00  0.00     0.061 A 
ATOM     18  C   UNL A   1      36.762  19.854  24.992  1.00  0.00     0.124 A 
ATOM     19  C   UNL A   1      36.232  22.160  24.659  1.00  0.00     0.030 A 
ATOM     20  F   UNL A   1      37.651  18.882  25.228  1.00  0.00    -0.207 F 
ATOM     21  C   UNL A   1      37.178  21.164  24.913  1.00  0.00     0.041 A 
BRANCH  16  22
ATOM     22  S   UNL A   1      32.877  19.796  24.103  1.00  0.00     0.177 S 
ATOM     23  C   UNL A   1      32.063  20.472  22.709  1.00  0.00     0.164 C 
ATOM     24  O   UNL A   1      31.992  20.134  25.211  1.00  0.00    -0.224 OA
ATOM     25  O   UNL A   1      33.151  18.401  23.811  1.00  0.00    -0.224 OA
ENDBRANCH  16  22
ENDBRANCH  10  15
ENDBRANCH   7   9
ENDBRANCH   6   7
ENDBRANCH   5   6
ENDBRANCH   4   5
ENDBRANCH   3   4
ENDBRANCH   2   3
ENDBRANCH   1   2
BRANCH   1  26
ATOM     26  O   UNL A   1      31.963  28.917  24.497  1.00  0.00    -0.376 OA
BRANCH  26  27
ATOM     27  C   UNL A   1      31.250  30.002  25.073  1.00  0.00     0.202 C 
BRANCH  27  28
ATOM     28  C   UNL A   1      31.755  30.691  26.359  1.00  0.00     0.261 C 
BRANCH  28  29
ATOM     29  O   UNL A   1      33.165  30.601  26.640  1.00  0.00    -0.460 OA
BRANCH  29  30
ATOM     30  C   UNL A   1      33.700  31.610  27.374  1.00  0.00     0.338 C 
ATOM     31  O   UNL A   1      33.131  32.629  27.744  1.00  0.00    -0.246 OA
BRANCH  30  32
ATOM     32  C   UNL A   1      35.039  31.214  27.869  1.00  0.00     0.060 A 
ATOM     33  C   UNL A   1      35.285  29.864  28.176  1.00  0.00     0.016 A 
ATOM     34  C   UNL A   1      36.039  32.165  28.057  1.00  0.00     0.016 A 
ATOM     35  C   UNL A   1      36.530  29.463  28.664  1.00  0.00     0.010 A 
ATOM     36  C   UNL A   1      37.275  31.767  28.583  1.00  0.00     0.010 A 
ATOM     37  C   UNL A   1      37.522  30.420  28.905  1.00  0.00    -0.014 A 
BRANCH  37  38
ATOM     38  C   UNL A   1      38.763  30.052  29.634  1.00  0.00     0.031 A 
ATOM     39  C   UNL A   1      39.669  29.013  29.036  1.00  0.00     0.074 A 
ATOM     40  C   UNL A   1      39.069  30.607  30.822  1.00  0.00     0.049 A 
ATOM     41  N   UNL A   1      40.727  28.442  29.549  1.00  0.00    -0.248 NA
ATOM     42  C   UNL A   1      39.338  28.557  27.675  1.00  0.00     0.031 C 
ATOM     43  C   UNL A   1      38.299  31.656  31.489  1.00  0.00     0.029 A 
ATOM     44  N   UNL A   1      40.097  30.337  31.692  1.00  0.00    -0.354 N 
ATOM     45  C   UNL A   1      41.169  27.535  28.594  1.00  0.00     0.074 A 
ATOM     46  C   UNL A   1      40.265  27.632  27.468  1.00  0.00     0.031 C 
ATOM     47  C   UNL A   1      38.863  31.916  32.682  1.00  0.00     0.029 A 
ATOM     48  C   UNL A   1      40.006  31.025  32.879  1.00  0.00     0.049 A 
ATOM     49  H   UNL A   1      40.829  29.712  31.486  1.00  0.00     0.167 HD
ATOM     50  C   UNL A   1      42.233  26.702  28.646  1.00  0.00     0.034 A 
ATOM     51  C   UNL A   1      40.738  30.923  34.010  1.00  0.00     0.034 A 
ATOM     52  C   UNL A   1      43.136  26.612  29.762  1.00  0.00     0.049 A 
ATOM     53  C   UNL A   1      41.882  29.942  34.068  1.00  0.00     0.074 A 
ATOM     54  C   UNL A   1      44.253  25.808  29.896  1.00  0.00     0.029 A 
ATOM     55  N   UNL A   1      43.023  27.339  30.936  1.00  0.00    -0.354 N 
ATOM     56  N   UNL A   1      42.328  29.136  33.135  1.00  0.00    -0.248 NA
ATOM     57  C   UNL A   1      42.643  29.873  35.326  1.00  0.00     0.031 C 
ATOM     58  C   UNL A   1      44.796  26.022  31.166  1.00  0.00     0.029 A 
ATOM     59  C   UNL A   1      44.046  26.997  31.803  1.00  0.00     0.049 A 
ATOM     60  H   UNL A   1      42.320  28.002  31.125  1.00  0.00     0.167 HD
ATOM     61  C   UNL A   1      43.442  28.500  33.674  1.00  0.00     0.074 A 
ATOM     62  C   UNL A   1      43.611  29.022  35.014  1.00  0.00     0.031 C 
ATOM     63  C   UNL A   1      44.245  27.562  33.113  1.00  0.00     0.034 A 
BRANCH  50  64
ATOM     64  C   UNL A   1      42.503  25.822  27.455  1.00  0.00     0.023 A 
ATOM     65  C   UNL A   1      43.310  26.300  26.402  1.00  0.00     0.012 A 
ATOM     66  C   UNL A   1      42.042  24.491  27.424  1.00  0.00     0.148 A 
ATOM     67  C   UNL A   1      43.639  25.473  25.330  1.00  0.00     0.002 A 
ATOM     68  C   UNL A   1      42.414  23.658  26.376  1.00  0.00     0.091 A 
ATOM     69  F   UNL A   1      41.260  24.064  28.425  1.00  0.00    -0.205 F 
ATOM     70  C   UNL A   1      43.203  24.150  25.324  1.00  0.00     0.022 A 
BRANCH  68  71
ATOM     71  S   UNL A   1      41.981  21.916  26.318  1.00  0.00     0.127 S 
ATOM     72  O   UNL A   1      40.553  21.977  26.012  1.00  0.00    -0.237 OA
ATOM     73  O   UNL A   1      42.820  21.429  25.224  1.00  0.00    -0.237 OA
ATOM     74  O   UNL A   1      42.312  21.374  27.629  1.00  0.00    -0.744 OA
ENDBRANCH  68  71
ENDBRANCH  50  64
BRANCH  51  75
ATOM     75  C   UNL A   1      40.428  31.796  35.179  1.00  0.00     0.023 A 
ATOM     76  C   UNL A   1      41.238  32.918  35.439  1.00  0.00     0.012 A 
ATOM     77  C   UNL A   1      39.325  31.538  36.017  1.00  0.00     0.148 A 
ATOM     78  C   UNL A   1      40.971  33.754  36.525  1.00  0.00     0.002 A 
ATOM     79  C   UNL A   1      39.029  32.407  37.061  1.00  0.00     0.091 A 
ATOM     80  F   UNL A   1      38.577  30.455  35.765  1.00  0.00    -0.205 F 
ATOM     81  C   UNL A   1      39.861  33.505  37.327  1.00  0.00     0.022 A 
BRANCH  79  82
ATOM     82  S   UNL A   1      37.550  32.245  38.066  1.00  0.00     0.127 S 
ATOM     83  O   UNL A   1      36.576  33.015  37.295  1.00  0.00    -0.237 OA
ATOM     84  O   UNL A   1      37.340  30.797  38.055  1.00  0.00    -0.237 OA
ATOM     85  O   UNL A   1      37.894  32.795  39.370  1.00  0.00    -0.744 OA
ENDBRANCH  79  82
ENDBRANCH  51  75
BRANCH  63  86
ATOM     86  C   UNL A   1      45.426  27.060  33.906  1.00  0.00     0.023 A 
ATOM     87  C   UNL A   1      46.653  27.752  33.865  1.00  0.00     0.012 A 
ATOM     88  C   UNL A   1      45.281  25.965  34.784  1.00  0.00     0.148 A 
ATOM     89  C   UNL A   1      47.721  27.348  34.667  1.00  0.00     0.002 A 
ATOM     90  C   UNL A   1      46.331  25.603  35.618  1.00  0.00     0.091 A 
ATOM     91  F   UNL A   1      44.111  25.310  34.798  1.00  0.00    -0.205 F 
ATOM     92  C   UNL A   1      47.556  26.285  35.552  1.00  0.00     0.022 A 
BRANCH  90  93
ATOM     93  S   UNL A   1      46.175  24.320  36.867  1.00  0.00     0.127 S 
ATOM     94  O   UNL A   1      46.013  23.122  36.045  1.00  0.00    -0.237 OA
ATOM     95  O   UNL A   1      47.458  24.411  37.565  1.00  0.00    -0.237 OA
ATOM     96  O   UNL A   1      45.019  24.681  37.675  1.00  0.00    -0.744 OA
ENDBRANCH  90  93
ENDBRANCH  63  86
ENDBRANCH  37  38
ENDBRANCH  30  32
ENDBRANCH  29  30
ENDBRANCH  28  29
ENDBRANCH  27  28
ENDBRANCH  26  27
ENDBRANCH   1  26
TORSDOF 22
ENDMDL
MODEL 2
REMARK VINA RESULT:     -10.5      2.227      7.653
REMARK SMILES CS(=O)(=O)c1cc(F)ccc1N1CCC[C@@H](C(=O)OCCOCCOCCOC(=O)c2ccc(-c3c4nc(c(-c5cccc(S(=O)(=O)[O-])c5F)c5ccc([nH]5)c(-c5cccc(S(=O)(=O)[O-])c5F)c5nc(c(-c6cccc(S(=O)(=O)[O-])c6F)c6ccc3[nH]6)C=C5)C=C4)cc2)C1
REMARK SMILES IDX 24 1 23 2 22 3 21 4 20 5 19 6 17 7 18 8 16 9 12 10 13 11
REMARK SMILES IDX 94 12 14 13 15 14 11 15 5 16 6 17 7 18 10 19 8 20 9 21 2 22
REMARK SMILES IDX 1 23 3 24 4 25 25 26 26 27 27 28 28 29 29 30 30 31 31 32
REMARK SMILES IDX 32 33 93 34 33 35 92 36 34 37 35 38 36 39 86 40 37 41 91 42
REMARK SMILES IDX 85 43 87 44 38 45 90 46 84 47 83 48 39 50 71 51 51 52 70 53
REMARK SMILES IDX 52 54 55 55 69 56 88 57 53 58 54 59 68 61 89 62 56 63 40 64
REMARK SMILES IDX 41 65 49 66 42 67 44 68 50 69 43 70 45 71 46 72 47 73 48 74
REMARK SMILES IDX 72 75 73 76 81 77 74 78 76 79 82 80 75 81 77 82 78 83 79 84
REMARK SMILES IDX 80 85 57 86 58 87 66 88 59 89 61 90 67 91 60 92 62 93 63 94
REMARK SMILES IDX 64 95 65 96
REMARK H PARENT 87 49 55 60
REMARK Flexibility Score: inf
ROOT
ATOM      1  C   UNL A   1      32.362  29.171  23.578  1.00  0.00     0.188 C 
ENDROOT
BRANCH   1   2
ATOM      2  C   UNL A   1      31.216  28.516  22.771  1.00  0.00     0.188 C 
BRANCH   2   3
ATOM      3  O   UNL A   1      29.980  28.548  23.443  1.00  0.00    -0.376 OA
BRANCH   3   4
ATOM      4  C   UNL A   1      29.197  27.372  23.533  1.00  0.00     0.202 C 
BRANCH   4   5
ATOM      5  C   UNL A   1      29.788  25.962  23.725  1.00  0.00     0.261 C 
BRANCH   5   6
ATOM      6  O   UNL A   1      30.930  25.825  24.576  1.00  0.00    -0.463 OA
BRANCH   6   7
ATOM      7  C   UNL A   1      31.981  25.140  24.061  1.00  0.00     0.310 C 
ATOM      8  O   UNL A   1      32.579  25.454  23.041  1.00  0.00    -0.252 OA
BRANCH   7   9
ATOM      9  C   UNL A   1      32.304  23.913  24.896  1.00  0.00     0.118 C 
ATOM     10  N   UNL A   1      34.383  23.062  25.965  1.00  0.00    -0.370 N 
ATOM     11  C   UNL A   1      33.792  23.098  27.310  1.00  0.00     0.116 C 
ATOM     12  C   UNL A   1      33.811  23.946  24.972  1.00  0.00     0.131 C 
ATOM     13  C   UNL A   1      32.270  22.952  27.233  1.00  0.00     0.022 C 
ATOM     14  C   UNL A   1      31.652  23.975  26.281  1.00  0.00     0.019 C 
BRANCH  10  15
ATOM     15  C   UNL A   1      35.331  22.127  25.598  1.00  0.00     0.056 A 
ATOM     16  C   UNL A   1      35.105  20.775  25.252  1.00  0.00     0.093 A 
ATOM     17  C   UNL A   1      36.206  19.930  24.969  1.00  0.00     0.061 A 
ATOM     18  C   UNL A   1      37.506  20.402  25.002  1.00  0.00     0.124 A 
ATOM     19  C   UNL A   1      36.685  22.562  25.610  1.00  0.00     0.030 A 
ATOM     20  F   UNL A   1      38.519  19.578  24.708  1.00  0.00    -0.207 F 
ATOM     21  C   UNL A   1      37.759  21.719  25.314  1.00  0.00     0.041 A 
BRANCH  16  22
ATOM     22  S   UNL A   1      33.547  19.955  24.897  1.00  0.00     0.177 S 
ATOM     23  C   UNL A   1      33.656  18.336  24.242  1.00  0.00     0.164 C 
ATOM     24  O   UNL A   1      32.956  20.724  23.809  1.00  0.00    -0.224 OA
ATOM     25  O   UNL A   1      32.847  19.863  26.166  1.00  0.00    -0.224 OA
ENDBRANCH  16  22
ENDBRANCH  10  15
ENDBRANCH   7   9
ENDBRANCH   6   7
ENDBRANCH   5   6
ENDBRANCH   4   5
ENDBRANCH   3   4
ENDBRANCH   2   3
ENDBRANCH   1   2
BRANCH   1  26
ATOM     26  O   UNL A   1      32.729  28.640  24.841  1.00  0.00    -0.376 OA
BRANCH  26  27
ATOM     27  C   UNL A   1      32.028  29.098  25.988  1.00  0.00     0.202 C 
BRANCH  27  28
ATOM     28  C   UNL A   1      32.726  29.190  27.362  1.00  0.00     0.261 C 
BRANCH  28  29
ATOM     29  O   UNL A   1      34.166  29.152  27.368  1.00  0.00    -0.460 OA
BRANCH  29  30
ATOM     30  C   UNL A   1      34.799  30.269  27.810  1.00  0.00     0.338 C 
ATOM     31  O   UNL A   1      34.308  31.382  27.952  1.00  0.00    -0.246 OA
BRANCH  30  32
ATOM     32  C   UNL A   1      36.144  29.915  28.321  1.00  0.00     0.060 A 
ATOM     33  C   UNL A   1      37.260  30.081  27.483  1.00  0.00     0.016 A 
ATOM     34  C   UNL A   1      36.306  29.398  29.604  1.00  0.00     0.016 A 
ATOM     35  C   UNL A   1      38.538  29.738  27.928  1.00  0.00     0.010 A 
ATOM     36  C   UNL A   1      37.583  29.018  30.034  1.00  0.00     0.010 A 
ATOM     37  C   UNL A   1      38.703  29.169  29.195  1.00  0.00    -0.014 A 
BRANCH  37  38
ATOM     38  C   UNL A   1      40.009  28.588  29.598  1.00  0.00     0.031 A 
ATOM     39  C   UNL A   1      40.813  29.287  30.659  1.00  0.00     0.074 A 
ATOM     40  C   UNL A   1      40.491  27.476  29.014  1.00  0.00     0.049 A 
ATOM     41  N   UNL A   1      42.027  29.042  31.074  1.00  0.00    -0.248 NA
ATOM     42  C   UNL A   1      40.157  30.414  31.344  1.00  0.00     0.031 C 
ATOM     43  C   UNL A   1      39.794  26.679  28.005  1.00  0.00     0.029 A 
ATOM     44  N   UNL A   1      41.702  26.843  29.165  1.00  0.00    -0.354 N 
ATOM     45  C   UNL A   1      42.298  30.002  32.041  1.00  0.00     0.074 A 
ATOM     46  C   UNL A   1      41.119  30.834  32.153  1.00  0.00     0.031 C 
ATOM     47  C   UNL A   1      40.603  25.683  27.603  1.00  0.00     0.029 A 
ATOM     48  C   UNL A   1      41.887  25.796  28.293  1.00  0.00     0.049 A 
ATOM     49  H   UNL A   1      42.372  27.114  29.834  1.00  0.00     0.167 HD
ATOM     50  C   UNL A   1      43.422  30.172  32.773  1.00  0.00     0.034 A 
ATOM     51  C   UNL A   1      42.980  25.040  28.052  1.00  0.00     0.034 A 
ATOM     52  C   UNL A   1      44.590  29.339  32.667  1.00  0.00     0.049 A 
ATOM     53  C   UNL A   1      44.243  25.288  28.838  1.00  0.00     0.074 A 
ATOM     54  C   UNL A   1      45.771  29.426  33.383  1.00  0.00     0.029 A 
ATOM     55  N   UNL A   1      44.732  28.278  31.788  1.00  0.00    -0.354 N 
ATOM     56  N   UNL A   1      44.464  26.157  29.794  1.00  0.00    -0.248 NA
ATOM     57  C   UNL A   1      45.402  24.433  28.531  1.00  0.00     0.031 C 
ATOM     58  C   UNL A   1      46.641  28.440  32.912  1.00  0.00     0.029 A 
ATOM     59  C   UNL A   1      45.984  27.706  31.938  1.00  0.00     0.049 A 
ATOM     60  H   UNL A   1      44.045  27.975  31.152  1.00  0.00     0.167 HD
ATOM     61  C   UNL A   1      45.766  25.926  30.231  1.00  0.00     0.074 A 
ATOM     62  C   UNL A   1      46.281  24.827  29.443  1.00  0.00     0.031 C 
ATOM     63  C   UNL A   1      46.471  26.573  31.192  1.00  0.00     0.034 A 
BRANCH  50  64
ATOM     64  C   UNL A   1      43.451  31.293  33.777  1.00  0.00     0.023 A 
ATOM     65  C   UNL A   1      43.985  32.546  33.410  1.00  0.00     0.012 A 
ATOM     66  C   UNL A   1      42.860  31.137  35.047  1.00  0.00     0.148 A 
ATOM     67  C   UNL A   1      43.946  33.620  34.297  1.00  0.00     0.002 A 
ATOM     68  C   UNL A   1      42.782  32.226  35.907  1.00  0.00     0.091 A 
ATOM     69  F   UNL A   1      42.378  29.933  35.382  1.00  0.00    -0.205 F 
ATOM     70  C   UNL A   1      43.333  33.464  35.538  1.00  0.00     0.022 A 
BRANCH  68  71
ATOM     71  S   UNL A   1      41.935  32.155  37.490  1.00  0.00     0.127 S 
ATOM     72  O   UNL A   1      42.014  33.547  37.929  1.00  0.00    -0.237 OA
ATOM     73  O   UNL A   1      40.597  31.712  37.100  1.00  0.00    -0.237 OA
ATOM     74  O   UNL A   1      42.680  31.205  38.305  1.00  0.00    -0.744 OA
ENDBRANCH  68  71
ENDBRANCH  50  64
BRANCH  51  75
ATOM     75  C   UNL A   1      42.922  23.951  27.034  1.00  0.00     0.023 A 
ATOM     76  C   UNL A   1      43.540  24.140  25.783  1.00  0.00     0.012 A 
ATOM     77  C   UNL A   1      42.281  22.726  27.305  1.00  0.00     0.148 A 
ATOM     78  C   UNL A   1      43.504  23.138  24.812  1.00  0.00     0.002 A 
ATOM     79  C   UNL A   1      42.298  21.710  26.355  1.00  0.00     0.091 A 
ATOM     80  F   UNL A   1      41.682  22.573  28.493  1.00  0.00    -0.205 F 
ATOM     81  C   UNL A   1      42.894  21.920  25.102  1.00  0.00     0.022 A 
BRANCH  79  82
ATOM     82  S   UNL A   1      41.655  20.066  26.684  1.00  0.00     0.127 S 
ATOM     83  O   UNL A   1      41.692  19.458  25.356  1.00  0.00    -0.237 OA
ATOM     84  O   UNL A   1      42.644  19.544  27.629  1.00  0.00    -0.237 OA
ATOM     85  O   UNL A   1      40.328  20.265  27.249  1.00  0.00    -0.744 OA
ENDBRANCH  79  82
ENDBRANCH  51  75
BRANCH  63  86
ATOM     86  C   UNL A   1      47.866  26.093  31.506  1.00  0.00     0.023 A 
ATOM     87  C   UNL A   1      48.966  26.588  30.778  1.00  0.00     0.012 A 
ATOM     88  C   UNL A   1      48.094  25.236  32.603  1.00  0.00     0.148 A 
ATOM     89  C   UNL A   1      50.267  26.219  31.123  1.00  0.00     0.002 A 
ATOM     90  C   UNL A   1      49.395  24.918  32.974  1.00  0.00     0.091 A 
ATOM     91  F   UNL A   1      47.034  24.763  33.274  1.00  0.00    -0.205 F 
ATOM     92  C   UNL A   1      50.482  25.398  32.227  1.00  0.00     0.022 A 
BRANCH  90  93
ATOM     93  S   UNL A   1      49.773  23.958  34.446  1.00  0.00     0.127 S 
ATOM     94  O   UNL A   1      48.852  24.537  35.423  1.00  0.00    -0.237 OA
ATOM     95  O   UNL A   1      49.436  22.599  34.023  1.00  0.00    -0.237 OA
ATOM     96  O   UNL A   1      51.187  24.176  34.718  1.00  0.00    -0.744 OA
ENDBRANCH  90  93
ENDBRANCH  63  86
ENDBRANCH  37  38
ENDBRANCH  30  32
ENDBRANCH  29  30
ENDBRANCH  28  29
ENDBRANCH  27  28
ENDBRANCH  26  27
ENDBRANCH   1  26
TORSDOF 22
ENDMDL
MODEL 3
REMARK VINA RESULT:     -10.4      2.089      2.534
REMARK SMILES CS(=O)(=O)c1cc(F)ccc1N1CCC[C@@H](C(=O)OCCOCCOCCOC(=O)c2ccc(-c3c4nc(c(-c5cccc(S(=O)(=O)[O-])c5F)c5ccc([nH]5)c(-c5cccc(S(=O)(=O)[O-])c5F)c5nc(c(-c6cccc(S(=O)(=O)[O-])c6F)c6ccc3[nH]6)C=C5)C=C4)cc2)C1
REMARK SMILES IDX 24 1 23 2 22 3 21 4 20 5 19 6 17 7 18 8 16 9 12 10 13 11
REMARK SMILES IDX 94 12 14 13 15 14 11 15 5 16 6 17 7 18 10 19 8 20 9 21 2 22
REMARK SMILES IDX 1 23 3 24 4 25 25 26 26 27 27 28 28 29 29 30 30 31 31 32
REMARK SMILES IDX 32 33 93 34 33 35 92 36 34 37 35 38 36 39 86 40 37 41 91 42
REMARK SMILES IDX 85 43 87 44 38 45 90 46 84 47 83 48 39 50 71 51 51 52 70 53
REMARK SMILES IDX 52 54 55 55 69 56 88 57 53 58 54 59 68 61 89 62 56 63 40 64
REMARK SMILES IDX 41 65 49 66 42 67 44 68 50 69 43 70 45 71 46 72 47 73 48 74
REMARK SMILES IDX 72 75 73 76 81 77 74 78 76 79 82 80 75 81 77 82 78 83 79 84
REMARK SMILES IDX 80 85 57 86 58 87 66 88 59 89 61 90 67 91 60 92 62 93 63 94
REMARK SMILES IDX 64 95 65 96
REMARK H PARENT 87 49 55 60
REMARK Flexibility Score: inf
ROOT
ATOM      1  C   UNL A   1      32.264  28.645  23.297  1.00  0.00     0.188 C 
ENDROOT
BRANCH   1   2
ATOM      2  C   UNL A   1      31.913  27.141  23.382  1.00  0.00     0.188 C 
BRANCH   2   3
ATOM      3  O   UNL A   1      30.527  26.897  23.384  1.00  0.00    -0.376 OA
BRANCH   3   4
ATOM      4  C   UNL A   1      29.866  26.603  24.601  1.00  0.00     0.202 C 
BRANCH   4   5
ATOM      5  C   UNL A   1      30.473  25.732  25.717  1.00  0.00     0.261 C 
BRANCH   5   6
ATOM      6  O   UNL A   1      30.340  24.311  25.604  1.00  0.00    -0.463 OA
BRANCH   6   7
ATOM      7  C   UNL A   1      31.332  23.571  26.158  1.00  0.00     0.310 C 
ATOM      8  O   UNL A   1      31.513  23.445  27.361  1.00  0.00    -0.252 OA
BRANCH   7   9
ATOM      9  C   UNL A   1      32.214  22.943  25.092  1.00  0.00     0.118 C 
ATOM     10  N   UNL A   1      32.290  20.693  24.034  1.00  0.00    -0.370 N 
ATOM     11  C   UNL A   1      32.061  21.239  22.689  1.00  0.00     0.116 C 
ATOM     12  C   UNL A   1      31.827  21.486  25.153  1.00  0.00     0.131 C 
ATOM     13  C   UNL A   1      32.559  22.684  22.602  1.00  0.00     0.022 C 
ATOM     14  C   UNL A   1      31.965  23.554  23.710  1.00  0.00     0.019 C 
BRANCH  10  15
ATOM     15  C   UNL A   1      33.049  19.560  24.253  1.00  0.00     0.056 A 
ATOM     16  C   UNL A   1      34.429  19.505  24.556  1.00  0.00     0.093 A 
ATOM     17  C   UNL A   1      35.069  18.248  24.681  1.00  0.00     0.061 A 
ATOM     18  C   UNL A   1      34.370  17.063  24.533  1.00  0.00     0.124 A 
ATOM     19  C   UNL A   1      32.377  18.314  24.120  1.00  0.00     0.030 A 
ATOM     20  F   UNL A   1      35.006  15.894  24.679  1.00  0.00    -0.207 F 
ATOM     21  C   UNL A   1      33.020  17.082  24.260  1.00  0.00     0.041 A 
BRANCH  16  22
ATOM     22  S   UNL A   1      35.526  20.844  25.033  1.00  0.00     0.177 S 
ATOM     23  C   UNL A   1      35.146  21.660  26.533  1.00  0.00     0.164 C 
ATOM     24  O   UNL A   1      35.324  21.875  24.023  1.00  0.00    -0.224 OA
ATOM     25  O   UNL A   1      36.841  20.246  25.187  1.00  0.00    -0.224 OA
ENDBRANCH  16  22
ENDBRANCH  10  15
ENDBRANCH   7   9
ENDBRANCH   6   7
ENDBRANCH   5   6
ENDBRANCH   4   5
ENDBRANCH   3   4
ENDBRANCH   2   3
ENDBRANCH   1   2
BRANCH   1  26
ATOM     26  O   UNL A   1      32.637  29.351  24.470  1.00  0.00    -0.376 OA
BRANCH  26  27
ATOM     27  C   UNL A   1      31.605  29.802  25.334  1.00  0.00     0.202 C 
BRANCH  27  28
ATOM     28  C   UNL A   1      31.877  30.056  26.833  1.00  0.00     0.261 C 
BRANCH  28  29
ATOM     29  O   UNL A   1      33.251  30.013  27.265  1.00  0.00    -0.460 OA
BRANCH  29  30
ATOM     30  C   UNL A   1      33.853  31.211  27.483  1.00  0.00     0.338 C 
ATOM     31  O   UNL A   1      33.352  32.320  27.342  1.00  0.00    -0.246 OA
BRANCH  30  32
ATOM     32  C   UNL A   1      35.164  31.000  28.138  1.00  0.00     0.060 A 
ATOM     33  C   UNL A   1      35.560  29.694  28.477  1.00  0.00     0.016 A 
ATOM     34  C   UNL A   1      35.990  32.081  28.445  1.00  0.00     0.016 A 
ATOM     35  C   UNL A   1      36.781  29.466  29.114  1.00  0.00     0.010 A 
ATOM     36  C   UNL A   1      37.196  31.853  29.118  1.00  0.00     0.010 A 
ATOM     37  C   UNL A   1      37.591  30.549  29.471  1.00  0.00    -0.014 A 
BRANCH  37  38
ATOM     38  C   UNL A   1      38.775  30.351  30.347  1.00  0.00     0.031 A 
ATOM     39  C   UNL A   1      39.841  29.386  29.909  1.00  0.00     0.074 A 
ATOM     40  C   UNL A   1      38.889  30.990  31.526  1.00  0.00     0.049 A 
ATOM     41  N   UNL A   1      40.888  28.955  30.563  1.00  0.00    -0.248 NA
ATOM     42  C   UNL A   1      39.710  28.834  28.549  1.00  0.00     0.031 C 
ATOM     43  C   UNL A   1      37.949  31.980  32.046  1.00  0.00     0.029 A 
ATOM     44  N   UNL A   1      39.837  30.871  32.514  1.00  0.00    -0.354 N 
ATOM     45  C   UNL A   1      41.521  28.056  29.713  1.00  0.00     0.074 A 
ATOM     46  C   UNL A   1      40.742  28.004  28.495  1.00  0.00     0.031 C 
ATOM     47  C   UNL A   1      38.349  32.354  33.275  1.00  0.00     0.029 A 
ATOM     48  C   UNL A   1      39.547  31.601  33.643  1.00  0.00     0.049 A 
ATOM     49  H   UNL A   1      40.646  30.318  32.422  1.00  0.00     0.167 HD
ATOM     50  C   UNL A   1      42.651  27.344  29.926  1.00  0.00     0.034 A 
ATOM     51  C   UNL A   1      40.156  31.629  34.849  1.00  0.00     0.034 A 
ATOM     52  C   UNL A   1      43.429  27.403  31.134  1.00  0.00     0.049 A 
ATOM     53  C   UNL A   1      41.379  30.779  35.083  1.00  0.00     0.074 A 
ATOM     54  C   UNL A   1      44.600  26.729  31.431  1.00  0.00     0.029 A 
ATOM     55  N   UNL A   1      43.114  28.168  32.246  1.00  0.00    -0.354 N 
ATOM     56  N   UNL A   1      42.003  29.982  34.250  1.00  0.00    -0.248 NA
ATOM     57  C   UNL A   1      41.999  30.850  36.417  1.00  0.00     0.031 C 
ATOM     58  C   UNL A   1      44.975  27.058  32.737  1.00  0.00     0.029 A 
ATOM     59  C   UNL A   1      44.065  27.977  33.234  1.00  0.00     0.049 A 
ATOM     60  H   UNL A   1      42.332  28.760  32.321  1.00  0.00     0.167 HD
ATOM     61  C   UNL A   1      43.110  29.494  34.941  1.00  0.00     0.074 A 
ATOM     62  C   UNL A   1      43.076  30.093  36.258  1.00  0.00     0.031 C 
ATOM     63  C   UNL A   1      44.060  28.621  34.523  1.00  0.00     0.034 A 
BRANCH  50  64
ATOM     64  C   UNL A   1      43.138  26.443  28.823  1.00  0.00     0.023 A 
ATOM     65  C   UNL A   1      42.517  25.195  28.615  1.00  0.00     0.012 A 
ATOM     66  C   UNL A   1      44.141  26.875  27.932  1.00  0.00     0.148 A 
ATOM     67  C   UNL A   1      42.899  24.382  27.549  1.00  0.00     0.002 A 
ATOM     68  C   UNL A   1      44.482  26.081  26.844  1.00  0.00     0.091 A 
ATOM     69  F   UNL A   1      44.733  28.055  28.160  1.00  0.00    -0.205 F 
ATOM     70  C   UNL A   1      43.870  24.831  26.656  1.00  0.00     0.022 A 
BRANCH  68  71
ATOM     71  S   UNL A   1      45.655  26.605  25.588  1.00  0.00     0.127 S 
ATOM     72  O   UNL A   1      46.864  26.816  26.383  1.00  0.00    -0.237 OA
ATOM     73  O   UNL A   1      45.699  25.438  24.707  1.00  0.00    -0.237 OA
ATOM     74  O   UNL A   1      45.092  27.805  24.985  1.00  0.00    -0.744 OA
ENDBRANCH  68  71
ENDBRANCH  50  64
BRANCH  51  75
ATOM     75  C   UNL A   1      39.631  32.518  35.926  1.00  0.00     0.023 A 
ATOM     76  C   UNL A   1      40.012  33.874  35.950  1.00  0.00     0.012 A 
ATOM     77  C   UNL A   1      38.743  32.038  36.908  1.00  0.00     0.148 A 
ATOM     78  C   UNL A   1      39.536  34.730  36.945  1.00  0.00     0.002 A 
ATOM     79  C   UNL A   1      38.226  32.908  37.861  1.00  0.00     0.091 A 
ATOM     80  F   UNL A   1      38.408  30.741  36.880  1.00  0.00    -0.205 F 
ATOM     81  C   UNL A   1      38.635  34.251  37.892  1.00  0.00     0.022 A 
BRANCH  79  82
ATOM     82  S   UNL A   1      36.963  32.416  39.038  1.00  0.00     0.127 S 
ATOM     83  O   UNL A   1      35.741  32.853  38.367  1.00  0.00    -0.237 OA
ATOM     84  O   UNL A   1      37.154  30.966  39.091  1.00  0.00    -0.237 OA
ATOM     85  O   UNL A   1      37.283  33.112  40.277  1.00  0.00    -0.744 OA
ENDBRANCH  79  82
ENDBRANCH  51  75
BRANCH  63  86
ATOM     86  C   UNL A   1      45.190  28.285  35.463  1.00  0.00     0.023 A 
ATOM     87  C   UNL A   1      46.324  29.117  35.534  1.00  0.00     0.012 A 
ATOM     88  C   UNL A   1      45.071  27.203  36.361  1.00  0.00     0.148 A 
ATOM     89  C   UNL A   1      47.331  28.865  36.467  1.00  0.00     0.002 A 
ATOM     90  C   UNL A   1      46.051  26.991  37.323  1.00  0.00     0.091 A 
ATOM     91  F   UNL A   1      43.992  26.413  36.268  1.00  0.00    -0.205 F 
ATOM     92  C   UNL A   1      47.188  27.813  37.369  1.00  0.00     0.022 A 
BRANCH  90  93
ATOM     93  S   UNL A   1      45.900  25.731  38.596  1.00  0.00     0.127 S 
ATOM     94  O   UNL A   1      46.132  24.507  37.832  1.00  0.00    -0.237 OA
ATOM     95  O   UNL A   1      46.981  26.090  39.514  1.00  0.00    -0.237 OA
ATOM     96  O   UNL A   1      44.562  25.875  39.150  1.00  0.00    -0.744 OA
ENDBRANCH  90  93
ENDBRANCH  63  86
ENDBRANCH  37  38
ENDBRANCH  30  32
ENDBRANCH  29  30
ENDBRANCH  28  29
ENDBRANCH  27  28
ENDBRANCH  26  27
ENDBRANCH   1  26
TORSDOF 22
ENDMDL
