MODEL 1
REMARK VINA RESULT:      -9.3      0.000      0.000
REMARK SMILES CC(C)CCN(C(=O)N[C@H](C(=O)OCCOCCOCCOC(=O)c1ccc(-c2c3nc(c(-c4cccc(S(=O)(=O)[O-])c4F)c4ccc([nH]4)c(-c4cccc(S(=O)(=O)[O-])c4F)c4nc(c(-c5cccc(S(=O)(=O)[O-])c5F)c5ccc2[nH]5)C=C4)C=C3)cc1)[C@H](C)O)C1CCCC1
REMARK SMILES IDX 17 1 16 2 15 3 14 4 13 5 11 6 12 7 10 8 9 9 7 10 8 11 6 13
REMARK SMILES IDX 5 14 4 15 2 16 1 17 3 18 91 19 92 20 95 21 93 22 94 23 88 24
REMARK SMILES IDX 89 25 90 26 18 28 19 29 20 30 21 31 22 32 23 33 24 34 25 35
REMARK SMILES IDX 26 36 87 37 27 38 86 39 28 40 29 41 30 42 80 43 31 44 85 45
REMARK SMILES IDX 79 46 81 47 32 48 84 49 78 50 77 51 33 53 65 54 45 55 64 56
REMARK SMILES IDX 46 57 49 58 63 59 82 60 47 61 48 62 62 64 83 65 50 66 34 67
REMARK SMILES IDX 35 68 43 69 36 70 38 71 44 72 37 73 39 74 40 75 41 76 42 77
REMARK SMILES IDX 66 78 67 79 75 80 68 81 70 82 76 83 69 84 71 85 72 86 73 87
REMARK SMILES IDX 74 88 51 89 52 90 60 91 53 92 55 93 61 94 54 95 56 96 57 97
REMARK SMILES IDX 58 98 59 99
REMARK H PARENT 9 12 90 27 81 52 49 63
REMARK Flexibility Score: inf
ROOT
ATOM      1  C   UNL A   1      33.143  29.855  26.195  1.00  0.00     0.188 C 
ENDROOT
BRANCH   1   2
ATOM      2  O   UNL A   1      32.781  29.681  24.834  1.00  0.00    -0.376 OA
BRANCH   2   3
ATOM      3  C   UNL A   1      31.459  29.214  24.607  1.00  0.00     0.202 C 
BRANCH   3   4
ATOM      4  C   UNL A   1      31.315  27.706  24.810  1.00  0.00     0.261 C 
BRANCH   4   5
ATOM      5  O   UNL A   1      31.982  26.935  23.785  1.00  0.00    -0.462 OA
BRANCH   5   6
ATOM      6  C   UNL A   1      33.077  26.228  24.153  1.00  0.00     0.331 C 
ATOM      7  O   UNL A   1      34.080  26.744  24.640  1.00  0.00    -0.250 OA
BRANCH   6   8
ATOM      8  C   UNL A   1      32.978  24.724  23.795  1.00  0.00     0.222 C 
BRANCH   8   9
ATOM      9  N   UNL A   1      32.369  23.978  24.896  1.00  0.00    -0.322 N 
ATOM     10  C   UNL A   1      32.557  22.899  25.660  1.00  0.00     0.318 C 
ATOM     11  O   UNL A   1      31.668  22.827  26.517  1.00  0.00    -0.249 OA
ATOM     12  H   UNL A   1      31.532  24.423  25.164  1.00  0.00     0.166 HD
BRANCH  10  13
ATOM     13  N   UNL A   1      33.562  21.958  25.515  1.00  0.00    -0.322 N 
BRANCH  13  14
ATOM     14  C   UNL A   1      33.566  20.654  26.211  1.00  0.00     0.122 C 
BRANCH  14  15
ATOM     15  C   UNL A   1      32.956  19.374  25.584  1.00  0.00     0.024 C 
BRANCH  15  16
ATOM     16  C   UNL A   1      33.153  19.109  24.059  1.00  0.00    -0.016 C 
ATOM     17  C   UNL A   1      32.978  17.671  23.591  1.00  0.00     0.007 C 
ATOM     18  C   UNL A   1      32.226  19.974  23.208  1.00  0.00     0.007 C 
ENDBRANCH  15  16
ENDBRANCH  14  15
ENDBRANCH  13  14
BRANCH  13  19
ATOM     19  C   UNL A   1      34.877  22.545  25.102  1.00  0.00     0.087 C 
ATOM     20  C   UNL A   1      35.654  23.321  26.159  1.00  0.00     0.025 C 
ATOM     21  C   UNL A   1      35.960  21.554  24.633  1.00  0.00     0.025 C 
ATOM     22  C   UNL A   1      37.092  23.431  25.682  1.00  0.00     0.002 C 
ATOM     23  C   UNL A   1      37.274  22.322  24.667  1.00  0.00     0.002 C 
ENDBRANCH  13  19
ENDBRANCH  10  13
ENDBRANCH   8   9
BRANCH   8  24
ATOM     24  C   UNL A   1      32.487  24.295  22.390  1.00  0.00     0.145 C 
ATOM     25  C   UNL A   1      33.277  23.163  21.727  1.00  0.00     0.041 C 
BRANCH  24  26
ATOM     26  O   UNL A   1      32.530  25.428  21.506  1.00  0.00    -0.391 OA
ATOM     27  H   UNL A   1      31.721  25.453  20.973  1.00  0.00     0.211 HD
ENDBRANCH  24  26
ENDBRANCH   8  24
ENDBRANCH   6   8
ENDBRANCH   5   6
ENDBRANCH   4   5
ENDBRANCH   3   4
ENDBRANCH   2   3
ENDBRANCH   1   2
BRANCH   1  28
ATOM     28  C   UNL A   1      32.108  30.631  27.029  1.00  0.00     0.188 C 
BRANCH  28  29
ATOM     29  O   UNL A   1      31.333  31.667  26.446  1.00  0.00    -0.376 OA
BRANCH  29  30
ATOM     30  C   UNL A   1      31.676  33.009  26.723  1.00  0.00     0.202 C 
BRANCH  30  31
ATOM     31  C   UNL A   1      32.815  33.250  27.718  1.00  0.00     0.261 C 
BRANCH  31  32
ATOM     32  O   UNL A   1      32.953  34.604  28.194  1.00  0.00    -0.460 OA
BRANCH  32  33
ATOM     33  C   UNL A   1      33.244  34.729  29.517  1.00  0.00     0.338 C 
ATOM     34  O   UNL A   1      32.582  35.316  30.354  1.00  0.00    -0.246 OA
BRANCH  33  35
ATOM     35  C   UNL A   1      34.457  33.952  29.873  1.00  0.00     0.060 A 
ATOM     36  C   UNL A   1      34.362  32.967  30.869  1.00  0.00     0.016 A 
ATOM     37  C   UNL A   1      35.701  34.271  29.330  1.00  0.00     0.016 A 
ATOM     38  C   UNL A   1      35.511  32.310  31.342  1.00  0.00     0.010 A 
ATOM     39  C   UNL A   1      36.849  33.626  29.815  1.00  0.00     0.010 A 
ATOM     40  C   UNL A   1      36.772  32.651  30.836  1.00  0.00    -0.014 A 
BRANCH  40  41
ATOM     41  C   UNL A   1      38.043  32.151  31.440  1.00  0.00     0.031 A 
ATOM     42  C   UNL A   1      38.675  30.938  30.817  1.00  0.00     0.074 A 
ATOM     43  C   UNL A   1      38.585  32.661  32.566  1.00  0.00     0.049 A 
ATOM     44  N   UNL A   1      39.686  30.224  31.237  1.00  0.00    -0.248 NA
ATOM     45  C   UNL A   1      38.099  30.484  29.541  1.00  0.00     0.031 C 
ATOM     46  C   UNL A   1      38.165  33.877  33.247  1.00  0.00     0.029 A 
ATOM     47  N   UNL A   1      39.576  32.163  33.384  1.00  0.00    -0.354 N 
ATOM     48  C   UNL A   1      39.876  29.244  30.274  1.00  0.00     0.074 A 
ATOM     49  C   UNL A   1      38.844  29.423  29.274  1.00  0.00     0.031 C 
ATOM     50  C   UNL A   1      38.766  33.953  34.446  1.00  0.00     0.029 A 
ATOM     51  C   UNL A   1      39.659  32.811  34.599  1.00  0.00     0.049 A 
ATOM     52  H   UNL A   1      40.166  31.419  33.126  1.00  0.00     0.167 HD
ATOM     53  C   UNL A   1      40.846  28.305  30.201  1.00  0.00     0.034 A 
ATOM     54  C   UNL A   1      40.365  32.520  35.711  1.00  0.00     0.034 A 
ATOM     55  C   UNL A   1      41.863  28.109  31.196  1.00  0.00     0.049 A 
ATOM     56  C   UNL A   1      41.358  31.387  35.671  1.00  0.00     0.074 A 
ATOM     57  C   UNL A   1      42.908  27.204  31.190  1.00  0.00     0.029 A 
ATOM     58  N   UNL A   1      41.945  28.809  32.389  1.00  0.00    -0.354 N 
ATOM     59  N   UNL A   1      41.627  30.565  34.687  1.00  0.00    -0.248 NA
ATOM     60  C   UNL A   1      42.199  31.190  36.862  1.00  0.00     0.031 C 
ATOM     61  C   UNL A   1      43.604  27.333  32.397  1.00  0.00     0.029 A 
ATOM     62  C   UNL A   1      43.012  28.343  33.138  1.00  0.00     0.049 A 
ATOM     63  H   UNL A   1      41.335  29.531  32.664  1.00  0.00     0.167 HD
ATOM     64  C   UNL A   1      42.716  29.809  35.107  1.00  0.00     0.074 A 
ATOM     65  C   UNL A   1      43.049  30.262  36.442  1.00  0.00     0.031 C 
ATOM     66  C   UNL A   1      43.382  28.836  34.440  1.00  0.00     0.034 A 
BRANCH  53  67
ATOM     67  C   UNL A   1      40.864  27.444  28.970  1.00  0.00     0.023 A 
ATOM     68  C   UNL A   1      39.938  26.386  28.855  1.00  0.00     0.012 A 
ATOM     69  C   UNL A   1      41.779  27.684  27.930  1.00  0.00     0.148 A 
ATOM     70  C   UNL A   1      39.947  25.555  27.738  1.00  0.00     0.002 A 
ATOM     71  C   UNL A   1      41.753  26.877  26.799  1.00  0.00     0.091 A 
ATOM     72  F   UNL A   1      42.665  28.678  28.073  1.00  0.00    -0.205 F 
ATOM     73  C   UNL A   1      40.848  25.805  26.706  1.00  0.00     0.022 A 
BRANCH  71  74
ATOM     74  S   UNL A   1      42.827  27.156  25.388  1.00  0.00     0.127 S 
ATOM     75  O   UNL A   1      44.123  27.344  26.038  1.00  0.00    -0.237 OA
ATOM     76  O   UNL A   1      42.692  25.900  24.649  1.00  0.00    -0.237 OA
ATOM     77  O   UNL A   1      42.297  28.326  24.704  1.00  0.00    -0.744 OA
ENDBRANCH  71  74
ENDBRANCH  53  67
BRANCH  54  78
ATOM     78  C   UNL A   1      40.223  33.355  36.939  1.00  0.00     0.023 A 
ATOM     79  C   UNL A   1      39.121  33.153  37.793  1.00  0.00     0.012 A 
ATOM     80  C   UNL A   1      41.161  34.359  37.258  1.00  0.00     0.148 A 
ATOM     81  C   UNL A   1      38.929  33.962  38.916  1.00  0.00     0.002 A 
ATOM     82  C   UNL A   1      40.986  35.135  38.400  1.00  0.00     0.091 A 
ATOM     83  F   UNL A   1      42.198  34.544  36.429  1.00  0.00    -0.205 F 
ATOM     84  C   UNL A   1      39.863  34.947  39.221  1.00  0.00     0.022 A 
BRANCH  82  85
ATOM     85  S   UNL A   1      42.180  36.369  38.932  1.00  0.00     0.127 S 
ATOM     86  O   UNL A   1      43.390  35.566  39.093  1.00  0.00    -0.237 OA
ATOM     87  O   UNL A   1      42.196  37.282  37.788  1.00  0.00    -0.237 OA
ATOM     88  O   UNL A   1      41.635  36.944  40.153  1.00  0.00    -0.744 OA
ENDBRANCH  82  85
ENDBRANCH  54  78
BRANCH  66  89
ATOM     89  C   UNL A   1      44.588  28.220  35.101  1.00  0.00     0.023 A 
ATOM     90  C   UNL A   1      45.848  28.838  34.992  1.00  0.00     0.012 A 
ATOM     91  C   UNL A   1      44.448  27.072  35.908  1.00  0.00     0.148 A 
ATOM     92  C   UNL A   1      46.956  28.309  35.654  1.00  0.00     0.002 A 
ATOM     93  C   UNL A   1      45.545  26.580  36.606  1.00  0.00     0.091 A 
ATOM     94  F   UNL A   1      43.244  26.487  35.983  1.00  0.00    -0.205 F 
ATOM     95  C   UNL A   1      46.802  27.190  36.470  1.00  0.00     0.022 A 
BRANCH  93  96
ATOM     96  S   UNL A   1      45.420  25.208  37.759  1.00  0.00     0.127 S 
ATOM     97  O   UNL A   1      46.789  25.117  38.262  1.00  0.00    -0.237 OA
ATOM     98  O   UNL A   1      44.445  25.708  38.728  1.00  0.00    -0.237 OA
ATOM     99  O   UNL A   1      44.965  24.065  36.978  1.00  0.00    -0.744 OA
ENDBRANCH  93  96
ENDBRANCH  66  89
ENDBRANCH  40  41
ENDBRANCH  33  35
ENDBRANCH  32  33
ENDBRANCH  31  32
ENDBRANCH  30  31
ENDBRANCH  29  30
ENDBRANCH  28  29
ENDBRANCH   1  28
TORSDOF 28
ENDMDL
MODEL 2
REMARK VINA RESULT:      -9.0      1.781      2.128
REMARK SMILES CC(C)CCN(C(=O)N[C@H](C(=O)OCCOCCOCCOC(=O)c1ccc(-c2c3nc(c(-c4cccc(S(=O)(=O)[O-])c4F)c4ccc([nH]4)c(-c4cccc(S(=O)(=O)[O-])c4F)c4nc(c(-c5cccc(S(=O)(=O)[O-])c5F)c5ccc2[nH]5)C=C4)C=C3)cc1)[C@H](C)O)C1CCCC1
REMARK SMILES IDX 17 1 16 2 15 3 14 4 13 5 11 6 12 7 10 8 9 9 7 10 8 11 6 13
REMARK SMILES IDX 5 14 4 15 2 16 1 17 3 18 91 19 92 20 95 21 93 22 94 23 88 24
REMARK SMILES IDX 89 25 90 26 18 28 19 29 20 30 21 31 22 32 23 33 24 34 25 35
REMARK SMILES IDX 26 36 87 37 27 38 86 39 28 40 29 41 30 42 80 43 31 44 85 45
REMARK SMILES IDX 79 46 81 47 32 48 84 49 78 50 77 51 33 53 65 54 45 55 64 56
REMARK SMILES IDX 46 57 49 58 63 59 82 60 47 61 48 62 62 64 83 65 50 66 34 67
REMARK SMILES IDX 35 68 43 69 36 70 38 71 44 72 37 73 39 74 40 75 41 76 42 77
REMARK SMILES IDX 66 78 67 79 75 80 68 81 70 82 76 83 69 84 71 85 72 86 73 87
REMARK SMILES IDX 74 88 51 89 52 90 60 91 53 92 55 93 61 94 54 95 56 96 57 97
REMARK SMILES IDX 58 98 59 99
REMARK H PARENT 9 12 90 27 81 52 49 63
REMARK Flexibility Score: inf
ROOT
ATOM      1  C   UNL A   1      33.191  29.860  26.085  1.00  0.00     0.188 C 
ENDROOT
BRANCH   1   2
ATOM      2  O   UNL A   1      32.755  29.543  24.772  1.00  0.00    -0.376 OA
BRANCH   2   3
ATOM      3  C   UNL A   1      31.427  29.051  24.670  1.00  0.00     0.202 C 
BRANCH   3   4
ATOM      4  C   UNL A   1      31.314  27.562  24.998  1.00  0.00     0.261 C 
BRANCH   4   5
ATOM      5  O   UNL A   1      31.903  26.717  23.984  1.00  0.00    -0.462 OA
BRANCH   5   6
ATOM      6  C   UNL A   1      33.016  26.023  24.323  1.00  0.00     0.331 C 
ATOM      7  O   UNL A   1      34.028  26.552  24.775  1.00  0.00    -0.250 OA
BRANCH   6   8
ATOM      8  C   UNL A   1      32.921  24.516  23.979  1.00  0.00     0.222 C 
BRANCH   8   9
ATOM      9  N   UNL A   1      32.527  23.748  25.161  1.00  0.00    -0.322 N 
ATOM     10  C   UNL A   1      32.778  22.599  25.793  1.00  0.00     0.318 C 
ATOM     11  O   UNL A   1      32.132  22.546  26.846  1.00  0.00    -0.249 OA
ATOM     12  H   UNL A   1      31.841  24.249  25.659  1.00  0.00     0.166 HD
BRANCH  10  13
ATOM     13  N   UNL A   1      33.601  21.579  25.345  1.00  0.00    -0.322 N 
BRANCH  13  14
ATOM     14  C   UNL A   1      33.208  20.154  25.342  1.00  0.00     0.122 C 
BRANCH  14  15
ATOM     15  C   UNL A   1      34.016  19.069  24.587  1.00  0.00     0.024 C 
BRANCH  15  16
ATOM     16  C   UNL A   1      33.268  17.820  24.026  1.00  0.00    -0.016 C 
ATOM     17  C   UNL A   1      34.111  16.811  23.259  1.00  0.00     0.007 C 
ATOM     18  C   UNL A   1      32.541  17.052  25.128  1.00  0.00     0.007 C 
ENDBRANCH  15  16
ENDBRANCH  14  15
ENDBRANCH  13  14
BRANCH  13  19
ATOM     19  C   UNL A   1      35.059  21.913  25.416  1.00  0.00     0.087 C 
ATOM     20  C   UNL A   1      35.741  22.330  24.117  1.00  0.00     0.025 C 
ATOM     21  C   UNL A   1      35.455  23.091  26.328  1.00  0.00     0.025 C 
ATOM     22  C   UNL A   1      37.038  23.029  24.485  1.00  0.00     0.002 C 
ATOM     23  C   UNL A   1      36.870  23.478  25.921  1.00  0.00     0.002 C 
ENDBRANCH  13  19
ENDBRANCH  10  13
ENDBRANCH   8   9
BRANCH   8  24
ATOM     24  C   UNL A   1      32.228  24.065  22.670  1.00  0.00     0.145 C 
ATOM     25  C   UNL A   1      32.712  24.751  21.390  1.00  0.00     0.041 C 
BRANCH  24  26
ATOM     26  O   UNL A   1      30.812  24.299  22.777  1.00  0.00    -0.391 OA
ATOM     27  H   UNL A   1      30.514  24.820  22.016  1.00  0.00     0.211 HD
ENDBRANCH  24  26
ENDBRANCH   8  24
ENDBRANCH   6   8
ENDBRANCH   5   6
ENDBRANCH   4   5
ENDBRANCH   3   4
ENDBRANCH   2   3
ENDBRANCH   1   2
BRANCH   1  28
ATOM     28  C   UNL A   1      32.143  30.602  26.934  1.00  0.00     0.188 C 
BRANCH  28  29
ATOM     29  O   UNL A   1      31.342  31.628  26.369  1.00  0.00    -0.376 OA
BRANCH  29  30
ATOM     30  C   UNL A   1      31.616  32.970  26.710  1.00  0.00     0.202 C 
BRANCH  30  31
ATOM     31  C   UNL A   1      32.813  33.229  27.629  1.00  0.00     0.261 C 
BRANCH  31  32
ATOM     32  O   UNL A   1      32.957  34.584  28.102  1.00  0.00    -0.460 OA
BRANCH  32  33
ATOM     33  C   UNL A   1      33.207  34.712  29.432  1.00  0.00     0.338 C 
ATOM     34  O   UNL A   1      32.477  35.225  30.263  1.00  0.00    -0.246 OA
BRANCH  33  35
ATOM     35  C   UNL A   1      34.476  34.041  29.805  1.00  0.00     0.060 A 
ATOM     36  C   UNL A   1      34.449  33.038  30.787  1.00  0.00     0.016 A 
ATOM     37  C   UNL A   1      35.698  34.477  29.294  1.00  0.00     0.016 A 
ATOM     38  C   UNL A   1      35.642  32.478  31.277  1.00  0.00     0.010 A 
ATOM     39  C   UNL A   1      36.889  33.929  29.795  1.00  0.00     0.010 A 
ATOM     40  C   UNL A   1      36.877  32.936  30.802  1.00  0.00    -0.014 A 
BRANCH  40  41
ATOM     41  C   UNL A   1      38.175  32.542  31.428  1.00  0.00     0.031 A 
ATOM     42  C   UNL A   1      39.013  31.527  30.702  1.00  0.00     0.074 A 
ATOM     43  C   UNL A   1      38.574  32.964  32.646  1.00  0.00     0.049 A 
ATOM     44  N   UNL A   1      40.095  30.912  31.100  1.00  0.00    -0.248 NA
ATOM     45  C   UNL A   1      38.579  31.176  29.340  1.00  0.00     0.031 C 
ATOM     46  C   UNL A   1      37.943  34.004  33.445  1.00  0.00     0.029 A 
ATOM     47  N   UNL A   1      39.584  32.503  33.463  1.00  0.00    -0.354 N 
ATOM     48  C   UNL A   1      40.480  30.109  30.035  1.00  0.00     0.074 A 
ATOM     49  C   UNL A   1      39.487  30.276  28.995  1.00  0.00     0.031 C 
ATOM     50  C   UNL A   1      38.462  33.999  34.684  1.00  0.00     0.029 A 
ATOM     51  C   UNL A   1      39.506  32.984  34.753  1.00  0.00     0.049 A 
ATOM     52  H   UNL A   1      40.291  31.892  33.155  1.00  0.00     0.167 HD
ATOM     53  C   UNL A   1      41.582  29.335  29.913  1.00  0.00     0.034 A 
ATOM     54  C   UNL A   1      40.187  32.645  35.867  1.00  0.00     0.034 A 
ATOM     55  C   UNL A   1      42.562  29.149  30.946  1.00  0.00     0.049 A 
ATOM     56  C   UNL A   1      41.338  31.679  35.755  1.00  0.00     0.074 A 
ATOM     57  C   UNL A   1      43.729  28.410  30.899  1.00  0.00     0.029 A 
ATOM     58  N   UNL A   1      42.476  29.684  32.221  1.00  0.00    -0.354 N 
ATOM     59  N   UNL A   1      41.778  31.046  34.696  1.00  0.00    -0.248 NA
ATOM     60  C   UNL A   1      42.136  31.442  36.968  1.00  0.00     0.031 C 
ATOM     61  C   UNL A   1      44.334  28.469  32.160  1.00  0.00     0.029 A 
ATOM     62  C   UNL A   1      43.560  29.274  32.979  1.00  0.00     0.049 A 
ATOM     63  H   UNL A   1      41.752  30.268  32.541  1.00  0.00     0.167 HD
ATOM     64  C   UNL A   1      42.944  30.400  35.094  1.00  0.00     0.074 A 
ATOM     65  C   UNL A   1      43.135  30.709  36.495  1.00  0.00     0.031 C 
ATOM     66  C   UNL A   1      43.782  29.632  34.357  1.00  0.00     0.034 A 
BRANCH  53  67
ATOM     67  C   UNL A   1      41.793  28.662  28.587  1.00  0.00     0.023 A 
ATOM     68  C   UNL A   1      42.402  29.382  27.537  1.00  0.00     0.012 A 
ATOM     69  C   UNL A   1      41.405  27.327  28.381  1.00  0.00     0.148 A 
ATOM     70  C   UNL A   1      42.587  28.793  26.289  1.00  0.00     0.002 A 
ATOM     71  C   UNL A   1      41.633  26.732  27.146  1.00  0.00     0.091 A 
ATOM     72  F   UNL A   1      40.805  26.672  29.385  1.00  0.00    -0.205 F 
ATOM     73  C   UNL A   1      42.211  27.467  26.096  1.00  0.00     0.022 A 
BRANCH  71  74
ATOM     74  S   UNL A   1      41.244  25.012  26.815  1.00  0.00     0.127 S 
ATOM     75  O   UNL A   1      41.992  24.773  25.581  1.00  0.00    -0.237 OA
ATOM     76  O   UNL A   1      41.788  24.343  27.997  1.00  0.00    -0.237 OA
ATOM     77  O   UNL A   1      39.795  24.943  26.688  1.00  0.00    -0.744 OA
ENDBRANCH  71  74
ENDBRANCH  53  67
BRANCH  54  78
ATOM     78  C   UNL A   1      39.857  33.276  37.179  1.00  0.00     0.023 A 
ATOM     79  C   UNL A   1      40.551  34.432  37.587  1.00  0.00     0.012 A 
ATOM     80  C   UNL A   1      38.876  32.729  38.031  1.00  0.00     0.148 A 
ATOM     81  C   UNL A   1      40.307  35.007  38.837  1.00  0.00     0.002 A 
ATOM     82  C   UNL A   1      38.608  33.331  39.258  1.00  0.00     0.091 A 
ATOM     83  F   UNL A   1      38.233  31.623  37.631  1.00  0.00    -0.205 F 
ATOM     84  C   UNL A   1      39.334  34.460  39.668  1.00  0.00     0.022 A 
BRANCH  82  85
ATOM     85  S   UNL A   1      37.311  32.757  40.362  1.00  0.00     0.127 S 
ATOM     86  O   UNL A   1      36.163  32.680  39.461  1.00  0.00    -0.237 OA
ATOM     87  O   UNL A   1      37.839  31.464  40.799  1.00  0.00    -0.237 OA
ATOM     88  O   UNL A   1      37.220  33.758  41.416  1.00  0.00    -0.744 OA
ENDBRANCH  82  85
ENDBRANCH  54  78
BRANCH  66  89
ATOM     89  C   UNL A   1      45.030  29.107  35.019  1.00  0.00     0.023 A 
ATOM     90  C   UNL A   1      46.235  29.829  34.933  1.00  0.00     0.012 A 
ATOM     91  C   UNL A   1      44.980  27.937  35.805  1.00  0.00     0.148 A 
ATOM     92  C   UNL A   1      47.378  29.383  35.597  1.00  0.00     0.002 A 
ATOM     93  C   UNL A   1      46.108  27.526  36.505  1.00  0.00     0.091 A 
ATOM     94  F   UNL A   1      43.829  27.252  35.859  1.00  0.00    -0.205 F 
ATOM     95  C   UNL A   1      47.311  28.241  36.393  1.00  0.00     0.022 A 
BRANCH  93  96
ATOM     96  S   UNL A   1      46.089  26.128  37.633  1.00  0.00     0.127 S 
ATOM     97  O   UNL A   1      47.464  26.127  38.129  1.00  0.00    -0.237 OA
ATOM     98  O   UNL A   1      45.086  26.539  38.616  1.00  0.00    -0.237 OA
ATOM     99  O   UNL A   1      45.713  24.969  36.834  1.00  0.00    -0.744 OA
ENDBRANCH  93  96
ENDBRANCH  66  89
ENDBRANCH  40  41
ENDBRANCH  33  35
ENDBRANCH  32  33
ENDBRANCH  31  32
ENDBRANCH  30  31
ENDBRANCH  29  30
ENDBRANCH  28  29
ENDBRANCH   1  28
TORSDOF 28
ENDMDL
MODEL 3
REMARK VINA RESULT:      -8.5      3.141      8.249
REMARK SMILES CC(C)CCN(C(=O)N[C@H](C(=O)OCCOCCOCCOC(=O)c1ccc(-c2c3nc(c(-c4cccc(S(=O)(=O)[O-])c4F)c4ccc([nH]4)c(-c4cccc(S(=O)(=O)[O-])c4F)c4nc(c(-c5cccc(S(=O)(=O)[O-])c5F)c5ccc2[nH]5)C=C4)C=C3)cc1)[C@H](C)O)C1CCCC1
REMARK SMILES IDX 17 1 16 2 15 3 14 4 13 5 11 6 12 7 10 8 9 9 7 10 8 11 6 13
REMARK SMILES IDX 5 14 4 15 2 16 1 17 3 18 91 19 92 20 95 21 93 22 94 23 88 24
REMARK SMILES IDX 89 25 90 26 18 28 19 29 20 30 21 31 22 32 23 33 24 34 25 35
REMARK SMILES IDX 26 36 87 37 27 38 86 39 28 40 29 41 30 42 80 43 31 44 85 45
REMARK SMILES IDX 79 46 81 47 32 48 84 49 78 50 77 51 33 53 65 54 45 55 64 56
REMARK SMILES IDX 46 57 49 58 63 59 82 60 47 61 48 62 62 64 83 65 50 66 34 67
REMARK SMILES IDX 35 68 43 69 36 70 38 71 44 72 37 73 39 74 40 75 41 76 42 77
REMARK SMILES IDX 66 78 67 79 75 80 68 81 70 82 76 83 69 84 71 85 72 86 73 87
REMARK SMILES IDX 74 88 51 89 52 90 60 91 53 92 55 93 61 94 54 95 56 96 57 97
REMARK SMILES IDX 58 98 59 99
REMARK H PARENT 9 12 90 27 81 52 49 63
REMARK Flexibility Score: inf
ROOT
ATOM      1  C   UNL A   1      33.157  29.411  25.351  1.00  0.00     0.188 C 
ENDROOT
BRANCH   1   2
ATOM      2  O   UNL A   1      32.407  29.070  24.196  1.00  0.00    -0.376 OA
BRANCH   2   3
ATOM      3  C   UNL A   1      31.471  28.016  24.363  1.00  0.00     0.202 C 
BRANCH   3   4
ATOM      4  C   UNL A   1      32.133  26.642  24.478  1.00  0.00     0.261 C 
BRANCH   4   5
ATOM      5  O   UNL A   1      31.817  25.772  23.368  1.00  0.00    -0.462 OA
BRANCH   5   6
ATOM      6  C   UNL A   1      32.818  25.002  22.878  1.00  0.00     0.331 C 
ATOM      7  O   UNL A   1      33.562  25.362  21.969  1.00  0.00    -0.250 OA
BRANCH   6   8
ATOM      8  C   UNL A   1      32.857  23.585  23.502  1.00  0.00     0.222 C 
BRANCH   8   9
ATOM      9  N   UNL A   1      33.222  23.661  24.917  1.00  0.00    -0.322 N 
ATOM     10  C   UNL A   1      33.769  22.939  25.897  1.00  0.00     0.318 C 
ATOM     11  O   UNL A   1      33.873  23.625  26.920  1.00  0.00    -0.249 OA
ATOM     12  H   UNL A   1      32.979  24.550  25.266  1.00  0.00     0.166 HD
BRANCH  10  13
ATOM     13  N   UNL A   1      34.138  21.606  25.825  1.00  0.00    -0.322 N 
BRANCH  13  14
ATOM     14  C   UNL A   1      33.272  20.494  26.270  1.00  0.00     0.122 C 
BRANCH  14  15
ATOM     15  C   UNL A   1      32.525  19.570  25.275  1.00  0.00     0.024 C 
BRANCH  15  16
ATOM     16  C   UNL A   1      33.165  18.201  24.886  1.00  0.00    -0.016 C 
ATOM     17  C   UNL A   1      32.486  16.953  25.434  1.00  0.00     0.007 C 
ATOM     18  C   UNL A   1      33.261  18.030  23.371  1.00  0.00     0.007 C 
ENDBRANCH  15  16
ENDBRANCH  14  15
ENDBRANCH  13  14
BRANCH  13  19
ATOM     19  C   UNL A   1      35.621  21.395  25.825  1.00  0.00     0.087 C 
ATOM     20  C   UNL A   1      36.157  20.228  25.002  1.00  0.00     0.025 C 
ATOM     21  C   UNL A   1      36.483  22.545  25.268  1.00  0.00     0.025 C 
ATOM     22  C   UNL A   1      37.641  20.465  24.785  1.00  0.00     0.002 C 
ATOM     23  C   UNL A   1      37.857  21.948  25.000  1.00  0.00     0.002 C 
ENDBRANCH  13  19
ENDBRANCH  10  13
ENDBRANCH   8   9
BRANCH   8  24
ATOM     24  C   UNL A   1      31.725  22.574  23.193  1.00  0.00     0.145 C 
ATOM     25  C   UNL A   1      32.047  21.520  22.130  1.00  0.00     0.041 C 
BRANCH  24  26
ATOM     26  O   UNL A   1      30.557  23.288  22.754  1.00  0.00    -0.391 OA
ATOM     27  H   UNL A   1      30.808  23.930  22.073  1.00  0.00     0.211 HD
ENDBRANCH  24  26
ENDBRANCH   8  24
ENDBRANCH   6   8
ENDBRANCH   5   6
ENDBRANCH   4   5
ENDBRANCH   3   4
ENDBRANCH   2   3
ENDBRANCH   1   2
BRANCH   1  28
ATOM     28  C   UNL A   1      32.301  29.873  26.544  1.00  0.00     0.188 C 
BRANCH  28  29
ATOM     29  O   UNL A   1      31.860  31.218  26.646  1.00  0.00    -0.376 OA
BRANCH  29  30
ATOM     30  C   UNL A   1      32.666  32.146  27.341  1.00  0.00     0.202 C 
BRANCH  30  31
ATOM     31  C   UNL A   1      34.053  31.675  27.784  1.00  0.00     0.261 C 
BRANCH  31  32
ATOM     32  O   UNL A   1      34.830  32.633  28.532  1.00  0.00    -0.460 OA
BRANCH  32  33
ATOM     33  C   UNL A   1      35.088  32.293  29.823  1.00  0.00     0.338 C 
ATOM     34  O   UNL A   1      34.424  32.592  30.800  1.00  0.00    -0.246 OA
BRANCH  33  35
ATOM     35  C   UNL A   1      36.264  31.392  29.914  1.00  0.00     0.060 A 
ATOM     36  C   UNL A   1      36.178  30.247  30.722  1.00  0.00     0.016 A 
ATOM     37  C   UNL A   1      37.478  31.731  29.318  1.00  0.00     0.016 A 
ATOM     38  C   UNL A   1      37.309  29.446  30.954  1.00  0.00     0.010 A 
ATOM     39  C   UNL A   1      38.610  30.939  29.564  1.00  0.00     0.010 A 
ATOM     40  C   UNL A   1      38.545  29.798  30.397  1.00  0.00    -0.014 A 
BRANCH  40  41
ATOM     41  C   UNL A   1      39.820  29.119  30.774  1.00  0.00     0.031 A 
ATOM     42  C   UNL A   1      40.624  29.726  31.889  1.00  0.00     0.074 A 
ATOM     43  C   UNL A   1      40.332  28.066  30.102  1.00  0.00     0.049 A 
ATOM     44  N   UNL A   1      41.826  29.421  32.303  1.00  0.00    -0.248 NA
ATOM     45  C   UNL A   1      39.976  30.808  32.647  1.00  0.00     0.031 C 
ATOM     46  C   UNL A   1      39.657  27.298  29.065  1.00  0.00     0.029 A 
ATOM     47  N   UNL A   1      41.590  27.504  30.148  1.00  0.00    -0.354 N 
ATOM     48  C   UNL A   1      42.075  30.264  33.377  1.00  0.00     0.074 A 
ATOM     49  C   UNL A   1      40.921  31.128  33.517  1.00  0.00     0.031 C 
ATOM     50  C   UNL A   1      40.538  26.482  28.462  1.00  0.00     0.029 A 
ATOM     51  C   UNL A   1      41.837  26.632  29.108  1.00  0.00     0.049 A 
ATOM     52  H   UNL A   1      42.245  27.705  30.853  1.00  0.00     0.167 HD
ATOM     53  C   UNL A   1      43.146  30.293  34.201  1.00  0.00     0.034 A 
ATOM     54  C   UNL A   1      42.975  26.026  28.713  1.00  0.00     0.034 A 
ATOM     55  C   UNL A   1      44.302  29.453  34.058  1.00  0.00     0.049 A 
ATOM     56  C   UNL A   1      44.210  26.162  29.565  1.00  0.00     0.074 A 
ATOM     57  C   UNL A   1      45.421  29.388  34.868  1.00  0.00     0.029 A 
ATOM     58  N   UNL A   1      44.501  28.552  33.025  1.00  0.00    -0.354 N 
ATOM     59  N   UNL A   1      44.375  26.851  30.667  1.00  0.00    -0.248 NA
ATOM     60  C   UNL A   1      45.390  25.378  29.168  1.00  0.00     0.031 C 
ATOM     61  C   UNL A   1      46.315  28.470  34.303  1.00  0.00     0.029 A 
ATOM     62  C   UNL A   1      45.735  27.940  33.163  1.00  0.00     0.049 A 
ATOM     63  H   UNL A   1      43.860  28.373  32.299  1.00  0.00     0.167 HD
ATOM     64  C   UNL A   1      45.643  26.524  31.136  1.00  0.00     0.074 A 
ATOM     65  C   UNL A   1      46.208  25.584  30.191  1.00  0.00     0.031 C 
ATOM     66  C   UNL A   1      46.272  26.958  32.255  1.00  0.00     0.034 A 
BRANCH  53  67
ATOM     67  C   UNL A   1      43.086  31.250  35.357  1.00  0.00     0.023 A 
ATOM     68  C   UNL A   1      42.594  30.799  36.600  1.00  0.00     0.012 A 
ATOM     69  C   UNL A   1      43.523  32.579  35.223  1.00  0.00     0.148 A 
ATOM     70  C   UNL A   1      42.502  31.670  37.683  1.00  0.00     0.002 A 
ATOM     71  C   UNL A   1      43.469  33.430  36.320  1.00  0.00     0.091 A 
ATOM     72  F   UNL A   1      43.963  32.990  34.026  1.00  0.00    -0.205 F 
ATOM     73  C   UNL A   1      42.947  32.982  37.546  1.00  0.00     0.022 A 
BRANCH  71  74
ATOM     74  S   UNL A   1      44.077  35.117  36.265  1.00  0.00     0.127 S 
ATOM     75  O   UNL A   1      43.823  35.566  37.634  1.00  0.00    -0.237 OA
ATOM     76  O   UNL A   1      45.490  34.923  35.939  1.00  0.00    -0.237 OA
ATOM     77  O   UNL A   1      43.300  35.792  35.235  1.00  0.00    -0.744 OA
ENDBRANCH  71  74
ENDBRANCH  53  67
BRANCH  54  78
ATOM     78  C   UNL A   1      42.993  25.169  27.491  1.00  0.00     0.023 A 
ATOM     79  C   UNL A   1      43.379  25.727  26.257  1.00  0.00     0.012 A 
ATOM     80  C   UNL A   1      42.613  23.812  27.540  1.00  0.00     0.148 A 
ATOM     81  C   UNL A   1      43.345  24.966  25.087  1.00  0.00     0.002 A 
ATOM     82  C   UNL A   1      42.621  23.047  26.377  1.00  0.00     0.091 A 
ATOM     83  F   UNL A   1      42.240  23.300  28.721  1.00  0.00    -0.205 F 
ATOM     84  C   UNL A   1      42.972  23.626  25.148  1.00  0.00     0.022 A 
BRANCH  82  85
ATOM     85  S   UNL A   1      42.245  21.289  26.365  1.00  0.00     0.127 S 
ATOM     86  O   UNL A   1      43.099  20.807  25.282  1.00  0.00    -0.237 OA
ATOM     87  O   UNL A   1      42.664  20.883  27.707  1.00  0.00    -0.237 OA
ATOM     88  O   UNL A   1      40.811  21.195  26.129  1.00  0.00    -0.744 OA
ENDBRANCH  82  85
ENDBRANCH  54  78
BRANCH  66  89
ATOM     89  C   UNL A   1      47.629  26.384  32.575  1.00  0.00     0.023 A 
ATOM     90  C   UNL A   1      47.740  25.245  33.394  1.00  0.00     0.012 A 
ATOM     91  C   UNL A   1      48.788  26.926  31.983  1.00  0.00     0.148 A 
ATOM     92  C   UNL A   1      48.986  24.669  33.642  1.00  0.00     0.002 A 
ATOM     93  C   UNL A   1      50.020  26.318  32.192  1.00  0.00     0.091 A 
ATOM     94  F   UNL A   1      48.663  28.022  31.222  1.00  0.00    -0.205 F 
ATOM     95  C   UNL A   1      50.123  25.196  33.031  1.00  0.00     0.022 A 
BRANCH  93  96
ATOM     96  S   UNL A   1      51.520  26.864  31.368  1.00  0.00     0.127 S 
ATOM     97  O   UNL A   1      51.485  28.305  31.613  1.00  0.00    -0.237 OA
ATOM     98  O   UNL A   1      52.557  26.144  32.107  1.00  0.00    -0.237 OA
ATOM     99  O   UNL A   1      51.383  26.465  29.974  1.00  0.00    -0.744 OA
ENDBRANCH  93  96
ENDBRANCH  66  89
ENDBRANCH  40  41
ENDBRANCH  33  35
ENDBRANCH  32  33
ENDBRANCH  31  32
ENDBRANCH  30  31
ENDBRANCH  29  30
ENDBRANCH  28  29
ENDBRANCH   1  28
TORSDOF 28
ENDMDL
