MODEL 1
REMARK VINA RESULT:     -10.2      0.000      0.000
REMARK SMILES CC[C@@H](C)c1ccccc1NC(=O)[C@@H]1[C@@H](C(=O)OCCOCCOCCOC(=O)c2ccc(-c3c4nc(c(-c5cccc(S(=O)(=O)[O-])c5F)c5ccc([nH]5)c(-c5cccc(S(=O)(=O)[O-])c5F)c5nc(c(-c6cccc(S(=O)(=O)[O-])c6F)c6ccc3[nH]6)C=C5)C=C4)cc2)[C@@H]2C=C[C@H]1C2
REMARK SMILES IDX 22 1 21 2 20 3 19 4 18 5 16 6 17 7 15 8 14 9 96 10 93 11
REMARK SMILES IDX 95 12 97 13 94 14 12 15 11 16 13 18 10 19 5 20 6 21 7 22
REMARK SMILES IDX 9 23 8 24 3 25 4 26 2 27 1 28 23 29 24 30 25 31 26 32 27 33
REMARK SMILES IDX 28 34 29 35 30 36 31 37 92 38 32 39 91 40 33 41 34 42 35 43
REMARK SMILES IDX 85 44 36 45 90 46 84 47 86 48 37 49 89 50 83 51 82 52 38 54
REMARK SMILES IDX 70 55 50 56 69 57 51 58 54 59 68 60 87 61 52 62 53 63 67 65
REMARK SMILES IDX 88 66 55 67 39 68 40 69 48 70 41 71 43 72 49 73 42 74 44 75
REMARK SMILES IDX 45 76 46 77 47 78 71 79 72 80 80 81 73 82 75 83 81 84 74 85
REMARK SMILES IDX 76 86 77 87 78 88 79 89 56 90 57 91 65 92 58 93 60 94 66 95
REMARK SMILES IDX 59 96 61 97 62 98 63 99 64 100
REMARK H PARENT 11 17 86 53 54 64
REMARK Flexibility Score: inf
ROOT
ATOM      1  C   UNL A   1      35.408  31.604  27.995  1.00  0.00     0.188 C 
ENDROOT
BRANCH   1   2
ATOM      2  O   UNL A   1      35.482  30.201  28.225  1.00  0.00    -0.376 OA
BRANCH   2   3
ATOM      3  C   UNL A   1      35.112  29.289  27.209  1.00  0.00     0.202 C 
BRANCH   3   4
ATOM      4  C   UNL A   1      33.666  28.791  27.214  1.00  0.00     0.261 C 
BRANCH   4   5
ATOM      5  O   UNL A   1      33.467  27.620  26.410  1.00  0.00    -0.463 OA
BRANCH   5   6
ATOM      6  C   UNL A   1      32.255  27.007  26.540  1.00  0.00     0.310 C 
ATOM      7  O   UNL A   1      31.487  27.177  27.474  1.00  0.00    -0.252 OA
BRANCH   6   8
ATOM      8  C   UNL A   1      32.027  26.050  25.373  1.00  0.00     0.119 C 
ATOM      9  C   UNL A   1      32.648  26.553  24.042  1.00  0.00     0.100 C 
ATOM     10  C   UNL A   1      31.398  26.802  23.150  1.00  0.00     0.025 C 
ATOM     11  C   UNL A   1      30.503  26.031  25.050  1.00  0.00     0.027 C 
ATOM     12  C   UNL A   1      30.755  25.477  22.826  1.00  0.00    -0.027 C 
ATOM     13  C   UNL A   1      30.365  27.287  24.177  1.00  0.00     0.017 C 
ATOM     14  C   UNL A   1      30.209  25.016  23.962  1.00  0.00    -0.027 C 
BRANCH   9  15
ATOM     15  C   UNL A   1      33.785  25.911  23.236  1.00  0.00     0.228 C 
ATOM     16  N   UNL A   1      34.604  24.851  23.417  1.00  0.00    -0.326 N 
ATOM     17  H   UNL A   1      35.166  24.749  22.615  1.00  0.00     0.169 HD
ATOM     18  O   UNL A   1      33.985  26.444  22.123  1.00  0.00    -0.274 OA
BRANCH  16  19
ATOM     19  C   UNL A   1      34.946  23.842  24.336  1.00  0.00     0.044 A 
ATOM     20  C   UNL A   1      34.170  22.650  24.493  1.00  0.00    -0.022 A 
ATOM     21  C   UNL A   1      34.767  21.593  25.244  1.00  0.00     0.006 A 
ATOM     22  C   UNL A   1      36.009  21.700  25.864  1.00  0.00     0.000 A 
ATOM     23  C   UNL A   1      36.109  23.957  25.097  1.00  0.00     0.026 A 
ATOM     24  C   UNL A   1      36.660  22.909  25.832  1.00  0.00     0.002 A 
BRANCH  20  25
ATOM     25  C   UNL A   1      32.674  22.391  24.098  1.00  0.00     0.018 C 
ATOM     26  C   UNL A   1      32.009  21.279  24.952  1.00  0.00     0.013 C 
BRANCH  25  27
ATOM     27  C   UNL A   1      32.285  22.247  22.606  1.00  0.00     0.005 C 
ATOM     28  C   UNL A   1      31.947  20.832  22.139  1.00  0.00     0.004 C 
ENDBRANCH  25  27
ENDBRANCH  20  25
ENDBRANCH  16  19
ENDBRANCH   9  15
ENDBRANCH   6   8
ENDBRANCH   5   6
ENDBRANCH   4   5
ENDBRANCH   3   4
ENDBRANCH   2   3
ENDBRANCH   1   2
BRANCH   1  29
ATOM     29  C   UNL A   1      34.123  32.407  28.299  1.00  0.00     0.188 C 
BRANCH  29  30
ATOM     30  O   UNL A   1      34.320  33.567  29.097  1.00  0.00    -0.376 OA
BRANCH  30  31
ATOM     31  C   UNL A   1      34.096  34.805  28.434  1.00  0.00     0.202 C 
BRANCH  31  32
ATOM     32  C   UNL A   1      33.122  35.724  29.171  1.00  0.00     0.261 C 
BRANCH  32  33
ATOM     33  O   UNL A   1      32.522  35.097  30.316  1.00  0.00    -0.460 OA
BRANCH  33  34
ATOM     34  C   UNL A   1      32.663  35.717  31.507  1.00  0.00     0.338 C 
ATOM     35  O   UNL A   1      32.012  36.649  31.937  1.00  0.00    -0.246 OA
BRANCH  34  36
ATOM     36  C   UNL A   1      33.759  35.044  32.232  1.00  0.00     0.060 A 
ATOM     37  C   UNL A   1      35.001  35.668  32.327  1.00  0.00     0.016 A 
ATOM     38  C   UNL A   1      33.569  33.777  32.786  1.00  0.00     0.016 A 
ATOM     39  C   UNL A   1      36.060  35.010  32.951  1.00  0.00     0.010 A 
ATOM     40  C   UNL A   1      34.645  33.116  33.396  1.00  0.00     0.010 A 
ATOM     41  C   UNL A   1      35.922  33.703  33.435  1.00  0.00    -0.014 A 
BRANCH  41  42
ATOM     42  C   UNL A   1      37.135  32.911  33.806  1.00  0.00     0.031 A 
ATOM     43  C   UNL A   1      37.856  33.216  35.101  1.00  0.00     0.074 A 
ATOM     44  C   UNL A   1      37.563  31.867  33.067  1.00  0.00     0.049 A 
ATOM     45  N   UNL A   1      38.963  32.703  35.577  1.00  0.00    -0.248 NA
ATOM     46  C   UNL A   1      37.235  34.217  35.985  1.00  0.00     0.031 C 
ATOM     47  C   UNL A   1      36.934  31.380  31.842  1.00  0.00     0.029 A 
ATOM     48  N   UNL A   1      38.636  31.023  33.250  1.00  0.00    -0.354 N 
ATOM     49  C   UNL A   1      39.205  33.363  36.777  1.00  0.00     0.074 A 
ATOM     50  C   UNL A   1      38.117  34.297  36.971  1.00  0.00     0.031 C 
ATOM     51  C   UNL A   1      37.624  30.320  31.388  1.00  0.00     0.029 A 
ATOM     52  C   UNL A   1      38.785  30.094  32.245  1.00  0.00     0.049 A 
ATOM     53  H   UNL A   1      39.239  31.078  34.026  1.00  0.00     0.167 HD
ATOM     54  C   UNL A   1      40.230  33.209  37.648  1.00  0.00     0.034 A 
ATOM     55  C   UNL A   1      39.762  29.191  32.013  1.00  0.00     0.034 A 
ATOM     56  C   UNL A   1      41.292  32.251  37.508  1.00  0.00     0.049 A 
ATOM     57  C   UNL A   1      40.929  29.083  32.962  1.00  0.00     0.074 A 
ATOM     58  C   UNL A   1      42.368  32.032  38.353  1.00  0.00     0.029 A 
ATOM     59  N   UNL A   1      41.418  31.353  36.462  1.00  0.00    -0.354 N 
ATOM     60  N   UNL A   1      41.127  29.695  34.104  1.00  0.00    -0.248 NA
ATOM     61  C   UNL A   1      42.007  28.151  32.590  1.00  0.00     0.031 C 
ATOM     62  C   UNL A   1      43.155  31.013  37.808  1.00  0.00     0.029 A 
ATOM     63  C   UNL A   1      42.560  30.586  36.633  1.00  0.00     0.049 A 
ATOM     64  H   UNL A   1      40.790  31.270  35.710  1.00  0.00     0.167 HD
ATOM     65  C   UNL A   1      42.340  29.214  34.591  1.00  0.00     0.074 A 
ATOM     66  C   UNL A   1      42.815  28.234  33.639  1.00  0.00     0.031 C 
ATOM     67  C   UNL A   1      43.010  29.574  35.714  1.00  0.00     0.034 A 
BRANCH  54  68
ATOM     68  C   UNL A   1      40.260  34.112  38.851  1.00  0.00     0.023 A 
ATOM     69  C   UNL A   1      41.108  35.236  38.864  1.00  0.00     0.012 A 
ATOM     70  C   UNL A   1      39.405  33.873  39.944  1.00  0.00     0.148 A 
ATOM     71  C   UNL A   1      41.118  36.100  39.959  1.00  0.00     0.002 A 
ATOM     72  C   UNL A   1      39.393  34.758  41.015  1.00  0.00     0.091 A 
ATOM     73  F   UNL A   1      38.628  32.780  39.922  1.00  0.00    -0.205 F 
ATOM     74  C   UNL A   1      40.254  35.867  41.028  1.00  0.00     0.022 A 
BRANCH  72  75
ATOM     75  S   UNL A   1      38.265  34.572  42.400  1.00  0.00     0.127 S 
ATOM     76  O   UNL A   1      36.968  34.578  41.725  1.00  0.00    -0.237 OA
ATOM     77  O   UNL A   1      38.660  33.275  42.950  1.00  0.00    -0.237 OA
ATOM     78  O   UNL A   1      38.524  35.705  43.277  1.00  0.00    -0.744 OA
ENDBRANCH  72  75
ENDBRANCH  54  68
BRANCH  55  79
ATOM     79  C   UNL A   1      39.695  28.317  30.806  1.00  0.00     0.023 A 
ATOM     80  C   UNL A   1      38.952  27.122  30.848  1.00  0.00     0.012 A 
ATOM     81  C   UNL A   1      40.361  28.669  29.615  1.00  0.00     0.148 A 
ATOM     82  C   UNL A   1      38.888  26.286  29.731  1.00  0.00     0.002 A 
ATOM     83  C   UNL A   1      40.243  27.863  28.489  1.00  0.00     0.091 A 
ATOM     84  F   UNL A   1      41.103  29.786  29.606  1.00  0.00    -0.205 F 
ATOM     85  C   UNL A   1      39.518  26.664  28.548  1.00  0.00     0.022 A 
BRANCH  83  86
ATOM     86  S   UNL A   1      40.917  28.352  26.897  1.00  0.00     0.127 S 
ATOM     87  O   UNL A   1      39.939  29.340  26.449  1.00  0.00    -0.237 OA
ATOM     88  O   UNL A   1      42.222  28.902  27.269  1.00  0.00    -0.237 OA
ATOM     89  O   UNL A   1      40.989  27.125  26.115  1.00  0.00    -0.744 OA
ENDBRANCH  83  86
ENDBRANCH  55  79
BRANCH  67  90
ATOM     90  C   UNL A   1      44.332  28.906  35.996  1.00  0.00     0.023 A 
ATOM     91  C   UNL A   1      45.524  29.517  35.560  1.00  0.00     0.012 A 
ATOM     92  C   UNL A   1      44.402  27.726  36.763  1.00  0.00     0.148 A 
ATOM     93  C   UNL A   1      46.763  28.952  35.860  1.00  0.00     0.002 A 
ATOM     94  C   UNL A   1      45.644  27.191  37.095  1.00  0.00     0.091 A 
ATOM     95  F   UNL A   1      43.258  27.147  37.155  1.00  0.00    -0.205 F 
ATOM     96  C   UNL A   1      46.824  27.797  36.636  1.00  0.00     0.022 A 
BRANCH  94  97
ATOM     97  S   UNL A   1      45.817  25.758  38.166  1.00  0.00     0.127 S 
ATOM     98  O   UNL A   1      44.901  26.085  39.256  1.00  0.00    -0.237 OA
ATOM     99  O   UNL A   1      45.369  24.664  37.302  1.00  0.00    -0.237 OA
ATOM    100  O   UNL A   1      47.228  25.700  38.525  1.00  0.00    -0.744 OA
ENDBRANCH  94  97
ENDBRANCH  67  90
ENDBRANCH  41  42
ENDBRANCH  34  36
ENDBRANCH  33  34
ENDBRANCH  32  33
ENDBRANCH  31  32
ENDBRANCH  30  31
ENDBRANCH  29  30
ENDBRANCH   1  29
TORSDOF 24
ENDMDL
MODEL 2
REMARK VINA RESULT:      -9.9      1.591      2.399
REMARK SMILES CC[C@@H](C)c1ccccc1NC(=O)[C@@H]1[C@@H](C(=O)OCCOCCOCCOC(=O)c2ccc(-c3c4nc(c(-c5cccc(S(=O)(=O)[O-])c5F)c5ccc([nH]5)c(-c5cccc(S(=O)(=O)[O-])c5F)c5nc(c(-c6cccc(S(=O)(=O)[O-])c6F)c6ccc3[nH]6)C=C5)C=C4)cc2)[C@@H]2C=C[C@H]1C2
REMARK SMILES IDX 22 1 21 2 20 3 19 4 18 5 16 6 17 7 15 8 14 9 96 10 93 11
REMARK SMILES IDX 95 12 97 13 94 14 12 15 11 16 13 18 10 19 5 20 6 21 7 22
REMARK SMILES IDX 9 23 8 24 3 25 4 26 2 27 1 28 23 29 24 30 25 31 26 32 27 33
REMARK SMILES IDX 28 34 29 35 30 36 31 37 92 38 32 39 91 40 33 41 34 42 35 43
REMARK SMILES IDX 85 44 36 45 90 46 84 47 86 48 37 49 89 50 83 51 82 52 38 54
REMARK SMILES IDX 70 55 50 56 69 57 51 58 54 59 68 60 87 61 52 62 53 63 67 65
REMARK SMILES IDX 88 66 55 67 39 68 40 69 48 70 41 71 43 72 49 73 42 74 44 75
REMARK SMILES IDX 45 76 46 77 47 78 71 79 72 80 80 81 73 82 75 83 81 84 74 85
REMARK SMILES IDX 76 86 77 87 78 88 79 89 56 90 57 91 65 92 58 93 60 94 66 95
REMARK SMILES IDX 59 96 61 97 62 98 63 99 64 100
REMARK H PARENT 11 17 86 53 54 64
REMARK Flexibility Score: inf
ROOT
ATOM      1  C   UNL A   1      35.601  31.517  27.920  1.00  0.00     0.188 C 
ENDROOT
BRANCH   1   2
ATOM      2  O   UNL A   1      35.668  30.175  28.387  1.00  0.00    -0.376 OA
BRANCH   2   3
ATOM      3  C   UNL A   1      35.414  29.098  27.505  1.00  0.00     0.202 C 
BRANCH   3   4
ATOM      4  C   UNL A   1      34.108  29.141  26.711  1.00  0.00     0.261 C 
BRANCH   4   5
ATOM      5  O   UNL A   1      33.607  27.840  26.374  1.00  0.00    -0.463 OA
BRANCH   5   6
ATOM      6  C   UNL A   1      33.482  27.575  25.042  1.00  0.00     0.310 C 
ATOM      7  O   UNL A   1      33.711  28.378  24.150  1.00  0.00    -0.252 OA
BRANCH   6   8
ATOM      8  C   UNL A   1      32.973  26.151  24.837  1.00  0.00     0.119 C 
ATOM      9  C   UNL A   1      32.147  25.981  23.534  1.00  0.00     0.100 C 
ATOM     10  C   UNL A   1      30.725  25.647  24.068  1.00  0.00     0.025 C 
ATOM     11  C   UNL A   1      31.923  25.845  25.946  1.00  0.00     0.027 C 
ATOM     12  C   UNL A   1      30.751  24.286  24.717  1.00  0.00    -0.027 C 
ATOM     13  C   UNL A   1      30.662  26.487  25.352  1.00  0.00     0.017 C 
ATOM     14  C   UNL A   1      31.462  24.403  25.849  1.00  0.00    -0.027 C 
BRANCH   9  15
ATOM     15  C   UNL A   1      32.494  25.124  22.309  1.00  0.00     0.228 C 
ATOM     16  N   UNL A   1      32.808  23.824  22.109  1.00  0.00    -0.326 N 
ATOM     17  H   UNL A   1      32.903  23.670  21.142  1.00  0.00     0.169 HD
ATOM     18  O   UNL A   1      32.426  25.737  21.222  1.00  0.00    -0.274 OA
BRANCH  16  19
ATOM     19  C   UNL A   1      33.049  22.612  22.783  1.00  0.00     0.044 A 
ATOM     20  C   UNL A   1      34.058  22.478  23.788  1.00  0.00    -0.022 A 
ATOM     21  C   UNL A   1      34.016  21.293  24.582  1.00  0.00     0.006 A 
ATOM     22  C   UNL A   1      33.098  20.266  24.378  1.00  0.00     0.000 A 
ATOM     23  C   UNL A   1      32.254  21.498  22.518  1.00  0.00     0.026 A 
ATOM     24  C   UNL A   1      32.245  20.348  23.305  1.00  0.00     0.002 A 
BRANCH  20  25
ATOM     25  C   UNL A   1      35.321  23.375  24.040  1.00  0.00     0.018 C 
ATOM     26  C   UNL A   1      36.516  23.005  23.122  1.00  0.00     0.013 C 
BRANCH  25  27
ATOM     27  C   UNL A   1      35.800  23.641  25.488  1.00  0.00     0.005 C 
ATOM     28  C   UNL A   1      37.310  23.568  25.715  1.00  0.00     0.004 C 
ENDBRANCH  25  27
ENDBRANCH  20  25
ENDBRANCH  16  19
ENDBRANCH   9  15
ENDBRANCH   6   8
ENDBRANCH   5   6
ENDBRANCH   4   5
ENDBRANCH   3   4
ENDBRANCH   2   3
ENDBRANCH   1   2
BRANCH   1  29
ATOM     29  C   UNL A   1      34.501  32.489  28.405  1.00  0.00     0.188 C 
BRANCH  29  30
ATOM     30  O   UNL A   1      34.921  33.838  28.557  1.00  0.00    -0.376 OA
BRANCH  30  31
ATOM     31  C   UNL A   1      34.085  34.808  27.940  1.00  0.00     0.202 C 
BRANCH  31  32
ATOM     32  C   UNL A   1      33.414  35.756  28.934  1.00  0.00     0.261 C 
BRANCH  32  33
ATOM     33  O   UNL A   1      32.736  35.064  29.994  1.00  0.00    -0.460 OA
BRANCH  33  34
ATOM     34  C   UNL A   1      32.858  35.567  31.241  1.00  0.00     0.338 C 
ATOM     35  O   UNL A   1      32.185  36.438  31.755  1.00  0.00    -0.246 OA
BRANCH  34  36
ATOM     36  C   UNL A   1      33.965  34.851  31.904  1.00  0.00     0.060 A 
ATOM     37  C   UNL A   1      35.003  35.578  32.482  1.00  0.00     0.016 A 
ATOM     38  C   UNL A   1      33.996  33.456  31.920  1.00  0.00     0.016 A 
ATOM     39  C   UNL A   1      36.086  34.908  33.050  1.00  0.00     0.010 A 
ATOM     40  C   UNL A   1      35.099  32.790  32.479  1.00  0.00     0.010 A 
ATOM     41  C   UNL A   1      36.186  33.513  33.000  1.00  0.00    -0.014 A 
BRANCH  41  42
ATOM     42  C   UNL A   1      37.484  32.844  33.325  1.00  0.00     0.031 A 
ATOM     43  C   UNL A   1      38.080  33.007  34.706  1.00  0.00     0.074 A 
ATOM     44  C   UNL A   1      38.104  32.022  32.454  1.00  0.00     0.049 A 
ATOM     45  N   UNL A   1      39.226  32.577  35.173  1.00  0.00    -0.248 NA
ATOM     46  C   UNL A   1      37.269  33.735  35.696  1.00  0.00     0.031 C 
ATOM     47  C   UNL A   1      37.622  31.682  31.118  1.00  0.00     0.029 A 
ATOM     48  N   UNL A   1      39.282  31.317  32.574  1.00  0.00    -0.354 N 
ATOM     49  C   UNL A   1      39.301  33.036  36.484  1.00  0.00     0.074 A 
ATOM     50  C   UNL A   1      38.075  33.758  36.748  1.00  0.00     0.031 C 
ATOM     51  C   UNL A   1      38.488  30.828  30.545  1.00  0.00     0.029 A 
ATOM     52  C   UNL A   1      39.623  30.616  31.440  1.00  0.00     0.049 A 
ATOM     53  H   UNL A   1      39.827  31.315  33.394  1.00  0.00     0.167 HD
ATOM     54  C   UNL A   1      40.290  32.872  37.394  1.00  0.00     0.034 A 
ATOM     55  C   UNL A   1      40.737  29.915  31.135  1.00  0.00     0.034 A 
ATOM     56  C   UNL A   1      41.491  32.113  37.176  1.00  0.00     0.049 A 
ATOM     57  C   UNL A   1      41.854  29.802  32.141  1.00  0.00     0.074 A 
ATOM     58  C   UNL A   1      42.541  31.898  38.054  1.00  0.00     0.029 A 
ATOM     59  N   UNL A   1      41.807  31.446  36.005  1.00  0.00    -0.354 N 
ATOM     60  N   UNL A   1      41.896  30.218  33.383  1.00  0.00    -0.248 NA
ATOM     61  C   UNL A   1      43.079  29.113  31.701  1.00  0.00     0.031 C 
ATOM     62  C   UNL A   1      43.501  31.115  37.406  1.00  0.00     0.029 A 
ATOM     63  C   UNL A   1      43.041  30.829  36.132  1.00  0.00     0.049 A 
ATOM     64  H   UNL A   1      41.240  31.414  35.202  1.00  0.00     0.167 HD
ATOM     65  C   UNL A   1      43.140  29.832  33.875  1.00  0.00     0.074 A 
ATOM     66  C   UNL A   1      43.809  29.117  32.809  1.00  0.00     0.031 C 
ATOM     67  C   UNL A   1      43.688  30.073  35.091  1.00  0.00     0.034 A 
BRANCH  54  68
ATOM     68  C   UNL A   1      40.119  33.537  38.733  1.00  0.00     0.023 A 
ATOM     69  C   UNL A   1      39.579  32.813  39.813  1.00  0.00     0.012 A 
ATOM     70  C   UNL A   1      40.549  34.863  38.930  1.00  0.00     0.148 A 
ATOM     71  C   UNL A   1      39.449  33.408  41.067  1.00  0.00     0.002 A 
ATOM     72  C   UNL A   1      40.451  35.437  40.192  1.00  0.00     0.091 A 
ATOM     73  F   UNL A   1      41.034  35.542  37.880  1.00  0.00    -0.205 F 
ATOM     74  C   UNL A   1      39.895  34.715  41.259  1.00  0.00     0.022 A 
BRANCH  72  75
ATOM     75  S   UNL A   1      41.063  37.089  40.543  1.00  0.00     0.127 S 
ATOM     76  O   UNL A   1      42.495  36.932  40.291  1.00  0.00    -0.237 OA
ATOM     77  O   UNL A   1      40.355  37.900  39.552  1.00  0.00    -0.237 OA
ATOM     78  O   UNL A   1      40.693  37.364  41.924  1.00  0.00    -0.744 OA
ENDBRANCH  72  75
ENDBRANCH  54  68
BRANCH  55  79
ATOM     79  C   UNL A   1      40.867  29.274  29.794  1.00  0.00     0.023 A 
ATOM     80  C   UNL A   1      41.458  29.985  28.733  1.00  0.00     0.012 A 
ATOM     81  C   UNL A   1      40.411  27.960  29.568  1.00  0.00     0.148 A 
ATOM     82  C   UNL A   1      41.577  29.406  27.468  1.00  0.00     0.002 A 
ATOM     83  C   UNL A   1      40.588  27.368  28.324  1.00  0.00     0.091 A 
ATOM     84  F   UNL A   1      39.808  27.313  30.576  1.00  0.00    -0.205 F 
ATOM     85  C   UNL A   1      41.158  28.092  27.268  1.00  0.00     0.022 A 
BRANCH  83  86
ATOM     86  S   UNL A   1      40.192  25.640  28.031  1.00  0.00     0.127 S 
ATOM     87  O   UNL A   1      38.926  25.497  28.745  1.00  0.00    -0.237 OA
ATOM     88  O   UNL A   1      40.086  25.589  26.573  1.00  0.00    -0.237 OA
ATOM     89  O   UNL A   1      41.318  24.889  28.573  1.00  0.00    -0.744 OA
ENDBRANCH  83  86
ENDBRANCH  55  79
BRANCH  67  90
ATOM     90  C   UNL A   1      45.079  29.556  35.359  1.00  0.00     0.023 A 
ATOM     91  C   UNL A   1      46.188  30.381  35.085  1.00  0.00     0.012 A 
ATOM     92  C   UNL A   1      45.286  28.299  35.959  1.00  0.00     0.148 A 
ATOM     93  C   UNL A   1      47.483  29.951  35.378  1.00  0.00     0.002 A 
ATOM     94  C   UNL A   1      46.576  27.894  36.289  1.00  0.00     0.091 A 
ATOM     95  F   UNL A   1      44.221  27.518  36.197  1.00  0.00    -0.205 F 
ATOM     96  C   UNL A   1      47.676  28.715  35.990  1.00  0.00     0.022 A 
BRANCH  94  97
ATOM     97  S   UNL A   1      46.909  26.358  37.160  1.00  0.00     0.127 S 
ATOM     98  O   UNL A   1      46.164  26.550  38.402  1.00  0.00    -0.237 OA
ATOM     99  O   UNL A   1      46.340  25.355  36.257  1.00  0.00    -0.237 OA
ATOM    100  O   UNL A   1      48.357  26.287  37.300  1.00  0.00    -0.744 OA
ENDBRANCH  94  97
ENDBRANCH  67  90
ENDBRANCH  41  42
ENDBRANCH  34  36
ENDBRANCH  33  34
ENDBRANCH  32  33
ENDBRANCH  31  32
ENDBRANCH  30  31
ENDBRANCH  29  30
ENDBRANCH   1  29
TORSDOF 24
ENDMDL
MODEL 3
REMARK VINA RESULT:      -9.7      1.415      7.577
REMARK SMILES CC[C@@H](C)c1ccccc1NC(=O)[C@@H]1[C@@H](C(=O)OCCOCCOCCOC(=O)c2ccc(-c3c4nc(c(-c5cccc(S(=O)(=O)[O-])c5F)c5ccc([nH]5)c(-c5cccc(S(=O)(=O)[O-])c5F)c5nc(c(-c6cccc(S(=O)(=O)[O-])c6F)c6ccc3[nH]6)C=C5)C=C4)cc2)[C@@H]2C=C[C@H]1C2
REMARK SMILES IDX 22 1 21 2 20 3 19 4 18 5 16 6 17 7 15 8 14 9 96 10 93 11
REMARK SMILES IDX 95 12 97 13 94 14 12 15 11 16 13 18 10 19 5 20 6 21 7 22
REMARK SMILES IDX 9 23 8 24 3 25 4 26 2 27 1 28 23 29 24 30 25 31 26 32 27 33
REMARK SMILES IDX 28 34 29 35 30 36 31 37 92 38 32 39 91 40 33 41 34 42 35 43
REMARK SMILES IDX 85 44 36 45 90 46 84 47 86 48 37 49 89 50 83 51 82 52 38 54
REMARK SMILES IDX 70 55 50 56 69 57 51 58 54 59 68 60 87 61 52 62 53 63 67 65
REMARK SMILES IDX 88 66 55 67 39 68 40 69 48 70 41 71 43 72 49 73 42 74 44 75
REMARK SMILES IDX 45 76 46 77 47 78 71 79 72 80 80 81 73 82 75 83 81 84 74 85
REMARK SMILES IDX 76 86 77 87 78 88 79 89 56 90 57 91 65 92 58 93 60 94 66 95
REMARK SMILES IDX 59 96 61 97 62 98 63 99 64 100
REMARK H PARENT 11 17 86 53 54 64
REMARK Flexibility Score: inf
ROOT
ATOM      1  C   UNL A   1      35.235  32.921  27.992  1.00  0.00     0.188 C 
ENDROOT
BRANCH   1   2
ATOM      2  O   UNL A   1      34.795  31.784  27.259  1.00  0.00    -0.376 OA
BRANCH   2   3
ATOM      3  C   UNL A   1      34.887  30.490  27.823  1.00  0.00     0.202 C 
BRANCH   3   4
ATOM      4  C   UNL A   1      33.842  29.463  27.383  1.00  0.00     0.261 C 
BRANCH   4   5
ATOM      5  O   UNL A   1      34.393  28.391  26.606  1.00  0.00    -0.463 OA
BRANCH   5   6
ATOM      6  C   UNL A   1      33.772  28.134  25.419  1.00  0.00     0.310 C 
ATOM      7  O   UNL A   1      33.492  28.981  24.584  1.00  0.00    -0.252 OA
BRANCH   6   8
ATOM      8  C   UNL A   1      33.442  26.648  25.312  1.00  0.00     0.119 C 
ATOM      9  C   UNL A   1      32.961  26.230  23.897  1.00  0.00     0.100 C 
ATOM     10  C   UNL A   1      31.485  25.808  24.145  1.00  0.00     0.025 C 
ATOM     11  C   UNL A   1      32.190  26.363  26.194  1.00  0.00     0.027 C 
ATOM     12  C   UNL A   1      31.468  24.546  24.971  1.00  0.00    -0.027 C 
ATOM     13  C   UNL A   1      31.055  26.784  25.249  1.00  0.00     0.017 C 
ATOM     14  C   UNL A   1      31.882  24.878  26.204  1.00  0.00    -0.027 C 
BRANCH   9  15
ATOM     15  C   UNL A   1      33.654  25.276  22.915  1.00  0.00     0.228 C 
ATOM     16  N   UNL A   1      34.394  24.152  23.036  1.00  0.00    -0.326 N 
ATOM     17  H   UNL A   1      34.600  23.813  22.135  1.00  0.00     0.169 HD
ATOM     18  O   UNL A   1      33.458  25.553  21.711  1.00  0.00    -0.274 OA
BRANCH  16  19
ATOM     19  C   UNL A   1      34.978  23.290  23.983  1.00  0.00     0.044 A 
ATOM     20  C   UNL A   1      34.407  22.024  24.326  1.00  0.00    -0.022 A 
ATOM     21  C   UNL A   1      35.231  21.135  25.080  1.00  0.00     0.006 A 
ATOM     22  C   UNL A   1      36.503  21.469  25.534  1.00  0.00     0.000 A 
ATOM     23  C   UNL A   1      36.187  23.635  24.586  1.00  0.00     0.026 A 
ATOM     24  C   UNL A   1      36.962  22.747  25.329  1.00  0.00     0.002 A 
BRANCH  20  25
ATOM     25  C   UNL A   1      32.932  21.526  24.136  1.00  0.00     0.018 C 
ATOM     26  C   UNL A   1      32.556  20.370  25.102  1.00  0.00     0.013 C 
BRANCH  25  27
ATOM     27  C   UNL A   1      32.387  21.253  22.712  1.00  0.00     0.005 C 
ATOM     28  C   UNL A   1      32.140  19.787  22.363  1.00  0.00     0.004 C 
ENDBRANCH  25  27
ENDBRANCH  20  25
ENDBRANCH  16  19
ENDBRANCH   9  15
ENDBRANCH   6   8
ENDBRANCH   5   6
ENDBRANCH   4   5
ENDBRANCH   3   4
ENDBRANCH   2   3
ENDBRANCH   1   2
BRANCH   1  29
ATOM     29  C   UNL A   1      34.951  33.069  29.504  1.00  0.00     0.188 C 
BRANCH  29  30
ATOM     30  O   UNL A   1      33.645  33.533  29.823  1.00  0.00    -0.376 OA
BRANCH  30  31
ATOM     31  C   UNL A   1      33.242  34.721  29.154  1.00  0.00     0.202 C 
BRANCH  31  32
ATOM     32  C   UNL A   1      32.900  35.869  30.104  1.00  0.00     0.261 C 
BRANCH  32  33
ATOM     33  O   UNL A   1      32.401  35.414  31.372  1.00  0.00    -0.460 OA
BRANCH  33  34
ATOM     34  C   UNL A   1      33.062  35.816  32.478  1.00  0.00     0.338 C 
ATOM     35  O   UNL A   1      32.734  36.688  33.258  1.00  0.00    -0.246 OA
BRANCH  34  36
ATOM     36  C   UNL A   1      34.276  34.985  32.598  1.00  0.00     0.060 A 
ATOM     37  C   UNL A   1      34.193  33.736  33.210  1.00  0.00     0.016 A 
ATOM     38  C   UNL A   1      35.506  35.458  32.139  1.00  0.00     0.016 A 
ATOM     39  C   UNL A   1      35.348  32.974  33.388  1.00  0.00     0.010 A 
ATOM     40  C   UNL A   1      36.665  34.692  32.338  1.00  0.00     0.010 A 
ATOM     41  C   UNL A   1      36.607  33.463  33.018  1.00  0.00    -0.014 A 
BRANCH  41  42
ATOM     42  C   UNL A   1      37.846  32.778  33.500  1.00  0.00     0.031 A 
ATOM     43  C   UNL A   1      38.446  31.660  32.677  1.00  0.00     0.074 A 
ATOM     44  C   UNL A   1      38.504  33.181  34.606  1.00  0.00     0.049 A 
ATOM     45  N   UNL A   1      39.469  30.887  32.944  1.00  0.00    -0.248 NA
ATOM     46  C   UNL A   1      37.823  31.391  31.370  1.00  0.00     0.031 C 
ATOM     47  C   UNL A   1      38.116  34.299  35.464  1.00  0.00     0.029 A 
ATOM     48  N   UNL A   1      39.650  32.692  35.193  1.00  0.00    -0.354 N 
ATOM     49  C   UNL A   1      39.570  30.002  31.877  1.00  0.00     0.074 A 
ATOM     50  C   UNL A   1      38.520  30.348  30.943  1.00  0.00     0.031 C 
ATOM     51  C   UNL A   1      39.010  34.416  36.460  1.00  0.00     0.029 A 
ATOM     52  C   UNL A   1      39.994  33.341  36.356  1.00  0.00     0.049 A 
ATOM     53  H   UNL A   1      40.173  31.949  34.815  1.00  0.00     0.167 HD
ATOM     54  C   UNL A   1      40.454  28.996  31.677  1.00  0.00     0.034 A 
ATOM     55  C   UNL A   1      40.963  33.080  37.261  1.00  0.00     0.034 A 
ATOM     56  C   UNL A   1      41.540  28.668  32.560  1.00  0.00     0.049 A 
ATOM     57  C   UNL A   1      41.895  31.914  37.051  1.00  0.00     0.074 A 
ATOM     58  C   UNL A   1      42.483  27.662  32.424  1.00  0.00     0.029 A 
ATOM     59  N   UNL A   1      41.833  29.332  33.739  1.00  0.00    -0.354 N 
ATOM     60  N   UNL A   1      41.993  31.106  36.024  1.00  0.00    -0.248 NA
ATOM     61  C   UNL A   1      42.857  31.627  38.129  1.00  0.00     0.031 C 
ATOM     62  C   UNL A   1      43.335  27.706  33.532  1.00  0.00     0.029 A 
ATOM     63  C   UNL A   1      42.933  28.750  34.347  1.00  0.00     0.049 A 
ATOM     64  H   UNL A   1      41.333  30.102  34.092  1.00  0.00     0.167 HD
ATOM     65  C   UNL A   1      43.032  30.228  36.324  1.00  0.00     0.074 A 
ATOM     66  C   UNL A   1      43.555  30.623  37.614  1.00  0.00     0.031 C 
ATOM     67  C   UNL A   1      43.490  29.173  35.606  1.00  0.00     0.034 A 
BRANCH  54  68
ATOM     68  C   UNL A   1      40.285  28.158  30.439  1.00  0.00     0.023 A 
ATOM     69  C   UNL A   1      39.257  27.197  30.377  1.00  0.00     0.012 A 
ATOM     70  C   UNL A   1      41.111  28.365  29.319  1.00  0.00     0.148 A 
ATOM     71  C   UNL A   1      39.068  26.439  29.222  1.00  0.00     0.002 A 
ATOM     72  C   UNL A   1      40.894  27.633  28.158  1.00  0.00     0.091 A 
ATOM     73  F   UNL A   1      42.102  29.265  29.411  1.00  0.00    -0.205 F 
ATOM     74  C   UNL A   1      39.879  26.664  28.111  1.00  0.00     0.022 A 
BRANCH  72  75
ATOM     75  S   UNL A   1      41.846  27.906  26.660  1.00  0.00     0.127 S 
ATOM     76  O   UNL A   1      41.656  29.340  26.448  1.00  0.00    -0.237 OA
ATOM     77  O   UNL A   1      43.196  27.525  27.075  1.00  0.00    -0.237 OA
ATOM     78  O   UNL A   1      41.256  27.037  25.651  1.00  0.00    -0.744 OA
ENDBRANCH  72  75
ENDBRANCH  54  68
BRANCH  55  79
ATOM     79  C   UNL A   1      41.094  33.935  38.477  1.00  0.00     0.023 A 
ATOM     80  C   UNL A   1      42.042  34.974  38.502  1.00  0.00     0.012 A 
ATOM     81  C   UNL A   1      40.279  33.723  39.607  1.00  0.00     0.148 A 
ATOM     82  C   UNL A   1      42.187  35.776  39.636  1.00  0.00     0.002 A 
ATOM     83  C   UNL A   1      40.386  34.564  40.707  1.00  0.00     0.091 A 
ATOM     84  F   UNL A   1      39.412  32.700  39.585  1.00  0.00    -0.205 F 
ATOM     85  C   UNL A   1      41.349  35.583  40.731  1.00  0.00     0.022 A 
BRANCH  83  86
ATOM     86  S   UNL A   1      39.252  34.456  42.097  1.00  0.00     0.127 S 
ATOM     87  O   UNL A   1      39.614  33.167  42.680  1.00  0.00    -0.237 OA
ATOM     88  O   UNL A   1      39.630  35.622  42.896  1.00  0.00    -0.237 OA
ATOM     89  O   UNL A   1      37.919  34.541  41.515  1.00  0.00    -0.744 OA
ENDBRANCH  83  86
ENDBRANCH  55  79
BRANCH  67  90
ATOM     90  C   UNL A   1      44.624  28.363  36.180  1.00  0.00     0.023 A 
ATOM     91  C   UNL A   1      44.337  27.248  36.992  1.00  0.00     0.012 A 
ATOM     92  C   UNL A   1      45.964  28.648  35.849  1.00  0.00     0.148 A 
ATOM     93  C   UNL A   1      45.366  26.446  37.488  1.00  0.00     0.002 A 
ATOM     94  C   UNL A   1      46.981  27.819  36.311  1.00  0.00     0.091 A 
ATOM     95  F   UNL A   1      46.221  29.723  35.090  1.00  0.00    -0.205 F 
ATOM     96  C   UNL A   1      46.685  26.723  37.138  1.00  0.00     0.022 A 
BRANCH  94  97
ATOM     97  S   UNL A   1      48.700  28.049  35.835  1.00  0.00     0.127 S 
ATOM     98  O   UNL A   1      48.670  27.692  34.419  1.00  0.00    -0.237 OA
ATOM     99  O   UNL A   1      48.910  29.474  36.100  1.00  0.00    -0.237 OA
ATOM    100  O   UNL A   1      49.471  27.159  36.692  1.00  0.00    -0.744 OA
ENDBRANCH  94  97
ENDBRANCH  67  90
ENDBRANCH  41  42
ENDBRANCH  34  36
ENDBRANCH  33  34
ENDBRANCH  32  33
ENDBRANCH  31  32
ENDBRANCH  30  31
ENDBRANCH  29  30
ENDBRANCH   1  29
TORSDOF 24
ENDMDL
