MODEL 1
REMARK VINA RESULT:     -10.2      0.000      0.000
REMARK SMILES O=C(OCCOCCOCCOC(=O)c1ccc(NS(=O)(=O)c2ccc3c(c2)CCC3)cc1Cl)c1ccc(-c2c3nc(c(-c4cccc(S(=O)(=O)[O-])c4F)c4ccc([nH]4)c(-c4cccc(S(=O)(=O)[O-])c4F)c4nc(c(-c5cccc(S(=O)(=O)[O-])c5F)c5ccc2[nH]5)C=C4)C=C3)cc1
REMARK SMILES IDX 7 1 6 2 5 3 4 4 3 5 2 6 1 7 35 8 36 9 97 10 37 11 96 12
REMARK SMILES IDX 38 13 39 14 40 15 90 16 41 17 95 18 89 19 91 20 42 21 94 22
REMARK SMILES IDX 88 23 87 24 43 26 75 27 55 28 74 29 56 30 59 31 73 32 92 33
REMARK SMILES IDX 57 34 58 35 72 37 93 38 60 39 44 40 45 41 53 42 46 43 48 44
REMARK SMILES IDX 54 45 47 46 49 47 50 48 51 49 52 50 76 51 77 52 85 53 78 54
REMARK SMILES IDX 80 55 86 56 79 57 81 58 82 59 83 60 84 61 61 62 62 63 70 64
REMARK SMILES IDX 63 65 65 66 71 67 64 68 66 69 67 70 68 71 69 72 8 73 9 74
REMARK SMILES IDX 10 75 11 76 12 77 13 78 14 79 15 80 16 81 33 82 17 83 32 84
REMARK SMILES IDX 34 85 18 86 19 87 20 89 21 90 22 91 23 92 24 93 28 94 25 95
REMARK SMILES IDX 27 96 26 97 29 98 31 99 30 100
REMARK H PARENT 91 25 59 36 19 88
REMARK Flexibility Score: inf
ROOT
ATOM      1  C   UNL A   1      34.796  32.797  29.447  1.00  0.00     0.188 C 
ENDROOT
BRANCH   1   2
ATOM      2  O   UNL A   1      33.883  33.465  28.567  1.00  0.00    -0.376 OA
BRANCH   2   3
ATOM      3  C   UNL A   1      34.161  34.860  28.389  1.00  0.00     0.202 C 
BRANCH   3   4
ATOM      4  C   UNL A   1      33.226  35.841  29.120  1.00  0.00     0.261 C 
BRANCH   4   5
ATOM      5  O   UNL A   1      32.559  35.277  30.257  1.00  0.00    -0.460 OA
BRANCH   5   6
ATOM      6  C   UNL A   1      32.836  35.451  31.574  1.00  0.00     0.338 C 
ATOM      7  O   UNL A   1      32.065  36.155  32.225  1.00  0.00    -0.246 OA
BRANCH   6   8
ATOM      8  C   UNL A   1      34.054  34.904  32.267  1.00  0.00     0.060 A 
ATOM      9  C   UNL A   1      35.380  35.241  31.984  1.00  0.00     0.016 A 
ATOM     10  C   UNL A   1      33.835  33.992  33.315  1.00  0.00     0.016 A 
ATOM     11  C   UNL A   1      36.453  34.645  32.637  1.00  0.00     0.010 A 
ATOM     12  C   UNL A   1      34.904  33.403  33.998  1.00  0.00     0.010 A 
ATOM     13  C   UNL A   1      36.221  33.693  33.619  1.00  0.00    -0.014 A 
BRANCH  13  14
ATOM     14  C   UNL A   1      37.336  32.836  34.062  1.00  0.00     0.031 A 
ATOM     15  C   UNL A   1      38.109  33.283  35.264  1.00  0.00     0.074 A 
ATOM     16  C   UNL A   1      37.615  31.668  33.464  1.00  0.00     0.049 A 
ATOM     17  N   UNL A   1      39.189  32.778  35.787  1.00  0.00    -0.248 NA
ATOM     18  C   UNL A   1      37.556  34.433  36.005  1.00  0.00     0.031 C 
ATOM     19  C   UNL A   1      36.811  31.044  32.422  1.00  0.00     0.029 A 
ATOM     20  N   UNL A   1      38.684  30.822  33.608  1.00  0.00    -0.354 N 
ATOM     21  C   UNL A   1      39.459  33.556  36.902  1.00  0.00     0.074 A 
ATOM     22  C   UNL A   1      38.440  34.576  36.978  1.00  0.00     0.031 C 
ATOM     23  C   UNL A   1      37.482  30.003  31.907  1.00  0.00     0.029 A 
ATOM     24  C   UNL A   1      38.761  29.895  32.594  1.00  0.00     0.049 A 
ATOM     25  H   UNL A   1      39.323  30.871  34.355  1.00  0.00     0.167 HD
ATOM     26  C   UNL A   1      40.465  33.412  37.792  1.00  0.00     0.034 A 
ATOM     27  C   UNL A   1      39.776  29.090  32.232  1.00  0.00     0.034 A 
ATOM     28  C   UNL A   1      41.470  32.395  37.673  1.00  0.00     0.049 A 
ATOM     29  C   UNL A   1      40.980  29.048  33.125  1.00  0.00     0.074 A 
ATOM     30  C   UNL A   1      42.543  32.140  38.502  1.00  0.00     0.029 A 
ATOM     31  N   UNL A   1      41.533  31.480  36.630  1.00  0.00    -0.354 N 
ATOM     32  N   UNL A   1      41.212  29.746  34.212  1.00  0.00    -0.248 NA
ATOM     33  C   UNL A   1      42.025  28.071  32.800  1.00  0.00     0.031 C 
ATOM     34  C   UNL A   1      43.279  31.093  37.937  1.00  0.00     0.029 A 
ATOM     35  C   UNL A   1      42.640  30.667  36.780  1.00  0.00     0.049 A 
ATOM     36  H   UNL A   1      40.884  31.418  35.892  1.00  0.00     0.167 HD
ATOM     37  C   UNL A   1      42.391  29.246  34.743  1.00  0.00     0.074 A 
ATOM     38  C   UNL A   1      42.840  28.203  33.840  1.00  0.00     0.031 C 
ATOM     39  C   UNL A   1      43.027  29.603  35.886  1.00  0.00     0.034 A 
BRANCH  26  40
ATOM     40  C   UNL A   1      40.517  34.402  38.921  1.00  0.00     0.023 A 
ATOM     41  C   UNL A   1      41.473  35.440  38.909  1.00  0.00     0.012 A 
ATOM     42  C   UNL A   1      39.654  34.268  40.024  1.00  0.00     0.148 A 
ATOM     43  C   UNL A   1      41.603  36.297  40.002  1.00  0.00     0.002 A 
ATOM     44  C   UNL A   1      39.761  35.152  41.090  1.00  0.00     0.091 A 
ATOM     45  F   UNL A   1      38.778  33.254  40.033  1.00  0.00    -0.205 F 
ATOM     46  C   UNL A   1      40.744  36.156  41.089  1.00  0.00     0.022 A 
BRANCH  44  47
ATOM     47  S   UNL A   1      38.663  35.083  42.508  1.00  0.00     0.127 S 
ATOM     48  O   UNL A   1      39.056  33.817  43.124  1.00  0.00    -0.237 OA
ATOM     49  O   UNL A   1      39.057  36.275  43.260  1.00  0.00    -0.237 OA
ATOM     50  O   UNL A   1      37.311  35.129  41.970  1.00  0.00    -0.744 OA
ENDBRANCH  44  47
ENDBRANCH  26  40
BRANCH  27  51
ATOM     51  C   UNL A   1      39.654  28.266  30.999  1.00  0.00     0.023 A 
ATOM     52  C   UNL A   1      38.832  27.125  30.990  1.00  0.00     0.012 A 
ATOM     53  C   UNL A   1      40.276  28.670  29.800  1.00  0.00     0.148 A 
ATOM     54  C   UNL A   1      38.644  26.394  29.814  1.00  0.00     0.002 A 
ATOM     55  C   UNL A   1      40.046  27.965  28.622  1.00  0.00     0.091 A 
ATOM     56  F   UNL A   1      41.064  29.754  29.817  1.00  0.00    -0.205 F 
ATOM     57  C   UNL A   1      39.240  26.819  28.628  1.00  0.00     0.022 A 
BRANCH  55  58
ATOM     58  S   UNL A   1      40.649  28.571  27.041  1.00  0.00     0.127 S 
ATOM     59  O   UNL A   1      39.635  29.553  26.677  1.00  0.00    -0.237 OA
ATOM     60  O   UNL A   1      41.956  29.125  27.395  1.00  0.00    -0.237 OA
ATOM     61  O   UNL A   1      40.739  27.382  26.196  1.00  0.00    -0.744 OA
ENDBRANCH  55  58
ENDBRANCH  27  51
BRANCH  39  62
ATOM     62  C   UNL A   1      44.239  28.810  36.279  1.00  0.00     0.023 A 
ATOM     63  C   UNL A   1      45.523  29.245  35.903  1.00  0.00     0.012 A 
ATOM     64  C   UNL A   1      44.095  27.703  37.137  1.00  0.00     0.148 A 
ATOM     65  C   UNL A   1      46.652  28.578  36.371  1.00  0.00     0.002 A 
ATOM     66  C   UNL A   1      45.224  27.078  37.643  1.00  0.00     0.091 A 
ATOM     67  F   UNL A   1      42.857  27.301  37.458  1.00  0.00    -0.205 F 
ATOM     68  C   UNL A   1      46.504  27.508  37.253  1.00  0.00     0.022 A 
BRANCH  66  69
ATOM     69  S   UNL A   1      45.129  25.773  38.870  1.00  0.00     0.127 S 
ATOM     70  O   UNL A   1      46.519  25.679  39.315  1.00  0.00    -0.237 OA
ATOM     71  O   UNL A   1      44.210  26.344  39.855  1.00  0.00    -0.237 OA
ATOM     72  O   UNL A   1      44.619  24.599  38.176  1.00  0.00    -0.744 OA
ENDBRANCH  66  69
ENDBRANCH  39  62
ENDBRANCH  13  14
ENDBRANCH   6   8
ENDBRANCH   5   6
ENDBRANCH   4   5
ENDBRANCH   3   4
ENDBRANCH   2   3
ENDBRANCH   1   2
BRANCH   1  73
ATOM     73  C   UNL A   1      35.439  31.558  28.823  1.00  0.00     0.188 C 
BRANCH  73  74
ATOM     74  O   UNL A   1      35.114  31.300  27.460  1.00  0.00    -0.376 OA
BRANCH  74  75
ATOM     75  C   UNL A   1      34.064  30.372  27.221  1.00  0.00     0.202 C 
BRANCH  75  76
ATOM     76  C   UNL A   1      34.438  28.918  26.891  1.00  0.00     0.261 C 
BRANCH  76  77
ATOM     77  O   UNL A   1      34.539  28.583  25.494  1.00  0.00    -0.460 OA
BRANCH  77  78
ATOM     78  C   UNL A   1      33.531  27.791  25.039  1.00  0.00     0.339 C 
ATOM     79  O   UNL A   1      32.759  28.079  24.137  1.00  0.00    -0.246 OA
BRANCH  78  80
ATOM     80  C   UNL A   1      33.482  26.478  25.728  1.00  0.00     0.078 A 
ATOM     81  C   UNL A   1      34.465  25.514  25.487  1.00  0.00     0.019 A 
ATOM     82  C   UNL A   1      32.354  26.121  26.476  1.00  0.00     0.057 A 
ATOM     83  C   UNL A   1      34.264  24.186  25.899  1.00  0.00     0.028 A 
ATOM     84  C   UNL A   1      32.139  24.782  26.831  1.00  0.00     0.048 A 
ATOM     85  Cl  UNL A   1      31.193  27.283  27.017  1.00  0.00    -0.083 Cl
ATOM     86  C   UNL A   1      33.069  23.790  26.508  1.00  0.00     0.050 A 
BRANCH  86  87
ATOM     87  N   UNL A   1      32.614  22.435  26.576  1.00  0.00    -0.280 N 
ATOM     88  H   UNL A   1      32.912  21.909  27.352  1.00  0.00     0.180 HD
BRANCH  87  89
ATOM     89  S   UNL A   1      31.628  21.652  25.472  1.00  0.00     0.261 S 
ATOM     90  O   UNL A   1      32.189  20.351  25.174  1.00  0.00    -0.201 OA
ATOM     91  O   UNL A   1      30.249  21.818  25.884  1.00  0.00    -0.201 OA
BRANCH  89  92
ATOM     92  C   UNL A   1      31.741  22.576  23.938  1.00  0.00     0.088 A 
ATOM     93  C   UNL A   1      32.862  22.303  23.126  1.00  0.00     0.022 A 
ATOM     94  C   UNL A   1      30.929  23.685  23.697  1.00  0.00     0.026 A 
ATOM     95  C   UNL A   1      33.231  23.186  22.112  1.00  0.00     0.005 A 
ATOM     96  C   UNL A   1      31.377  24.608  22.766  1.00  0.00    -0.043 A 
ATOM     97  C   UNL A   1      32.501  24.355  21.972  1.00  0.00    -0.045 A 
ATOM     98  C   UNL A   1      30.931  26.027  22.617  1.00  0.00     0.036 C 
ATOM     99  C   UNL A   1      32.836  25.540  21.123  1.00  0.00     0.036 C 
ATOM    100  C   UNL A   1      31.585  26.416  21.288  1.00  0.00     0.010 C 
ENDBRANCH  89  92
ENDBRANCH  87  89
ENDBRANCH  86  87
ENDBRANCH  78  80
ENDBRANCH  77  78
ENDBRANCH  76  77
ENDBRANCH  75  76
ENDBRANCH  74  75
ENDBRANCH  73  74
ENDBRANCH   1  73
TORSDOF 23
ENDMDL
MODEL 2
REMARK VINA RESULT:     -10.0      2.119      7.806
REMARK SMILES O=C(OCCOCCOCCOC(=O)c1ccc(NS(=O)(=O)c2ccc3c(c2)CCC3)cc1Cl)c1ccc(-c2c3nc(c(-c4cccc(S(=O)(=O)[O-])c4F)c4ccc([nH]4)c(-c4cccc(S(=O)(=O)[O-])c4F)c4nc(c(-c5cccc(S(=O)(=O)[O-])c5F)c5ccc2[nH]5)C=C4)C=C3)cc1
REMARK SMILES IDX 7 1 6 2 5 3 4 4 3 5 2 6 1 7 35 8 36 9 97 10 37 11 96 12
REMARK SMILES IDX 38 13 39 14 40 15 90 16 41 17 95 18 89 19 91 20 42 21 94 22
REMARK SMILES IDX 88 23 87 24 43 26 75 27 55 28 74 29 56 30 59 31 73 32 92 33
REMARK SMILES IDX 57 34 58 35 72 37 93 38 60 39 44 40 45 41 53 42 46 43 48 44
REMARK SMILES IDX 54 45 47 46 49 47 50 48 51 49 52 50 76 51 77 52 85 53 78 54
REMARK SMILES IDX 80 55 86 56 79 57 81 58 82 59 83 60 84 61 61 62 62 63 70 64
REMARK SMILES IDX 63 65 65 66 71 67 64 68 66 69 67 70 68 71 69 72 8 73 9 74
REMARK SMILES IDX 10 75 11 76 12 77 13 78 14 79 15 80 16 81 33 82 17 83 32 84
REMARK SMILES IDX 34 85 18 86 19 87 20 89 21 90 22 91 23 92 24 93 28 94 25 95
REMARK SMILES IDX 27 96 26 97 29 98 31 99 30 100
REMARK H PARENT 91 25 59 36 19 88
REMARK Flexibility Score: inf
ROOT
ATOM      1  C   UNL A   1      34.238  31.967  28.459  1.00  0.00     0.188 C 
ENDROOT
BRANCH   1   2
ATOM      2  O   UNL A   1      34.283  33.274  27.872  1.00  0.00    -0.376 OA
BRANCH   2   3
ATOM      3  C   UNL A   1      33.054  34.003  27.981  1.00  0.00     0.202 C 
BRANCH   3   4
ATOM      4  C   UNL A   1      33.093  35.283  28.836  1.00  0.00     0.261 C 
BRANCH   4   5
ATOM      5  O   UNL A   1      32.553  35.122  30.156  1.00  0.00    -0.460 OA
BRANCH   5   6
ATOM      6  C   UNL A   1      33.217  35.018  31.335  1.00  0.00     0.338 C 
ATOM      7  O   UNL A   1      32.824  35.718  32.267  1.00  0.00    -0.246 OA
BRANCH   6   8
ATOM      8  C   UNL A   1      34.435  34.164  31.553  1.00  0.00     0.060 A 
ATOM      9  C   UNL A   1      34.505  33.026  32.362  1.00  0.00     0.016 A 
ATOM     10  C   UNL A   1      35.602  34.528  30.857  1.00  0.00     0.016 A 
ATOM     11  C   UNL A   1      35.690  32.324  32.554  1.00  0.00     0.010 A 
ATOM     12  C   UNL A   1      36.795  33.815  31.020  1.00  0.00     0.010 A 
ATOM     13  C   UNL A   1      36.850  32.739  31.916  1.00  0.00    -0.014 A 
BRANCH  13  14
ATOM     14  C   UNL A   1      38.148  32.209  32.374  1.00  0.00     0.031 A 
ATOM     15  C   UNL A   1      38.754  31.097  31.577  1.00  0.00     0.074 A 
ATOM     16  C   UNL A   1      38.800  32.738  33.421  1.00  0.00     0.049 A 
ATOM     17  N   UNL A   1      39.818  30.388  31.825  1.00  0.00    -0.248 NA
ATOM     18  C   UNL A   1      38.094  30.773  30.299  1.00  0.00     0.031 C 
ATOM     19  C   UNL A   1      38.402  33.941  34.140  1.00  0.00     0.029 A 
ATOM     20  N   UNL A   1      39.909  32.300  34.097  1.00  0.00    -0.354 N 
ATOM     21  C   UNL A   1      39.945  29.523  30.749  1.00  0.00     0.074 A 
ATOM     22  C   UNL A   1      38.845  29.781  29.850  1.00  0.00     0.031 C 
ATOM     23  C   UNL A   1      39.149  34.063  35.247  1.00  0.00     0.029 A 
ATOM     24  C   UNL A   1      40.078  32.944  35.302  1.00  0.00     0.049 A 
ATOM     25  H   UNL A   1      40.516  31.604  33.759  1.00  0.00     0.167 HD
ATOM     26  C   UNL A   1      40.911  28.604  30.531  1.00  0.00     0.034 A 
ATOM     27  C   UNL A   1      40.858  32.628  36.351  1.00  0.00     0.034 A 
ATOM     28  C   UNL A   1      41.980  28.364  31.456  1.00  0.00     0.049 A 
ATOM     29  C   UNL A   1      41.823  31.492  36.179  1.00  0.00     0.074 A 
ATOM     30  C   UNL A   1      43.021  27.464  31.358  1.00  0.00     0.029 A 
ATOM     31  N   UNL A   1      42.120  29.019  32.673  1.00  0.00    -0.354 N 
ATOM     32  N   UNL A   1      41.980  30.706  35.140  1.00  0.00    -0.248 NA
ATOM     33  C   UNL A   1      42.764  31.238  37.276  1.00  0.00     0.031 C 
ATOM     34  C   UNL A   1      43.770  27.548  32.536  1.00  0.00     0.029 A 
ATOM     35  C   UNL A   1      43.220  28.530  33.349  1.00  0.00     0.049 A 
ATOM     36  H   UNL A   1      41.523  29.728  33.005  1.00  0.00     0.167 HD
ATOM     37  C   UNL A   1      43.080  29.913  35.422  1.00  0.00     0.074 A 
ATOM     38  C   UNL A   1      43.535  30.296  36.747  1.00  0.00     0.031 C 
ATOM     39  C   UNL A   1      43.673  28.973  34.647  1.00  0.00     0.034 A 
BRANCH  26  40
ATOM     40  C   UNL A   1      40.805  27.798  29.267  1.00  0.00     0.023 A 
ATOM     41  C   UNL A   1      39.907  26.712  29.193  1.00  0.00     0.012 A 
ATOM     42  C   UNL A   1      41.638  28.082  28.169  1.00  0.00     0.148 A 
ATOM     43  C   UNL A   1      39.879  25.890  28.067  1.00  0.00     0.002 A 
ATOM     44  C   UNL A   1      41.574  27.285  27.034  1.00  0.00     0.091 A 
ATOM     45  F   UNL A   1      42.509  29.096  28.272  1.00  0.00    -0.205 F 
ATOM     46  C   UNL A   1      40.708  26.180  26.986  1.00  0.00     0.022 A 
BRANCH  44  47
ATOM     47  S   UNL A   1      42.563  27.614  25.573  1.00  0.00     0.127 S 
ATOM     48  O   UNL A   1      41.987  28.874  25.105  1.00  0.00    -0.237 OA
ATOM     49  O   UNL A   1      43.910  27.730  26.132  1.00  0.00    -0.237 OA
ATOM     50  O   UNL A   1      42.370  26.470  24.694  1.00  0.00    -0.744 OA
ENDBRANCH  44  47
ENDBRANCH  26  40
BRANCH  27  51
ATOM     51  C   UNL A   1      40.757  33.422  37.605  1.00  0.00     0.023 A 
ATOM     52  C   UNL A   1      41.589  34.538  37.804  1.00  0.00     0.012 A 
ATOM     53  C   UNL A   1      39.764  33.130  38.563  1.00  0.00     0.148 A 
ATOM     54  C   UNL A   1      41.443  35.340  38.939  1.00  0.00     0.002 A 
ATOM     55  C   UNL A   1      39.592  33.959  39.666  1.00  0.00     0.091 A 
ATOM     56  F   UNL A   1      38.980  32.060  38.371  1.00  0.00    -0.205 F 
ATOM     57  C   UNL A   1      40.438  35.060  39.864  1.00  0.00     0.022 A 
BRANCH  55  58
ATOM     58  S   UNL A   1      38.207  33.741  40.790  1.00  0.00     0.127 S 
ATOM     59  O   UNL A   1      38.064  35.071  41.370  1.00  0.00    -0.237 OA
ATOM     60  O   UNL A   1      37.131  33.335  39.886  1.00  0.00    -0.237 OA
ATOM     61  O   UNL A   1      38.628  32.675  41.697  1.00  0.00    -0.744 OA
ENDBRANCH  55  58
ENDBRANCH  27  51
BRANCH  39  62
ATOM     62  C   UNL A   1      44.930  28.339  35.165  1.00  0.00     0.023 A 
ATOM     63  C   UNL A   1      44.870  27.136  35.891  1.00  0.00     0.012 A 
ATOM     64  C   UNL A   1      46.179  28.884  34.810  1.00  0.00     0.148 A 
ATOM     65  C   UNL A   1      46.044  26.486  36.265  1.00  0.00     0.002 A 
ATOM     66  C   UNL A   1      47.341  28.203  35.137  1.00  0.00     0.091 A 
ATOM     67  F   UNL A   1      46.201  30.045  34.137  1.00  0.00    -0.205 F 
ATOM     68  C   UNL A   1      47.276  27.009  35.874  1.00  0.00     0.022 A 
BRANCH  66  69
ATOM     69  S   UNL A   1      48.958  28.741  34.576  1.00  0.00     0.127 S 
ATOM     70  O   UNL A   1      49.167  29.945  35.379  1.00  0.00    -0.237 OA
ATOM     71  O   UNL A   1      49.804  27.606  34.945  1.00  0.00    -0.237 OA
ATOM     72  O   UNL A   1      48.837  28.965  33.142  1.00  0.00    -0.744 OA
ENDBRANCH  66  69
ENDBRANCH  39  62
ENDBRANCH  13  14
ENDBRANCH   6   8
ENDBRANCH   5   6
ENDBRANCH   4   5
ENDBRANCH   3   4
ENDBRANCH   2   3
ENDBRANCH   1   2
BRANCH   1  73
ATOM     73  C   UNL A   1      33.590  30.920  27.551  1.00  0.00     0.188 C 
BRANCH  73  74
ATOM     74  O   UNL A   1      34.282  29.681  27.428  1.00  0.00    -0.376 OA
BRANCH  74  75
ATOM     75  C   UNL A   1      33.489  28.532  27.160  1.00  0.00     0.202 C 
BRANCH  75  76
ATOM     76  C   UNL A   1      31.959  28.682  27.182  1.00  0.00     0.261 C 
BRANCH  76  77
ATOM     77  O   UNL A   1      31.194  27.463  27.135  1.00  0.00    -0.460 OA
BRANCH  77  78
ATOM     78  C   UNL A   1      31.499  26.657  26.082  1.00  0.00     0.339 C 
ATOM     79  O   UNL A   1      31.540  27.008  24.913  1.00  0.00    -0.246 OA
BRANCH  78  80
ATOM     80  C   UNL A   1      31.838  25.275  26.501  1.00  0.00     0.078 A 
ATOM     81  C   UNL A   1      33.174  24.878  26.619  1.00  0.00     0.019 A 
ATOM     82  C   UNL A   1      30.834  24.305  26.597  1.00  0.00     0.057 A 
ATOM     83  C   UNL A   1      33.495  23.514  26.723  1.00  0.00     0.028 A 
ATOM     84  C   UNL A   1      31.169  22.945  26.643  1.00  0.00     0.048 A 
ATOM     85  Cl  UNL A   1      29.156  24.713  26.686  1.00  0.00    -0.083 Cl
ATOM     86  C   UNL A   1      32.504  22.530  26.661  1.00  0.00     0.050 A 
BRANCH  86  87
ATOM     87  N   UNL A   1      32.755  21.157  26.342  1.00  0.00    -0.280 N 
ATOM     88  H   UNL A   1      32.676  20.512  27.081  1.00  0.00     0.180 HD
BRANCH  87  89
ATOM     89  S   UNL A   1      33.171  20.536  24.843  1.00  0.00     0.261 S 
ATOM     90  O   UNL A   1      34.493  19.951  24.923  1.00  0.00    -0.201 OA
ATOM     91  O   UNL A   1      32.038  19.805  24.315  1.00  0.00    -0.201 OA
BRANCH  89  92
ATOM     92  C   UNL A   1      33.343  21.938  23.738  1.00  0.00     0.088 A 
ATOM     93  C   UNL A   1      34.619  22.539  23.684  1.00  0.00     0.022 A 
ATOM     94  C   UNL A   1      32.227  22.565  23.181  1.00  0.00     0.026 A 
ATOM     95  C   UNL A   1      34.776  23.815  23.144  1.00  0.00     0.005 A 
ATOM     96  C   UNL A   1      32.381  23.875  22.758  1.00  0.00    -0.043 A 
ATOM     97  C   UNL A   1      33.640  24.486  22.723  1.00  0.00    -0.045 A 
ATOM     98  C   UNL A   1      31.298  24.876  22.512  1.00  0.00     0.036 C 
ATOM     99  C   UNL A   1      33.527  25.923  22.327  1.00  0.00     0.036 C 
ATOM    100  C   UNL A   1      32.076  26.007  21.831  1.00  0.00     0.010 C 
ENDBRANCH  89  92
ENDBRANCH  87  89
ENDBRANCH  86  87
ENDBRANCH  78  80
ENDBRANCH  77  78
ENDBRANCH  76  77
ENDBRANCH  75  76
ENDBRANCH  74  75
ENDBRANCH  73  74
ENDBRANCH   1  73
TORSDOF 23
ENDMDL
MODEL 3
REMARK VINA RESULT:      -9.6      1.605      2.065
REMARK SMILES O=C(OCCOCCOCCOC(=O)c1ccc(NS(=O)(=O)c2ccc3c(c2)CCC3)cc1Cl)c1ccc(-c2c3nc(c(-c4cccc(S(=O)(=O)[O-])c4F)c4ccc([nH]4)c(-c4cccc(S(=O)(=O)[O-])c4F)c4nc(c(-c5cccc(S(=O)(=O)[O-])c5F)c5ccc2[nH]5)C=C4)C=C3)cc1
REMARK SMILES IDX 7 1 6 2 5 3 4 4 3 5 2 6 1 7 35 8 36 9 97 10 37 11 96 12
REMARK SMILES IDX 38 13 39 14 40 15 90 16 41 17 95 18 89 19 91 20 42 21 94 22
REMARK SMILES IDX 88 23 87 24 43 26 75 27 55 28 74 29 56 30 59 31 73 32 92 33
REMARK SMILES IDX 57 34 58 35 72 37 93 38 60 39 44 40 45 41 53 42 46 43 48 44
REMARK SMILES IDX 54 45 47 46 49 47 50 48 51 49 52 50 76 51 77 52 85 53 78 54
REMARK SMILES IDX 80 55 86 56 79 57 81 58 82 59 83 60 84 61 61 62 62 63 70 64
REMARK SMILES IDX 63 65 65 66 71 67 64 68 66 69 67 70 68 71 69 72 8 73 9 74
REMARK SMILES IDX 10 75 11 76 12 77 13 78 14 79 15 80 16 81 33 82 17 83 32 84
REMARK SMILES IDX 34 85 18 86 19 87 20 89 21 90 22 91 23 92 24 93 28 94 25 95
REMARK SMILES IDX 27 96 26 97 29 98 31 99 30 100
REMARK H PARENT 91 25 59 36 19 88
REMARK Flexibility Score: inf
ROOT
ATOM      1  C   UNL A   1      35.381  33.354  29.358  1.00  0.00     0.188 C 
ENDROOT
BRANCH   1   2
ATOM      2  O   UNL A   1      35.069  34.641  28.812  1.00  0.00    -0.376 OA
BRANCH   2   3
ATOM      3  C   UNL A   1      33.678  34.828  28.519  1.00  0.00     0.202 C 
BRANCH   3   4
ATOM      4  C   UNL A   1      32.969  35.972  29.267  1.00  0.00     0.261 C 
BRANCH   4   5
ATOM      5  O   UNL A   1      32.249  35.551  30.433  1.00  0.00    -0.460 OA
BRANCH   5   6
ATOM      6  C   UNL A   1      32.608  35.663  31.737  1.00  0.00     0.338 C 
ATOM      7  O   UNL A   1      31.921  36.391  32.452  1.00  0.00    -0.246 OA
BRANCH   6   8
ATOM      8  C   UNL A   1      33.824  35.018  32.343  1.00  0.00     0.060 A 
ATOM      9  C   UNL A   1      35.105  35.571  32.398  1.00  0.00     0.016 A 
ATOM     10  C   UNL A   1      33.646  33.754  32.936  1.00  0.00     0.016 A 
ATOM     11  C   UNL A   1      36.190  34.882  32.929  1.00  0.00     0.010 A 
ATOM     12  C   UNL A   1      34.723  33.060  33.497  1.00  0.00     0.010 A 
ATOM     13  C   UNL A   1      36.012  33.606  33.444  1.00  0.00    -0.014 A 
BRANCH  13  14
ATOM     14  C   UNL A   1      37.196  32.763  33.692  1.00  0.00     0.031 A 
ATOM     15  C   UNL A   1      37.966  33.015  34.951  1.00  0.00     0.074 A 
ATOM     16  C   UNL A   1      37.541  31.764  32.866  1.00  0.00     0.049 A 
ATOM     17  N   UNL A   1      39.092  32.497  35.349  1.00  0.00    -0.248 NA
ATOM     18  C   UNL A   1      37.353  33.947  35.916  1.00  0.00     0.031 C 
ATOM     19  C   UNL A   1      36.757  31.304  31.728  1.00  0.00     0.029 A 
ATOM     20  N   UNL A   1      38.670  30.988  32.824  1.00  0.00    -0.354 N 
ATOM     21  C   UNL A   1      39.335  33.052  36.596  1.00  0.00     0.074 A 
ATOM     22  C   UNL A   1      38.249  33.957  36.888  1.00  0.00     0.031 C 
ATOM     23  C   UNL A   1      37.486  30.441  31.006  1.00  0.00     0.029 A 
ATOM     24  C   UNL A   1      38.787  30.292  31.642  1.00  0.00     0.049 A 
ATOM     25  H   UNL A   1      39.324  30.933  33.559  1.00  0.00     0.167 HD
ATOM     26  C   UNL A   1      40.372  32.807  37.426  1.00  0.00     0.034 A 
ATOM     27  C   UNL A   1      39.846  29.655  31.114  1.00  0.00     0.034 A 
ATOM     28  C   UNL A   1      41.442  31.913  37.093  1.00  0.00     0.049 A 
ATOM     29  C   UNL A   1      41.073  29.524  31.967  1.00  0.00     0.074 A 
ATOM     30  C   UNL A   1      42.551  31.577  37.841  1.00  0.00     0.029 A 
ATOM     31  N   UNL A   1      41.543  31.234  35.885  1.00  0.00    -0.354 N 
ATOM     32  N   UNL A   1      41.284  30.003  33.170  1.00  0.00    -0.248 NA
ATOM     33  C   UNL A   1      42.176  28.713  31.439  1.00  0.00     0.031 C 
ATOM     34  C   UNL A   1      43.345  30.723  37.068  1.00  0.00     0.029 A 
ATOM     35  C   UNL A   1      42.708  30.493  35.856  1.00  0.00     0.049 A 
ATOM     36  H   UNL A   1      40.882  31.274  35.157  1.00  0.00     0.167 HD
ATOM     37  C   UNL A   1      42.508  29.497  33.576  1.00  0.00     0.074 A 
ATOM     38  C   UNL A   1      43.006  28.693  32.475  1.00  0.00     0.031 C 
ATOM     39  C   UNL A   1      43.147  29.662  34.760  1.00  0.00     0.034 A 
BRANCH  26  40
ATOM     40  C   UNL A   1      40.382  33.550  38.732  1.00  0.00     0.023 A 
ATOM     41  C   UNL A   1      41.253  34.645  38.917  1.00  0.00     0.012 A 
ATOM     42  C   UNL A   1      39.568  33.127  39.799  1.00  0.00     0.148 A 
ATOM     43  C   UNL A   1      41.351  35.272  40.159  1.00  0.00     0.002 A 
ATOM     44  C   UNL A   1      39.640  33.783  41.020  1.00  0.00     0.091 A 
ATOM     45  F   UNL A   1      38.774  32.063  39.615  1.00  0.00    -0.205 F 
ATOM     46  C   UNL A   1      40.541  34.845  41.208  1.00  0.00     0.022 A 
BRANCH  44  47
ATOM     47  S   UNL A   1      38.596  33.340  42.412  1.00  0.00     0.127 S 
ATOM     48  O   UNL A   1      37.397  32.849  41.736  1.00  0.00    -0.237 OA
ATOM     49  O   UNL A   1      39.390  32.305  43.074  1.00  0.00    -0.237 OA
ATOM     50  O   UNL A   1      38.426  34.560  43.188  1.00  0.00    -0.744 OA
ENDBRANCH  44  47
ENDBRANCH  26  40
BRANCH  27  51
ATOM     51  C   UNL A   1      39.751  29.089  29.741  1.00  0.00     0.023 A 
ATOM     52  C   UNL A   1      39.839  29.933  28.620  1.00  0.00     0.012 A 
ATOM     53  C   UNL A   1      39.674  27.695  29.542  1.00  0.00     0.148 A 
ATOM     54  C   UNL A   1      39.837  29.402  27.328  1.00  0.00     0.002 A 
ATOM     55  C   UNL A   1      39.720  27.169  28.255  1.00  0.00     0.091 A 
ATOM     56  F   UNL A   1      39.582  26.896  30.614  1.00  0.00    -0.205 F 
ATOM     57  C   UNL A   1      39.790  28.021  27.144  1.00  0.00     0.022 A 
BRANCH  55  58
ATOM     58  S   UNL A   1      39.836  25.398  27.975  1.00  0.00     0.127 S 
ATOM     59  O   UNL A   1      39.801  25.309  26.521  1.00  0.00    -0.237 OA
ATOM     60  O   UNL A   1      41.122  25.067  28.589  1.00  0.00    -0.237 OA
ATOM     61  O   UNL A   1      38.695  24.832  28.692  1.00  0.00    -0.744 OA
ENDBRANCH  55  58
ENDBRANCH  27  51
BRANCH  39  62
ATOM     62  C   UNL A   1      44.421  28.899  34.970  1.00  0.00     0.023 A 
ATOM     63  C   UNL A   1      45.663  29.514  34.731  1.00  0.00     0.012 A 
ATOM     64  C   UNL A   1      44.373  27.610  35.535  1.00  0.00     0.148 A 
ATOM     65  C   UNL A   1      46.845  28.848  35.043  1.00  0.00     0.002 A 
ATOM     66  C   UNL A   1      45.551  26.975  35.895  1.00  0.00     0.091 A 
ATOM     67  F   UNL A   1      43.173  27.043  35.730  1.00  0.00    -0.205 F 
ATOM     68  C   UNL A   1      46.790  27.588  35.640  1.00  0.00     0.022 A 
BRANCH  66  69
ATOM     69  S   UNL A   1      45.569  25.410  36.772  1.00  0.00     0.127 S 
ATOM     70  O   UNL A   1      44.820  24.548  35.858  1.00  0.00    -0.237 OA
ATOM     71  O   UNL A   1      47.000  25.118  36.851  1.00  0.00    -0.237 OA
ATOM     72  O   UNL A   1      44.929  25.657  38.056  1.00  0.00    -0.744 OA
ENDBRANCH  66  69
ENDBRANCH  39  62
ENDBRANCH  13  14
ENDBRANCH   6   8
ENDBRANCH   5   6
ENDBRANCH   4   5
ENDBRANCH   3   4
ENDBRANCH   2   3
ENDBRANCH   1   2
BRANCH   1  73
ATOM     73  C   UNL A   1      34.570  32.219  28.729  1.00  0.00     0.188 C 
BRANCH  73  74
ATOM     74  O   UNL A   1      35.193  31.524  27.653  1.00  0.00    -0.376 OA
BRANCH  74  75
ATOM     75  C   UNL A   1      34.496  30.399  27.133  1.00  0.00     0.202 C 
BRANCH  75  76
ATOM     76  C   UNL A   1      32.973  30.332  27.329  1.00  0.00     0.261 C 
BRANCH  76  77
ATOM     77  O   UNL A   1      32.421  29.035  27.623  1.00  0.00    -0.460 OA
BRANCH  77  78
ATOM     78  C   UNL A   1      31.925  28.384  26.537  1.00  0.00     0.339 C 
ATOM     79  O   UNL A   1      31.134  28.853  25.732  1.00  0.00    -0.246 OA
BRANCH  78  80
ATOM     80  C   UNL A   1      32.488  27.021  26.382  1.00  0.00     0.078 A 
ATOM     81  C   UNL A   1      33.850  26.842  26.120  1.00  0.00     0.019 A 
ATOM     82  C   UNL A   1      31.636  25.913  26.308  1.00  0.00     0.057 A 
ATOM     83  C   UNL A   1      34.325  25.594  25.685  1.00  0.00     0.028 A 
ATOM     84  C   UNL A   1      32.111  24.689  25.818  1.00  0.00     0.048 A 
ATOM     85  Cl  UNL A   1      29.986  25.977  26.824  1.00  0.00    -0.083 Cl
ATOM     86  C   UNL A   1      33.451  24.526  25.458  1.00  0.00     0.050 A 
BRANCH  86  87
ATOM     87  N   UNL A   1      33.764  23.392  24.642  1.00  0.00    -0.280 N 
ATOM     88  H   UNL A   1      34.135  22.607  25.104  1.00  0.00     0.180 HD
BRANCH  87  89
ATOM     89  S   UNL A   1      33.567  23.265  22.984  1.00  0.00     0.261 S 
ATOM     90  O   UNL A   1      34.869  23.245  22.352  1.00  0.00    -0.201 OA
ATOM     91  O   UNL A   1      32.567  22.253  22.714  1.00  0.00    -0.201 OA
BRANCH  89  92
ATOM     92  C   UNL A   1      32.803  24.794  22.440  1.00  0.00     0.088 A 
ATOM     93  C   UNL A   1      33.681  25.836  22.077  1.00  0.00     0.022 A 
ATOM     94  C   UNL A   1      31.440  25.031  22.627  1.00  0.00     0.026 A 
ATOM     95  C   UNL A   1      33.217  27.148  21.979  1.00  0.00     0.005 A 
ATOM     96  C   UNL A   1      31.024  26.352  22.641  1.00  0.00    -0.043 A 
ATOM     97  C   UNL A   1      31.894  27.394  22.304  1.00  0.00    -0.045 A 
ATOM     98  C   UNL A   1      29.747  26.888  23.204  1.00  0.00     0.036 C 
ATOM     99  C   UNL A   1      31.237  28.724  22.491  1.00  0.00     0.036 C 
ATOM    100  C   UNL A   1      29.765  28.330  22.687  1.00  0.00     0.010 C 
ENDBRANCH  89  92
ENDBRANCH  87  89
ENDBRANCH  86  87
ENDBRANCH  78  80
ENDBRANCH  77  78
ENDBRANCH  76  77
ENDBRANCH  75  76
ENDBRANCH  74  75
ENDBRANCH  73  74
ENDBRANCH   1  73
TORSDOF 23
ENDMDL
