MODEL 1
REMARK VINA RESULT:     -10.7      0.000      0.000
REMARK SMILES Cc1cc([N+](=O)[O-])ccc1NC(=O)[C@@H]1[C@@H](C(=O)OCCOCCOCCOC(=O)c2ccc(-c3c4nc(c(-c5cccc(S(=O)(=O)[O-])c5F)c5ccc([nH]5)c(-c5cccc(S(=O)(=O)[O-])c5F)c5nc(c(-c6cccc(S(=O)(=O)[O-])c6F)c6ccc3[nH]6)C=C5)C=C4)cc2)[C@H]2C=C[C@@H]1C2
REMARK SMILES IDX 22 1 21 2 20 3 19 4 18 5 16 6 17 7 15 8 14 9 96 10 93 11
REMARK SMILES IDX 95 12 97 13 94 14 12 15 11 16 13 18 10 19 1 20 2 21 3 22
REMARK SMILES IDX 4 23 9 24 8 25 5 26 6 27 7 28 23 29 24 30 25 31 26 32 27 33
REMARK SMILES IDX 28 34 29 35 30 36 31 37 92 38 32 39 91 40 33 41 34 42 35 43
REMARK SMILES IDX 85 44 36 45 90 46 84 47 86 48 37 49 89 50 83 51 82 52 38 54
REMARK SMILES IDX 70 55 50 56 69 57 51 58 54 59 68 60 87 61 52 62 53 63 67 65
REMARK SMILES IDX 88 66 55 67 39 68 40 69 48 70 41 71 43 72 49 73 42 74 44 75
REMARK SMILES IDX 45 76 46 77 47 78 71 79 72 80 80 81 73 82 75 83 81 84 74 85
REMARK SMILES IDX 76 86 77 87 78 88 79 89 56 90 57 91 65 92 58 93 60 94 66 95
REMARK SMILES IDX 59 96 61 97 62 98 63 99 64 100
REMARK H PARENT 11 17 86 53 54 64
REMARK Flexibility Score: inf
ROOT
ATOM      1  C   UNL A   1      39.636  22.269  26.547  1.00  0.00     0.188 C 
ENDROOT
BRANCH   1   2
ATOM      2  O   UNL A   1      38.933  23.477  26.788  1.00  0.00    -0.376 OA
BRANCH   2   3
ATOM      3  C   UNL A   1      37.833  23.592  25.887  1.00  0.00     0.202 C 
BRANCH   3   4
ATOM      4  C   UNL A   1      37.162  22.276  25.439  1.00  0.00     0.261 C 
BRANCH   4   5
ATOM      5  O   UNL A   1      35.941  21.469  26.012  1.00  0.00    -0.463 OA
BRANCH   5   6
ATOM      6  C   UNL A   1      34.596  21.683  26.216  1.00  0.00     0.310 C 
ATOM      7  O   UNL A   1      34.187  21.496  27.351  1.00  0.00    -0.252 OA
BRANCH   6   8
ATOM      8  C   UNL A   1      33.599  21.923  24.966  1.00  0.00     0.119 C 
ATOM      9  C   UNL A   1      33.417  23.415  24.443  1.00  0.00     0.100 C 
ATOM     10  C   UNL A   1      31.920  23.497  23.917  1.00  0.00     0.025 C 
ATOM     11  C   UNL A   1      32.046  21.616  25.037  1.00  0.00     0.027 C 
ATOM     12  C   UNL A   1      31.016  23.679  25.094  1.00  0.00    -0.027 C 
ATOM     13  C   UNL A   1      31.612  22.047  23.627  1.00  0.00     0.017 C 
ATOM     14  C   UNL A   1      31.184  22.585  25.831  1.00  0.00    -0.027 C 
BRANCH   9  15
ATOM     15  C   UNL A   1      34.188  23.886  23.244  1.00  0.00     0.228 C 
ATOM     16  N   UNL A   1      34.090  25.201  22.836  1.00  0.00    -0.326 N 
ATOM     17  H   UNL A   1      34.584  25.373  22.001  1.00  0.00     0.169 HD
ATOM     18  O   UNL A   1      34.803  23.089  22.526  1.00  0.00    -0.274 OA
BRANCH  16  19
ATOM     19  C   UNL A   1      33.442  26.368  23.337  1.00  0.00     0.044 A 
ATOM     20  C   UNL A   1      31.738  26.204  21.436  1.00  0.00     0.047 C 
ATOM     21  C   UNL A   1      32.260  26.813  22.710  1.00  0.00    -0.021 A 
ATOM     22  C   UNL A   1      31.531  27.902  23.252  1.00  0.00     0.091 A 
ATOM     23  C   UNL A   1      31.995  28.586  24.379  1.00  0.00     0.269 A 
ATOM     24  C   UNL A   1      33.888  27.128  24.425  1.00  0.00     0.033 A 
ATOM     25  C   UNL A   1      33.189  28.211  24.963  1.00  0.00     0.088 A 
BRANCH  23  26
ATOM     26  N   UNL A   1      31.243  29.713  24.937  1.00  0.00     0.062 N 
ATOM     27  O   UNL A   1      30.303  30.166  24.268  1.00  0.00    -0.258 OA
ATOM     28  O   UNL A   1      31.577  30.144  26.051  1.00  0.00    -0.258 OA
ENDBRANCH  23  26
ENDBRANCH  16  19
ENDBRANCH   9  15
ENDBRANCH   6   8
ENDBRANCH   5   6
ENDBRANCH   4   5
ENDBRANCH   3   4
ENDBRANCH   2   3
ENDBRANCH   1   2
BRANCH   1  29
ATOM     29  C   UNL A   1      40.997  22.265  27.250  1.00  0.00     0.188 C 
BRANCH  29  30
ATOM     30  O   UNL A   1      41.679  23.508  27.217  1.00  0.00    -0.376 OA
BRANCH  30  31
ATOM     31  C   UNL A   1      42.418  23.834  26.044  1.00  0.00     0.202 C 
BRANCH  31  32
ATOM     32  C   UNL A   1      42.935  25.255  26.235  1.00  0.00     0.261 C 
BRANCH  32  33
ATOM     33  O   UNL A   1      41.821  26.175  26.338  1.00  0.00    -0.460 OA
BRANCH  33  34
ATOM     34  C   UNL A   1      41.967  27.338  25.644  1.00  0.00     0.338 C 
ATOM     35  O   UNL A   1      42.511  27.436  24.555  1.00  0.00    -0.246 OA
BRANCH  34  36
ATOM     36  C   UNL A   1      41.515  28.484  26.498  1.00  0.00     0.060 A 
ATOM     37  C   UNL A   1      42.457  29.278  27.125  1.00  0.00     0.016 A 
ATOM     38  C   UNL A   1      40.174  28.646  26.871  1.00  0.00     0.016 A 
ATOM     39  C   UNL A   1      42.066  30.054  28.229  1.00  0.00     0.010 A 
ATOM     40  C   UNL A   1      39.838  29.305  28.069  1.00  0.00     0.010 A 
ATOM     41  C   UNL A   1      40.823  29.875  28.881  1.00  0.00    -0.014 A 
BRANCH  41  42
ATOM     42  C   UNL A   1      40.410  30.235  30.331  1.00  0.00     0.031 A 
ATOM     43  C   UNL A   1      39.715  31.553  30.419  1.00  0.00     0.074 A 
ATOM     44  C   UNL A   1      40.632  29.692  31.612  1.00  0.00     0.049 A 
ATOM     45  N   UNL A   1      39.511  32.179  31.533  1.00  0.00    -0.248 NA
ATOM     46  C   UNL A   1      39.357  32.353  29.243  1.00  0.00     0.031 C 
ATOM     47  C   UNL A   1      39.598  29.726  32.663  1.00  0.00     0.029 A 
ATOM     48  N   UNL A   1      41.589  28.892  32.297  1.00  0.00    -0.354 N 
ATOM     49  C   UNL A   1      38.606  33.147  31.234  1.00  0.00     0.074 A 
ATOM     50  C   UNL A   1      38.794  33.412  29.833  1.00  0.00     0.031 C 
ATOM     51  C   UNL A   1      40.052  29.187  33.808  1.00  0.00     0.029 A 
ATOM     52  C   UNL A   1      41.447  28.815  33.666  1.00  0.00     0.049 A 
ATOM     53  H   UNL A   1      42.310  28.420  31.821  1.00  0.00     0.167 HD
ATOM     54  C   UNL A   1      37.584  33.342  32.102  1.00  0.00     0.034 A 
ATOM     55  C   UNL A   1      42.432  28.751  34.624  1.00  0.00     0.034 A 
ATOM     56  C   UNL A   1      37.846  32.789  33.443  1.00  0.00     0.049 A 
ATOM     57  C   UNL A   1      42.199  29.869  35.609  1.00  0.00     0.074 A 
ATOM     58  C   UNL A   1      37.242  31.805  34.206  1.00  0.00     0.029 A 
ATOM     59  N   UNL A   1      39.018  33.137  34.128  1.00  0.00    -0.354 N 
ATOM     60  N   UNL A   1      41.240  30.724  35.403  1.00  0.00    -0.248 NA
ATOM     61  C   UNL A   1      42.939  30.193  36.824  1.00  0.00     0.031 C 
ATOM     62  C   UNL A   1      38.073  31.539  35.332  1.00  0.00     0.029 A 
ATOM     63  C   UNL A   1      39.164  32.394  35.292  1.00  0.00     0.049 A 
ATOM     64  H   UNL A   1      39.657  33.822  33.823  1.00  0.00     0.167 HD
ATOM     65  C   UNL A   1      41.193  31.675  36.361  1.00  0.00     0.074 A 
ATOM     66  C   UNL A   1      42.291  31.305  37.243  1.00  0.00     0.031 C 
ATOM     67  C   UNL A   1      40.249  32.659  36.255  1.00  0.00     0.034 A 
BRANCH  54  68
ATOM     68  C   UNL A   1      36.238  33.850  31.626  1.00  0.00     0.023 A 
ATOM     69  C   UNL A   1      35.546  34.762  32.438  1.00  0.00     0.012 A 
ATOM     70  C   UNL A   1      35.565  33.435  30.446  1.00  0.00     0.148 A 
ATOM     71  C   UNL A   1      34.297  35.281  32.063  1.00  0.00     0.002 A 
ATOM     72  C   UNL A   1      34.403  34.057  30.002  1.00  0.00     0.091 A 
ATOM     73  F   UNL A   1      35.942  32.327  29.795  1.00  0.00    -0.205 F 
ATOM     74  C   UNL A   1      33.751  34.972  30.820  1.00  0.00     0.022 A 
BRANCH  72  75
ATOM     75  S   UNL A   1      33.793  33.772  28.333  1.00  0.00     0.127 S 
ATOM     76  O   UNL A   1      32.568  34.568  28.304  1.00  0.00    -0.237 OA
ATOM     77  O   UNL A   1      34.879  34.290  27.502  1.00  0.00    -0.237 OA
ATOM     78  O   UNL A   1      33.607  32.326  28.228  1.00  0.00    -0.744 OA
ENDBRANCH  72  75
ENDBRANCH  54  68
BRANCH  55  79
ATOM     79  C   UNL A   1      43.677  27.900  34.469  1.00  0.00     0.023 A 
ATOM     80  C   UNL A   1      43.744  26.764  35.312  1.00  0.00     0.012 A 
ATOM     81  C   UNL A   1      44.668  27.984  33.461  1.00  0.00     0.148 A 
ATOM     82  C   UNL A   1      44.645  25.708  35.094  1.00  0.00     0.002 A 
ATOM     83  C   UNL A   1      45.505  26.873  33.180  1.00  0.00     0.091 A 
ATOM     84  F   UNL A   1      44.735  29.105  32.734  1.00  0.00    -0.205 F 
ATOM     85  C   UNL A   1      45.489  25.739  33.999  1.00  0.00     0.022 A 
BRANCH  83  86
ATOM     86  S   UNL A   1      46.398  26.621  31.618  1.00  0.00     0.127 S 
ATOM     87  O   UNL A   1      47.663  26.043  32.071  1.00  0.00    -0.237 OA
ATOM     88  O   UNL A   1      45.537  25.684  30.891  1.00  0.00    -0.237 OA
ATOM     89  O   UNL A   1      46.513  27.933  31.014  1.00  0.00    -0.744 OA
ENDBRANCH  83  86
ENDBRANCH  55  79
BRANCH  67  90
ATOM     90  C   UNL A   1      40.208  33.942  37.048  1.00  0.00     0.023 A 
ATOM     91  C   UNL A   1      40.335  35.213  36.462  1.00  0.00     0.012 A 
ATOM     92  C   UNL A   1      39.869  33.906  38.425  1.00  0.00     0.148 A 
ATOM     93  C   UNL A   1      40.139  36.385  37.203  1.00  0.00     0.002 A 
ATOM     94  C   UNL A   1      39.552  35.064  39.121  1.00  0.00     0.091 A 
ATOM     95  F   UNL A   1      39.873  32.746  39.096  1.00  0.00    -0.205 F 
ATOM     96  C   UNL A   1      39.709  36.311  38.522  1.00  0.00     0.022 A 
BRANCH  94  97
ATOM     97  S   UNL A   1      38.757  34.956  40.728  1.00  0.00     0.127 S 
ATOM     98  O   UNL A   1      39.851  34.491  41.577  1.00  0.00    -0.237 OA
ATOM     99  O   UNL A   1      38.343  36.340  40.964  1.00  0.00    -0.237 OA
ATOM    100  O   UNL A   1      37.647  34.030  40.538  1.00  0.00    -0.744 OA
ENDBRANCH  94  97
ENDBRANCH  67  90
ENDBRANCH  41  42
ENDBRANCH  34  36
ENDBRANCH  33  34
ENDBRANCH  32  33
ENDBRANCH  31  32
ENDBRANCH  30  31
ENDBRANCH  29  30
ENDBRANCH   1  29
TORSDOF 23
ENDMDL
MODEL 2
REMARK VINA RESULT:     -10.3      5.875     11.285
REMARK SMILES Cc1cc([N+](=O)[O-])ccc1NC(=O)[C@@H]1[C@@H](C(=O)OCCOCCOCCOC(=O)c2ccc(-c3c4nc(c(-c5cccc(S(=O)(=O)[O-])c5F)c5ccc([nH]5)c(-c5cccc(S(=O)(=O)[O-])c5F)c5nc(c(-c6cccc(S(=O)(=O)[O-])c6F)c6ccc3[nH]6)C=C5)C=C4)cc2)[C@H]2C=C[C@@H]1C2
REMARK SMILES IDX 22 1 21 2 20 3 19 4 18 5 16 6 17 7 15 8 14 9 96 10 93 11
REMARK SMILES IDX 95 12 97 13 94 14 12 15 11 16 13 18 10 19 1 20 2 21 3 22
REMARK SMILES IDX 4 23 9 24 8 25 5 26 6 27 7 28 23 29 24 30 25 31 26 32 27 33
REMARK SMILES IDX 28 34 29 35 30 36 31 37 92 38 32 39 91 40 33 41 34 42 35 43
REMARK SMILES IDX 85 44 36 45 90 46 84 47 86 48 37 49 89 50 83 51 82 52 38 54
REMARK SMILES IDX 70 55 50 56 69 57 51 58 54 59 68 60 87 61 52 62 53 63 67 65
REMARK SMILES IDX 88 66 55 67 39 68 40 69 48 70 41 71 43 72 49 73 42 74 44 75
REMARK SMILES IDX 45 76 46 77 47 78 71 79 72 80 80 81 73 82 75 83 81 84 74 85
REMARK SMILES IDX 76 86 77 87 78 88 79 89 56 90 57 91 65 92 58 93 60 94 66 95
REMARK SMILES IDX 59 96 61 97 62 98 63 99 64 100
REMARK H PARENT 11 17 86 53 54 64
REMARK Flexibility Score: inf
ROOT
ATOM      1  C   UNL A   1      35.896  32.156  28.617  1.00  0.00     0.188 C 
ENDROOT
BRANCH   1   2
ATOM      2  O   UNL A   1      35.003  32.446  27.554  1.00  0.00    -0.376 OA
BRANCH   2   3
ATOM      3  C   UNL A   1      33.689  31.998  27.883  1.00  0.00     0.202 C 
BRANCH   3   4
ATOM      4  C   UNL A   1      33.357  30.525  27.563  1.00  0.00     0.261 C 
BRANCH   4   5
ATOM      5  O   UNL A   1      32.099  29.848  26.908  1.00  0.00    -0.463 OA
BRANCH   5   6
ATOM      6  C   UNL A   1      31.756  28.602  26.432  1.00  0.00     0.310 C 
ATOM      7  O   UNL A   1      31.853  27.678  27.224  1.00  0.00    -0.252 OA
BRANCH   6   8
ATOM      8  C   UNL A   1      31.485  28.366  24.856  1.00  0.00     0.119 C 
ATOM      9  C   UNL A   1      31.420  26.863  24.336  1.00  0.00     0.100 C 
ATOM     10  C   UNL A   1      31.994  26.906  22.854  1.00  0.00     0.025 C 
ATOM     11  C   UNL A   1      32.490  28.853  23.731  1.00  0.00     0.027 C 
ATOM     12  C   UNL A   1      33.487  26.935  22.928  1.00  0.00    -0.027 C 
ATOM     13  C   UNL A   1      31.765  28.348  22.473  1.00  0.00     0.017 C 
ATOM     14  C   UNL A   1      33.779  28.065  23.564  1.00  0.00    -0.027 C 
BRANCH   9  15
ATOM     15  C   UNL A   1      30.089  26.201  24.129  1.00  0.00     0.228 C 
ATOM     16  N   UNL A   1      30.002  24.823  24.105  1.00  0.00    -0.326 N 
ATOM     17  H   UNL A   1      29.093  24.508  23.894  1.00  0.00     0.169 HD
ATOM     18  O   UNL A   1      29.084  26.860  23.839  1.00  0.00    -0.274 OA
BRANCH  16  19
ATOM     19  C   UNL A   1      30.918  23.750  24.313  1.00  0.00     0.044 A 
ATOM     20  C   UNL A   1      30.095  23.554  26.727  1.00  0.00     0.047 C 
ATOM     21  C   UNL A   1      30.914  23.083  25.555  1.00  0.00    -0.021 A 
ATOM     22  C   UNL A   1      31.733  21.942  25.755  1.00  0.00     0.091 A 
ATOM     23  C   UNL A   1      32.594  21.493  24.750  1.00  0.00     0.269 A 
ATOM     24  C   UNL A   1      31.844  23.292  23.368  1.00  0.00     0.033 A 
ATOM     25  C   UNL A   1      32.666  22.179  23.554  1.00  0.00     0.088 A 
BRANCH  23  26
ATOM     26  N   UNL A   1      33.443  20.317  24.959  1.00  0.00     0.062 N 
ATOM     27  O   UNL A   1      34.638  20.405  24.643  1.00  0.00    -0.258 OA
ATOM     28  O   UNL A   1      32.925  19.303  25.451  1.00  0.00    -0.258 OA
ENDBRANCH  23  26
ENDBRANCH  16  19
ENDBRANCH   9  15
ENDBRANCH   6   8
ENDBRANCH   5   6
ENDBRANCH   4   5
ENDBRANCH   3   4
ENDBRANCH   2   3
ENDBRANCH   1   2
BRANCH   1  29
ATOM     29  C   UNL A   1      36.101  33.374  29.522  1.00  0.00     0.188 C 
BRANCH  29  30
ATOM     30  O   UNL A   1      35.097  33.550  30.507  1.00  0.00    -0.376 OA
BRANCH  30  31
ATOM     31  C   UNL A   1      34.913  32.513  31.466  1.00  0.00     0.202 C 
BRANCH  31  32
ATOM     32  C   UNL A   1      36.305  32.076  31.908  1.00  0.00     0.261 C 
BRANCH  32  33
ATOM     33  O   UNL A   1      36.600  32.622  33.217  1.00  0.00    -0.460 OA
BRANCH  33  34
ATOM     34  C   UNL A   1      37.326  33.776  33.210  1.00  0.00     0.338 C 
ATOM     35  O   UNL A   1      36.875  34.883  33.454  1.00  0.00    -0.246 OA
BRANCH  34  36
ATOM     36  C   UNL A   1      38.703  33.490  32.695  1.00  0.00     0.060 A 
ATOM     37  C   UNL A   1      39.760  34.285  33.099  1.00  0.00     0.016 A 
ATOM     38  C   UNL A   1      38.931  32.591  31.644  1.00  0.00     0.016 A 
ATOM     39  C   UNL A   1      40.931  34.305  32.325  1.00  0.00     0.010 A 
ATOM     40  C   UNL A   1      40.046  32.743  30.799  1.00  0.00     0.010 A 
ATOM     41  C   UNL A   1      40.993  33.747  31.026  1.00  0.00    -0.014 A 
BRANCH  41  42
ATOM     42  C   UNL A   1      41.958  34.074  29.858  1.00  0.00     0.031 A 
ATOM     43  C   UNL A   1      42.938  32.979  29.599  1.00  0.00     0.074 A 
ATOM     44  C   UNL A   1      42.228  35.197  29.052  1.00  0.00     0.049 A 
ATOM     45  N   UNL A   1      43.992  33.124  28.862  1.00  0.00    -0.248 NA
ATOM     46  C   UNL A   1      42.904  31.688  30.296  1.00  0.00     0.031 C 
ATOM     47  C   UNL A   1      42.580  35.068  27.625  1.00  0.00     0.029 A 
ATOM     48  N   UNL A   1      42.136  36.617  29.109  1.00  0.00    -0.354 N 
ATOM     49  C   UNL A   1      44.435  31.861  28.627  1.00  0.00     0.074 A 
ATOM     50  C   UNL A   1      43.963  31.088  29.743  1.00  0.00     0.031 C 
ATOM     51  C   UNL A   1      42.833  36.269  27.077  1.00  0.00     0.029 A 
ATOM     52  C   UNL A   1      42.757  37.306  28.089  1.00  0.00     0.049 A 
ATOM     53  H   UNL A   1      41.656  37.079  29.833  1.00  0.00     0.167 HD
ATOM     54  C   UNL A   1      44.827  31.556  27.366  1.00  0.00     0.034 A 
ATOM     55  C   UNL A   1      43.420  38.509  28.153  1.00  0.00     0.034 A 
ATOM     56  C   UNL A   1      45.129  32.744  26.548  1.00  0.00     0.049 A 
ATOM     57  C   UNL A   1      44.806  38.310  27.591  1.00  0.00     0.074 A 
ATOM     58  C   UNL A   1      44.585  33.271  25.389  1.00  0.00     0.029 A 
ATOM     59  N   UNL A   1      46.030  33.709  27.018  1.00  0.00    -0.354 N 
ATOM     60  N   UNL A   1      45.193  37.121  27.230  1.00  0.00    -0.248 NA
ATOM     61  C   UNL A   1      45.870  39.290  27.397  1.00  0.00     0.031 C 
ATOM     62  C   UNL A   1      45.136  34.568  25.186  1.00  0.00     0.029 A 
ATOM     63  C   UNL A   1      46.058  34.823  26.190  1.00  0.00     0.049 A 
ATOM     64  H   UNL A   1      46.575  33.610  27.833  1.00  0.00     0.167 HD
ATOM     65  C   UNL A   1      46.468  37.116  26.783  1.00  0.00     0.074 A 
ATOM     66  C   UNL A   1      46.863  38.512  26.908  1.00  0.00     0.031 C 
ATOM     67  C   UNL A   1      47.016  35.925  26.397  1.00  0.00     0.034 A 
BRANCH  54  68
ATOM     68  C   UNL A   1      44.702  30.146  26.827  1.00  0.00     0.023 A 
ATOM     69  C   UNL A   1      43.425  29.566  26.771  1.00  0.00     0.012 A 
ATOM     70  C   UNL A   1      45.780  29.313  26.425  1.00  0.00     0.148 A 
ATOM     71  C   UNL A   1      43.228  28.267  26.279  1.00  0.00     0.002 A 
ATOM     72  C   UNL A   1      45.572  28.087  25.803  1.00  0.00     0.091 A 
ATOM     73  F   UNL A   1      47.040  29.608  26.769  1.00  0.00    -0.205 F 
ATOM     74  C   UNL A   1      44.293  27.547  25.744  1.00  0.00     0.022 A 
BRANCH  72  75
ATOM     75  S   UNL A   1      46.927  27.240  24.973  1.00  0.00     0.127 S 
ATOM     76  O   UNL A   1      46.298  26.001  24.524  1.00  0.00    -0.237 OA
ATOM     77  O   UNL A   1      47.279  28.172  23.901  1.00  0.00    -0.237 OA
ATOM     78  O   UNL A   1      47.969  27.087  25.987  1.00  0.00    -0.744 OA
ENDBRANCH  72  75
ENDBRANCH  54  68
BRANCH  55  79
ATOM     79  C   UNL A   1      42.910  39.689  28.957  1.00  0.00     0.023 A 
ATOM     80  C   UNL A   1      41.632  40.171  28.582  1.00  0.00     0.012 A 
ATOM     81  C   UNL A   1      43.453  40.230  30.148  1.00  0.00     0.148 A 
ATOM     82  C   UNL A   1      40.874  41.029  29.397  1.00  0.00     0.002 A 
ATOM     83  C   UNL A   1      42.647  41.012  31.016  1.00  0.00     0.091 A 
ATOM     84  F   UNL A   1      44.714  39.916  30.466  1.00  0.00    -0.205 F 
ATOM     85  C   UNL A   1      41.360  41.407  30.635  1.00  0.00     0.022 A 
BRANCH  83  86
ATOM     86  S   UNL A   1      42.996  41.293  32.776  1.00  0.00     0.127 S 
ATOM     87  O   UNL A   1      43.953  42.398  32.732  1.00  0.00    -0.237 OA
ATOM     88  O   UNL A   1      41.685  41.656  33.321  1.00  0.00    -0.237 OA
ATOM     89  O   UNL A   1      43.536  40.043  33.276  1.00  0.00    -0.744 OA
ENDBRANCH  83  86
ENDBRANCH  55  79
BRANCH  67  90
ATOM     90  C   UNL A   1      48.480  35.662  26.137  1.00  0.00     0.023 A 
ATOM     91  C   UNL A   1      49.105  35.941  24.909  1.00  0.00     0.012 A 
ATOM     92  C   UNL A   1      49.323  35.265  27.206  1.00  0.00     0.148 A 
ATOM     93  C   UNL A   1      50.492  35.831  24.751  1.00  0.00     0.002 A 
ATOM     94  C   UNL A   1      50.705  35.280  27.080  1.00  0.00     0.091 A 
ATOM     95  F   UNL A   1      48.798  34.839  28.363  1.00  0.00    -0.205 F 
ATOM     96  C   UNL A   1      51.296  35.538  25.846  1.00  0.00     0.022 A 
BRANCH  94  97
ATOM     97  S   UNL A   1      51.741  35.156  28.542  1.00  0.00     0.127 S 
ATOM     98  O   UNL A   1      51.086  36.086  29.458  1.00  0.00    -0.237 OA
ATOM     99  O   UNL A   1      51.604  33.744  28.900  1.00  0.00    -0.237 OA
ATOM    100  O   UNL A   1      53.076  35.526  28.089  1.00  0.00    -0.744 OA
ENDBRANCH  94  97
ENDBRANCH  67  90
ENDBRANCH  41  42
ENDBRANCH  34  36
ENDBRANCH  33  34
ENDBRANCH  32  33
ENDBRANCH  31  32
ENDBRANCH  30  31
ENDBRANCH  29  30
ENDBRANCH   1  29
TORSDOF 23
ENDMDL
MODEL 3
REMARK VINA RESULT:     -10.2      1.853      2.140
REMARK SMILES Cc1cc([N+](=O)[O-])ccc1NC(=O)[C@@H]1[C@@H](C(=O)OCCOCCOCCOC(=O)c2ccc(-c3c4nc(c(-c5cccc(S(=O)(=O)[O-])c5F)c5ccc([nH]5)c(-c5cccc(S(=O)(=O)[O-])c5F)c5nc(c(-c6cccc(S(=O)(=O)[O-])c6F)c6ccc3[nH]6)C=C5)C=C4)cc2)[C@H]2C=C[C@@H]1C2
REMARK SMILES IDX 22 1 21 2 20 3 19 4 18 5 16 6 17 7 15 8 14 9 96 10 93 11
REMARK SMILES IDX 95 12 97 13 94 14 12 15 11 16 13 18 10 19 1 20 2 21 3 22
REMARK SMILES IDX 4 23 9 24 8 25 5 26 6 27 7 28 23 29 24 30 25 31 26 32 27 33
REMARK SMILES IDX 28 34 29 35 30 36 31 37 92 38 32 39 91 40 33 41 34 42 35 43
REMARK SMILES IDX 85 44 36 45 90 46 84 47 86 48 37 49 89 50 83 51 82 52 38 54
REMARK SMILES IDX 70 55 50 56 69 57 51 58 54 59 68 60 87 61 52 62 53 63 67 65
REMARK SMILES IDX 88 66 55 67 39 68 40 69 48 70 41 71 43 72 49 73 42 74 44 75
REMARK SMILES IDX 45 76 46 77 47 78 71 79 72 80 80 81 73 82 75 83 81 84 74 85
REMARK SMILES IDX 76 86 77 87 78 88 79 89 56 90 57 91 65 92 58 93 60 94 66 95
REMARK SMILES IDX 59 96 61 97 62 98 63 99 64 100
REMARK H PARENT 11 17 86 53 54 64
REMARK Flexibility Score: inf
ROOT
ATOM      1  C   UNL A   1      40.088  22.232  26.701  1.00  0.00     0.188 C 
ENDROOT
BRANCH   1   2
ATOM      2  O   UNL A   1      39.204  23.327  26.879  1.00  0.00    -0.376 OA
BRANCH   2   3
ATOM      3  C   UNL A   1      38.096  23.212  25.988  1.00  0.00     0.202 C 
BRANCH   3   4
ATOM      4  C   UNL A   1      37.614  21.782  25.662  1.00  0.00     0.261 C 
BRANCH   4   5
ATOM      5  O   UNL A   1      36.251  21.045  25.927  1.00  0.00    -0.463 OA
BRANCH   5   6
ATOM      6  C   UNL A   1      34.915  21.376  25.965  1.00  0.00     0.310 C 
ATOM      7  O   UNL A   1      34.366  21.280  27.051  1.00  0.00    -0.252 OA
BRANCH   6   8
ATOM      8  C   UNL A   1      34.088  21.630  24.598  1.00  0.00     0.119 C 
ATOM      9  C   UNL A   1      33.739  23.135  24.216  1.00  0.00     0.100 C 
ATOM     10  C   UNL A   1      32.344  23.063  23.458  1.00  0.00     0.025 C 
ATOM     11  C   UNL A   1      32.615  21.089  24.374  1.00  0.00     0.027 C 
ATOM     12  C   UNL A   1      31.258  22.951  24.480  1.00  0.00    -0.027 C 
ATOM     13  C   UNL A   1      32.331  21.636  22.966  1.00  0.00     0.017 C 
ATOM     14  C   UNL A   1      31.495  21.805  25.111  1.00  0.00    -0.027 C 
BRANCH   9  15
ATOM     15  C   UNL A   1      34.590  23.870  23.222  1.00  0.00     0.228 C 
ATOM     16  N   UNL A   1      34.133  25.046  22.661  1.00  0.00    -0.326 N 
ATOM     17  H   UNL A   1      34.745  25.398  21.975  1.00  0.00     0.169 HD
ATOM     18  O   UNL A   1      35.635  23.375  22.784  1.00  0.00    -0.274 OA
BRANCH  16  19
ATOM     19  C   UNL A   1      32.983  25.870  22.842  1.00  0.00     0.044 A 
ATOM     20  C   UNL A   1      32.477  25.664  20.343  1.00  0.00     0.047 C 
ATOM     21  C   UNL A   1      32.136  26.109  21.740  1.00  0.00    -0.021 A 
ATOM     22  C   UNL A   1      30.927  26.830  21.912  1.00  0.00     0.091 A 
ATOM     23  C   UNL A   1      30.579  27.361  23.157  1.00  0.00     0.269 A 
ATOM     24  C   UNL A   1      32.613  26.477  24.049  1.00  0.00     0.033 A 
ATOM     25  C   UNL A   1      31.432  27.200  24.231  1.00  0.00     0.088 A 
BRANCH  23  26
ATOM     26  N   UNL A   1      29.332  28.109  23.333  1.00  0.00     0.062 N 
ATOM     27  O   UNL A   1      28.324  27.475  23.677  1.00  0.00    -0.258 OA
ATOM     28  O   UNL A   1      29.354  29.334  23.144  1.00  0.00    -0.258 OA
ENDBRANCH  23  26
ENDBRANCH  16  19
ENDBRANCH   9  15
ENDBRANCH   6   8
ENDBRANCH   5   6
ENDBRANCH   4   5
ENDBRANCH   3   4
ENDBRANCH   2   3
ENDBRANCH   1   2
BRANCH   1  29
ATOM     29  C   UNL A   1      41.349  22.388  27.556  1.00  0.00     0.188 C 
BRANCH  29  30
ATOM     30  O   UNL A   1      42.008  23.635  27.410  1.00  0.00    -0.376 OA
BRANCH  30  31
ATOM     31  C   UNL A   1      42.772  23.852  26.227  1.00  0.00     0.202 C 
BRANCH  31  32
ATOM     32  C   UNL A   1      43.166  25.325  26.226  1.00  0.00     0.261 C 
BRANCH  32  33
ATOM     33  O   UNL A   1      41.978  26.153  26.182  1.00  0.00    -0.460 OA
BRANCH  33  34
ATOM     34  C   UNL A   1      42.131  27.346  25.542  1.00  0.00     0.338 C 
ATOM     35  O   UNL A   1      42.753  27.505  24.504  1.00  0.00    -0.246 OA
BRANCH  34  36
ATOM     36  C   UNL A   1      41.566  28.440  26.395  1.00  0.00     0.060 A 
ATOM     37  C   UNL A   1      42.418  29.376  26.953  1.00  0.00     0.016 A 
ATOM     38  C   UNL A   1      40.237  28.425  26.837  1.00  0.00     0.016 A 
ATOM     39  C   UNL A   1      41.979  30.120  28.061  1.00  0.00     0.010 A 
ATOM     40  C   UNL A   1      39.873  29.064  28.038  1.00  0.00     0.010 A 
ATOM     41  C   UNL A   1      40.809  29.788  28.784  1.00  0.00    -0.014 A 
BRANCH  41  42
ATOM     42  C   UNL A   1      40.425  30.128  30.246  1.00  0.00     0.031 A 
ATOM     43  C   UNL A   1      39.762  31.459  30.371  1.00  0.00     0.074 A 
ATOM     44  C   UNL A   1      40.652  29.554  31.512  1.00  0.00     0.049 A 
ATOM     45  N   UNL A   1      39.588  32.066  31.500  1.00  0.00    -0.248 NA
ATOM     46  C   UNL A   1      39.405  32.290  29.216  1.00  0.00     0.031 C 
ATOM     47  C   UNL A   1      39.634  29.590  32.580  1.00  0.00     0.029 A 
ATOM     48  N   UNL A   1      41.600  28.718  32.168  1.00  0.00    -0.354 N 
ATOM     49  C   UNL A   1      38.701  33.060  31.233  1.00  0.00     0.074 A 
ATOM     50  C   UNL A   1      38.875  33.349  29.836  1.00  0.00     0.031 C 
ATOM     51  C   UNL A   1      40.091  29.017  33.707  1.00  0.00     0.029 A 
ATOM     52  C   UNL A   1      41.475  28.617  33.537  1.00  0.00     0.049 A 
ATOM     53  H   UNL A   1      42.304  28.240  31.672  1.00  0.00     0.167 HD
ATOM     54  C   UNL A   1      37.695  33.261  32.120  1.00  0.00     0.034 A 
ATOM     55  C   UNL A   1      42.472  28.511  34.479  1.00  0.00     0.034 A 
ATOM     56  C   UNL A   1      37.963  32.675  33.445  1.00  0.00     0.049 A 
ATOM     57  C   UNL A   1      42.278  29.614  35.490  1.00  0.00     0.074 A 
ATOM     58  C   UNL A   1      37.348  31.689  34.197  1.00  0.00     0.029 A 
ATOM     59  N   UNL A   1      39.152  32.982  34.121  1.00  0.00    -0.354 N 
ATOM     60  N   UNL A   1      41.336  30.494  35.315  1.00  0.00    -0.248 NA
ATOM     61  C   UNL A   1      43.042  29.896  36.701  1.00  0.00     0.031 C 
ATOM     62  C   UNL A   1      38.188  31.382  35.305  1.00  0.00     0.029 A 
ATOM     63  C   UNL A   1      39.297  32.213  35.267  1.00  0.00     0.049 A 
ATOM     64  H   UNL A   1      39.803  33.659  33.820  1.00  0.00     0.167 HD
ATOM     65  C   UNL A   1      41.324  31.427  36.292  1.00  0.00     0.074 A 
ATOM     66  C   UNL A   1      42.426  31.014  37.151  1.00  0.00     0.031 C 
ATOM     67  C   UNL A   1      40.402  32.433  36.219  1.00  0.00     0.034 A 
BRANCH  54  68
ATOM     68  C   UNL A   1      36.355  33.808  31.673  1.00  0.00     0.023 A 
ATOM     69  C   UNL A   1      35.711  34.745  32.497  1.00  0.00     0.012 A 
ATOM     70  C   UNL A   1      35.641  33.410  30.512  1.00  0.00     0.148 A 
ATOM     71  C   UNL A   1      34.471  35.301  32.149  1.00  0.00     0.002 A 
ATOM     72  C   UNL A   1      34.489  34.065  30.093  1.00  0.00     0.091 A 
ATOM     73  F   UNL A   1      35.967  32.287  29.858  1.00  0.00    -0.205 F 
ATOM     74  C   UNL A   1      33.885  35.004  30.922  1.00  0.00     0.022 A 
BRANCH  72  75
ATOM     75  S   UNL A   1      33.829  33.792  28.440  1.00  0.00     0.127 S 
ATOM     76  O   UNL A   1      33.651  32.342  28.407  1.00  0.00    -0.237 OA
ATOM     77  O   UNL A   1      32.585  34.561  28.460  1.00  0.00    -0.237 OA
ATOM     78  O   UNL A   1      34.838  34.324  27.527  1.00  0.00    -0.744 OA
ENDBRANCH  72  75
ENDBRANCH  54  68
BRANCH  55  79
ATOM     79  C   UNL A   1      43.695  27.635  34.289  1.00  0.00     0.023 A 
ATOM     80  C   UNL A   1      44.881  28.321  33.930  1.00  0.00     0.012 A 
ATOM     81  C   UNL A   1      43.844  26.266  34.618  1.00  0.00     0.148 A 
ATOM     82  C   UNL A   1      46.155  27.734  34.021  1.00  0.00     0.002 A 
ATOM     83  C   UNL A   1      45.136  25.709  34.808  1.00  0.00     0.091 A 
ATOM     84  F   UNL A   1      42.738  25.543  34.823  1.00  0.00    -0.205 F 
ATOM     85  C   UNL A   1      46.285  26.447  34.508  1.00  0.00     0.022 A 
BRANCH  83  86
ATOM     86  S   UNL A   1      45.477  24.191  35.745  1.00  0.00     0.127 S 
ATOM     87  O   UNL A   1      45.159  24.591  37.116  1.00  0.00    -0.237 OA
ATOM     88  O   UNL A   1      44.537  23.226  35.169  1.00  0.00    -0.237 OA
ATOM     89  O   UNL A   1      46.876  23.889  35.511  1.00  0.00    -0.744 OA
ENDBRANCH  83  86
ENDBRANCH  55  79
BRANCH  67  90
ATOM     90  C   UNL A   1      40.401  33.701  37.039  1.00  0.00     0.023 A 
ATOM     91  C   UNL A   1      39.512  33.928  38.103  1.00  0.00     0.012 A 
ATOM     92  C   UNL A   1      41.434  34.656  36.856  1.00  0.00     0.148 A 
ATOM     93  C   UNL A   1      39.639  35.045  38.939  1.00  0.00     0.002 A 
ATOM     94  C   UNL A   1      41.631  35.688  37.762  1.00  0.00     0.091 A 
ATOM     95  F   UNL A   1      42.233  34.596  35.781  1.00  0.00    -0.205 F 
ATOM     96  C   UNL A   1      40.721  35.904  38.793  1.00  0.00     0.022 A 
BRANCH  94  97
ATOM     97  S   UNL A   1      43.158  36.634  37.726  1.00  0.00     0.127 S 
ATOM     98  O   UNL A   1      44.169  35.581  37.798  1.00  0.00    -0.237 OA
ATOM     99  O   UNL A   1      43.072  37.313  36.433  1.00  0.00    -0.237 OA
ATOM    100  O   UNL A   1      43.073  37.529  38.873  1.00  0.00    -0.744 OA
ENDBRANCH  94  97
ENDBRANCH  67  90
ENDBRANCH  41  42
ENDBRANCH  34  36
ENDBRANCH  33  34
ENDBRANCH  32  33
ENDBRANCH  31  32
ENDBRANCH  30  31
ENDBRANCH  29  30
ENDBRANCH   1  29
TORSDOF 23
ENDMDL
