MODEL 1
REMARK VINA RESULT:     -10.1      0.000      0.000
REMARK SMILES O=C(CC1(NC(=O)C2(c3ccccc3)CC2)CCC1)OCCOCCOCCOC(=O)c1ccc(-c2c3nc(c(-c4cccc(S(=O)(=O)[O-])c4F)c4ccc([nH]4)c(-c4cccc(S(=O)(=O)[O-])c4F)c4nc(c(-c5cccc(S(=O)(=O)[O-])c5F)c5ccc2[nH]5)C=C4)C=C3)cc1
REMARK SMILES IDX 24 1 23 2 22 3 21 4 20 5 2 6 1 7 3 8 4 9 17 10 19 11 18 12
REMARK SMILES IDX 5 13 6 14 7 16 8 17 15 18 16 19 9 20 10 21 14 22 11 23 13 24
REMARK SMILES IDX 12 25 25 26 26 27 27 28 28 29 29 30 30 31 31 32 32 33 33 34
REMARK SMILES IDX 94 35 34 36 93 37 35 38 36 39 37 40 87 41 38 42 92 43 86 44
REMARK SMILES IDX 88 45 39 46 91 47 85 48 84 49 40 51 72 52 52 53 71 54 53 55
REMARK SMILES IDX 56 56 70 57 89 58 54 59 55 60 69 62 90 63 57 64 41 65 42 66
REMARK SMILES IDX 50 67 43 68 45 69 51 70 44 71 46 72 47 73 48 74 49 75 73 76
REMARK SMILES IDX 74 77 82 78 75 79 77 80 83 81 76 82 78 83 79 84 80 85 81 86
REMARK SMILES IDX 58 87 59 88 67 89 60 90 62 91 68 92 61 93 63 94 64 95 65 96
REMARK SMILES IDX 66 97
REMARK H PARENT 5 15 88 50 56 61
REMARK Flexibility Score: inf
ROOT
ATOM      1  C   UNL A   1      40.412  21.282  26.806  1.00  0.00     0.188 C 
ENDROOT
BRANCH   1   2
ATOM      2  O   UNL A   1      39.693  21.956  25.766  1.00  0.00    -0.376 OA
BRANCH   2   3
ATOM      3  C   UNL A   1      38.286  22.149  25.966  1.00  0.00     0.202 C 
BRANCH   3   4
ATOM      4  C   UNL A   1      37.427  22.051  24.701  1.00  0.00     0.261 C 
BRANCH   4   5
ATOM      5  O   UNL A   1      36.157  22.578  25.059  1.00  0.00    -0.463 OA
BRANCH   5   6
ATOM      6  C   UNL A   1      35.042  21.953  24.625  1.00  0.00     0.308 C 
ATOM      7  O   UNL A   1      34.935  20.738  24.528  1.00  0.00    -0.252 OA
BRANCH   6   8
ATOM      8  C   UNL A   1      33.951  23.145  24.227  1.00  0.00     0.151 C 
BRANCH   8   9
ATOM      9  C   UNL A   1      32.043  23.764  25.080  1.00  0.00     0.051 C 
ATOM     10  C   UNL A   1      30.649  22.779  25.795  1.00  0.00     0.029 C 
ATOM     11  C   UNL A   1      31.638  24.541  26.707  1.00  0.00     0.029 C 
ATOM     12  C   UNL A   1      30.225  23.959  26.670  1.00  0.00     0.005 C 
BRANCH   9  13
ATOM     13  N   UNL A   1      30.860  24.855  24.189  1.00  0.00    -0.349 N 
ATOM     14  C   UNL A   1      31.189  25.936  23.378  1.00  0.00     0.231 C 
ATOM     15  H   UNL A   1      29.902  24.655  24.296  1.00  0.00     0.164 HD
ATOM     16  O   UNL A   1      30.403  26.486  22.619  1.00  0.00    -0.274 OA
BRANCH  14  17
ATOM     17  C   UNL A   1      32.543  26.449  23.689  1.00  0.00     0.074 C 
ATOM     18  C   UNL A   1      33.794  25.674  23.389  1.00  0.00     0.023 C 
ATOM     19  C   UNL A   1      33.470  26.908  22.593  1.00  0.00     0.023 C 
BRANCH  17  20
ATOM     20  C   UNL A   1      32.353  27.251  24.930  1.00  0.00    -0.032 A 
ATOM     21  C   UNL A   1      31.330  28.735  24.855  1.00  0.00     0.005 A 
ATOM     22  C   UNL A   1      33.816  27.233  26.024  1.00  0.00     0.005 A 
ATOM     23  C   UNL A   1      31.780  30.197  25.800  1.00  0.00     0.000 A 
ATOM     24  C   UNL A   1      34.300  28.719  26.895  1.00  0.00     0.000 A 
ATOM     25  C   UNL A   1      33.231  30.166  26.849  1.00  0.00     0.000 A 
ENDBRANCH  17  20
ENDBRANCH  14  17
ENDBRANCH   9  13
ENDBRANCH   8   9
ENDBRANCH   6   8
ENDBRANCH   5   6
ENDBRANCH   4   5
ENDBRANCH   3   4
ENDBRANCH   2   3
ENDBRANCH   1   2
BRANCH   1  26
ATOM     26  C   UNL A   1      40.817  19.866  26.402  1.00  0.00     0.188 C 
BRANCH  26  27
ATOM     27  O   UNL A   1      42.210  19.620  26.555  1.00  0.00    -0.376 OA
BRANCH  27  28
ATOM     28  C   UNL A   1      42.622  18.265  26.394  1.00  0.00     0.202 C 
BRANCH  28  29
ATOM     29  C   UNL A   1      43.973  18.243  25.676  1.00  0.00     0.261 C 
BRANCH  29  30
ATOM     30  O   UNL A   1      43.965  19.166  24.565  1.00  0.00    -0.460 OA
BRANCH  30  31
ATOM     31  C   UNL A   1      45.098  19.895  24.411  1.00  0.00     0.338 C 
ATOM     32  O   UNL A   1      46.152  19.522  23.921  1.00  0.00    -0.246 OA
BRANCH  31  33
ATOM     33  C   UNL A   1      44.910  21.275  24.914  1.00  0.00     0.060 A 
ATOM     34  C   UNL A   1      44.714  22.293  23.973  1.00  0.00     0.016 A 
ATOM     35  C   UNL A   1      45.054  21.594  26.270  1.00  0.00     0.016 A 
ATOM     36  C   UNL A   1      44.734  23.630  24.372  1.00  0.00     0.010 A 
ATOM     37  C   UNL A   1      45.085  22.935  26.668  1.00  0.00     0.010 A 
ATOM     38  C   UNL A   1      44.973  23.957  25.713  1.00  0.00    -0.014 A 
BRANCH  38  39
ATOM     39  C   UNL A   1      45.287  25.362  26.067  1.00  0.00     0.031 A 
ATOM     40  C   UNL A   1      44.166  26.263  26.514  1.00  0.00     0.074 A 
ATOM     41  C   UNL A   1      46.546  25.830  26.020  1.00  0.00     0.049 A 
ATOM     42  N   UNL A   1      44.227  27.470  27.011  1.00  0.00    -0.248 NA
ATOM     43  C   UNL A   1      42.800  25.727  26.392  1.00  0.00     0.031 C 
ATOM     44  C   UNL A   1      47.716  25.073  25.580  1.00  0.00     0.029 A 
ATOM     45  N   UNL A   1      47.044  27.066  26.345  1.00  0.00    -0.354 N 
ATOM     46  C   UNL A   1      42.914  27.831  27.283  1.00  0.00     0.074 A 
ATOM     47  C   UNL A   1      42.073  26.730  26.867  1.00  0.00     0.031 C 
ATOM     48  C   UNL A   1      48.799  25.868  25.653  1.00  0.00     0.029 A 
ATOM     49  C   UNL A   1      48.400  27.181  26.157  1.00  0.00     0.049 A 
ATOM     50  H   UNL A   1      46.483  27.802  26.681  1.00  0.00     0.167 HD
ATOM     51  C   UNL A   1      42.450  28.961  27.866  1.00  0.00     0.034 A 
ATOM     52  C   UNL A   1      49.224  28.223  26.387  1.00  0.00     0.034 A 
ATOM     53  C   UNL A   1      43.278  30.054  28.292  1.00  0.00     0.049 A 
ATOM     54  C   UNL A   1      48.675  29.491  26.984  1.00  0.00     0.074 A 
ATOM     55  C   UNL A   1      42.905  31.210  28.956  1.00  0.00     0.029 A 
ATOM     56  N   UNL A   1      44.643  30.134  28.080  1.00  0.00    -0.354 N 
ATOM     57  N   UNL A   1      47.461  29.744  27.408  1.00  0.00    -0.248 NA
ATOM     58  C   UNL A   1      49.618  30.606  27.162  1.00  0.00     0.031 C 
ATOM     59  C   UNL A   1      44.052  31.991  29.146  1.00  0.00     0.029 A 
ATOM     60  C   UNL A   1      45.130  31.327  28.584  1.00  0.00     0.049 A 
ATOM     61  H   UNL A   1      45.187  29.444  27.636  1.00  0.00     0.167 HD
ATOM     62  C   UNL A   1      47.501  31.032  27.932  1.00  0.00     0.074 A 
ATOM     63  C   UNL A   1      48.861  31.505  27.780  1.00  0.00     0.031 C 
ATOM     64  C   UNL A   1      46.498  31.762  28.477  1.00  0.00     0.034 A 
BRANCH  51  65
ATOM     65  C   UNL A   1      40.980  29.024  28.162  1.00  0.00     0.023 A 
ATOM     66  C   UNL A   1      40.094  29.260  27.093  1.00  0.00     0.012 A 
ATOM     67  C   UNL A   1      40.471  28.825  29.456  1.00  0.00     0.148 A 
ATOM     68  C   UNL A   1      38.719  29.304  27.309  1.00  0.00     0.002 A 
ATOM     69  C   UNL A   1      39.096  28.859  29.663  1.00  0.00     0.091 A 
ATOM     70  F   UNL A   1      41.333  28.645  30.469  1.00  0.00    -0.205 F 
ATOM     71  C   UNL A   1      38.218  29.097  28.592  1.00  0.00     0.022 A 
BRANCH  69  72
ATOM     72  S   UNL A   1      38.394  28.578  31.291  1.00  0.00     0.127 S 
ATOM     73  O   UNL A   1      39.145  29.527  32.109  1.00  0.00    -0.237 OA
ATOM     74  O   UNL A   1      36.983  28.923  31.102  1.00  0.00    -0.237 OA
ATOM     75  O   UNL A   1      38.630  27.166  31.564  1.00  0.00    -0.744 OA
ENDBRANCH  69  72
ENDBRANCH  51  65
BRANCH  52  76
ATOM     76  C   UNL A   1      50.681  28.080  26.132  1.00  0.00     0.023 A 
ATOM     77  C   UNL A   1      51.552  27.882  27.219  1.00  0.00     0.012 A 
ATOM     78  C   UNL A   1      51.207  28.118  24.829  1.00  0.00     0.148 A 
ATOM     79  C   UNL A   1      52.925  27.738  27.012  1.00  0.00     0.002 A 
ATOM     80  C   UNL A   1      52.572  27.936  24.628  1.00  0.00     0.091 A 
ATOM     81  F   UNL A   1      50.372  28.323  23.800  1.00  0.00    -0.205 F 
ATOM     82  C   UNL A   1      53.436  27.757  25.716  1.00  0.00     0.022 A 
BRANCH  80  83
ATOM     83  S   UNL A   1      53.222  27.852  22.957  1.00  0.00     0.127 S 
ATOM     84  O   UNL A   1      52.387  26.824  22.348  1.00  0.00    -0.237 OA
ATOM     85  O   UNL A   1      52.999  29.206  22.446  1.00  0.00    -0.237 OA
ATOM     86  O   UNL A   1      54.629  27.522  23.162  1.00  0.00    -0.744 OA
ENDBRANCH  80  83
ENDBRANCH  52  76
BRANCH  64  87
ATOM     87  C   UNL A   1      46.820  33.151  28.949  1.00  0.00     0.023 A 
ATOM     88  C   UNL A   1      47.317  33.331  30.253  1.00  0.00     0.012 A 
ATOM     89  C   UNL A   1      46.721  34.259  28.087  1.00  0.00     0.148 A 
ATOM     90  C   UNL A   1      47.702  34.596  30.697  1.00  0.00     0.002 A 
ATOM     91  C   UNL A   1      47.131  35.513  28.528  1.00  0.00     0.091 A 
ATOM     92  F   UNL A   1      46.232  34.079  26.850  1.00  0.00    -0.205 F 
ATOM     93  C   UNL A   1      47.619  35.686  29.832  1.00  0.00     0.022 A 
BRANCH  91  94
ATOM     94  S   UNL A   1      47.092  36.916  27.409  1.00  0.00     0.127 S 
ATOM     95  O   UNL A   1      45.664  37.067  27.145  1.00  0.00    -0.237 OA
ATOM     96  O   UNL A   1      47.676  37.998  28.204  1.00  0.00    -0.237 OA
ATOM     97  O   UNL A   1      47.919  36.496  26.283  1.00  0.00    -0.744 OA
ENDBRANCH  91  94
ENDBRANCH  64  87
ENDBRANCH  38  39
ENDBRANCH  31  33
ENDBRANCH  30  31
ENDBRANCH  29  30
ENDBRANCH  28  29
ENDBRANCH  27  28
ENDBRANCH  26  27
ENDBRANCH   1  26
TORSDOF 24
ENDMDL
MODEL 2
REMARK VINA RESULT:      -9.4      6.502     12.090
REMARK SMILES O=C(CC1(NC(=O)C2(c3ccccc3)CC2)CCC1)OCCOCCOCCOC(=O)c1ccc(-c2c3nc(c(-c4cccc(S(=O)(=O)[O-])c4F)c4ccc([nH]4)c(-c4cccc(S(=O)(=O)[O-])c4F)c4nc(c(-c5cccc(S(=O)(=O)[O-])c5F)c5ccc2[nH]5)C=C4)C=C3)cc1
REMARK SMILES IDX 24 1 23 2 22 3 21 4 20 5 2 6 1 7 3 8 4 9 17 10 19 11 18 12
REMARK SMILES IDX 5 13 6 14 7 16 8 17 15 18 16 19 9 20 10 21 14 22 11 23 13 24
REMARK SMILES IDX 12 25 25 26 26 27 27 28 28 29 29 30 30 31 31 32 32 33 33 34
REMARK SMILES IDX 94 35 34 36 93 37 35 38 36 39 37 40 87 41 38 42 92 43 86 44
REMARK SMILES IDX 88 45 39 46 91 47 85 48 84 49 40 51 72 52 52 53 71 54 53 55
REMARK SMILES IDX 56 56 70 57 89 58 54 59 55 60 69 62 90 63 57 64 41 65 42 66
REMARK SMILES IDX 50 67 43 68 45 69 51 70 44 71 46 72 47 73 48 74 49 75 73 76
REMARK SMILES IDX 74 77 82 78 75 79 77 80 83 81 76 82 78 83 79 84 80 85 81 86
REMARK SMILES IDX 58 87 59 88 67 89 60 90 62 91 68 92 61 93 63 94 64 95 65 96
REMARK SMILES IDX 66 97
REMARK H PARENT 5 15 88 50 56 61
REMARK Flexibility Score: inf
ROOT
ATOM      1  C   UNL A   1      35.973  29.559  27.610  1.00  0.00     0.188 C 
ENDROOT
BRANCH   1   2
ATOM      2  O   UNL A   1      34.779  29.013  27.034  1.00  0.00    -0.376 OA
BRANCH   2   3
ATOM      3  C   UNL A   1      33.601  29.829  27.082  1.00  0.00     0.202 C 
BRANCH   3   4
ATOM      4  C   UNL A   1      32.290  29.101  26.767  1.00  0.00     0.261 C 
BRANCH   4   5
ATOM      5  O   UNL A   1      32.479  27.763  27.208  1.00  0.00    -0.463 OA
BRANCH   5   6
ATOM      6  C   UNL A   1      31.709  26.786  26.685  1.00  0.00     0.308 C 
ATOM      7  O   UNL A   1      30.486  26.774  26.747  1.00  0.00    -0.252 OA
BRANCH   6   8
ATOM      8  C   UNL A   1      32.745  25.658  26.035  1.00  0.00     0.151 C 
BRANCH   8   9
ATOM      9  C   UNL A   1      32.713  24.490  24.194  1.00  0.00     0.051 C 
ATOM     10  C   UNL A   1      31.823  24.758  22.594  1.00  0.00     0.029 C 
ATOM     11  C   UNL A   1      33.975  24.298  22.859  1.00  0.00     0.029 C 
ATOM     12  C   UNL A   1      32.889  23.968  21.835  1.00  0.00     0.005 C 
BRANCH   9  13
ATOM     13  N   UNL A   1      32.306  22.696  24.160  1.00  0.00    -0.349 N 
ATOM     14  C   UNL A   1      32.483  21.792  25.202  1.00  0.00     0.231 C 
ATOM     15  H   UNL A   1      31.925  22.342  23.323  1.00  0.00     0.164 HD
ATOM     16  O   UNL A   1      31.989  20.674  25.229  1.00  0.00    -0.274 OA
BRANCH  14  17
ATOM     17  C   UNL A   1      33.492  22.280  26.171  1.00  0.00     0.074 C 
ATOM     18  C   UNL A   1      33.180  23.311  27.217  1.00  0.00     0.023 C 
ATOM     19  C   UNL A   1      33.428  21.885  27.623  1.00  0.00     0.023 C 
BRANCH  17  20
ATOM     20  C   UNL A   1      34.774  22.242  25.413  1.00  0.00    -0.032 A 
ATOM     21  C   UNL A   1      35.467  20.639  24.962  1.00  0.00     0.005 A 
ATOM     22  C   UNL A   1      35.904  23.609  25.851  1.00  0.00     0.005 A 
ATOM     23  C   UNL A   1      37.246  20.375  25.002  1.00  0.00     0.000 A 
ATOM     24  C   UNL A   1      37.665  23.313  25.967  1.00  0.00     0.000 A 
ATOM     25  C   UNL A   1      38.335  21.722  25.456  1.00  0.00     0.000 A 
ENDBRANCH  17  20
ENDBRANCH  14  17
ENDBRANCH   9  13
ENDBRANCH   8   9
ENDBRANCH   6   8
ENDBRANCH   5   6
ENDBRANCH   4   5
ENDBRANCH   3   4
ENDBRANCH   2   3
ENDBRANCH   1   2
BRANCH   1  26
ATOM     26  C   UNL A   1      35.800  31.020  28.017  1.00  0.00     0.188 C 
BRANCH  26  27
ATOM     27  O   UNL A   1      36.178  31.272  29.365  1.00  0.00    -0.376 OA
BRANCH  27  28
ATOM     28  C   UNL A   1      36.385  30.120  30.177  1.00  0.00     0.202 C 
BRANCH  28  29
ATOM     29  C   UNL A   1      37.873  30.018  30.516  1.00  0.00     0.261 C 
BRANCH  29  30
ATOM     30  O   UNL A   1      38.155  28.759  31.166  1.00  0.00    -0.460 OA
BRANCH  30  31
ATOM     31  C   UNL A   1      38.051  28.771  32.518  1.00  0.00     0.338 C 
ATOM     32  O   UNL A   1      37.382  28.020  33.211  1.00  0.00    -0.246 OA
BRANCH  31  33
ATOM     33  C   UNL A   1      38.893  29.840  33.103  1.00  0.00     0.060 A 
ATOM     34  C   UNL A   1      38.287  31.072  33.378  1.00  0.00     0.016 A 
ATOM     35  C   UNL A   1      40.276  29.689  33.260  1.00  0.00     0.016 A 
ATOM     36  C   UNL A   1      39.066  32.172  33.737  1.00  0.00     0.010 A 
ATOM     37  C   UNL A   1      41.059  30.795  33.609  1.00  0.00     0.010 A 
ATOM     38  C   UNL A   1      40.461  32.051  33.802  1.00  0.00    -0.014 A 
BRANCH  38  39
ATOM     39  C   UNL A   1      41.288  33.277  33.888  1.00  0.00     0.031 A 
ATOM     40  C   UNL A   1      41.844  33.865  32.617  1.00  0.00     0.074 A 
ATOM     41  C   UNL A   1      41.525  33.880  35.066  1.00  0.00     0.049 A 
ATOM     42  N   UNL A   1      42.461  35.003  32.436  1.00  0.00    -0.248 NA
ATOM     43  C   UNL A   1      41.672  33.068  31.391  1.00  0.00     0.031 C 
ATOM     44  C   UNL A   1      41.071  33.401  36.369  1.00  0.00     0.029 A 
ATOM     45  N   UNL A   1      42.219  35.030  35.348  1.00  0.00    -0.354 N 
ATOM     46  C   UNL A   1      42.731  35.071  31.075  1.00  0.00     0.074 A 
ATOM     47  C   UNL A   1      42.241  33.846  30.480  1.00  0.00     0.031 C 
ATOM     48  C   UNL A   1      41.509  34.249  37.319  1.00  0.00     0.029 A 
ATOM     49  C   UNL A   1      42.259  35.334  36.687  1.00  0.00     0.049 A 
ATOM     50  H   UNL A   1      42.647  35.584  34.657  1.00  0.00     0.167 HD
ATOM     51  C   UNL A   1      43.299  36.079  30.374  1.00  0.00     0.034 A 
ATOM     52  C   UNL A   1      42.821  36.380  37.324  1.00  0.00     0.034 A 
ATOM     53  C   UNL A   1      43.777  37.303  30.954  1.00  0.00     0.049 A 
ATOM     54  C   UNL A   1      43.497  37.463  36.527  1.00  0.00     0.074 A 
ATOM     55  C   UNL A   1      44.304  38.413  30.315  1.00  0.00     0.029 A 
ATOM     56  N   UNL A   1      43.805  37.570  32.312  1.00  0.00    -0.354 N 
ATOM     57  N   UNL A   1      43.577  37.601  35.226  1.00  0.00    -0.248 NA
ATOM     58  C   UNL A   1      44.133  38.552  37.287  1.00  0.00     0.031 C 
ATOM     59  C   UNL A   1      44.649  39.354  31.293  1.00  0.00     0.029 A 
ATOM     60  C   UNL A   1      44.354  38.819  32.536  1.00  0.00     0.049 A 
ATOM     61  H   UNL A   1      43.481  36.960  33.014  1.00  0.00     0.167 HD
ATOM     62  C   UNL A   1      44.242  38.804  35.010  1.00  0.00     0.074 A 
ATOM     63  C   UNL A   1      44.536  39.361  36.315  1.00  0.00     0.031 C 
ATOM     64  C   UNL A   1      44.590  39.387  33.837  1.00  0.00     0.034 A 
BRANCH  51  65
ATOM     65  C   UNL A   1      43.342  35.935  28.882  1.00  0.00     0.023 A 
ATOM     66  C   UNL A   1      42.234  36.381  28.136  1.00  0.00     0.012 A 
ATOM     67  C   UNL A   1      44.458  35.399  28.216  1.00  0.00     0.148 A 
ATOM     68  C   UNL A   1      42.233  36.292  26.745  1.00  0.00     0.002 A 
ATOM     69  C   UNL A   1      44.455  35.324  26.827  1.00  0.00     0.091 A 
ATOM     70  F   UNL A   1      45.485  34.939  28.945  1.00  0.00    -0.205 F 
ATOM     71  C   UNL A   1      43.345  35.770  26.090  1.00  0.00     0.022 A 
BRANCH  69  72
ATOM     72  S   UNL A   1      45.869  34.680  25.928  1.00  0.00     0.127 S 
ATOM     73  O   UNL A   1      45.269  34.314  24.648  1.00  0.00    -0.237 OA
ATOM     74  O   UNL A   1      46.771  35.833  25.870  1.00  0.00    -0.237 OA
ATOM     75  O   UNL A   1      46.364  33.579  26.744  1.00  0.00    -0.744 OA
ENDBRANCH  69  72
ENDBRANCH  51  65
BRANCH  52  76
ATOM     76  C   UNL A   1      42.691  36.501  38.800  1.00  0.00     0.023 A 
ATOM     77  C   UNL A   1      43.789  36.174  39.616  1.00  0.00     0.012 A 
ATOM     78  C   UNL A   1      41.503  36.955  39.399  1.00  0.00     0.148 A 
ATOM     79  C   UNL A   1      43.701  36.283  41.004  1.00  0.00     0.002 A 
ATOM     80  C   UNL A   1      41.435  37.096  40.781  1.00  0.00     0.091 A 
ATOM     81  F   UNL A   1      40.455  37.249  38.615  1.00  0.00    -0.205 F 
ATOM     82  C   UNL A   1      42.526  36.751  41.588  1.00  0.00     0.022 A 
BRANCH  80  83
ATOM     83  S   UNL A   1      39.964  37.800  41.532  1.00  0.00     0.127 S 
ATOM     84  O   UNL A   1      39.773  39.022  40.759  1.00  0.00    -0.237 OA
ATOM     85  O   UNL A   1      38.950  36.768  41.308  1.00  0.00    -0.237 OA
ATOM     86  O   UNL A   1      40.347  37.959  42.932  1.00  0.00    -0.744 OA
ENDBRANCH  80  83
ENDBRANCH  52  76
BRANCH  64  87
ATOM     87  C   UNL A   1      45.331  40.692  33.898  1.00  0.00     0.023 A 
ATOM     88  C   UNL A   1      46.738  40.678  33.924  1.00  0.00     0.012 A 
ATOM     89  C   UNL A   1      44.653  41.923  33.839  1.00  0.00     0.148 A 
ATOM     90  C   UNL A   1      47.460  41.871  33.899  1.00  0.00     0.002 A 
ATOM     91  C   UNL A   1      45.380  43.109  33.788  1.00  0.00     0.091 A 
ATOM     92  F   UNL A   1      43.311  41.927  33.830  1.00  0.00    -0.205 F 
ATOM     93  C   UNL A   1      46.782  43.087  33.821  1.00  0.00     0.022 A 
BRANCH  91  94
ATOM     94  S   UNL A   1      44.527  44.680  33.624  1.00  0.00     0.127 S 
ATOM     95  O   UNL A   1      45.336  45.564  34.458  1.00  0.00    -0.237 OA
ATOM     96  O   UNL A   1      44.612  44.960  32.189  1.00  0.00    -0.237 OA
ATOM     97  O   UNL A   1      43.175  44.401  34.094  1.00  0.00    -0.744 OA
ENDBRANCH  91  94
ENDBRANCH  64  87
ENDBRANCH  38  39
ENDBRANCH  31  33
ENDBRANCH  30  31
ENDBRANCH  29  30
ENDBRANCH  28  29
ENDBRANCH  27  28
ENDBRANCH  26  27
ENDBRANCH   1  26
TORSDOF 24
ENDMDL
MODEL 3
REMARK VINA RESULT:      -9.4      0.996      2.213
REMARK SMILES O=C(CC1(NC(=O)C2(c3ccccc3)CC2)CCC1)OCCOCCOCCOC(=O)c1ccc(-c2c3nc(c(-c4cccc(S(=O)(=O)[O-])c4F)c4ccc([nH]4)c(-c4cccc(S(=O)(=O)[O-])c4F)c4nc(c(-c5cccc(S(=O)(=O)[O-])c5F)c5ccc2[nH]5)C=C4)C=C3)cc1
REMARK SMILES IDX 24 1 23 2 22 3 21 4 20 5 2 6 1 7 3 8 4 9 17 10 19 11 18 12
REMARK SMILES IDX 5 13 6 14 7 16 8 17 15 18 16 19 9 20 10 21 14 22 11 23 13 24
REMARK SMILES IDX 12 25 25 26 26 27 27 28 28 29 29 30 30 31 31 32 32 33 33 34
REMARK SMILES IDX 94 35 34 36 93 37 35 38 36 39 37 40 87 41 38 42 92 43 86 44
REMARK SMILES IDX 88 45 39 46 91 47 85 48 84 49 40 51 72 52 52 53 71 54 53 55
REMARK SMILES IDX 56 56 70 57 89 58 54 59 55 60 69 62 90 63 57 64 41 65 42 66
REMARK SMILES IDX 50 67 43 68 45 69 51 70 44 71 46 72 47 73 48 74 49 75 73 76
REMARK SMILES IDX 74 77 82 78 75 79 77 80 83 81 76 82 78 83 79 84 80 85 81 86
REMARK SMILES IDX 58 87 59 88 67 89 60 90 62 91 68 92 61 93 63 94 64 95 65 96
REMARK SMILES IDX 66 97
REMARK H PARENT 5 15 88 50 56 61
REMARK Flexibility Score: inf
ROOT
ATOM      1  C   UNL A   1      40.377  21.529  26.836  1.00  0.00     0.188 C 
ENDROOT
BRANCH   1   2
ATOM      2  O   UNL A   1      39.638  22.285  25.868  1.00  0.00    -0.376 OA
BRANCH   2   3
ATOM      3  C   UNL A   1      38.559  23.091  26.358  1.00  0.00     0.202 C 
BRANCH   3   4
ATOM      4  C   UNL A   1      37.190  22.799  25.733  1.00  0.00     0.261 C 
BRANCH   4   5
ATOM      5  O   UNL A   1      36.475  24.027  25.788  1.00  0.00    -0.463 OA
BRANCH   5   6
ATOM      6  C   UNL A   1      35.169  24.009  26.129  1.00  0.00     0.308 C 
ATOM      7  O   UNL A   1      34.678  23.202  26.907  1.00  0.00    -0.252 OA
BRANCH   6   8
ATOM      8  C   UNL A   1      34.432  25.220  25.258  1.00  0.00     0.151 C 
BRANCH   8   9
ATOM      9  C   UNL A   1      33.524  27.121  25.821  1.00  0.00     0.051 C 
ATOM     10  C   UNL A   1      32.314  27.548  27.154  1.00  0.00     0.029 C 
ATOM     11  C   UNL A   1      34.224  28.581  26.711  1.00  0.00     0.029 C 
ATOM     12  C   UNL A   1      32.836  28.983  27.210  1.00  0.00     0.005 C 
BRANCH   9  13
ATOM     13  N   UNL A   1      32.634  28.194  24.621  1.00  0.00    -0.349 N 
ATOM     14  C   UNL A   1      31.429  27.900  23.991  1.00  0.00     0.231 C 
ATOM     15  H   UNL A   1      33.050  29.060  24.405  1.00  0.00     0.164 HD
ATOM     16  O   UNL A   1      30.752  28.723  23.391  1.00  0.00    -0.274 OA
BRANCH  14  17
ATOM     17  C   UNL A   1      31.172  26.442  23.977  1.00  0.00     0.074 C 
ATOM     18  C   UNL A   1      30.661  25.695  25.176  1.00  0.00     0.023 C 
ATOM     19  C   UNL A   1      29.765  25.902  23.986  1.00  0.00     0.023 C 
BRANCH  17  20
ATOM     20  C   UNL A   1      32.204  25.898  23.051  1.00  0.00    -0.032 A 
ATOM     21  C   UNL A   1      32.206  26.450  21.333  1.00  0.00     0.005 A 
ATOM     22  C   UNL A   1      32.669  24.173  23.432  1.00  0.00     0.005 A 
ATOM     23  C   UNL A   1      32.601  25.298  20.009  1.00  0.00     0.000 A 
ATOM     24  C   UNL A   1      32.980  23.015  22.103  1.00  0.00     0.000 A 
ATOM     25  C   UNL A   1      33.031  23.605  20.403  1.00  0.00     0.000 A 
ENDBRANCH  17  20
ENDBRANCH  14  17
ENDBRANCH   9  13
ENDBRANCH   8   9
ENDBRANCH   6   8
ENDBRANCH   5   6
ENDBRANCH   4   5
ENDBRANCH   3   4
ENDBRANCH   2   3
ENDBRANCH   1   2
BRANCH   1  26
ATOM     26  C   UNL A   1      40.748  20.141  26.321  1.00  0.00     0.188 C 
BRANCH  26  27
ATOM     27  O   UNL A   1      42.136  19.854  26.439  1.00  0.00    -0.376 OA
BRANCH  27  28
ATOM     28  C   UNL A   1      42.494  18.476  26.371  1.00  0.00     0.202 C 
BRANCH  28  29
ATOM     29  C   UNL A   1      43.849  18.354  25.671  1.00  0.00     0.261 C 
BRANCH  29  30
ATOM     30  O   UNL A   1      43.907  19.239  24.532  1.00  0.00    -0.460 OA
BRANCH  30  31
ATOM     31  C   UNL A   1      45.056  19.948  24.409  1.00  0.00     0.338 C 
ATOM     32  O   UNL A   1      46.111  19.564  23.929  1.00  0.00    -0.246 OA
BRANCH  31  33
ATOM     33  C   UNL A   1      44.887  21.323  24.935  1.00  0.00     0.060 A 
ATOM     34  C   UNL A   1      44.623  22.346  24.016  1.00  0.00     0.016 A 
ATOM     35  C   UNL A   1      45.112  21.632  26.281  1.00  0.00     0.016 A 
ATOM     36  C   UNL A   1      44.654  23.680  24.424  1.00  0.00     0.010 A 
ATOM     37  C   UNL A   1      45.154  22.970  26.688  1.00  0.00     0.010 A 
ATOM     38  C   UNL A   1      44.973  23.999  25.751  1.00  0.00    -0.014 A 
BRANCH  38  39
ATOM     39  C   UNL A   1      45.295  25.404  26.097  1.00  0.00     0.031 A 
ATOM     40  C   UNL A   1      44.178  26.315  26.533  1.00  0.00     0.074 A 
ATOM     41  C   UNL A   1      46.557  25.863  26.051  1.00  0.00     0.049 A 
ATOM     42  N   UNL A   1      44.245  27.525  27.022  1.00  0.00    -0.248 NA
ATOM     43  C   UNL A   1      42.809  25.788  26.410  1.00  0.00     0.031 C 
ATOM     44  C   UNL A   1      47.723  25.096  25.620  1.00  0.00     0.029 A 
ATOM     45  N   UNL A   1      47.062  27.099  26.369  1.00  0.00    -0.354 N 
ATOM     46  C   UNL A   1      42.933  27.897  27.287  1.00  0.00     0.074 A 
ATOM     47  C   UNL A   1      42.087  26.798  26.875  1.00  0.00     0.031 C 
ATOM     48  C   UNL A   1      48.811  25.885  25.691  1.00  0.00     0.029 A 
ATOM     49  C   UNL A   1      48.419  27.204  26.186  1.00  0.00     0.049 A 
ATOM     50  H   UNL A   1      46.504  27.840  26.698  1.00  0.00     0.167 HD
ATOM     51  C   UNL A   1      42.474  29.033  27.860  1.00  0.00     0.034 A 
ATOM     52  C   UNL A   1      49.248  28.242  26.411  1.00  0.00     0.034 A 
ATOM     53  C   UNL A   1      43.307  30.124  28.283  1.00  0.00     0.049 A 
ATOM     54  C   UNL A   1      48.705  29.517  26.998  1.00  0.00     0.074 A 
ATOM     55  C   UNL A   1      42.940  31.287  28.937  1.00  0.00     0.029 A 
ATOM     56  N   UNL A   1      44.674  30.194  28.075  1.00  0.00    -0.354 N 
ATOM     57  N   UNL A   1      47.491  29.781  27.416  1.00  0.00    -0.248 NA
ATOM     58  C   UNL A   1      49.655  30.628  27.172  1.00  0.00     0.031 C 
ATOM     59  C   UNL A   1      44.091  32.061  29.126  1.00  0.00     0.029 A 
ATOM     60  C   UNL A   1      45.166  31.386  28.572  1.00  0.00     0.049 A 
ATOM     61  H   UNL A   1      45.215  29.497  27.637  1.00  0.00     0.167 HD
ATOM     62  C   UNL A   1      47.538  31.072  27.931  1.00  0.00     0.074 A 
ATOM     63  C   UNL A   1      48.902  31.535  27.781  1.00  0.00     0.031 C 
ATOM     64  C   UNL A   1      46.537  31.812  28.468  1.00  0.00     0.034 A 
BRANCH  51  65
ATOM     65  C   UNL A   1      41.004  29.107  28.151  1.00  0.00     0.023 A 
ATOM     66  C   UNL A   1      40.124  29.354  27.078  1.00  0.00     0.012 A 
ATOM     67  C   UNL A   1      40.488  28.910  29.442  1.00  0.00     0.148 A 
ATOM     68  C   UNL A   1      38.748  29.409  27.289  1.00  0.00     0.002 A 
ATOM     69  C   UNL A   1      39.112  28.954  29.643  1.00  0.00     0.091 A 
ATOM     70  F   UNL A   1      41.344  28.719  30.458  1.00  0.00    -0.205 F 
ATOM     71  C   UNL A   1      38.241  29.203  28.570  1.00  0.00     0.022 A 
BRANCH  69  72
ATOM     72  S   UNL A   1      38.401  28.674  31.268  1.00  0.00     0.127 S 
ATOM     73  O   UNL A   1      36.975  28.840  31.003  1.00  0.00    -0.237 OA
ATOM     74  O   UNL A   1      38.808  27.299  31.569  1.00  0.00    -0.237 OA
ATOM     75  O   UNL A   1      39.017  29.678  32.127  1.00  0.00    -0.744 OA
ENDBRANCH  69  72
ENDBRANCH  51  65
BRANCH  52  76
ATOM     76  C   UNL A   1      50.706  28.088  26.163  1.00  0.00     0.023 A 
ATOM     77  C   UNL A   1      51.565  27.836  27.248  1.00  0.00     0.012 A 
ATOM     78  C   UNL A   1      51.243  28.168  24.866  1.00  0.00     0.148 A 
ATOM     79  C   UNL A   1      52.937  27.680  27.047  1.00  0.00     0.002 A 
ATOM     80  C   UNL A   1      52.607  27.975  24.670  1.00  0.00     0.091 A 
ATOM     81  F   UNL A   1      50.420  28.425  23.839  1.00  0.00    -0.205 F 
ATOM     82  C   UNL A   1      53.459  27.742  25.757  1.00  0.00     0.022 A 
BRANCH  80  83
ATOM     83  S   UNL A   1      53.270  27.945  23.002  1.00  0.00     0.127 S 
ATOM     84  O   UNL A   1      52.286  27.139  22.288  1.00  0.00    -0.237 OA
ATOM     85  O   UNL A   1      53.290  29.361  22.628  1.00  0.00    -0.237 OA
ATOM     86  O   UNL A   1      54.596  27.361  23.179  1.00  0.00    -0.744 OA
ENDBRANCH  80  83
ENDBRANCH  52  76
BRANCH  64  87
ATOM     87  C   UNL A   1      46.867  33.203  28.931  1.00  0.00     0.023 A 
ATOM     88  C   UNL A   1      47.360  33.388  30.236  1.00  0.00     0.012 A 
ATOM     89  C   UNL A   1      46.778  34.305  28.061  1.00  0.00     0.148 A 
ATOM     90  C   UNL A   1      47.752  34.654  30.673  1.00  0.00     0.002 A 
ATOM     91  C   UNL A   1      47.195  35.559  28.495  1.00  0.00     0.091 A 
ATOM     92  F   UNL A   1      46.293  34.120  26.824  1.00  0.00    -0.205 F 
ATOM     93  C   UNL A   1      47.679  35.739  29.800  1.00  0.00     0.022 A 
BRANCH  91  94
ATOM     94  S   UNL A   1      47.169  36.955  27.366  1.00  0.00     0.127 S 
ATOM     95  O   UNL A   1      47.787  36.399  26.166  1.00  0.00    -0.237 OA
ATOM     96  O   UNL A   1      45.742  37.251  27.230  1.00  0.00    -0.237 OA
ATOM     97  O   UNL A   1      47.925  37.990  28.064  1.00  0.00    -0.744 OA
ENDBRANCH  91  94
ENDBRANCH  64  87
ENDBRANCH  38  39
ENDBRANCH  31  33
ENDBRANCH  30  31
ENDBRANCH  29  30
ENDBRANCH  28  29
ENDBRANCH  27  28
ENDBRANCH  26  27
ENDBRANCH   1  26
TORSDOF 24
ENDMDL
