MODEL 1
REMARK VINA RESULT:     -10.7      0.000      0.000
REMARK SMILES CCc1ccnc(C(=O)c2[nH]c3ccc(OC(F)(F)F)cc3c2CC(=O)OCCOCCOCCOC(=O)c2ccc(-c3c4nc(c(-c5cccc(S(=O)(=O)[O-])c5F)c5ccc([nH]5)c(-c5cccc(S(=O)(=O)[O-])c5F)c5nc(c(-c6cccc(S(=O)(=O)[O-])c6F)c6ccc3[nH]6)C=C5)C=C4)cc2)c1
REMARK SMILES IDX 31 1 30 2 29 3 28 4 27 5 25 6 26 7 24 8 23 9 10 10 11 11
REMARK SMILES IDX 12 12 22 14 13 15 21 16 14 17 15 18 8 19 9 20 7 21 3 22 4 23
REMARK SMILES IDX 102 24 5 25 6 26 2 27 1 28 16 29 17 30 18 31 19 32 20 33
REMARK SMILES IDX 32 34 33 35 34 36 35 37 36 38 37 39 38 40 39 41 40 42 101 43
REMARK SMILES IDX 41 44 100 45 42 46 43 47 44 48 94 49 45 50 99 51 93 52 95 53
REMARK SMILES IDX 46 54 98 55 92 56 91 57 47 59 79 60 59 61 78 62 60 63 63 64
REMARK SMILES IDX 77 65 96 66 61 67 62 68 76 70 97 71 64 72 48 73 49 74 57 75
REMARK SMILES IDX 50 76 52 77 58 78 51 79 53 80 54 81 55 82 56 83 80 84 81 85
REMARK SMILES IDX 89 86 82 87 84 88 90 89 83 90 85 91 86 92 87 93 88 94 65 95
REMARK SMILES IDX 66 96 74 97 67 98 69 99 75 100 68 101 70 102 71 103 72 104
REMARK SMILES IDX 73 105
REMARK H PARENT 11 13 95 58 63 69
REMARK Flexibility Score: inf
ROOT
ATOM      1  C   UNL A   1      35.872  21.980  24.024  1.00  0.00     0.188 C 
ENDROOT
BRANCH   1   2
ATOM      2  O   UNL A   1      35.028  23.054  24.421  1.00  0.00    -0.376 OA
BRANCH   2   3
ATOM      3  C   UNL A   1      35.295  23.677  25.670  1.00  0.00     0.202 C 
BRANCH   3   4
ATOM      4  C   UNL A   1      34.876  25.144  25.778  1.00  0.00     0.261 C 
BRANCH   4   5
ATOM      5  O   UNL A   1      34.384  25.667  24.523  1.00  0.00    -0.463 OA
BRANCH   5   6
ATOM      6  C   UNL A   1      33.720  26.846  24.615  1.00  0.00     0.310 C 
ATOM      7  O   UNL A   1      33.889  27.773  23.823  1.00  0.00    -0.252 OA
BRANCH   6   8
ATOM      8  C   UNL A   1      32.682  26.951  25.717  1.00  0.00     0.161 C 
BRANCH   8   9
ATOM      9  C   UNL A   1      31.244  26.553  25.466  1.00  0.00     0.000 A 
ATOM     10  C   UNL A   1      30.649  25.305  25.695  1.00  0.00     0.093 A 
ATOM     11  N   UNL A   1      29.321  25.419  25.350  1.00  0.00    -0.352 N 
ATOM     12  C   UNL A   1      29.138  26.530  24.567  1.00  0.00     0.046 A 
ATOM     13  H   UNL A   1      28.609  24.796  25.623  1.00  0.00     0.167 HD
ATOM     14  C   UNL A   1      30.313  27.274  24.641  1.00  0.00     0.008 A 
ATOM     15  C   UNL A   1      28.046  26.908  23.783  1.00  0.00     0.030 A 
ATOM     16  C   UNL A   1      30.407  28.447  23.867  1.00  0.00     0.057 A 
ATOM     17  C   UNL A   1      28.192  28.040  22.973  1.00  0.00     0.049 A 
ATOM     18  C   UNL A   1      29.367  28.791  22.991  1.00  0.00     0.130 A 
BRANCH  10  19
ATOM     19  C   UNL A   1      31.261  24.091  26.203  1.00  0.00     0.227 C 
ATOM     20  O   UNL A   1      31.400  23.881  27.406  1.00  0.00    -0.285 OA
BRANCH  19  21
ATOM     21  C   UNL A   1      31.790  23.067  25.255  1.00  0.00     0.113 A 
ATOM     22  C   UNL A   1      32.331  20.790  24.729  1.00  0.00    -0.044 A 
ATOM     23  C   UNL A   1      32.144  21.120  23.382  1.00  0.00     0.024 A 
ATOM     24  C   UNL A   1      32.116  21.788  25.692  1.00  0.00     0.036 A 
ATOM     25  C   UNL A   1      31.888  22.437  23.045  1.00  0.00     0.112 A 
ATOM     26  N   UNL A   1      31.751  23.424  23.952  1.00  0.00    -0.253 NA
BRANCH  22  27
ATOM     27  C   UNL A   1      32.660  19.378  25.148  1.00  0.00     0.032 C 
ATOM     28  C   UNL A   1      33.676  18.688  24.239  1.00  0.00     0.009 C 
ENDBRANCH  22  27
ENDBRANCH  19  21
ENDBRANCH  10  19
BRANCH  18  29
ATOM     29  O   UNL A   1      29.645  29.867  22.194  1.00  0.00    -0.406 OA
BRANCH  29  30
ATOM     30  C   UNL A   1      28.547  30.636  21.737  1.00  0.00     0.573 C 
ATOM     31  F   UNL A   1      28.937  31.830  21.238  1.00  0.00    -0.132 F 
ATOM     32  F   UNL A   1      27.849  29.963  20.797  1.00  0.00    -0.132 F 
ATOM     33  F   UNL A   1      27.718  30.873  22.780  1.00  0.00    -0.132 F 
ENDBRANCH  29  30
ENDBRANCH  18  29
ENDBRANCH   8   9
ENDBRANCH   6   8
ENDBRANCH   5   6
ENDBRANCH   4   5
ENDBRANCH   3   4
ENDBRANCH   2   3
ENDBRANCH   1   2
BRANCH   1  34
ATOM     34  C   UNL A   1      36.894  21.430  25.042  1.00  0.00     0.188 C 
BRANCH  34  35
ATOM     35  O   UNL A   1      37.177  20.036  25.060  1.00  0.00    -0.376 OA
BRANCH  35  36
ATOM     36  C   UNL A   1      38.516  19.647  24.774  1.00  0.00     0.202 C 
BRANCH  36  37
ATOM     37  C   UNL A   1      39.345  19.290  26.003  1.00  0.00     0.261 C 
BRANCH  37  38
ATOM     38  O   UNL A   1      40.752  19.397  25.719  1.00  0.00    -0.460 OA
BRANCH  38  39
ATOM     39  C   UNL A   1      41.505  19.776  26.776  1.00  0.00     0.338 C 
ATOM     40  O   UNL A   1      42.281  19.075  27.405  1.00  0.00    -0.246 OA
BRANCH  39  41
ATOM     41  C   UNL A   1      41.278  21.193  27.116  1.00  0.00     0.060 A 
ATOM     42  C   UNL A   1      40.786  22.075  26.158  1.00  0.00     0.016 A 
ATOM     43  C   UNL A   1      41.818  21.690  28.298  1.00  0.00     0.016 A 
ATOM     44  C   UNL A   1      40.993  23.448  26.296  1.00  0.00     0.010 A 
ATOM     45  C   UNL A   1      41.927  23.073  28.482  1.00  0.00     0.010 A 
ATOM     46  C   UNL A   1      41.592  23.966  27.449  1.00  0.00    -0.014 A 
BRANCH  46  47
ATOM     47  C   UNL A   1      41.959  25.410  27.549  1.00  0.00     0.031 A 
ATOM     48  C   UNL A   1      43.310  25.883  27.061  1.00  0.00     0.074 A 
ATOM     49  C   UNL A   1      41.097  26.307  28.069  1.00  0.00     0.049 A 
ATOM     50  N   UNL A   1      43.893  27.043  27.226  1.00  0.00    -0.248 NA
ATOM     51  C   UNL A   1      44.111  24.924  26.280  1.00  0.00     0.031 C 
ATOM     52  C   UNL A   1      39.733  26.018  28.510  1.00  0.00     0.029 A 
ATOM     53  N   UNL A   1      41.256  27.647  28.342  1.00  0.00    -0.354 N 
ATOM     54  C   UNL A   1      45.145  26.933  26.630  1.00  0.00     0.074 A 
ATOM     55  C   UNL A   1      45.234  25.598  26.080  1.00  0.00     0.031 C 
ATOM     56  C   UNL A   1      39.182  27.135  29.005  1.00  0.00     0.029 A 
ATOM     57  C   UNL A   1      40.184  28.194  29.009  1.00  0.00     0.049 A 
ATOM     58  H   UNL A   1      42.056  28.160  28.085  1.00  0.00     0.167 HD
ATOM     59  C   UNL A   1      46.137  27.853  26.554  1.00  0.00     0.034 A 
ATOM     60  C   UNL A   1      40.042  29.385  29.622  1.00  0.00     0.034 A 
ATOM     61  C   UNL A   1      46.047  29.182  27.097  1.00  0.00     0.049 A 
ATOM     62  C   UNL A   1      41.187  30.357  29.608  1.00  0.00     0.074 A 
ATOM     63  C   UNL A   1      47.000  30.185  27.082  1.00  0.00     0.029 A 
ATOM     64  N   UNL A   1      44.944  29.691  27.764  1.00  0.00    -0.354 N 
ATOM     65  N   UNL A   1      42.354  30.250  29.020  1.00  0.00    -0.248 NA
ATOM     66  C   UNL A   1      40.995  31.619  30.336  1.00  0.00     0.031 C 
ATOM     67  C   UNL A   1      46.488  31.286  27.777  1.00  0.00     0.029 A 
ATOM     68  C   UNL A   1      45.200  30.983  28.188  1.00  0.00     0.049 A 
ATOM     69  H   UNL A   1      44.101  29.204  27.915  1.00  0.00     0.167 HD
ATOM     70  C   UNL A   1      43.025  31.438  29.285  1.00  0.00     0.074 A 
ATOM     71  C   UNL A   1      42.125  32.259  30.068  1.00  0.00     0.031 C 
ATOM     72  C   UNL A   1      44.279  31.808  28.927  1.00  0.00     0.034 A 
BRANCH  59  73
ATOM     73  C   UNL A   1      47.422  27.447  25.881  1.00  0.00     0.023 A 
ATOM     74  C   UNL A   1      47.531  27.495  24.476  1.00  0.00     0.012 A 
ATOM     75  C   UNL A   1      48.541  27.063  26.647  1.00  0.00     0.148 A 
ATOM     76  C   UNL A   1      48.723  27.139  23.844  1.00  0.00     0.002 A 
ATOM     77  C   UNL A   1      49.737  26.747  26.013  1.00  0.00     0.091 A 
ATOM     78  F   UNL A   1      48.411  27.005  27.980  1.00  0.00    -0.205 F 
ATOM     79  C   UNL A   1      49.826  26.774  24.611  1.00  0.00     0.022 A 
BRANCH  77  80
ATOM     80  S   UNL A   1      51.230  26.324  26.916  1.00  0.00     0.127 S 
ATOM     81  O   UNL A   1      52.243  27.077  26.176  1.00  0.00    -0.237 OA
ATOM     82  O   UNL A   1      50.941  26.846  28.252  1.00  0.00    -0.237 OA
ATOM     83  O   UNL A   1      51.350  24.875  26.840  1.00  0.00    -0.744 OA
ENDBRANCH  77  80
ENDBRANCH  59  73
BRANCH  60  84
ATOM     84  C   UNL A   1      38.770  29.704  30.332  1.00  0.00     0.023 A 
ATOM     85  C   UNL A   1      38.548  29.205  31.629  1.00  0.00     0.012 A 
ATOM     86  C   UNL A   1      37.794  30.534  29.741  1.00  0.00     0.148 A 
ATOM     87  C   UNL A   1      37.375  29.514  32.318  1.00  0.00     0.002 A 
ATOM     88  C   UNL A   1      36.660  30.891  30.458  1.00  0.00     0.091 A 
ATOM     89  F   UNL A   1      38.007  30.975  28.493  1.00  0.00    -0.205 F 
ATOM     90  C   UNL A   1      36.439  30.369  31.741  1.00  0.00     0.022 A 
BRANCH  88  91
ATOM     91  S   UNL A   1      35.481  32.101  29.845  1.00  0.00     0.127 S 
ATOM     92  O   UNL A   1      34.874  31.385  28.726  1.00  0.00    -0.237 OA
ATOM     93  O   UNL A   1      34.608  32.289  31.004  1.00  0.00    -0.237 OA
ATOM     94  O   UNL A   1      36.270  33.274  29.494  1.00  0.00    -0.744 OA
ENDBRANCH  88  91
ENDBRANCH  60  84
BRANCH  72  95
ATOM     95  C   UNL A   1      44.744  33.178  29.340  1.00  0.00     0.023 A 
ATOM     96  C   UNL A   1      44.420  34.299  28.552  1.00  0.00     0.012 A 
ATOM     97  C   UNL A   1      45.450  33.359  30.545  1.00  0.00     0.148 A 
ATOM     98  C   UNL A   1      44.820  35.578  28.942  1.00  0.00     0.002 A 
ATOM     99  C   UNL A   1      45.800  34.641  30.953  1.00  0.00     0.091 A 
ATOM    100  F   UNL A   1      45.768  32.277  31.270  1.00  0.00    -0.205 F 
ATOM    101  C   UNL A   1      45.498  35.750  30.146  1.00  0.00     0.022 A 
BRANCH  99 102
ATOM    102  S   UNL A   1      46.586  34.962  32.535  1.00  0.00     0.127 S 
ATOM    103  O   UNL A   1      47.043  36.341  32.368  1.00  0.00    -0.237 OA
ATOM    104  O   UNL A   1      45.476  34.797  33.474  1.00  0.00    -0.237 OA
ATOM    105  O   UNL A   1      47.641  33.965  32.668  1.00  0.00    -0.744 OA
ENDBRANCH  99 102
ENDBRANCH  72  95
ENDBRANCH  46  47
ENDBRANCH  39  41
ENDBRANCH  38  39
ENDBRANCH  37  38
ENDBRANCH  36  37
ENDBRANCH  35  36
ENDBRANCH  34  35
ENDBRANCH   1  34
TORSDOF 26
ENDMDL
MODEL 2
REMARK VINA RESULT:     -10.7      1.772      2.241
REMARK SMILES CCc1ccnc(C(=O)c2[nH]c3ccc(OC(F)(F)F)cc3c2CC(=O)OCCOCCOCCOC(=O)c2ccc(-c3c4nc(c(-c5cccc(S(=O)(=O)[O-])c5F)c5ccc([nH]5)c(-c5cccc(S(=O)(=O)[O-])c5F)c5nc(c(-c6cccc(S(=O)(=O)[O-])c6F)c6ccc3[nH]6)C=C5)C=C4)cc2)c1
REMARK SMILES IDX 31 1 30 2 29 3 28 4 27 5 25 6 26 7 24 8 23 9 10 10 11 11
REMARK SMILES IDX 12 12 22 14 13 15 21 16 14 17 15 18 8 19 9 20 7 21 3 22 4 23
REMARK SMILES IDX 102 24 5 25 6 26 2 27 1 28 16 29 17 30 18 31 19 32 20 33
REMARK SMILES IDX 32 34 33 35 34 36 35 37 36 38 37 39 38 40 39 41 40 42 101 43
REMARK SMILES IDX 41 44 100 45 42 46 43 47 44 48 94 49 45 50 99 51 93 52 95 53
REMARK SMILES IDX 46 54 98 55 92 56 91 57 47 59 79 60 59 61 78 62 60 63 63 64
REMARK SMILES IDX 77 65 96 66 61 67 62 68 76 70 97 71 64 72 48 73 49 74 57 75
REMARK SMILES IDX 50 76 52 77 58 78 51 79 53 80 54 81 55 82 56 83 80 84 81 85
REMARK SMILES IDX 89 86 82 87 84 88 90 89 83 90 85 91 86 92 87 93 88 94 65 95
REMARK SMILES IDX 66 96 74 97 67 98 69 99 75 100 68 101 70 102 71 103 72 104
REMARK SMILES IDX 73 105
REMARK H PARENT 11 13 95 58 63 69
REMARK Flexibility Score: inf
ROOT
ATOM      1  C   UNL A   1      35.870  21.873  24.154  1.00  0.00     0.188 C 
ENDROOT
BRANCH   1   2
ATOM      2  O   UNL A   1      34.972  22.908  24.534  1.00  0.00    -0.376 OA
BRANCH   2   3
ATOM      3  C   UNL A   1      35.216  23.576  25.764  1.00  0.00     0.202 C 
BRANCH   3   4
ATOM      4  C   UNL A   1      34.887  25.070  25.780  1.00  0.00     0.261 C 
BRANCH   4   5
ATOM      5  O   UNL A   1      34.246  25.502  24.559  1.00  0.00    -0.463 OA
BRANCH   5   6
ATOM      6  C   UNL A   1      33.686  26.736  24.612  1.00  0.00     0.310 C 
ATOM      7  O   UNL A   1      33.950  27.627  23.805  1.00  0.00    -0.252 OA
BRANCH   6   8
ATOM      8  C   UNL A   1      32.640  26.955  25.689  1.00  0.00     0.161 C 
BRANCH   8   9
ATOM      9  C   UNL A   1      31.196  26.568  25.456  1.00  0.00     0.000 A 
ATOM     10  C   UNL A   1      30.594  25.324  25.693  1.00  0.00     0.093 A 
ATOM     11  N   UNL A   1      29.263  25.448  25.364  1.00  0.00    -0.352 N 
ATOM     12  C   UNL A   1      29.079  26.560  24.583  1.00  0.00     0.046 A 
ATOM     13  H   UNL A   1      28.550  24.830  25.647  1.00  0.00     0.167 HD
ATOM     14  C   UNL A   1      30.260  27.295  24.642  1.00  0.00     0.008 A 
ATOM     15  C   UNL A   1      27.980  26.946  23.813  1.00  0.00     0.030 A 
ATOM     16  C   UNL A   1      30.353  28.467  23.867  1.00  0.00     0.057 A 
ATOM     17  C   UNL A   1      28.125  28.077  23.001  1.00  0.00     0.049 A 
ATOM     18  C   UNL A   1      29.305  28.819  23.003  1.00  0.00     0.130 A 
BRANCH  10  19
ATOM     19  C   UNL A   1      31.204  24.106  26.194  1.00  0.00     0.227 C 
ATOM     20  O   UNL A   1      31.591  23.996  27.356  1.00  0.00    -0.285 OA
BRANCH  19  21
ATOM     21  C   UNL A   1      31.422  22.948  25.279  1.00  0.00     0.113 A 
ATOM     22  C   UNL A   1      32.168  22.057  23.180  1.00  0.00    -0.044 A 
ATOM     23  C   UNL A   1      32.405  20.850  23.846  1.00  0.00     0.024 A 
ATOM     24  C   UNL A   1      31.692  23.144  23.929  1.00  0.00     0.036 A 
ATOM     25  C   UNL A   1      32.040  20.735  25.175  1.00  0.00     0.112 A 
ATOM     26  N   UNL A   1      31.513  21.747  25.892  1.00  0.00    -0.253 NA
BRANCH  22  27
ATOM     27  C   UNL A   1      32.503  22.220  21.717  1.00  0.00     0.032 C 
ATOM     28  C   UNL A   1      33.338  23.463  21.412  1.00  0.00     0.009 C 
ENDBRANCH  22  27
ENDBRANCH  19  21
ENDBRANCH  10  19
BRANCH  18  29
ATOM     29  O   UNL A   1      29.581  29.893  22.203  1.00  0.00    -0.406 OA
BRANCH  29  30
ATOM     30  C   UNL A   1      28.887  31.097  22.472  1.00  0.00     0.573 C 
ATOM     31  F   UNL A   1      28.835  31.367  23.796  1.00  0.00    -0.132 F 
ATOM     32  F   UNL A   1      29.459  32.135  21.825  1.00  0.00    -0.132 F 
ATOM     33  F   UNL A   1      27.616  30.976  22.024  1.00  0.00    -0.132 F 
ENDBRANCH  29  30
ENDBRANCH  18  29
ENDBRANCH   8   9
ENDBRANCH   6   8
ENDBRANCH   5   6
ENDBRANCH   4   5
ENDBRANCH   3   4
ENDBRANCH   2   3
ENDBRANCH   1   2
BRANCH   1  34
ATOM     34  C   UNL A   1      36.963  21.441  25.155  1.00  0.00     0.188 C 
BRANCH  34  35
ATOM     35  O   UNL A   1      37.263  20.058  25.304  1.00  0.00    -0.376 OA
BRANCH  35  36
ATOM     36  C   UNL A   1      38.564  19.636  24.915  1.00  0.00     0.202 C 
BRANCH  36  37
ATOM     37  C   UNL A   1      39.467  19.225  26.073  1.00  0.00     0.261 C 
BRANCH  37  38
ATOM     38  O   UNL A   1      40.844  19.181  25.657  1.00  0.00    -0.460 OA
BRANCH  38  39
ATOM     39  C   UNL A   1      41.718  19.647  26.578  1.00  0.00     0.338 C 
ATOM     40  O   UNL A   1      42.602  19.011  27.129  1.00  0.00    -0.246 OA
BRANCH  39  41
ATOM     41  C   UNL A   1      41.481  21.073  26.870  1.00  0.00     0.060 A 
ATOM     42  C   UNL A   1      41.126  21.949  25.849  1.00  0.00     0.016 A 
ATOM     43  C   UNL A   1      41.883  21.577  28.103  1.00  0.00     0.016 A 
ATOM     44  C   UNL A   1      41.341  23.321  25.994  1.00  0.00     0.010 A 
ATOM     45  C   UNL A   1      41.996  22.961  28.282  1.00  0.00     0.010 A 
ATOM     46  C   UNL A   1      41.807  23.845  27.205  1.00  0.00    -0.014 A 
BRANCH  46  47
ATOM     47  C   UNL A   1      42.187  25.283  27.331  1.00  0.00     0.031 A 
ATOM     48  C   UNL A   1      43.538  25.753  26.841  1.00  0.00     0.074 A 
ATOM     49  C   UNL A   1      41.338  26.177  27.876  1.00  0.00     0.049 A 
ATOM     50  N   UNL A   1      44.134  26.904  27.024  1.00  0.00    -0.248 NA
ATOM     51  C   UNL A   1      44.324  24.803  26.033  1.00  0.00     0.031 C 
ATOM     52  C   UNL A   1      39.976  25.890  28.323  1.00  0.00     0.029 A 
ATOM     53  N   UNL A   1      41.512  27.509  28.175  1.00  0.00    -0.354 N 
ATOM     54  C   UNL A   1      45.379  26.796  26.415  1.00  0.00     0.074 A 
ATOM     55  C   UNL A   1      45.452  25.472  25.837  1.00  0.00     0.031 C 
ATOM     56  C   UNL A   1      39.439  27.002  28.845  1.00  0.00     0.029 A 
ATOM     57  C   UNL A   1      40.450  28.052  28.862  1.00  0.00     0.049 A 
ATOM     58  H   UNL A   1      42.314  28.021  27.922  1.00  0.00     0.167 HD
ATOM     59  C   UNL A   1      46.379  27.709  26.349  1.00  0.00     0.034 A 
ATOM     60  C   UNL A   1      40.325  29.232  29.501  1.00  0.00     0.034 A 
ATOM     61  C   UNL A   1      46.305  29.027  26.919  1.00  0.00     0.049 A 
ATOM     62  C   UNL A   1      41.478  30.194  29.496  1.00  0.00     0.074 A 
ATOM     63  C   UNL A   1      47.268  30.021  26.916  1.00  0.00     0.029 A 
ATOM     64  N   UNL A   1      45.213  29.532  27.606  1.00  0.00    -0.354 N 
ATOM     65  N   UNL A   1      42.639  30.088  28.896  1.00  0.00    -0.248 NA
ATOM     66  C   UNL A   1      41.303  31.442  30.252  1.00  0.00     0.031 C 
ATOM     67  C   UNL A   1      46.772  31.112  27.638  1.00  0.00     0.029 A 
ATOM     68  C   UNL A   1      45.484  30.813  28.054  1.00  0.00     0.049 A 
ATOM     69  H   UNL A   1      44.367  29.049  27.755  1.00  0.00     0.167 HD
ATOM     70  C   UNL A   1      43.323  31.264  29.179  1.00  0.00     0.074 A 
ATOM     71  C   UNL A   1      42.437  32.078  29.987  1.00  0.00     0.031 C 
ATOM     72  C   UNL A   1      44.577  31.630  28.818  1.00  0.00     0.034 A 
BRANCH  59  73
ATOM     73  C   UNL A   1      47.655  27.305  25.656  1.00  0.00     0.023 A 
ATOM     74  C   UNL A   1      48.674  26.650  26.377  1.00  0.00     0.012 A 
ATOM     75  C   UNL A   1      47.823  27.534  24.276  1.00  0.00     0.148 A 
ATOM     76  C   UNL A   1      49.851  26.255  25.741  1.00  0.00     0.002 A 
ATOM     77  C   UNL A   1      48.982  27.104  23.641  1.00  0.00     0.091 A 
ATOM     78  F   UNL A   1      46.850  28.176  23.613  1.00  0.00    -0.205 F 
ATOM     79  C   UNL A   1      50.001  26.473  24.373  1.00  0.00     0.022 A 
BRANCH  77  80
ATOM     80  S   UNL A   1      49.242  27.284  21.873  1.00  0.00     0.127 S 
ATOM     81  O   UNL A   1      48.848  28.676  21.659  1.00  0.00    -0.237 OA
ATOM     82  O   UNL A   1      50.678  27.032  21.746  1.00  0.00    -0.237 OA
ATOM     83  O   UNL A   1      48.391  26.289  21.237  1.00  0.00    -0.744 OA
ENDBRANCH  77  80
ENDBRANCH  59  73
BRANCH  60  84
ATOM     84  C   UNL A   1      39.061  29.547  30.228  1.00  0.00     0.023 A 
ATOM     85  C   UNL A   1      38.746  28.858  31.414  1.00  0.00     0.012 A 
ATOM     86  C   UNL A   1      38.190  30.557  29.769  1.00  0.00     0.148 A 
ATOM     87  C   UNL A   1      37.582  29.159  32.122  1.00  0.00     0.002 A 
ATOM     88  C   UNL A   1      37.067  30.895  30.513  1.00  0.00     0.091 A 
ATOM     89  F   UNL A   1      38.488  31.181  28.621  1.00  0.00    -0.205 F 
ATOM     90  C   UNL A   1      36.751  30.187  31.681  1.00  0.00     0.022 A 
BRANCH  88  91
ATOM     91  S   UNL A   1      36.028  32.300  30.094  1.00  0.00     0.127 S 
ATOM     92  O   UNL A   1      36.449  33.288  31.085  1.00  0.00    -0.237 OA
ATOM     93  O   UNL A   1      36.445  32.588  28.721  1.00  0.00    -0.237 OA
ATOM     94  O   UNL A   1      34.657  31.824  30.216  1.00  0.00    -0.744 OA
ENDBRANCH  88  91
ENDBRANCH  60  84
BRANCH  72  95
ATOM     95  C   UNL A   1      45.058  32.988  29.254  1.00  0.00     0.023 A 
ATOM     96  C   UNL A   1      45.749  33.132  30.472  1.00  0.00     0.012 A 
ATOM     97  C   UNL A   1      44.880  34.110  28.422  1.00  0.00     0.148 A 
ATOM     98  C   UNL A   1      46.228  34.381  30.871  1.00  0.00     0.002 A 
ATOM     99  C   UNL A   1      45.404  35.340  28.801  1.00  0.00     0.091 A 
ATOM    100  F   UNL A   1      44.201  33.955  27.275  1.00  0.00    -0.205 F 
ATOM    101  C   UNL A   1      46.066  35.480  30.031  1.00  0.00     0.022 A 
BRANCH  99 102
ATOM    102  S   UNL A   1      45.327  36.784  27.736  1.00  0.00     0.127 S 
ATOM    103  O   UNL A   1      45.994  37.795  28.555  1.00  0.00    -0.237 OA
ATOM    104  O   UNL A   1      46.090  36.348  26.565  1.00  0.00    -0.237 OA
ATOM    105  O   UNL A   1      43.912  37.018  27.480  1.00  0.00    -0.744 OA
ENDBRANCH  99 102
ENDBRANCH  72  95
ENDBRANCH  46  47
ENDBRANCH  39  41
ENDBRANCH  38  39
ENDBRANCH  37  38
ENDBRANCH  36  37
ENDBRANCH  35  36
ENDBRANCH  34  35
ENDBRANCH   1  34
TORSDOF 26
ENDMDL
MODEL 3
REMARK VINA RESULT:     -10.5      3.451      9.352
REMARK SMILES CCc1ccnc(C(=O)c2[nH]c3ccc(OC(F)(F)F)cc3c2CC(=O)OCCOCCOCCOC(=O)c2ccc(-c3c4nc(c(-c5cccc(S(=O)(=O)[O-])c5F)c5ccc([nH]5)c(-c5cccc(S(=O)(=O)[O-])c5F)c5nc(c(-c6cccc(S(=O)(=O)[O-])c6F)c6ccc3[nH]6)C=C5)C=C4)cc2)c1
REMARK SMILES IDX 31 1 30 2 29 3 28 4 27 5 25 6 26 7 24 8 23 9 10 10 11 11
REMARK SMILES IDX 12 12 22 14 13 15 21 16 14 17 15 18 8 19 9 20 7 21 3 22 4 23
REMARK SMILES IDX 102 24 5 25 6 26 2 27 1 28 16 29 17 30 18 31 19 32 20 33
REMARK SMILES IDX 32 34 33 35 34 36 35 37 36 38 37 39 38 40 39 41 40 42 101 43
REMARK SMILES IDX 41 44 100 45 42 46 43 47 44 48 94 49 45 50 99 51 93 52 95 53
REMARK SMILES IDX 46 54 98 55 92 56 91 57 47 59 79 60 59 61 78 62 60 63 63 64
REMARK SMILES IDX 77 65 96 66 61 67 62 68 76 70 97 71 64 72 48 73 49 74 57 75
REMARK SMILES IDX 50 76 52 77 58 78 51 79 53 80 54 81 55 82 56 83 80 84 81 85
REMARK SMILES IDX 89 86 82 87 84 88 90 89 83 90 85 91 86 92 87 93 88 94 65 95
REMARK SMILES IDX 66 96 74 97 67 98 69 99 75 100 68 101 70 102 71 103 72 104
REMARK SMILES IDX 73 105
REMARK H PARENT 11 13 95 58 63 69
REMARK Flexibility Score: inf
ROOT
ATOM      1  C   UNL A   1      34.236  32.142  28.575  1.00  0.00     0.188 C 
ENDROOT
BRANCH   1   2
ATOM      2  O   UNL A   1      34.432  30.855  28.003  1.00  0.00    -0.376 OA
BRANCH   2   3
ATOM      3  C   UNL A   1      33.592  30.477  26.921  1.00  0.00     0.202 C 
BRANCH   3   4
ATOM      4  C   UNL A   1      32.778  29.200  27.132  1.00  0.00     0.261 C 
BRANCH   4   5
ATOM      5  O   UNL A   1      33.482  28.022  26.677  1.00  0.00    -0.463 OA
BRANCH   5   6
ATOM      6  C   UNL A   1      32.966  27.440  25.566  1.00  0.00     0.310 C 
ATOM      7  O   UNL A   1      33.243  27.811  24.425  1.00  0.00    -0.252 OA
BRANCH   6   8
ATOM      8  C   UNL A   1      32.068  26.238  25.790  1.00  0.00     0.161 C 
BRANCH   8   9
ATOM      9  C   UNL A   1      31.684  25.333  24.640  1.00  0.00     0.000 A 
ATOM     10  C   UNL A   1      30.536  25.406  23.839  1.00  0.00     0.093 A 
ATOM     11  N   UNL A   1      30.629  24.400  22.904  1.00  0.00    -0.352 N 
ATOM     12  C   UNL A   1      31.558  23.476  23.306  1.00  0.00     0.046 A 
ATOM     13  H   UNL A   1      30.105  24.351  22.071  1.00  0.00     0.167 HD
ATOM     14  C   UNL A   1      32.253  24.040  24.373  1.00  0.00     0.008 A 
ATOM     15  C   UNL A   1      31.808  22.186  22.831  1.00  0.00     0.030 A 
ATOM     16  C   UNL A   1      33.234  23.260  25.014  1.00  0.00     0.057 A 
ATOM     17  C   UNL A   1      32.740  21.410  23.530  1.00  0.00     0.049 A 
ATOM     18  C   UNL A   1      33.430  21.926  24.626  1.00  0.00     0.130 A 
BRANCH  10  19
ATOM     19  C   UNL A   1      29.431  26.344  23.927  1.00  0.00     0.227 C 
ATOM     20  O   UNL A   1      28.433  26.119  24.607  1.00  0.00    -0.285 OA
BRANCH  19  21
ATOM     21  C   UNL A   1      29.462  27.611  23.139  1.00  0.00     0.113 A 
ATOM     22  C   UNL A   1      28.618  29.811  22.689  1.00  0.00    -0.044 A 
ATOM     23  C   UNL A   1      29.882  30.125  22.177  1.00  0.00     0.024 A 
ATOM     24  C   UNL A   1      28.416  28.525  23.213  1.00  0.00     0.036 A 
ATOM     25  C   UNL A   1      30.834  29.126  22.085  1.00  0.00     0.112 A 
ATOM     26  N   UNL A   1      30.634  27.865  22.515  1.00  0.00    -0.253 NA
BRANCH  22  27
ATOM     27  C   UNL A   1      27.527  30.851  22.767  1.00  0.00     0.032 C 
ATOM     28  C   UNL A   1      27.952  32.137  23.474  1.00  0.00     0.009 C 
ENDBRANCH  22  27
ENDBRANCH  19  21
ENDBRANCH  10  19
BRANCH  18  29
ATOM     29  O   UNL A   1      34.305  21.238  25.421  1.00  0.00    -0.406 OA
BRANCH  29  30
ATOM     30  C   UNL A   1      35.589  21.803  25.612  1.00  0.00     0.573 C 
ATOM     31  F   UNL A   1      35.527  23.007  26.221  1.00  0.00    -0.132 F 
ATOM     32  F   UNL A   1      36.374  20.974  26.334  1.00  0.00    -0.132 F 
ATOM     33  F   UNL A   1      36.170  21.978  24.402  1.00  0.00    -0.132 F 
ENDBRANCH  29  30
ENDBRANCH  18  29
ENDBRANCH   8   9
ENDBRANCH   6   8
ENDBRANCH   5   6
ENDBRANCH   4   5
ENDBRANCH   3   4
ENDBRANCH   2   3
ENDBRANCH   1   2
BRANCH   1  34
ATOM     34  C   UNL A   1      35.081  32.539  29.805  1.00  0.00     0.188 C 
BRANCH  34  35
ATOM     35  O   UNL A   1      34.551  32.330  31.110  1.00  0.00    -0.376 OA
BRANCH  35  36
ATOM     36  C   UNL A   1      34.626  33.423  32.017  1.00  0.00     0.202 C 
BRANCH  36  37
ATOM     37  C   UNL A   1      35.179  33.063  33.392  1.00  0.00     0.261 C 
BRANCH  37  38
ATOM     38  O   UNL A   1      36.615  33.151  33.405  1.00  0.00    -0.460 OA
BRANCH  38  39
ATOM     39  C   UNL A   1      37.232  32.084  33.963  1.00  0.00     0.338 C 
ATOM     40  O   UNL A   1      37.272  31.806  35.150  1.00  0.00    -0.246 OA
BRANCH  39  41
ATOM     41  C   UNL A   1      37.891  31.250  32.941  1.00  0.00     0.060 A 
ATOM     42  C   UNL A   1      38.923  30.386  33.298  1.00  0.00     0.016 A 
ATOM     43  C   UNL A   1      37.667  31.539  31.598  1.00  0.00     0.016 A 
ATOM     44  C   UNL A   1      39.839  29.952  32.338  1.00  0.00     0.010 A 
ATOM     45  C   UNL A   1      38.525  31.015  30.624  1.00  0.00     0.010 A 
ATOM     46  C   UNL A   1      39.669  30.283  30.990  1.00  0.00    -0.014 A 
BRANCH  46  47
ATOM     47  C   UNL A   1      40.716  29.960  29.975  1.00  0.00     0.031 A 
ATOM     48  C   UNL A   1      40.633  28.671  29.188  1.00  0.00     0.074 A 
ATOM     49  C   UNL A   1      41.740  30.805  29.746  1.00  0.00     0.049 A 
ATOM     50  N   UNL A   1      41.525  28.116  28.407  1.00  0.00    -0.248 NA
ATOM     51  C   UNL A   1      39.378  27.905  29.290  1.00  0.00     0.031 C 
ATOM     52  C   UNL A   1      41.914  32.117  30.369  1.00  0.00     0.029 A 
ATOM     53  N   UNL A   1      42.849  30.671  28.943  1.00  0.00    -0.354 N 
ATOM     54  C   UNL A   1      40.969  26.915  27.979  1.00  0.00     0.074 A 
ATOM     55  C   UNL A   1      39.652  26.826  28.570  1.00  0.00     0.031 C 
ATOM     56  C   UNL A   1      43.059  32.663  29.936  1.00  0.00     0.029 A 
ATOM     57  C   UNL A   1      43.750  31.702  29.085  1.00  0.00     0.049 A 
ATOM     58  H   UNL A   1      42.984  29.913  28.328  1.00  0.00     0.167 HD
ATOM     59  C   UNL A   1      41.506  25.966  27.175  1.00  0.00     0.034 A 
ATOM     60  C   UNL A   1      45.016  31.833  28.646  1.00  0.00     0.034 A 
ATOM     61  C   UNL A   1      42.814  26.056  26.583  1.00  0.00     0.049 A 
ATOM     62  C   UNL A   1      45.628  30.727  27.834  1.00  0.00     0.074 A 
ATOM     63  C   UNL A   1      43.453  25.142  25.764  1.00  0.00     0.029 A 
ATOM     64  N   UNL A   1      43.689  27.116  26.757  1.00  0.00    -0.354 N 
ATOM     65  N   UNL A   1      45.083  29.610  27.417  1.00  0.00    -0.248 NA
ATOM     66  C   UNL A   1      47.029  30.902  27.425  1.00  0.00     0.031 C 
ATOM     67  C   UNL A   1      44.732  25.632  25.477  1.00  0.00     0.029 A 
ATOM     68  C   UNL A   1      44.872  26.871  26.082  1.00  0.00     0.049 A 
ATOM     69  H   UNL A   1      43.498  27.927  27.284  1.00  0.00     0.167 HD
ATOM     70  C   UNL A   1      46.064  28.961  26.676  1.00  0.00     0.074 A 
ATOM     71  C   UNL A   1      47.230  29.820  26.684  1.00  0.00     0.031 C 
ATOM     72  C   UNL A   1      46.009  27.755  26.060  1.00  0.00     0.034 A 
BRANCH  59  73
ATOM     73  C   UNL A   1      40.690  24.728  26.908  1.00  0.00     0.023 A 
ATOM     74  C   UNL A   1      39.399  24.838  26.353  1.00  0.00     0.012 A 
ATOM     75  C   UNL A   1      41.225  23.449  27.164  1.00  0.00     0.148 A 
ATOM     76  C   UNL A   1      38.643  23.697  26.084  1.00  0.00     0.002 A 
ATOM     77  C   UNL A   1      40.481  22.316  26.858  1.00  0.00     0.091 A 
ATOM     78  F   UNL A   1      42.446  23.366  27.710  1.00  0.00    -0.205 F 
ATOM     79  C   UNL A   1      39.186  22.438  26.327  1.00  0.00     0.022 A 
BRANCH  77  80
ATOM     80  S   UNL A   1      41.117  20.651  27.078  1.00  0.00     0.127 S 
ATOM     81  O   UNL A   1      40.320  19.902  26.106  1.00  0.00    -0.237 OA
ATOM     82  O   UNL A   1      42.526  20.808  26.717  1.00  0.00    -0.237 OA
ATOM     83  O   UNL A   1      40.880  20.310  28.473  1.00  0.00    -0.744 OA
ENDBRANCH  77  80
ENDBRANCH  59  73
BRANCH  60  84
ATOM     84  C   UNL A   1      45.799  33.052  29.001  1.00  0.00     0.023 A 
ATOM     85  C   UNL A   1      46.408  33.148  30.266  1.00  0.00     0.012 A 
ATOM     86  C   UNL A   1      45.975  34.100  28.073  1.00  0.00     0.148 A 
ATOM     87  C   UNL A   1      47.165  34.270  30.605  1.00  0.00     0.002 A 
ATOM     88  C   UNL A   1      46.784  35.182  28.394  1.00  0.00     0.091 A 
ATOM     89  F   UNL A   1      45.362  34.006  26.885  1.00  0.00    -0.205 F 
ATOM     90  C   UNL A   1      47.367  35.278  29.666  1.00  0.00     0.022 A 
BRANCH  88  91
ATOM     91  S   UNL A   1      47.212  36.447  27.192  1.00  0.00     0.127 S 
ATOM     92  O   UNL A   1      48.057  35.701  26.262  1.00  0.00    -0.237 OA
ATOM     93  O   UNL A   1      45.900  36.824  26.666  1.00  0.00    -0.237 OA
ATOM     94  O   UNL A   1      47.878  37.498  27.950  1.00  0.00    -0.744 OA
ENDBRANCH  88  91
ENDBRANCH  60  84
BRANCH  72  95
ATOM     95  C   UNL A   1      47.230  27.304  25.304  1.00  0.00     0.023 A 
ATOM     96  C   UNL A   1      48.146  26.421  25.907  1.00  0.00     0.012 A 
ATOM     97  C   UNL A   1      47.433  27.709  23.970  1.00  0.00     0.148 A 
ATOM     98  C   UNL A   1      49.264  25.972  25.204  1.00  0.00     0.002 A 
ATOM     99  C   UNL A   1      48.520  27.217  23.258  1.00  0.00     0.091 A 
ATOM    100  F   UNL A   1      46.560  28.567  23.421  1.00  0.00    -0.205 F 
ATOM    101  C   UNL A   1      49.445  26.360  23.878  1.00  0.00     0.022 A 
BRANCH  99 102
ATOM    102  S   UNL A   1      48.774  27.585  21.519  1.00  0.00     0.127 S 
ATOM    103  O   UNL A   1      49.389  26.349  21.038  1.00  0.00    -0.237 OA
ATOM    104  O   UNL A   1      47.408  27.810  21.046  1.00  0.00    -0.237 OA
ATOM    105  O   UNL A   1      49.627  28.766  21.481  1.00  0.00    -0.744 OA
ENDBRANCH  99 102
ENDBRANCH  72  95
ENDBRANCH  46  47
ENDBRANCH  39  41
ENDBRANCH  38  39
ENDBRANCH  37  38
ENDBRANCH  36  37
ENDBRANCH  35  36
ENDBRANCH  34  35
ENDBRANCH   1  34
TORSDOF 26
ENDMDL
