MODEL 1
REMARK VINA RESULT:     -11.1      0.000      0.000
REMARK SMILES COc1ccc2c(c1)c(CC(=O)OCCOCCOCCOC(=O)c1ccc(-c3c4nc(c(-c5cccc(S(=O)(=O)[O-])c5F)c5ccc([nH]5)c(-c5cccc(S(=O)(=O)[O-])c5F)c5nc(c(-c6cccc(S(=O)(=O)[O-])c6F)c6ccc3[nH]6)C=C5)C=C4)cc1)c(C)n2C(=O)c1ccc(Cl)cc1
REMARK SMILES IDX 17 1 16 2 15 3 14 4 13 5 11 6 12 7 10 8 9 9 3 10 4 11 8 12
REMARK SMILES IDX 5 13 7 14 6 15 90 16 88 17 89 18 2 19 1 20 91 21 92 22 93 23
REMARK SMILES IDX 94 24 99 25 95 26 98 27 96 28 97 29 18 30 19 31 20 32 21 33
REMARK SMILES IDX 22 34 23 35 24 36 25 37 26 38 87 39 27 40 86 41 28 42 29 43
REMARK SMILES IDX 30 44 80 45 31 46 85 47 79 48 81 49 32 50 84 51 78 52 77 53
REMARK SMILES IDX 33 55 65 56 45 57 64 58 46 59 49 60 63 61 82 62 47 63 48 64
REMARK SMILES IDX 62 66 83 67 50 68 34 69 35 70 43 71 36 72 38 73 44 74 37 75
REMARK SMILES IDX 39 76 40 77 41 78 42 79 66 80 67 81 75 82 68 83 70 84 76 85
REMARK SMILES IDX 69 86 71 87 72 88 73 89 74 90 51 91 52 92 60 93 53 94 55 95
REMARK SMILES IDX 61 96 54 97 56 98 57 99 58 100 59 101
REMARK H PARENT 81 54 49 65
REMARK Flexibility Score: inf
ROOT
ATOM      1  C   UNL A   1      35.139  20.758  25.337  1.00  0.00     0.188 C 
ENDROOT
BRANCH   1   2
ATOM      2  O   UNL A   1      34.191  21.812  25.292  1.00  0.00    -0.376 OA
BRANCH   2   3
ATOM      3  C   UNL A   1      32.921  21.531  24.716  1.00  0.00     0.202 C 
BRANCH   3   4
ATOM      4  C   UNL A   1      32.752  21.912  23.241  1.00  0.00     0.261 C 
BRANCH   4   5
ATOM      5  O   UNL A   1      31.482  22.568  23.057  1.00  0.00    -0.463 OA
BRANCH   5   6
ATOM      6  C   UNL A   1      31.516  23.927  23.039  1.00  0.00     0.310 C 
ATOM      7  O   UNL A   1      32.175  24.564  22.226  1.00  0.00    -0.252 OA
BRANCH   6   8
ATOM      8  C   UNL A   1      30.458  24.535  23.943  1.00  0.00     0.160 C 
BRANCH   8   9
ATOM      9  C   UNL A   1      30.672  25.855  24.602  1.00  0.00    -0.008 A 
ATOM     10  C   UNL A   1      29.301  28.951  22.754  1.00  0.00     0.119 A 
ATOM     11  C   UNL A   1      30.161  29.857  23.335  1.00  0.00     0.048 A 
ATOM     12  C   UNL A   1      29.364  27.602  23.125  1.00  0.00     0.057 A 
ATOM     13  C   UNL A   1      31.043  29.435  24.330  1.00  0.00     0.031 A 
ATOM     14  C   UNL A   1      30.241  27.139  24.129  1.00  0.00     0.008 A 
ATOM     15  C   UNL A   1      31.018  28.094  24.778  1.00  0.00     0.057 A 
ATOM     16  N   UNL A   1      31.615  27.447  25.866  1.00  0.00    -0.280 N 
ATOM     17  C   UNL A   1      31.639  26.091  25.571  1.00  0.00     0.028 A 
ATOM     18  C   UNL A   1      32.609  25.112  26.152  1.00  0.00     0.065 C 
BRANCH  10  19
ATOM     19  O   UNL A   1      28.339  29.296  21.843  1.00  0.00    -0.497 OA
ATOM     20  C   UNL A   1      27.661  30.520  22.123  1.00  0.00     0.278 C 
ENDBRANCH  10  19
BRANCH  16  21
ATOM     21  C   UNL A   1      32.007  28.066  27.086  1.00  0.00     0.262 C 
ATOM     22  O   UNL A   1      31.447  27.813  28.121  1.00  0.00    -0.268 OA
BRANCH  21  23
ATOM     23  C   UNL A   1      32.989  29.172  27.084  1.00  0.00     0.040 A 
ATOM     24  C   UNL A   1      34.343  28.855  27.245  1.00  0.00     0.015 A 
ATOM     25  C   UNL A   1      32.536  30.491  27.127  1.00  0.00     0.015 A 
ATOM     26  C   UNL A   1      35.253  29.875  27.514  1.00  0.00     0.021 A 
ATOM     27  C   UNL A   1      33.454  31.507  27.404  1.00  0.00     0.021 A 
ATOM     28  C   UNL A   1      34.801  31.193  27.608  1.00  0.00     0.041 A 
ATOM     29  Cl  UNL A   1      35.912  32.438  28.033  1.00  0.00    -0.084 Cl
ENDBRANCH  21  23
ENDBRANCH  16  21
ENDBRANCH   8   9
ENDBRANCH   6   8
ENDBRANCH   5   6
ENDBRANCH   4   5
ENDBRANCH   3   4
ENDBRANCH   2   3
ENDBRANCH   1   2
BRANCH   1  30
ATOM     30  C   UNL A   1      36.629  21.106  25.200  1.00  0.00     0.188 C 
BRANCH  30  31
ATOM     31  O   UNL A   1      37.003  22.415  24.814  1.00  0.00    -0.376 OA
BRANCH  31  32
ATOM     32  C   UNL A   1      37.068  23.383  25.853  1.00  0.00     0.202 C 
BRANCH  32  33
ATOM     33  C   UNL A   1      38.469  23.646  26.431  1.00  0.00     0.261 C 
BRANCH  33  34
ATOM     34  O   UNL A   1      38.522  24.962  27.030  1.00  0.00    -0.460 OA
BRANCH  34  35
ATOM     35  C   UNL A   1      39.741  25.563  26.978  1.00  0.00     0.338 C 
ATOM     36  O   UNL A   1      40.477  25.605  26.007  1.00  0.00    -0.246 OA
BRANCH  35  37
ATOM     37  C   UNL A   1      39.833  26.483  28.144  1.00  0.00     0.060 A 
ATOM     38  C   UNL A   1      39.233  26.255  29.384  1.00  0.00     0.016 A 
ATOM     39  C   UNL A   1      40.400  27.728  27.883  1.00  0.00     0.016 A 
ATOM     40  C   UNL A   1      39.149  27.303  30.321  1.00  0.00     0.010 A 
ATOM     41  C   UNL A   1      40.252  28.787  28.774  1.00  0.00     0.010 A 
ATOM     42  C   UNL A   1      39.617  28.588  30.000  1.00  0.00    -0.014 A 
BRANCH  42  43
ATOM     43  C   UNL A   1      39.768  29.647  31.007  1.00  0.00     0.031 A 
ATOM     44  C   UNL A   1      38.569  30.490  31.141  1.00  0.00     0.074 A 
ATOM     45  C   UNL A   1      40.782  29.951  31.843  1.00  0.00     0.049 A 
ATOM     46  N   UNL A   1      38.426  31.615  30.524  1.00  0.00    -0.248 NA
ATOM     47  C   UNL A   1      37.413  30.056  31.925  1.00  0.00     0.031 C 
ATOM     48  C   UNL A   1      42.097  29.344  31.940  1.00  0.00     0.029 A 
ATOM     49  N   UNL A   1      40.808  30.871  32.861  1.00  0.00    -0.354 N 
ATOM     50  C   UNL A   1      37.264  32.154  31.030  1.00  0.00     0.074 A 
ATOM     51  C   UNL A   1      36.587  31.089  31.738  1.00  0.00     0.031 C 
ATOM     52  C   UNL A   1      42.697  29.705  33.104  1.00  0.00     0.029 A 
ATOM     53  C   UNL A   1      41.887  30.733  33.726  1.00  0.00     0.049 A 
ATOM     54  H   UNL A   1      40.121  31.569  32.970  1.00  0.00     0.167 HD
ATOM     55  C   UNL A   1      37.062  33.496  31.046  1.00  0.00     0.034 A 
ATOM     56  C   UNL A   1      42.228  31.548  34.751  1.00  0.00     0.034 A 
ATOM     57  C   UNL A   1      38.105  34.237  30.387  1.00  0.00     0.049 A 
ATOM     58  C   UNL A   1      41.915  32.912  34.268  1.00  0.00     0.074 A 
ATOM     59  C   UNL A   1      38.617  34.307  29.108  1.00  0.00     0.029 A 
ATOM     60  N   UNL A   1      39.054  34.780  31.219  1.00  0.00    -0.354 N 
ATOM     61  N   UNL A   1      42.534  33.485  33.271  1.00  0.00    -0.248 NA
ATOM     62  C   UNL A   1      40.722  33.595  34.737  1.00  0.00     0.031 C 
ATOM     63  C   UNL A   1      40.006  34.602  29.255  1.00  0.00     0.029 A 
ATOM     64  C   UNL A   1      40.287  34.699  30.618  1.00  0.00     0.049 A 
ATOM     65  H   UNL A   1      38.878  35.167  32.107  1.00  0.00     0.167 HD
ATOM     66  C   UNL A   1      41.576  34.309  32.709  1.00  0.00     0.074 A 
ATOM     67  C   UNL A   1      40.577  34.486  33.753  1.00  0.00     0.031 C 
ATOM     68  C   UNL A   1      41.524  34.511  31.359  1.00  0.00     0.034 A 
BRANCH  55  69
ATOM     69  C   UNL A   1      36.084  34.145  31.964  1.00  0.00     0.023 A 
ATOM     70  C   UNL A   1      36.290  34.055  33.349  1.00  0.00     0.012 A 
ATOM     71  C   UNL A   1      34.884  34.727  31.505  1.00  0.00     0.148 A 
ATOM     72  C   UNL A   1      35.360  34.584  34.247  1.00  0.00     0.002 A 
ATOM     73  C   UNL A   1      34.012  35.336  32.393  1.00  0.00     0.091 A 
ATOM     74  F   UNL A   1      34.547  34.606  30.212  1.00  0.00    -0.205 F 
ATOM     75  C   UNL A   1      34.237  35.256  33.770  1.00  0.00     0.022 A 
BRANCH  73  76
ATOM     76  S   UNL A   1      32.638  36.321  31.793  1.00  0.00     0.127 S 
ATOM     77  O   UNL A   1      31.807  36.431  32.986  1.00  0.00    -0.237 OA
ATOM     78  O   UNL A   1      33.303  37.557  31.380  1.00  0.00    -0.237 OA
ATOM     79  O   UNL A   1      32.090  35.545  30.687  1.00  0.00    -0.744 OA
ENDBRANCH  73  76
ENDBRANCH  55  69
BRANCH  56  80
ATOM     80  C   UNL A   1      42.837  31.297  36.080  1.00  0.00     0.023 A 
ATOM     81  C   UNL A   1      44.175  30.850  36.157  1.00  0.00     0.012 A 
ATOM     82  C   UNL A   1      42.238  31.787  37.263  1.00  0.00     0.148 A 
ATOM     83  C   UNL A   1      44.911  30.946  37.344  1.00  0.00     0.002 A 
ATOM     84  C   UNL A   1      42.977  31.881  38.446  1.00  0.00     0.091 A 
ATOM     85  F   UNL A   1      40.982  32.253  37.203  1.00  0.00    -0.205 F 
ATOM     86  C   UNL A   1      44.318  31.474  38.485  1.00  0.00     0.022 A 
BRANCH  84  87
ATOM     87  S   UNL A   1      42.279  32.568  39.957  1.00  0.00     0.127 S 
ATOM     88  O   UNL A   1      43.252  32.157  40.972  1.00  0.00    -0.237 OA
ATOM     89  O   UNL A   1      42.271  33.999  39.669  1.00  0.00    -0.237 OA
ATOM     90  O   UNL A   1      40.972  31.936  40.096  1.00  0.00    -0.744 OA
ENDBRANCH  84  87
ENDBRANCH  56  80
BRANCH  68  91
ATOM     91  C   UNL A   1      42.772  34.220  30.561  1.00  0.00     0.023 A 
ATOM     92  C   UNL A   1      43.824  35.151  30.457  1.00  0.00     0.012 A 
ATOM     93  C   UNL A   1      42.945  32.942  30.000  1.00  0.00     0.148 A 
ATOM     94  C   UNL A   1      45.010  34.831  29.789  1.00  0.00     0.002 A 
ATOM     95  C   UNL A   1      44.141  32.610  29.368  1.00  0.00     0.091 A 
ATOM     96  F   UNL A   1      41.938  32.061  30.107  1.00  0.00    -0.205 F 
ATOM     97  C   UNL A   1      45.172  33.556  29.254  1.00  0.00     0.022 A 
BRANCH  95  98
ATOM     98  S   UNL A   1      44.466  30.958  28.745  1.00  0.00     0.127 S 
ATOM     99  O   UNL A   1      45.615  31.178  27.869  1.00  0.00    -0.237 OA
ATOM    100  O   UNL A   1      44.766  30.215  29.971  1.00  0.00    -0.237 OA
ATOM    101  O   UNL A   1      43.241  30.532  28.077  1.00  0.00    -0.744 OA
ENDBRANCH  95  98
ENDBRANCH  68  91
ENDBRANCH  42  43
ENDBRANCH  35  37
ENDBRANCH  34  35
ENDBRANCH  33  34
ENDBRANCH  32  33
ENDBRANCH  31  32
ENDBRANCH  30  31
ENDBRANCH   1  30
TORSDOF 24
ENDMDL
MODEL 2
REMARK VINA RESULT:     -10.5      2.782      6.060
REMARK SMILES COc1ccc2c(c1)c(CC(=O)OCCOCCOCCOC(=O)c1ccc(-c3c4nc(c(-c5cccc(S(=O)(=O)[O-])c5F)c5ccc([nH]5)c(-c5cccc(S(=O)(=O)[O-])c5F)c5nc(c(-c6cccc(S(=O)(=O)[O-])c6F)c6ccc3[nH]6)C=C5)C=C4)cc1)c(C)n2C(=O)c1ccc(Cl)cc1
REMARK SMILES IDX 17 1 16 2 15 3 14 4 13 5 11 6 12 7 10 8 9 9 3 10 4 11 8 12
REMARK SMILES IDX 5 13 7 14 6 15 90 16 88 17 89 18 2 19 1 20 91 21 92 22 93 23
REMARK SMILES IDX 94 24 99 25 95 26 98 27 96 28 97 29 18 30 19 31 20 32 21 33
REMARK SMILES IDX 22 34 23 35 24 36 25 37 26 38 87 39 27 40 86 41 28 42 29 43
REMARK SMILES IDX 30 44 80 45 31 46 85 47 79 48 81 49 32 50 84 51 78 52 77 53
REMARK SMILES IDX 33 55 65 56 45 57 64 58 46 59 49 60 63 61 82 62 47 63 48 64
REMARK SMILES IDX 62 66 83 67 50 68 34 69 35 70 43 71 36 72 38 73 44 74 37 75
REMARK SMILES IDX 39 76 40 77 41 78 42 79 66 80 67 81 75 82 68 83 70 84 76 85
REMARK SMILES IDX 69 86 71 87 72 88 73 89 74 90 51 91 52 92 60 93 53 94 55 95
REMARK SMILES IDX 61 96 54 97 56 98 57 99 58 100 59 101
REMARK H PARENT 81 54 49 65
REMARK Flexibility Score: inf
ROOT
ATOM      1  C   UNL A   1      35.785  21.280  25.355  1.00  0.00     0.188 C 
ENDROOT
BRANCH   1   2
ATOM      2  O   UNL A   1      34.917  22.376  25.117  1.00  0.00    -0.376 OA
BRANCH   2   3
ATOM      3  C   UNL A   1      34.128  22.347  23.934  1.00  0.00     0.202 C 
BRANCH   3   4
ATOM      4  C   UNL A   1      34.538  23.325  22.827  1.00  0.00     0.261 C 
BRANCH   4   5
ATOM      5  O   UNL A   1      33.394  23.622  22.002  1.00  0.00    -0.463 OA
BRANCH   5   6
ATOM      6  C   UNL A   1      32.946  24.905  22.054  1.00  0.00     0.310 C 
ATOM      7  O   UNL A   1      33.332  25.776  21.283  1.00  0.00    -0.252 OA
BRANCH   6   8
ATOM      8  C   UNL A   1      31.747  25.051  22.974  1.00  0.00     0.160 C 
BRANCH   8   9
ATOM      9  C   UNL A   1      31.609  26.227  23.880  1.00  0.00    -0.008 A 
ATOM     10  C   UNL A   1      29.225  29.030  22.719  1.00  0.00     0.119 A 
ATOM     11  C   UNL A   1      29.818  30.035  23.452  1.00  0.00     0.048 A 
ATOM     12  C   UNL A   1      29.720  27.723  22.811  1.00  0.00     0.057 A 
ATOM     13  C   UNL A   1      30.864  29.731  24.324  1.00  0.00     0.031 A 
ATOM     14  C   UNL A   1      30.775  27.378  23.683  1.00  0.00     0.008 A 
ATOM     15  C   UNL A   1      31.280  28.390  24.494  1.00  0.00     0.057 A 
ATOM     16  N   UNL A   1      32.131  27.772  25.418  1.00  0.00    -0.280 N 
ATOM     17  C   UNL A   1      32.536  26.569  24.856  1.00  0.00     0.028 A 
ATOM     18  C   UNL A   1      33.799  25.849  25.208  1.00  0.00     0.065 C 
BRANCH  10  19
ATOM     19  O   UNL A   1      28.133  29.221  21.917  1.00  0.00    -0.497 OA
ATOM     20  C   UNL A   1      28.053  30.510  21.311  1.00  0.00     0.278 C 
ENDBRANCH  10  19
BRANCH  16  21
ATOM     21  C   UNL A   1      32.418  28.246  26.728  1.00  0.00     0.262 C 
ATOM     22  O   UNL A   1      31.739  27.924  27.669  1.00  0.00    -0.268 OA
BRANCH  21  23
ATOM     23  C   UNL A   1      33.442  29.292  26.940  1.00  0.00     0.040 A 
ATOM     24  C   UNL A   1      34.783  28.897  27.021  1.00  0.00     0.015 A 
ATOM     25  C   UNL A   1      33.042  30.591  27.251  1.00  0.00     0.015 A 
ATOM     26  C   UNL A   1      35.733  29.806  27.481  1.00  0.00     0.021 A 
ATOM     27  C   UNL A   1      34.000  31.494  27.719  1.00  0.00     0.021 A 
ATOM     28  C   UNL A   1      35.334  31.094  27.843  1.00  0.00     0.041 A 
ATOM     29  Cl  UNL A   1      36.493  32.184  28.499  1.00  0.00    -0.084 Cl
ENDBRANCH  21  23
ENDBRANCH  16  21
ENDBRANCH   8   9
ENDBRANCH   6   8
ENDBRANCH   5   6
ENDBRANCH   4   5
ENDBRANCH   3   4
ENDBRANCH   2   3
ENDBRANCH   1   2
BRANCH   1  30
ATOM     30  C   UNL A   1      37.215  21.343  24.799  1.00  0.00     0.188 C 
BRANCH  30  31
ATOM     31  O   UNL A   1      38.177  22.151  25.451  1.00  0.00    -0.376 OA
BRANCH  31  32
ATOM     32  C   UNL A   1      39.218  21.463  26.132  1.00  0.00     0.202 C 
BRANCH  32  33
ATOM     33  C   UNL A   1      40.563  22.205  26.216  1.00  0.00     0.261 C 
BRANCH  33  34
ATOM     34  O   UNL A   1      40.703  22.837  27.510  1.00  0.00    -0.460 OA
BRANCH  34  35
ATOM     35  C   UNL A   1      41.987  23.046  27.906  1.00  0.00     0.338 C 
ATOM     36  O   UNL A   1      42.948  22.355  27.612  1.00  0.00    -0.246 OA
BRANCH  35  37
ATOM     37  C   UNL A   1      42.078  24.447  28.398  1.00  0.00     0.060 A 
ATOM     38  C   UNL A   1      43.139  24.959  29.148  1.00  0.00     0.016 A 
ATOM     39  C   UNL A   1      40.923  25.212  28.247  1.00  0.00     0.016 A 
ATOM     40  C   UNL A   1      43.000  26.203  29.793  1.00  0.00     0.010 A 
ATOM     41  C   UNL A   1      40.753  26.404  28.945  1.00  0.00     0.010 A 
ATOM     42  C   UNL A   1      41.788  26.910  29.733  1.00  0.00    -0.014 A 
BRANCH  42  43
ATOM     43  C   UNL A   1      41.662  28.302  30.183  1.00  0.00     0.031 A 
ATOM     44  C   UNL A   1      42.382  29.253  29.321  1.00  0.00     0.074 A 
ATOM     45  C   UNL A   1      40.980  28.855  31.207  1.00  0.00     0.049 A 
ATOM     46  N   UNL A   1      43.576  29.672  29.578  1.00  0.00    -0.248 NA
ATOM     47  C   UNL A   1      41.814  29.722  28.057  1.00  0.00     0.031 C 
ATOM     48  C   UNL A   1      40.206  28.200  32.246  1.00  0.00     0.029 A 
ATOM     49  N   UNL A   1      40.790  30.184  31.492  1.00  0.00    -0.354 N 
ATOM     50  C   UNL A   1      43.821  30.647  28.638  1.00  0.00     0.074 A 
ATOM     51  C   UNL A   1      42.800  30.512  27.622  1.00  0.00     0.031 C 
ATOM     52  C   UNL A   1      39.419  29.103  32.885  1.00  0.00     0.029 A 
ATOM     53  C   UNL A   1      39.796  30.428  32.433  1.00  0.00     0.049 A 
ATOM     54  H   UNL A   1      41.312  30.903  31.067  1.00  0.00     0.167 HD
ATOM     55  C   UNL A   1      44.695  31.657  28.885  1.00  0.00     0.034 A 
ATOM     56  C   UNL A   1      39.457  31.617  32.981  1.00  0.00     0.034 A 
ATOM     57  C   UNL A   1      45.388  31.516  30.138  1.00  0.00     0.049 A 
ATOM     58  C   UNL A   1      40.742  32.333  33.150  1.00  0.00     0.074 A 
ATOM     59  C   UNL A   1      46.256  30.598  30.693  1.00  0.00     0.029 A 
ATOM     60  N   UNL A   1      44.874  32.250  31.179  1.00  0.00    -0.354 N 
ATOM     61  N   UNL A   1      41.687  31.939  33.961  1.00  0.00    -0.248 NA
ATOM     62  C   UNL A   1      41.112  33.394  32.229  1.00  0.00     0.031 C 
ATOM     63  C   UNL A   1      45.989  30.604  32.096  1.00  0.00     0.029 A 
ATOM     64  C   UNL A   1      44.967  31.522  32.340  1.00  0.00     0.049 A 
ATOM     65  H   UNL A   1      44.499  33.157  31.104  1.00  0.00     0.167 HD
ATOM     66  C   UNL A   1      42.853  32.359  33.348  1.00  0.00     0.074 A 
ATOM     67  C   UNL A   1      42.434  33.401  32.422  1.00  0.00     0.031 C 
ATOM     68  C   UNL A   1      43.994  31.612  33.417  1.00  0.00     0.034 A 
BRANCH  55  69
ATOM     69  C   UNL A   1      44.657  32.946  28.138  1.00  0.00     0.023 A 
ATOM     70  C   UNL A   1      45.679  33.226  27.217  1.00  0.00     0.012 A 
ATOM     71  C   UNL A   1      43.716  33.958  28.418  1.00  0.00     0.148 A 
ATOM     72  C   UNL A   1      45.724  34.453  26.550  1.00  0.00     0.002 A 
ATOM     73  C   UNL A   1      43.708  35.134  27.685  1.00  0.00     0.091 A 
ATOM     74  F   UNL A   1      42.887  33.813  29.462  1.00  0.00    -0.205 F 
ATOM     75  C   UNL A   1      44.719  35.395  26.757  1.00  0.00     0.022 A 
BRANCH  73  76
ATOM     76  S   UNL A   1      42.349  36.295  27.839  1.00  0.00     0.127 S 
ATOM     77  O   UNL A   1      42.532  37.127  26.655  1.00  0.00    -0.237 OA
ATOM     78  O   UNL A   1      41.183  35.411  27.805  1.00  0.00    -0.237 OA
ATOM     79  O   UNL A   1      42.566  36.941  29.129  1.00  0.00    -0.744 OA
ENDBRANCH  73  76
ENDBRANCH  55  69
BRANCH  56  80
ATOM     80  C   UNL A   1      38.163  32.194  33.422  1.00  0.00     0.023 A 
ATOM     81  C   UNL A   1      38.079  32.822  34.685  1.00  0.00     0.012 A 
ATOM     82  C   UNL A   1      37.111  32.414  32.504  1.00  0.00     0.148 A 
ATOM     83  C   UNL A   1      37.024  33.688  35.001  1.00  0.00     0.002 A 
ATOM     84  C   UNL A   1      36.061  33.279  32.826  1.00  0.00     0.091 A 
ATOM     85  F   UNL A   1      37.192  31.859  31.286  1.00  0.00    -0.205 F 
ATOM     86  C   UNL A   1      36.023  33.928  34.068  1.00  0.00     0.022 A 
BRANCH  84  87
ATOM     87  S   UNL A   1      34.738  33.651  31.661  1.00  0.00     0.127 S 
ATOM     88  O   UNL A   1      35.415  34.487  30.668  1.00  0.00    -0.237 OA
ATOM     89  O   UNL A   1      34.367  32.322  31.184  1.00  0.00    -0.237 OA
ATOM     90  O   UNL A   1      33.729  34.355  32.442  1.00  0.00    -0.744 OA
ENDBRANCH  84  87
ENDBRANCH  56  80
BRANCH  68  91
ATOM     91  C   UNL A   1      44.099  30.599  34.532  1.00  0.00     0.023 A 
ATOM     92  C   UNL A   1      44.531  30.955  35.825  1.00  0.00     0.012 A 
ATOM     93  C   UNL A   1      43.644  29.287  34.310  1.00  0.00     0.148 A 
ATOM     94  C   UNL A   1      44.536  30.023  36.867  1.00  0.00     0.002 A 
ATOM     95  C   UNL A   1      43.614  28.370  35.359  1.00  0.00     0.091 A 
ATOM     96  F   UNL A   1      43.232  28.958  33.077  1.00  0.00    -0.205 F 
ATOM     97  C   UNL A   1      44.067  28.734  36.637  1.00  0.00     0.022 A 
BRANCH  95  98
ATOM     98  S   UNL A   1      42.927  26.722  35.166  1.00  0.00     0.127 S 
ATOM     99  O   UNL A   1      41.509  26.943  35.442  1.00  0.00    -0.237 OA
ATOM    100  O   UNL A   1      43.236  26.416  33.768  1.00  0.00    -0.237 OA
ATOM    101  O   UNL A   1      43.628  25.879  36.128  1.00  0.00    -0.744 OA
ENDBRANCH  95  98
ENDBRANCH  68  91
ENDBRANCH  42  43
ENDBRANCH  35  37
ENDBRANCH  34  35
ENDBRANCH  33  34
ENDBRANCH  32  33
ENDBRANCH  31  32
ENDBRANCH  30  31
ENDBRANCH   1  30
TORSDOF 24
ENDMDL
MODEL 3
REMARK VINA RESULT:     -10.0      3.528      8.559
REMARK SMILES COc1ccc2c(c1)c(CC(=O)OCCOCCOCCOC(=O)c1ccc(-c3c4nc(c(-c5cccc(S(=O)(=O)[O-])c5F)c5ccc([nH]5)c(-c5cccc(S(=O)(=O)[O-])c5F)c5nc(c(-c6cccc(S(=O)(=O)[O-])c6F)c6ccc3[nH]6)C=C5)C=C4)cc1)c(C)n2C(=O)c1ccc(Cl)cc1
REMARK SMILES IDX 17 1 16 2 15 3 14 4 13 5 11 6 12 7 10 8 9 9 3 10 4 11 8 12
REMARK SMILES IDX 5 13 7 14 6 15 90 16 88 17 89 18 2 19 1 20 91 21 92 22 93 23
REMARK SMILES IDX 94 24 99 25 95 26 98 27 96 28 97 29 18 30 19 31 20 32 21 33
REMARK SMILES IDX 22 34 23 35 24 36 25 37 26 38 87 39 27 40 86 41 28 42 29 43
REMARK SMILES IDX 30 44 80 45 31 46 85 47 79 48 81 49 32 50 84 51 78 52 77 53
REMARK SMILES IDX 33 55 65 56 45 57 64 58 46 59 49 60 63 61 82 62 47 63 48 64
REMARK SMILES IDX 62 66 83 67 50 68 34 69 35 70 43 71 36 72 38 73 44 74 37 75
REMARK SMILES IDX 39 76 40 77 41 78 42 79 66 80 67 81 75 82 68 83 70 84 76 85
REMARK SMILES IDX 69 86 71 87 72 88 73 89 74 90 51 91 52 92 60 93 53 94 55 95
REMARK SMILES IDX 61 96 54 97 56 98 57 99 58 100 59 101
REMARK H PARENT 81 54 49 65
REMARK Flexibility Score: inf
ROOT
ATOM      1  C   UNL A   1      32.366  28.575  23.790  1.00  0.00     0.188 C 
ENDROOT
BRANCH   1   2
ATOM      2  O   UNL A   1      31.338  28.339  22.841  1.00  0.00    -0.376 OA
BRANCH   2   3
ATOM      3  C   UNL A   1      31.114  26.995  22.433  1.00  0.00     0.202 C 
BRANCH   3   4
ATOM      4  C   UNL A   1      31.879  25.919  23.212  1.00  0.00     0.261 C 
BRANCH   4   5
ATOM      5  O   UNL A   1      30.987  25.277  24.145  1.00  0.00    -0.463 OA
BRANCH   5   6
ATOM      6  C   UNL A   1      30.875  23.928  24.022  1.00  0.00     0.310 C 
ATOM      7  O   UNL A   1      30.387  23.388  23.036  1.00  0.00    -0.252 OA
BRANCH   6   8
ATOM      8  C   UNL A   1      31.655  23.192  25.097  1.00  0.00     0.160 C 
BRANCH   8   9
ATOM      9  C   UNL A   1      33.030  22.678  24.838  1.00  0.00    -0.008 A 
ATOM     10  C   UNL A   1      33.385  18.870  24.332  1.00  0.00     0.119 A 
ATOM     11  C   UNL A   1      34.711  18.800  24.702  1.00  0.00     0.048 A 
ATOM     12  C   UNL A   1      32.738  20.112  24.312  1.00  0.00     0.057 A 
ATOM     13  C   UNL A   1      35.412  19.970  24.994  1.00  0.00     0.031 A 
ATOM     14  C   UNL A   1      33.416  21.318  24.599  1.00  0.00     0.008 A 
ATOM     15  C   UNL A   1      34.780  21.228  24.859  1.00  0.00     0.057 A 
ATOM     16  N   UNL A   1      35.267  22.540  24.878  1.00  0.00    -0.280 N 
ATOM     17  C   UNL A   1      34.191  23.370  25.161  1.00  0.00     0.028 A 
ATOM     18  C   UNL A   1      34.304  24.726  25.784  1.00  0.00     0.065 C 
BRANCH  10  19
ATOM     19  O   UNL A   1      32.650  17.786  23.936  1.00  0.00    -0.497 OA
ATOM     20  C   UNL A   1      33.397  16.766  23.272  1.00  0.00     0.278 C 
ENDBRANCH  10  19
BRANCH  16  21
ATOM     21  C   UNL A   1      36.592  22.938  24.548  1.00  0.00     0.262 C 
ATOM     22  O   UNL A   1      36.919  23.132  23.405  1.00  0.00    -0.268 OA
BRANCH  21  23
ATOM     23  C   UNL A   1      37.653  22.943  25.579  1.00  0.00     0.040 A 
ATOM     24  C   UNL A   1      37.902  24.139  26.265  1.00  0.00     0.015 A 
ATOM     25  C   UNL A   1      38.499  21.841  25.700  1.00  0.00     0.015 A 
ATOM     26  C   UNL A   1      39.054  24.251  27.040  1.00  0.00     0.021 A 
ATOM     27  C   UNL A   1      39.655  21.964  26.473  1.00  0.00     0.021 A 
ATOM     28  C   UNL A   1      39.933  23.170  27.126  1.00  0.00     0.041 A 
ATOM     29  Cl  UNL A   1      41.401  23.343  28.007  1.00  0.00    -0.084 Cl
ENDBRANCH  21  23
ENDBRANCH  16  21
ENDBRANCH   8   9
ENDBRANCH   6   8
ENDBRANCH   5   6
ENDBRANCH   4   5
ENDBRANCH   3   4
ENDBRANCH   2   3
ENDBRANCH   1   2
BRANCH   1  30
ATOM     30  C   UNL A   1      32.212  29.755  24.760  1.00  0.00     0.188 C 
BRANCH  30  31
ATOM     31  O   UNL A   1      31.532  29.561  25.986  1.00  0.00    -0.376 OA
BRANCH  31  32
ATOM     32  C   UNL A   1      32.326  29.633  27.163  1.00  0.00     0.202 C 
BRANCH  32  33
ATOM     33  C   UNL A   1      33.091  30.950  27.371  1.00  0.00     0.261 C 
BRANCH  33  34
ATOM     34  O   UNL A   1      34.517  30.711  27.320  1.00  0.00    -0.460 OA
BRANCH  34  35
ATOM     35  C   UNL A   1      35.284  31.735  27.783  1.00  0.00     0.338 C 
ATOM     36  O   UNL A   1      34.873  32.804  28.202  1.00  0.00    -0.246 OA
BRANCH  35  37
ATOM     37  C   UNL A   1      36.637  31.184  28.066  1.00  0.00     0.060 A 
ATOM     38  C   UNL A   1      37.079  29.922  27.667  1.00  0.00     0.016 A 
ATOM     39  C   UNL A   1      37.414  31.928  28.952  1.00  0.00     0.016 A 
ATOM     40  C   UNL A   1      38.263  29.393  28.217  1.00  0.00     0.010 A 
ATOM     41  C   UNL A   1      38.542  31.378  29.554  1.00  0.00     0.010 A 
ATOM     42  C   UNL A   1      38.975  30.100  29.199  1.00  0.00    -0.014 A 
BRANCH  42  43
ATOM     43  C   UNL A   1      40.323  29.711  29.632  1.00  0.00     0.031 A 
ATOM     44  C   UNL A   1      40.585  30.019  31.047  1.00  0.00     0.074 A 
ATOM     45  C   UNL A   1      41.331  29.094  28.981  1.00  0.00     0.049 A 
ATOM     46  N   UNL A   1      41.179  31.098  31.435  1.00  0.00    -0.248 NA
ATOM     47  C   UNL A   1      40.105  29.150  32.121  1.00  0.00     0.031 C 
ATOM     48  C   UNL A   1      41.405  28.691  27.588  1.00  0.00     0.029 A 
ATOM     49  N   UNL A   1      42.521  28.632  29.484  1.00  0.00    -0.354 N 
ATOM     50  C   UNL A   1      41.367  30.934  32.789  1.00  0.00     0.074 A 
ATOM     51  C   UNL A   1      40.533  29.823  33.193  1.00  0.00     0.031 C 
ATOM     52  C   UNL A   1      42.432  27.823  27.404  1.00  0.00     0.029 A 
ATOM     53  C   UNL A   1      43.208  27.780  28.628  1.00  0.00     0.049 A 
ATOM     54  H   UNL A   1      42.859  28.882  30.375  1.00  0.00     0.167 HD
ATOM     55  C   UNL A   1      42.383  31.559  33.438  1.00  0.00     0.034 A 
ATOM     56  C   UNL A   1      44.442  27.254  28.807  1.00  0.00     0.034 A 
ATOM     57  C   UNL A   1      43.122  32.465  32.598  1.00  0.00     0.049 A 
ATOM     58  C   UNL A   1      45.219  28.332  29.460  1.00  0.00     0.074 A 
ATOM     59  C   UNL A   1      42.838  33.613  31.887  1.00  0.00     0.029 A 
ATOM     60  N   UNL A   1      44.295  31.967  32.088  1.00  0.00    -0.354 N 
ATOM     61  N   UNL A   1      45.508  29.466  28.882  1.00  0.00    -0.248 NA
ATOM     62  C   UNL A   1      45.496  28.269  30.886  1.00  0.00     0.031 C 
ATOM     63  C   UNL A   1      43.697  33.591  30.746  1.00  0.00     0.029 A 
ATOM     64  C   UNL A   1      44.467  32.429  30.805  1.00  0.00     0.049 A 
ATOM     65  H   UNL A   1      44.917  31.372  32.566  1.00  0.00     0.167 HD
ATOM     66  C   UNL A   1      45.555  30.373  29.925  1.00  0.00     0.074 A 
ATOM     67  C   UNL A   1      45.744  29.561  31.118  1.00  0.00     0.031 C 
ATOM     68  C   UNL A   1      45.124  31.659  29.762  1.00  0.00     0.034 A 
BRANCH  55  69
ATOM     69  C   UNL A   1      42.910  31.080  34.747  1.00  0.00     0.023 A 
ATOM     70  C   UNL A   1      43.697  29.918  34.777  1.00  0.00     0.012 A 
ATOM     71  C   UNL A   1      42.535  31.665  35.974  1.00  0.00     0.148 A 
ATOM     72  C   UNL A   1      44.148  29.393  35.991  1.00  0.00     0.002 A 
ATOM     73  C   UNL A   1      43.064  31.198  37.167  1.00  0.00     0.091 A 
ATOM     74  F   UNL A   1      41.591  32.618  35.988  1.00  0.00    -0.205 F 
ATOM     75  C   UNL A   1      43.862  30.052  37.184  1.00  0.00     0.022 A 
BRANCH  73  76
ATOM     76  S   UNL A   1      42.820  32.110  38.692  1.00  0.00     0.127 S 
ATOM     77  O   UNL A   1      43.502  33.366  38.401  1.00  0.00    -0.237 OA
ATOM     78  O   UNL A   1      41.361  32.196  38.769  1.00  0.00    -0.237 OA
ATOM     79  O   UNL A   1      43.418  31.267  39.721  1.00  0.00    -0.744 OA
ENDBRANCH  73  76
ENDBRANCH  55  69
BRANCH  56  80
ATOM     80  C   UNL A   1      45.047  25.950  28.440  1.00  0.00     0.023 A 
ATOM     81  C   UNL A   1      44.958  24.866  29.341  1.00  0.00     0.012 A 
ATOM     82  C   UNL A   1      45.424  25.670  27.107  1.00  0.00     0.148 A 
ATOM     83  C   UNL A   1      45.171  23.547  28.921  1.00  0.00     0.002 A 
ATOM     84  C   UNL A   1      45.636  24.351  26.693  1.00  0.00     0.091 A 
ATOM     85  F   UNL A   1      45.476  26.679  26.226  1.00  0.00    -0.205 F 
ATOM     86  C   UNL A   1      45.496  23.288  27.595  1.00  0.00     0.022 A 
BRANCH  84  87
ATOM     87  S   UNL A   1      46.044  23.938  24.988  1.00  0.00     0.127 S 
ATOM     88  O   UNL A   1      44.758  24.098  24.306  1.00  0.00    -0.237 OA
ATOM     89  O   UNL A   1      47.038  24.954  24.655  1.00  0.00    -0.237 OA
ATOM     90  O   UNL A   1      46.526  22.563  25.033  1.00  0.00    -0.744 OA
ENDBRANCH  84  87
ENDBRANCH  56  80
BRANCH  68  91
ATOM     91  C   UNL A   1      45.048  32.195  28.352  1.00  0.00     0.023 A 
ATOM     92  C   UNL A   1      44.000  31.845  27.477  1.00  0.00     0.012 A 
ATOM     93  C   UNL A   1      45.983  33.159  27.934  1.00  0.00     0.148 A 
ATOM     94  C   UNL A   1      43.897  32.421  26.207  1.00  0.00     0.002 A 
ATOM     95  C   UNL A   1      45.857  33.759  26.683  1.00  0.00     0.091 A 
ATOM     96  F   UNL A   1      46.975  33.487  28.775  1.00  0.00    -0.205 F 
ATOM     97  C   UNL A   1      44.819  33.386  25.815  1.00  0.00     0.022 A 
BRANCH  95  98
ATOM     98  S   UNL A   1      46.944  35.084  26.147  1.00  0.00     0.127 S 
ATOM     99  O   UNL A   1      46.036  36.229  26.100  1.00  0.00    -0.237 OA
ATOM    100  O   UNL A   1      47.933  35.134  27.227  1.00  0.00    -0.237 OA
ATOM    101  O   UNL A   1      47.488  34.663  24.861  1.00  0.00    -0.744 OA
ENDBRANCH  95  98
ENDBRANCH  68  91
ENDBRANCH  42  43
ENDBRANCH  35  37
ENDBRANCH  34  35
ENDBRANCH  33  34
ENDBRANCH  32  33
ENDBRANCH  31  32
ENDBRANCH  30  31
ENDBRANCH   1  30
TORSDOF 24
ENDMDL
