MODEL 1
REMARK VINA RESULT:     -11.1      0.000      0.000
REMARK SMILES C[C@H](NC(=O)c1c(C(=O)OCCOCCOCCOC(=O)c2ccc(-c3c4nc(c(-c5cccc(S(=O)(=O)[O-])c5F)c5ccc([nH]5)c(-c5cccc(S(=O)(=O)[O-])c5F)c5nc(c(-c6cccc(S(=O)(=O)[O-])c6F)c6ccc3[nH]6)C=C5)C=C4)cc2)cnn1C)[C@]12C[C@H]3C[C@H](C[C@H](C3)C1)C2
REMARK SMILES IDX 14 1 13 2 12 3 11 4 10 5 8 6 9 7 7 8 6 9 87 10 85 11 86 12
REMARK SMILES IDX 88 13 4 14 3 15 5 17 2 18 1 19 89 20 90 21 97 22 98 23 91 24
REMARK SMILES IDX 95 25 93 26 92 27 96 28 94 29 15 30 16 31 17 32 18 33 19 34
REMARK SMILES IDX 20 35 21 36 22 37 23 38 84 39 24 40 83 41 25 42 26 43 27 44
REMARK SMILES IDX 77 45 28 46 82 47 76 48 78 49 29 50 81 51 75 52 74 53 30 55
REMARK SMILES IDX 62 56 42 57 61 58 43 59 46 60 60 61 79 62 44 63 45 64 59 66
REMARK SMILES IDX 80 67 47 68 31 69 32 70 40 71 33 72 35 73 41 74 34 75 36 76
REMARK SMILES IDX 37 77 38 78 39 79 63 80 64 81 72 82 65 83 67 84 73 85 66 86
REMARK SMILES IDX 68 87 69 88 70 89 71 90 48 91 49 92 57 93 50 94 52 95 58 96
REMARK SMILES IDX 51 97 53 98 54 99 55 100 56 101
REMARK H PARENT 3 16 78 54 46 65
REMARK Flexibility Score: inf
ROOT
ATOM      1  C   UNL A   1      29.169  30.544  22.967  1.00  0.00     0.188 C 
ENDROOT
BRANCH   1   2
ATOM      2  O   UNL A   1      27.891  29.927  22.839  1.00  0.00    -0.376 OA
BRANCH   2   3
ATOM      3  C   UNL A   1      27.749  28.538  23.110  1.00  0.00     0.202 C 
BRANCH   3   4
ATOM      4  C   UNL A   1      29.018  27.727  23.383  1.00  0.00     0.261 C 
BRANCH   4   5
ATOM      5  O   UNL A   1      28.785  26.330  23.643  1.00  0.00    -0.460 OA
BRANCH   5   6
ATOM      6  C   UNL A   1      29.912  25.573  23.766  1.00  0.00     0.342 C 
ATOM      7  O   UNL A   1      30.201  24.648  23.014  1.00  0.00    -0.246 OA
BRANCH   6   8
ATOM      8  C   UNL A   1      30.833  25.986  24.811  1.00  0.00     0.111 A 
ATOM      9  C   UNL A   1      32.169  26.395  24.787  1.00  0.00     0.140 A 
ATOM     10  N   UNL A   1      32.375  26.924  26.041  1.00  0.00    -0.262 N 
ATOM     11  C   UNL A   1      30.463  26.078  26.174  1.00  0.00     0.151 A 
ATOM     12  N   UNL A   1      31.424  26.598  26.933  1.00  0.00    -0.180 NA
ATOM     13  C   UNL A   1      33.421  27.820  26.480  1.00  0.00     0.174 C 
BRANCH   9  14
ATOM     14  C   UNL A   1      33.077  26.515  23.683  1.00  0.00     0.270 C 
ATOM     15  N   UNL A   1      33.591  25.410  23.045  1.00  0.00    -0.348 N 
ATOM     16  H   UNL A   1      34.246  25.665  22.356  1.00  0.00     0.164 HD
ATOM     17  O   UNL A   1      33.464  27.611  23.278  1.00  0.00    -0.267 OA
BRANCH  15  18
ATOM     18  C   UNL A   1      33.423  23.936  23.113  1.00  0.00     0.085 C 
ATOM     19  C   UNL A   1      33.335  23.247  21.749  1.00  0.00     0.031 C 
BRANCH  18  20
ATOM     20  C   UNL A   1      34.527  23.281  24.067  1.00  0.00    -0.009 C 
ATOM     21  C   UNL A   1      34.059  21.940  24.709  1.00  0.00     0.012 C 
ATOM     22  C   UNL A   1      34.938  24.227  25.240  1.00  0.00     0.012 C 
ATOM     23  C   UNL A   1      35.818  22.981  23.247  1.00  0.00     0.012 C 
ATOM     24  C   UNL A   1      35.159  21.322  25.594  1.00  0.00    -0.010 C 
ATOM     25  C   UNL A   1      36.034  23.614  26.124  1.00  0.00    -0.010 C 
ATOM     26  C   UNL A   1      36.922  22.369  24.133  1.00  0.00    -0.010 C 
ATOM     27  C   UNL A   1      36.413  21.056  24.742  1.00  0.00     0.007 C 
ATOM     28  C   UNL A   1      35.517  22.297  26.722  1.00  0.00     0.007 C 
ATOM     29  C   UNL A   1      37.275  23.344  25.266  1.00  0.00     0.007 C 
ENDBRANCH  18  20
ENDBRANCH  15  18
ENDBRANCH   9  14
ENDBRANCH   6   8
ENDBRANCH   5   6
ENDBRANCH   4   5
ENDBRANCH   3   4
ENDBRANCH   2   3
ENDBRANCH   1   2
BRANCH   1  30
ATOM     30  C   UNL A   1      29.483  31.348  24.242  1.00  0.00     0.188 C 
BRANCH  30  31
ATOM     31  O   UNL A   1      30.568  30.834  24.989  1.00  0.00    -0.376 OA
BRANCH  31  32
ATOM     32  C   UNL A   1      31.082  31.608  26.056  1.00  0.00     0.202 C 
BRANCH  32  33
ATOM     33  C   UNL A   1      32.503  31.319  26.554  1.00  0.00     0.261 C 
BRANCH  33  34
ATOM     34  O   UNL A   1      32.860  31.864  27.830  1.00  0.00    -0.460 OA
BRANCH  34  35
ATOM     35  C   UNL A   1      33.844  32.789  27.862  1.00  0.00     0.338 C 
ATOM     36  O   UNL A   1      33.727  33.989  27.697  1.00  0.00    -0.246 OA
BRANCH  35  37
ATOM     37  C   UNL A   1      35.078  32.102  28.302  1.00  0.00     0.060 A 
ATOM     38  C   UNL A   1      35.011  30.757  28.685  1.00  0.00     0.016 A 
ATOM     39  C   UNL A   1      36.299  32.784  28.324  1.00  0.00     0.016 A 
ATOM     40  C   UNL A   1      36.164  30.100  29.121  1.00  0.00     0.010 A 
ATOM     41  C   UNL A   1      37.449  32.128  28.769  1.00  0.00     0.010 A 
ATOM     42  C   UNL A   1      37.381  30.792  29.197  1.00  0.00    -0.014 A 
BRANCH  42  43
ATOM     43  C   UNL A   1      38.555  30.172  29.859  1.00  0.00     0.031 A 
ATOM     44  C   UNL A   1      38.927  30.624  31.244  1.00  0.00     0.074 A 
ATOM     45  C   UNL A   1      39.299  29.245  29.229  1.00  0.00     0.049 A 
ATOM     46  N   UNL A   1      39.911  30.229  32.008  1.00  0.00    -0.248 NA
ATOM     47  C   UNL A   1      38.077  31.666  31.844  1.00  0.00     0.031 C 
ATOM     48  C   UNL A   1      39.056  28.740  27.878  1.00  0.00     0.029 A 
ATOM     49  N   UNL A   1      40.431  28.585  29.639  1.00  0.00    -0.354 N 
ATOM     50  C   UNL A   1      39.810  30.981  33.171  1.00  0.00     0.074 A 
ATOM     51  C   UNL A   1      38.679  31.868  33.007  1.00  0.00     0.031 C 
ATOM     52  C   UNL A   1      40.030  27.870  27.558  1.00  0.00     0.029 A 
ATOM     53  C   UNL A   1      40.969  27.764  28.675  1.00  0.00     0.049 A 
ATOM     54  H   UNL A   1      40.820  28.688  30.536  1.00  0.00     0.167 HD
ATOM     55  C   UNL A   1      40.575  30.925  34.286  1.00  0.00     0.034 A 
ATOM     56  C   UNL A   1      42.095  27.024  28.689  1.00  0.00     0.034 A 
ATOM     57  C   UNL A   1      41.693  30.039  34.456  1.00  0.00     0.049 A 
ATOM     58  C   UNL A   1      42.942  26.990  29.937  1.00  0.00     0.074 A 
ATOM     59  C   UNL A   1      42.497  29.870  35.570  1.00  0.00     0.029 A 
ATOM     60  N   UNL A   1      42.177  29.182  33.479  1.00  0.00    -0.354 N 
ATOM     61  N   UNL A   1      42.745  27.591  31.086  1.00  0.00    -0.248 NA
ATOM     62  C   UNL A   1      44.148  26.149  29.901  1.00  0.00     0.031 C 
ATOM     63  C   UNL A   1      43.479  28.922  35.259  1.00  0.00     0.029 A 
ATOM     64  C   UNL A   1      43.277  28.490  33.958  1.00  0.00     0.049 A 
ATOM     65  H   UNL A   1      41.795  29.081  32.578  1.00  0.00     0.167 HD
ATOM     66  C   UNL A   1      43.780  27.177  31.917  1.00  0.00     0.074 A 
ATOM     67  C   UNL A   1      44.593  26.259  31.147  1.00  0.00     0.031 C 
ATOM     68  C   UNL A   1      44.044  27.537  33.199  1.00  0.00     0.034 A 
BRANCH  55  69
ATOM     69  C   UNL A   1      40.196  31.826  35.429  1.00  0.00     0.023 A 
ATOM     70  C   UNL A   1      40.853  33.064  35.578  1.00  0.00     0.012 A 
ATOM     71  C   UNL A   1      39.173  31.472  36.329  1.00  0.00     0.148 A 
ATOM     72  C   UNL A   1      40.520  33.924  36.625  1.00  0.00     0.002 A 
ATOM     73  C   UNL A   1      38.821  32.350  37.349  1.00  0.00     0.091 A 
ATOM     74  F   UNL A   1      38.581  30.277  36.189  1.00  0.00    -0.205 F 
ATOM     75  C   UNL A   1      39.498  33.571  37.503  1.00  0.00     0.022 A 
BRANCH  73  76
ATOM     76  S   UNL A   1      37.476  32.008  38.487  1.00  0.00     0.127 S 
ATOM     77  O   UNL A   1      37.182  30.608  38.185  1.00  0.00    -0.237 OA
ATOM     78  O   UNL A   1      38.104  32.231  39.790  1.00  0.00    -0.237 OA
ATOM     79  O   UNL A   1      36.425  32.960  38.155  1.00  0.00    -0.744 OA
ENDBRANCH  73  76
ENDBRANCH  55  69
BRANCH  56  80
ATOM     80  C   UNL A   1      42.464  26.211  27.497  1.00  0.00     0.023 A 
ATOM     81  C   UNL A   1      43.212  26.802  26.460  1.00  0.00     0.012 A 
ATOM     82  C   UNL A   1      42.102  24.853  27.396  1.00  0.00     0.148 A 
ATOM     83  C   UNL A   1      43.573  26.062  25.334  1.00  0.00     0.002 A 
ATOM     84  C   UNL A   1      42.506  24.109  26.294  1.00  0.00     0.091 A 
ATOM     85  F   UNL A   1      41.371  24.316  28.384  1.00  0.00    -0.205 F 
ATOM     86  C   UNL A   1      43.230  24.715  25.255  1.00  0.00     0.022 A 
BRANCH  84  87
ATOM     87  S   UNL A   1      42.207  22.342  26.162  1.00  0.00     0.127 S 
ATOM     88  O   UNL A   1      40.754  22.295  26.026  1.00  0.00    -0.237 OA
ATOM     89  O   UNL A   1      42.950  21.997  24.950  1.00  0.00    -0.237 OA
ATOM     90  O   UNL A   1      42.747  21.762  27.384  1.00  0.00    -0.744 OA
ENDBRANCH  84  87
ENDBRANCH  56  80
BRANCH  68  91
ATOM     91  C   UNL A   1      45.247  26.925  33.868  1.00  0.00     0.023 A 
ATOM     92  C   UNL A   1      46.496  27.572  33.779  1.00  0.00     0.012 A 
ATOM     93  C   UNL A   1      45.125  25.765  34.658  1.00  0.00     0.148 A 
ATOM     94  C   UNL A   1      47.609  27.060  34.444  1.00  0.00     0.002 A 
ATOM     95  C   UNL A   1      46.229  25.285  35.353  1.00  0.00     0.091 A 
ATOM     96  F   UNL A   1      43.933  25.152  34.715  1.00  0.00    -0.205 F 
ATOM     97  C   UNL A   1      47.473  25.925  35.242  1.00  0.00     0.022 A 
BRANCH  95  98
ATOM     98  S   UNL A   1      46.119  23.884  36.474  1.00  0.00     0.127 S 
ATOM     99  O   UNL A   1      47.450  23.294  36.349  1.00  0.00    -0.237 OA
ATOM    100  O   UNL A   1      45.858  24.531  37.761  1.00  0.00    -0.237 OA
ATOM    101  O   UNL A   1      45.019  23.067  35.981  1.00  0.00    -0.744 OA
ENDBRANCH  95  98
ENDBRANCH  68  91
ENDBRANCH  42  43
ENDBRANCH  35  37
ENDBRANCH  34  35
ENDBRANCH  33  34
ENDBRANCH  32  33
ENDBRANCH  31  32
ENDBRANCH  30  31
ENDBRANCH   1  30
TORSDOF 23
ENDMDL
MODEL 2
REMARK VINA RESULT:     -10.9      2.039      2.741
REMARK SMILES C[C@H](NC(=O)c1c(C(=O)OCCOCCOCCOC(=O)c2ccc(-c3c4nc(c(-c5cccc(S(=O)(=O)[O-])c5F)c5ccc([nH]5)c(-c5cccc(S(=O)(=O)[O-])c5F)c5nc(c(-c6cccc(S(=O)(=O)[O-])c6F)c6ccc3[nH]6)C=C5)C=C4)cc2)cnn1C)[C@]12C[C@H]3C[C@H](C[C@H](C3)C1)C2
REMARK SMILES IDX 14 1 13 2 12 3 11 4 10 5 8 6 9 7 7 8 6 9 87 10 85 11 86 12
REMARK SMILES IDX 88 13 4 14 3 15 5 17 2 18 1 19 89 20 90 21 97 22 98 23 91 24
REMARK SMILES IDX 95 25 93 26 92 27 96 28 94 29 15 30 16 31 17 32 18 33 19 34
REMARK SMILES IDX 20 35 21 36 22 37 23 38 84 39 24 40 83 41 25 42 26 43 27 44
REMARK SMILES IDX 77 45 28 46 82 47 76 48 78 49 29 50 81 51 75 52 74 53 30 55
REMARK SMILES IDX 62 56 42 57 61 58 43 59 46 60 60 61 79 62 44 63 45 64 59 66
REMARK SMILES IDX 80 67 47 68 31 69 32 70 40 71 33 72 35 73 41 74 34 75 36 76
REMARK SMILES IDX 37 77 38 78 39 79 63 80 64 81 72 82 65 83 67 84 73 85 66 86
REMARK SMILES IDX 68 87 69 88 70 89 71 90 48 91 49 92 57 93 50 94 52 95 58 96
REMARK SMILES IDX 51 97 53 98 54 99 55 100 56 101
REMARK H PARENT 3 16 78 54 46 65
REMARK Flexibility Score: inf
ROOT
ATOM      1  C   UNL A   1      30.008  29.850  22.820  1.00  0.00     0.188 C 
ENDROOT
BRANCH   1   2
ATOM      2  O   UNL A   1      29.260  28.641  22.734  1.00  0.00    -0.376 OA
BRANCH   2   3
ATOM      3  C   UNL A   1      29.897  27.398  23.004  1.00  0.00     0.202 C 
BRANCH   3   4
ATOM      4  C   UNL A   1      31.220  27.102  22.294  1.00  0.00     0.261 C 
BRANCH   4   5
ATOM      5  O   UNL A   1      31.643  25.727  22.376  1.00  0.00    -0.460 OA
BRANCH   5   6
ATOM      6  C   UNL A   1      32.993  25.540  22.358  1.00  0.00     0.342 C 
ATOM      7  O   UNL A   1      33.690  25.678  21.357  1.00  0.00    -0.246 OA
BRANCH   6   8
ATOM      8  C   UNL A   1      33.602  25.247  23.644  1.00  0.00     0.111 A 
ATOM      9  C   UNL A   1      34.386  24.184  24.098  1.00  0.00     0.140 A 
ATOM     10  N   UNL A   1      34.884  24.631  25.301  1.00  0.00    -0.262 N 
ATOM     11  C   UNL A   1      33.509  26.115  24.758  1.00  0.00     0.151 A 
ATOM     12  N   UNL A   1      34.246  25.709  25.787  1.00  0.00    -0.180 NA
ATOM     13  C   UNL A   1      36.023  24.140  26.043  1.00  0.00     0.174 C 
BRANCH   9  14
ATOM     14  C   UNL A   1      34.826  23.002  23.413  1.00  0.00     0.270 C 
ATOM     15  N   UNL A   1      34.409  21.748  23.791  1.00  0.00    -0.348 N 
ATOM     16  H   UNL A   1      34.854  21.047  23.263  1.00  0.00     0.164 HD
ATOM     17  O   UNL A   1      35.623  23.056  22.476  1.00  0.00    -0.267 OA
BRANCH  15  18
ATOM     18  C   UNL A   1      33.468  21.165  24.782  1.00  0.00     0.085 C 
ATOM     19  C   UNL A   1      32.071  21.790  24.769  1.00  0.00     0.031 C 
BRANCH  18  20
ATOM     20  C   UNL A   1      33.434  19.570  24.665  1.00  0.00    -0.009 C 
ATOM     21  C   UNL A   1      32.758  18.885  25.891  1.00  0.00     0.012 C 
ATOM     22  C   UNL A   1      34.861  18.952  24.530  1.00  0.00     0.012 C 
ATOM     23  C   UNL A   1      32.631  19.154  23.396  1.00  0.00     0.012 C 
ATOM     24  C   UNL A   1      32.713  17.352  25.728  1.00  0.00    -0.010 C 
ATOM     25  C   UNL A   1      34.820  17.425  24.367  1.00  0.00    -0.010 C 
ATOM     26  C   UNL A   1      32.592  17.622  23.228  1.00  0.00    -0.010 C 
ATOM     27  C   UNL A   1      31.922  16.995  24.458  1.00  0.00     0.007 C 
ATOM     28  C   UNL A   1      34.141  16.809  25.599  1.00  0.00     0.007 C 
ATOM     29  C   UNL A   1      34.024  17.078  23.105  1.00  0.00     0.007 C 
ENDBRANCH  18  20
ENDBRANCH  15  18
ENDBRANCH   9  14
ENDBRANCH   6   8
ENDBRANCH   5   6
ENDBRANCH   4   5
ENDBRANCH   3   4
ENDBRANCH   2   3
ENDBRANCH   1   2
BRANCH   1  30
ATOM     30  C   UNL A   1      29.657  30.867  23.922  1.00  0.00     0.188 C 
BRANCH  30  31
ATOM     31  O   UNL A   1      30.564  30.868  25.007  1.00  0.00    -0.376 OA
BRANCH  31  32
ATOM     32  C   UNL A   1      31.517  29.827  25.094  1.00  0.00     0.202 C 
BRANCH  32  33
ATOM     33  C   UNL A   1      32.725  30.012  26.019  1.00  0.00     0.261 C 
BRANCH  33  34
ATOM     34  O   UNL A   1      32.503  30.752  27.225  1.00  0.00    -0.460 OA
BRANCH  34  35
ATOM     35  C   UNL A   1      33.280  31.836  27.446  1.00  0.00     0.338 C 
ATOM     36  O   UNL A   1      32.945  33.004  27.377  1.00  0.00    -0.246 OA
BRANCH  35  37
ATOM     37  C   UNL A   1      34.582  31.346  27.951  1.00  0.00     0.060 A 
ATOM     38  C   UNL A   1      34.800  29.967  28.050  1.00  0.00     0.016 A 
ATOM     39  C   UNL A   1      35.585  32.250  28.315  1.00  0.00     0.016 A 
ATOM     40  C   UNL A   1      36.017  29.490  28.544  1.00  0.00     0.010 A 
ATOM     41  C   UNL A   1      36.798  31.772  28.818  1.00  0.00     0.010 A 
ATOM     42  C   UNL A   1      37.008  30.390  28.962  1.00  0.00    -0.014 A 
BRANCH  42  43
ATOM     43  C   UNL A   1      38.208  29.901  29.684  1.00  0.00     0.031 A 
ATOM     44  C   UNL A   1      38.469  30.407  31.076  1.00  0.00     0.074 A 
ATOM     45  C   UNL A   1      39.069  29.047  29.103  1.00  0.00     0.049 A 
ATOM     46  N   UNL A   1      39.453  30.124  31.889  1.00  0.00    -0.248 NA
ATOM     47  C   UNL A   1      37.492  31.364  31.621  1.00  0.00     0.031 C 
ATOM     48  C   UNL A   1      38.940  28.504  27.752  1.00  0.00     0.029 A 
ATOM     49  N   UNL A   1      40.243  28.511  29.573  1.00  0.00    -0.354 N 
ATOM     50  C   UNL A   1      39.224  30.876  33.034  1.00  0.00     0.074 A 
ATOM     51  C   UNL A   1      38.017  31.641  32.806  1.00  0.00     0.031 C 
ATOM     52  C   UNL A   1      40.010  27.733  27.490  1.00  0.00     0.029 A 
ATOM     53  C   UNL A   1      40.903  27.737  28.648  1.00  0.00     0.049 A 
ATOM     54  H   UNL A   1      40.578  28.664  30.485  1.00  0.00     0.167 HD
ATOM     55  C   UNL A   1      39.940  30.912  34.182  1.00  0.00     0.034 A 
ATOM     56  C   UNL A   1      42.097  27.116  28.724  1.00  0.00     0.034 A 
ATOM     57  C   UNL A   1      41.133  30.147  34.415  1.00  0.00     0.049 A 
ATOM     58  C   UNL A   1      42.886  27.184  30.007  1.00  0.00     0.074 A 
ATOM     59  C   UNL A   1      41.899  30.075  35.565  1.00  0.00     0.029 A 
ATOM     60  N   UNL A   1      41.744  29.332  33.475  1.00  0.00    -0.354 N 
ATOM     61  N   UNL A   1      42.578  27.777  31.136  1.00  0.00    -0.248 NA
ATOM     62  C   UNL A   1      44.171  26.470  30.038  1.00  0.00     0.031 C 
ATOM     63  C   UNL A   1      42.985  29.228  35.314  1.00  0.00     0.029 A 
ATOM     64  C   UNL A   1      42.886  28.762  34.013  1.00  0.00     0.049 A 
ATOM     65  H   UNL A   1      41.416  29.181  32.560  1.00  0.00     0.167 HD
ATOM     66  C   UNL A   1      43.611  27.481  32.019  1.00  0.00     0.074 A 
ATOM     67  C   UNL A   1      44.546  26.641  31.300  1.00  0.00     0.031 C 
ATOM     68  C   UNL A   1      43.780  27.882  33.304  1.00  0.00     0.034 A 
BRANCH  55  69
ATOM     69  C   UNL A   1      39.420  31.785  35.291  1.00  0.00     0.023 A 
ATOM     70  C   UNL A   1      38.487  31.255  36.205  1.00  0.00     0.012 A 
ATOM     71  C   UNL A   1      39.875  33.107  35.454  1.00  0.00     0.148 A 
ATOM     72  C   UNL A   1      37.990  32.037  37.247  1.00  0.00     0.002 A 
ATOM     73  C   UNL A   1      39.402  33.870  36.517  1.00  0.00     0.091 A 
ATOM     74  F   UNL A   1      40.739  33.603  34.556  1.00  0.00    -0.205 F 
ATOM     75  C   UNL A   1      38.455  33.340  37.408  1.00  0.00     0.022 A 
BRANCH  73  76
ATOM     76  S   UNL A   1      39.992  35.535  36.839  1.00  0.00     0.127 S 
ATOM     77  O   UNL A   1      41.437  35.326  36.920  1.00  0.00    -0.237 OA
ATOM     78  O   UNL A   1      39.547  36.260  35.648  1.00  0.00    -0.237 OA
ATOM     79  O   UNL A   1      39.344  35.952  38.075  1.00  0.00    -0.744 OA
ENDBRANCH  73  76
ENDBRANCH  55  69
BRANCH  56  80
ATOM     80  C   UNL A   1      42.600  26.330  27.563  1.00  0.00     0.023 A 
ATOM     81  C   UNL A   1      43.448  26.948  26.623  1.00  0.00     0.012 A 
ATOM     82  C   UNL A   1      42.265  24.971  27.398  1.00  0.00     0.148 A 
ATOM     83  C   UNL A   1      43.934  26.233  25.528  1.00  0.00     0.002 A 
ATOM     84  C   UNL A   1      42.792  24.253  26.332  1.00  0.00     0.091 A 
ATOM     85  F   UNL A   1      41.439  24.408  28.292  1.00  0.00    -0.205 F 
ATOM     86  C   UNL A   1      43.616  24.885  25.388  1.00  0.00     0.022 A 
BRANCH  84  87
ATOM     87  S   UNL A   1      42.528  22.486  26.136  1.00  0.00     0.127 S 
ATOM     88  O   UNL A   1      43.069  21.963  27.387  1.00  0.00    -0.237 OA
ATOM     89  O   UNL A   1      41.072  22.408  26.014  1.00  0.00    -0.237 OA
ATOM     90  O   UNL A   1      43.252  22.114  24.928  1.00  0.00    -0.744 OA
ENDBRANCH  84  87
ENDBRANCH  56  80
BRANCH  68  91
ATOM     91  C   UNL A   1      45.007  27.405  34.035  1.00  0.00     0.023 A 
ATOM     92  C   UNL A   1      46.135  28.245  34.123  1.00  0.00     0.012 A 
ATOM     93  C   UNL A   1      45.013  26.169  34.711  1.00  0.00     0.148 A 
ATOM     94  C   UNL A   1      47.258  27.851  34.849  1.00  0.00     0.002 A 
ATOM     95  C   UNL A   1      46.119  25.802  35.470  1.00  0.00     0.091 A 
ATOM     96  F   UNL A   1      43.938  25.373  34.600  1.00  0.00    -0.205 F 
ATOM     97  C   UNL A   1      47.245  26.637  35.533  1.00  0.00     0.022 A 
BRANCH  95  98
ATOM     98  S   UNL A   1      46.148  24.299  36.455  1.00  0.00     0.127 S 
ATOM     99  O   UNL A   1      47.018  24.685  37.565  1.00  0.00    -0.237 OA
ATOM    100  O   UNL A   1      44.740  24.131  36.815  1.00  0.00    -0.237 OA
ATOM    101  O   UNL A   1      46.670  23.260  35.578  1.00  0.00    -0.744 OA
ENDBRANCH  95  98
ENDBRANCH  68  91
ENDBRANCH  42  43
ENDBRANCH  35  37
ENDBRANCH  34  35
ENDBRANCH  33  34
ENDBRANCH  32  33
ENDBRANCH  31  32
ENDBRANCH  30  31
ENDBRANCH   1  30
TORSDOF 23
ENDMDL
MODEL 3
REMARK VINA RESULT:     -10.6      3.013      3.779
REMARK SMILES C[C@H](NC(=O)c1c(C(=O)OCCOCCOCCOC(=O)c2ccc(-c3c4nc(c(-c5cccc(S(=O)(=O)[O-])c5F)c5ccc([nH]5)c(-c5cccc(S(=O)(=O)[O-])c5F)c5nc(c(-c6cccc(S(=O)(=O)[O-])c6F)c6ccc3[nH]6)C=C5)C=C4)cc2)cnn1C)[C@]12C[C@H]3C[C@H](C[C@H](C3)C1)C2
REMARK SMILES IDX 14 1 13 2 12 3 11 4 10 5 8 6 9 7 7 8 6 9 87 10 85 11 86 12
REMARK SMILES IDX 88 13 4 14 3 15 5 17 2 18 1 19 89 20 90 21 97 22 98 23 91 24
REMARK SMILES IDX 95 25 93 26 92 27 96 28 94 29 15 30 16 31 17 32 18 33 19 34
REMARK SMILES IDX 20 35 21 36 22 37 23 38 84 39 24 40 83 41 25 42 26 43 27 44
REMARK SMILES IDX 77 45 28 46 82 47 76 48 78 49 29 50 81 51 75 52 74 53 30 55
REMARK SMILES IDX 62 56 42 57 61 58 43 59 46 60 60 61 79 62 44 63 45 64 59 66
REMARK SMILES IDX 80 67 47 68 31 69 32 70 40 71 33 72 35 73 41 74 34 75 36 76
REMARK SMILES IDX 37 77 38 78 39 79 63 80 64 81 72 82 65 83 67 84 73 85 66 86
REMARK SMILES IDX 68 87 69 88 70 89 71 90 48 91 49 92 57 93 50 94 52 95 58 96
REMARK SMILES IDX 51 97 53 98 54 99 55 100 56 101
REMARK H PARENT 3 16 78 54 46 65
REMARK Flexibility Score: inf
ROOT
ATOM      1  C   UNL A   1      30.629  29.091  23.286  1.00  0.00     0.188 C 
ENDROOT
BRANCH   1   2
ATOM      2  O   UNL A   1      29.794  27.938  23.347  1.00  0.00    -0.376 OA
BRANCH   2   3
ATOM      3  C   UNL A   1      30.382  26.645  23.418  1.00  0.00     0.202 C 
BRANCH   3   4
ATOM      4  C   UNL A   1      31.059  26.096  22.160  1.00  0.00     0.261 C 
BRANCH   4   5
ATOM      5  O   UNL A   1      32.002  25.035  22.408  1.00  0.00    -0.460 OA
BRANCH   5   6
ATOM      6  C   UNL A   1      33.298  25.436  22.534  1.00  0.00     0.342 C 
ATOM      7  O   UNL A   1      33.901  26.080  21.681  1.00  0.00    -0.246 OA
BRANCH   6   8
ATOM      8  C   UNL A   1      33.927  25.133  23.808  1.00  0.00     0.111 A 
ATOM      9  C   UNL A   1      34.708  24.061  24.245  1.00  0.00     0.140 A 
ATOM     10  N   UNL A   1      35.231  24.499  25.441  1.00  0.00    -0.262 N 
ATOM     11  C   UNL A   1      33.861  25.997  24.927  1.00  0.00     0.151 A 
ATOM     12  N   UNL A   1      34.612  25.581  25.942  1.00  0.00    -0.180 NA
ATOM     13  C   UNL A   1      36.378  23.994  26.161  1.00  0.00     0.174 C 
BRANCH   9  14
ATOM     14  C   UNL A   1      35.125  22.877  23.548  1.00  0.00     0.270 C 
ATOM     15  N   UNL A   1      34.635  21.635  23.874  1.00  0.00    -0.348 N 
ATOM     16  H   UNL A   1      35.071  20.927  23.347  1.00  0.00     0.164 HD
ATOM     17  O   UNL A   1      35.964  22.918  22.649  1.00  0.00    -0.267 OA
BRANCH  15  18
ATOM     18  C   UNL A   1      33.626  21.071  24.808  1.00  0.00     0.085 C 
ATOM     19  C   UNL A   1      32.265  21.772  24.763  1.00  0.00     0.031 C 
BRANCH  18  20
ATOM     20  C   UNL A   1      33.511  19.486  24.633  1.00  0.00    -0.009 C 
ATOM     21  C   UNL A   1      32.690  19.071  23.374  1.00  0.00     0.012 C 
ATOM     22  C   UNL A   1      32.836  18.798  25.861  1.00  0.00     0.012 C 
ATOM     23  C   UNL A   1      34.935  18.869  24.487  1.00  0.00     0.012 C 
ATOM     24  C   UNL A   1      32.629  17.538  23.219  1.00  0.00    -0.010 C 
ATOM     25  C   UNL A   1      32.773  17.271  25.710  1.00  0.00    -0.010 C 
ATOM     26  C   UNL A   1      34.875  17.335  24.339  1.00  0.00    -0.010 C 
ATOM     27  C   UNL A   1      34.057  16.978  23.091  1.00  0.00     0.007 C 
ATOM     28  C   UNL A   1      31.959  16.925  24.455  1.00  0.00     0.007 C 
ATOM     29  C   UNL A   1      34.198  16.722  25.575  1.00  0.00     0.007 C 
ENDBRANCH  18  20
ENDBRANCH  15  18
ENDBRANCH   9  14
ENDBRANCH   6   8
ENDBRANCH   5   6
ENDBRANCH   4   5
ENDBRANCH   3   4
ENDBRANCH   2   3
ENDBRANCH   1   2
BRANCH   1  30
ATOM     30  C   UNL A   1      30.342  30.270  24.234  1.00  0.00     0.188 C 
BRANCH  30  31
ATOM     31  O   UNL A   1      31.308  30.431  25.254  1.00  0.00    -0.376 OA
BRANCH  31  32
ATOM     32  C   UNL A   1      32.096  29.316  25.622  1.00  0.00     0.202 C 
BRANCH  32  33
ATOM     33  C   UNL A   1      33.538  29.555  26.085  1.00  0.00     0.261 C 
BRANCH  33  34
ATOM     34  O   UNL A   1      33.711  30.047  27.418  1.00  0.00    -0.460 OA
BRANCH  34  35
ATOM     35  C   UNL A   1      34.513  31.121  27.590  1.00  0.00     0.338 C 
ATOM     36  O   UNL A   1      34.236  32.286  27.369  1.00  0.00    -0.246 OA
BRANCH  35  37
ATOM     37  C   UNL A   1      35.745  30.646  28.257  1.00  0.00     0.060 A 
ATOM     38  C   UNL A   1      36.961  31.279  27.975  1.00  0.00     0.016 A 
ATOM     39  C   UNL A   1      35.694  29.584  29.166  1.00  0.00     0.016 A 
ATOM     40  C   UNL A   1      38.136  30.829  28.582  1.00  0.00     0.010 A 
ATOM     41  C   UNL A   1      36.872  29.129  29.765  1.00  0.00     0.010 A 
ATOM     42  C   UNL A   1      38.102  29.731  29.453  1.00  0.00    -0.014 A 
BRANCH  42  43
ATOM     43  C   UNL A   1      39.364  29.113  29.929  1.00  0.00     0.031 A 
ATOM     44  C   UNL A   1      40.038  29.691  31.143  1.00  0.00     0.074 A 
ATOM     45  C   UNL A   1      39.920  28.077  29.277  1.00  0.00     0.049 A 
ATOM     46  N   UNL A   1      41.145  29.321  31.731  1.00  0.00    -0.248 NA
ATOM     47  C   UNL A   1      39.376  30.845  31.775  1.00  0.00     0.031 C 
ATOM     48  C   UNL A   1      39.378  27.443  28.077  1.00  0.00     0.029 A 
ATOM     49  N   UNL A   1      41.086  27.394  29.523  1.00  0.00    -0.354 N 
ATOM     50  C   UNL A   1      41.322  30.201  32.790  1.00  0.00     0.074 A 
ATOM     51  C   UNL A   1      40.218  31.136  32.756  1.00  0.00     0.031 C 
ATOM     52  C   UNL A   1      40.226  26.482  27.672  1.00  0.00     0.029 A 
ATOM     53  C   UNL A   1      41.375  26.440  28.576  1.00  0.00     0.049 A 
ATOM     54  H   UNL A   1      41.660  27.571  30.302  1.00  0.00     0.167 HD
ATOM     55  C   UNL A   1      42.303  30.219  33.723  1.00  0.00     0.034 A 
ATOM     56  C   UNL A   1      42.449  25.635  28.449  1.00  0.00     0.034 A 
ATOM     57  C   UNL A   1      43.395  29.287  33.766  1.00  0.00     0.049 A 
ATOM     58  C   UNL A   1      43.538  25.684  29.491  1.00  0.00     0.074 A 
ATOM     59  C   UNL A   1      44.409  29.191  34.703  1.00  0.00     0.029 A 
ATOM     60  N   UNL A   1      43.627  28.299  32.822  1.00  0.00    -0.354 N 
ATOM     61  N   UNL A   1      43.613  26.420  30.574  1.00  0.00    -0.248 NA
ATOM     62  C   UNL A   1      44.674  24.769  29.310  1.00  0.00     0.031 C 
ATOM     63  C   UNL A   1      45.264  28.153  34.315  1.00  0.00     0.029 A 
ATOM     64  C   UNL A   1      44.775  27.595  33.145  1.00  0.00     0.049 A 
ATOM     65  H   UNL A   1      43.059  28.124  32.037  1.00  0.00     0.167 HD
ATOM     66  C   UNL A   1      44.783  26.035  31.219  1.00  0.00     0.074 A 
ATOM     67  C   UNL A   1      45.377  24.987  30.415  1.00  0.00     0.031 C 
ATOM     68  C   UNL A   1      45.326  26.516  32.365  1.00  0.00     0.034 A 
BRANCH  55  69
ATOM     69  C   UNL A   1      42.210  31.264  34.801  1.00  0.00     0.023 A 
ATOM     70  C   UNL A   1      41.463  30.989  35.965  1.00  0.00     0.012 A 
ATOM     71  C   UNL A   1      42.882  32.495  34.685  1.00  0.00     0.148 A 
ATOM     72  C   UNL A   1      41.361  31.935  36.984  1.00  0.00     0.002 A 
ATOM     73  C   UNL A   1      42.807  33.419  35.721  1.00  0.00     0.091 A 
ATOM     74  F   UNL A   1      43.562  32.751  33.557  1.00  0.00    -0.205 F 
ATOM     75  C   UNL A   1      42.041  33.145  36.866  1.00  0.00     0.022 A 
BRANCH  73  76
ATOM     76  S   UNL A   1      43.700  34.976  35.685  1.00  0.00     0.127 S 
ATOM     77  O   UNL A   1      45.087  34.520  35.606  1.00  0.00    -0.237 OA
ATOM     78  O   UNL A   1      43.193  35.599  34.460  1.00  0.00    -0.237 OA
ATOM     79  O   UNL A   1      43.332  35.672  36.910  1.00  0.00    -0.744 OA
ENDBRANCH  73  76
ENDBRANCH  55  69
BRANCH  56  80
ATOM     80  C   UNL A   1      42.524  24.673  27.314  1.00  0.00     0.023 A 
ATOM     81  C   UNL A   1      43.172  25.057  26.123  1.00  0.00     0.012 A 
ATOM     82  C   UNL A   1      41.984  23.376  27.416  1.00  0.00     0.148 A 
ATOM     83  C   UNL A   1      43.259  24.174  25.046  1.00  0.00     0.002 A 
ATOM     84  C   UNL A   1      42.116  22.486  26.357  1.00  0.00     0.091 A 
ATOM     85  F   UNL A   1      41.352  23.039  28.549  1.00  0.00    -0.205 F 
ATOM     86  C   UNL A   1      42.742  22.887  25.166  1.00  0.00     0.022 A 
BRANCH  84  87
ATOM     87  S   UNL A   1      41.581  20.774  26.464  1.00  0.00     0.127 S 
ATOM     88  O   UNL A   1      42.381  20.145  25.417  1.00  0.00    -0.237 OA
ATOM     89  O   UNL A   1      41.966  20.420  27.831  1.00  0.00    -0.237 OA
ATOM     90  O   UNL A   1      40.143  20.799  26.233  1.00  0.00    -0.744 OA
ENDBRANCH  84  87
ENDBRANCH  56  80
BRANCH  68  91
ATOM     91  C   UNL A   1      46.618  25.906  32.842  1.00  0.00     0.023 A 
ATOM     92  C   UNL A   1      46.596  24.952  33.879  1.00  0.00     0.012 A 
ATOM     93  C   UNL A   1      47.839  26.206  32.205  1.00  0.00     0.148 A 
ATOM     94  C   UNL A   1      47.771  24.326  34.291  1.00  0.00     0.002 A 
ATOM     95  C   UNL A   1      48.999  25.546  32.593  1.00  0.00     0.091 A 
ATOM     96  F   UNL A   1      47.844  27.131  31.234  1.00  0.00    -0.205 F 
ATOM     97  C   UNL A   1      48.969  24.612  33.640  1.00  0.00     0.022 A 
BRANCH  95  98
ATOM     98  S   UNL A   1      50.566  25.787  31.746  1.00  0.00     0.127 S 
ATOM     99  O   UNL A   1      50.282  25.228  30.425  1.00  0.00    -0.237 OA
ATOM    100  O   UNL A   1      50.717  27.242  31.773  1.00  0.00    -0.237 OA
ATOM    101  O   UNL A   1      51.558  25.067  32.534  1.00  0.00    -0.744 OA
ENDBRANCH  95  98
ENDBRANCH  68  91
ENDBRANCH  42  43
ENDBRANCH  35  37
ENDBRANCH  34  35
ENDBRANCH  33  34
ENDBRANCH  32  33
ENDBRANCH  31  32
ENDBRANCH  30  31
ENDBRANCH   1  30
TORSDOF 23
ENDMDL
