MODEL 1
REMARK VINA RESULT:     -11.4      0.000      0.000
REMARK SMILES COC(=O)c1ccc(C)c(NC(=O)[C@H]2CC=CC[C@H]2C(=O)OCCOCCOCCOC(=O)c2ccc(-c3c4nc(c(-c5cccc(S(=O)(=O)[O-])c5F)c5ccc([nH]5)c(-c5cccc(S(=O)(=O)[O-])c5F)c5nc(c(-c6cccc(S(=O)(=O)[O-])c6F)c6ccc3[nH]6)C=C5)C=C4)cc2)c1
REMARK SMILES IDX 26 1 25 2 24 3 23 4 22 5 20 6 21 7 19 8 14 9 15 10 16 11
REMARK SMILES IDX 18 12 17 13 12 14 11 15 13 17 10 18 5 19 6 20 97 21 7 22
REMARK SMILES IDX 8 23 9 24 3 25 4 26 2 27 1 28 27 29 28 30 29 31 30 32 31 33
REMARK SMILES IDX 32 34 33 35 34 36 35 37 96 38 36 39 95 40 37 41 38 42 39 43
REMARK SMILES IDX 89 44 40 45 94 46 88 47 90 48 41 49 93 50 87 51 86 52 42 54
REMARK SMILES IDX 74 55 54 56 73 57 55 58 58 59 72 60 91 61 56 62 57 63 71 65
REMARK SMILES IDX 92 66 59 67 43 68 44 69 52 70 45 71 47 72 53 73 46 74 48 75
REMARK SMILES IDX 49 76 50 77 51 78 75 79 76 80 84 81 77 82 79 83 85 84 78 85
REMARK SMILES IDX 80 86 81 87 82 88 83 89 60 90 61 91 69 92 62 93 64 94 70 95
REMARK SMILES IDX 63 96 65 97 66 98 67 99 68 100
REMARK H PARENT 11 16 90 53 58 64
REMARK Flexibility Score: inf
ROOT
ATOM      1  C   UNL A   1      33.994  32.757  28.590  1.00  0.00     0.188 C 
ENDROOT
BRANCH   1   2
ATOM      2  O   UNL A   1      33.866  31.455  27.993  1.00  0.00    -0.376 OA
BRANCH   2   3
ATOM      3  C   UNL A   1      34.995  30.770  27.403  1.00  0.00     0.202 C 
BRANCH   3   4
ATOM      4  C   UNL A   1      34.966  29.136  27.240  1.00  0.00     0.261 C 
BRANCH   4   5
ATOM      5  O   UNL A   1      33.855  28.550  26.355  1.00  0.00    -0.463 OA
BRANCH   5   6
ATOM      6  C   UNL A   1      33.685  27.970  25.110  1.00  0.00     0.310 C 
ATOM      7  O   UNL A   1      33.615  28.638  24.116  1.00  0.00    -0.252 OA
BRANCH   6   8
ATOM      8  C   UNL A   1      33.626  26.224  25.120  1.00  0.00     0.116 C 
ATOM      9  C   UNL A   1      32.874  25.572  23.943  1.00  0.00     0.097 C 
ATOM     10  C   UNL A   1      33.171  24.065  23.744  1.00  0.00     0.041 C 
ATOM     11  C   UNL A   1      34.635  23.775  23.671  1.00  0.00    -0.030 C 
ATOM     12  C   UNL A   1      34.729  25.159  25.656  1.00  0.00     0.043 C 
ATOM     13  C   UNL A   1      35.415  24.356  24.583  1.00  0.00    -0.030 C 
BRANCH   9  14
ATOM     14  C   UNL A   1      32.978  26.331  22.647  1.00  0.00     0.228 C 
ATOM     15  N   UNL A   1      31.931  27.096  22.211  1.00  0.00    -0.326 N 
ATOM     16  H   UNL A   1      32.141  27.639  21.417  1.00  0.00     0.169 HD
ATOM     17  O   UNL A   1      34.025  26.348  21.994  1.00  0.00    -0.274 OA
BRANCH  15  18
ATOM     18  C   UNL A   1      30.610  27.256  22.677  1.00  0.00     0.044 A 
ATOM     19  C   UNL A   1      28.854  28.934  23.019  1.00  0.00     0.062 A 
ATOM     20  C   UNL A   1      28.056  27.953  23.610  1.00  0.00     0.016 A 
ATOM     21  C   UNL A   1      30.115  28.572  22.549  1.00  0.00     0.042 A 
ATOM     22  C   UNL A   1      28.511  26.637  23.701  1.00  0.00     0.006 A 
ATOM     23  C   UNL A   1      29.784  26.263  23.230  1.00  0.00    -0.027 A 
ATOM     24  C   UNL A   1      30.116  24.799  23.342  1.00  0.00     0.046 C 
BRANCH  19  25
ATOM     25  C   UNL A   1      28.373  30.342  23.057  1.00  0.00     0.337 C 
ATOM     26  O   UNL A   1      27.299  30.577  23.609  1.00  0.00    -0.246 OA
BRANCH  25  27
ATOM     27  O   UNL A   1      29.091  31.341  22.496  1.00  0.00    -0.465 OA
ATOM     28  C   UNL A   1      28.560  32.635  22.166  1.00  0.00     0.282 C 
ENDBRANCH  25  27
ENDBRANCH  19  25
ENDBRANCH  15  18
ENDBRANCH   9  14
ENDBRANCH   6   8
ENDBRANCH   5   6
ENDBRANCH   4   5
ENDBRANCH   3   4
ENDBRANCH   2   3
ENDBRANCH   1   2
BRANCH   1  29
ATOM     29  C   UNL A   1      33.221  33.991  28.122  1.00  0.00     0.188 C 
BRANCH  29  30
ATOM     30  O   UNL A   1      32.617  34.683  29.211  1.00  0.00    -0.376 OA
BRANCH  30  31
ATOM     31  C   UNL A   1      33.081  36.024  29.351  1.00  0.00     0.202 C 
BRANCH  31  32
ATOM     32  C   UNL A   1      33.225  36.442  30.833  1.00  0.00     0.261 C 
BRANCH  32  33
ATOM     33  O   UNL A   1      34.143  35.560  31.531  1.00  0.00    -0.460 OA
BRANCH  33  34
ATOM     34  C   UNL A   1      33.625  34.823  32.573  1.00  0.00     0.338 C 
ATOM     35  O   UNL A   1      32.443  34.743  32.847  1.00  0.00    -0.246 OA
BRANCH  34  36
ATOM     36  C   UNL A   1      34.710  33.935  33.088  1.00  0.00     0.060 A 
ATOM     37  C   UNL A   1      35.722  34.160  34.025  1.00  0.00     0.016 A 
ATOM     38  C   UNL A   1      34.724  32.719  32.491  1.00  0.00     0.016 A 
ATOM     39  C   UNL A   1      36.837  33.224  34.214  1.00  0.00     0.010 A 
ATOM     40  C   UNL A   1      35.841  31.903  32.635  1.00  0.00     0.010 A 
ATOM     41  C   UNL A   1      36.985  32.043  33.466  1.00  0.00    -0.014 A 
BRANCH  41  42
ATOM     42  C   UNL A   1      38.322  31.122  33.291  1.00  0.00     0.031 A 
ATOM     43  C   UNL A   1      38.759  29.655  32.589  1.00  0.00     0.074 A 
ATOM     44  C   UNL A   1      39.373  31.964  33.410  1.00  0.00     0.049 A 
ATOM     45  N   UNL A   1      39.976  29.460  32.137  1.00  0.00    -0.248 NA
ATOM     46  C   UNL A   1      38.029  28.369  32.265  1.00  0.00     0.031 C 
ATOM     47  C   UNL A   1      40.718  31.934  32.853  1.00  0.00     0.029 A 
ATOM     48  N   UNL A   1      39.413  33.048  34.271  1.00  0.00    -0.354 N 
ATOM     49  C   UNL A   1      40.016  28.352  31.305  1.00  0.00     0.074 A 
ATOM     50  C   UNL A   1      38.797  27.675  31.436  1.00  0.00     0.031 C 
ATOM     51  C   UNL A   1      41.506  32.760  33.557  1.00  0.00     0.029 A 
ATOM     52  C   UNL A   1      40.727  33.220  34.686  1.00  0.00     0.049 A 
ATOM     53  H   UNL A   1      38.645  33.601  34.543  1.00  0.00     0.167 HD
ATOM     54  C   UNL A   1      41.084  28.036  30.538  1.00  0.00     0.034 A 
ATOM     55  C   UNL A   1      40.962  32.990  36.006  1.00  0.00     0.034 A 
ATOM     56  C   UNL A   1      42.273  28.520  31.214  1.00  0.00     0.049 A 
ATOM     57  C   UNL A   1      41.797  31.730  36.164  1.00  0.00     0.074 A 
ATOM     58  C   UNL A   1      43.099  29.614  31.072  1.00  0.00     0.029 A 
ATOM     59  N   UNL A   1      42.466  28.062  32.526  1.00  0.00    -0.354 N 
ATOM     60  N   UNL A   1      42.044  30.895  35.181  1.00  0.00    -0.248 NA
ATOM     61  C   UNL A   1      42.534  31.366  37.365  1.00  0.00     0.031 C 
ATOM     62  C   UNL A   1      43.590  29.939  32.385  1.00  0.00     0.029 A 
ATOM     63  C   UNL A   1      43.117  29.009  33.307  1.00  0.00     0.049 A 
ATOM     64  H   UNL A   1      42.175  27.180  32.853  1.00  0.00     0.167 HD
ATOM     65  C   UNL A   1      42.886  29.902  35.574  1.00  0.00     0.074 A 
ATOM     66  C   UNL A   1      43.195  30.267  36.952  1.00  0.00     0.031 C 
ATOM     67  C   UNL A   1      43.224  28.838  34.772  1.00  0.00     0.034 A 
BRANCH  54  68
ATOM     68  C   UNL A   1      40.933  27.228  29.254  1.00  0.00     0.023 A 
ATOM     69  C   UNL A   1      39.764  27.353  28.487  1.00  0.00     0.012 A 
ATOM     70  C   UNL A   1      41.880  26.248  28.797  1.00  0.00     0.148 A 
ATOM     71  C   UNL A   1      39.566  26.601  27.314  1.00  0.00     0.002 A 
ATOM     72  C   UNL A   1      41.717  25.557  27.590  1.00  0.00     0.091 A 
ATOM     73  F   UNL A   1      42.918  25.920  29.580  1.00  0.00    -0.205 F 
ATOM     74  C   UNL A   1      40.549  25.728  26.849  1.00  0.00     0.022 A 
BRANCH  72  75
ATOM     75  S   UNL A   1      42.982  24.466  26.887  1.00  0.00     0.127 S 
ATOM     76  O   UNL A   1      44.184  25.299  26.938  1.00  0.00    -0.237 OA
ATOM     77  O   UNL A   1      42.990  23.343  27.826  1.00  0.00    -0.237 OA
ATOM     78  O   UNL A   1      42.533  24.118  25.546  1.00  0.00    -0.744 OA
ENDBRANCH  72  75
ENDBRANCH  54  68
BRANCH  55  79
ATOM     79  C   UNL A   1      39.873  33.651  36.838  1.00  0.00     0.023 A 
ATOM     80  C   UNL A   1      38.807  32.760  37.189  1.00  0.00     0.012 A 
ATOM     81  C   UNL A   1      39.993  34.828  37.608  1.00  0.00     0.148 A 
ATOM     82  C   UNL A   1      38.018  32.935  38.330  1.00  0.00     0.002 A 
ATOM     83  C   UNL A   1      39.140  35.035  38.717  1.00  0.00     0.091 A 
ATOM     84  F   UNL A   1      40.966  35.699  37.313  1.00  0.00    -0.205 F 
ATOM     85  C   UNL A   1      38.193  34.069  39.102  1.00  0.00     0.022 A 
BRANCH  83  86
ATOM     86  S   UNL A   1      39.289  36.481  39.799  1.00  0.00     0.127 S 
ATOM     87  O   UNL A   1      38.856  37.559  38.917  1.00  0.00    -0.237 OA
ATOM     88  O   UNL A   1      38.354  36.182  40.888  1.00  0.00    -0.237 OA
ATOM     89  O   UNL A   1      40.686  36.488  40.210  1.00  0.00    -0.744 OA
ENDBRANCH  83  86
ENDBRANCH  55  79
BRANCH  67  90
ATOM     90  C   UNL A   1      43.605  27.492  35.383  1.00  0.00     0.023 A 
ATOM     91  C   UNL A   1      42.642  26.680  36.026  1.00  0.00     0.012 A 
ATOM     92  C   UNL A   1      44.863  26.891  35.149  1.00  0.00     0.148 A 
ATOM     93  C   UNL A   1      42.922  25.387  36.476  1.00  0.00     0.002 A 
ATOM     94  C   UNL A   1      45.087  25.550  35.462  1.00  0.00     0.091 A 
ATOM     95  F   UNL A   1      45.862  27.604  34.608  1.00  0.00    -0.205 F 
ATOM     96  C   UNL A   1      44.139  24.807  36.166  1.00  0.00     0.022 A 
BRANCH  94  97
ATOM     97  S   UNL A   1      46.498  24.694  34.748  1.00  0.00     0.127 S 
ATOM     98  O   UNL A   1      46.234  23.304  35.106  1.00  0.00    -0.237 OA
ATOM     99  O   UNL A   1      46.369  24.989  33.320  1.00  0.00    -0.237 OA
ATOM    100  O   UNL A   1      47.647  25.326  35.383  1.00  0.00    -0.744 OA
ENDBRANCH  94  97
ENDBRANCH  67  90
ENDBRANCH  41  42
ENDBRANCH  34  36
ENDBRANCH  33  34
ENDBRANCH  32  33
ENDBRANCH  31  32
ENDBRANCH  30  31
ENDBRANCH  29  30
ENDBRANCH   1  29
TORSDOF 24
ENDMDL
MODEL 2
REMARK VINA RESULT:     -11.4      2.237      4.067
REMARK SMILES COC(=O)c1ccc(C)c(NC(=O)[C@H]2CC=CC[C@H]2C(=O)OCCOCCOCCOC(=O)c2ccc(-c3c4nc(c(-c5cccc(S(=O)(=O)[O-])c5F)c5ccc([nH]5)c(-c5cccc(S(=O)(=O)[O-])c5F)c5nc(c(-c6cccc(S(=O)(=O)[O-])c6F)c6ccc3[nH]6)C=C5)C=C4)cc2)c1
REMARK SMILES IDX 26 1 25 2 24 3 23 4 22 5 20 6 21 7 19 8 14 9 15 10 16 11
REMARK SMILES IDX 18 12 17 13 12 14 11 15 13 17 10 18 5 19 6 20 97 21 7 22
REMARK SMILES IDX 8 23 9 24 3 25 4 26 2 27 1 28 27 29 28 30 29 31 30 32 31 33
REMARK SMILES IDX 32 34 33 35 34 36 35 37 96 38 36 39 95 40 37 41 38 42 39 43
REMARK SMILES IDX 89 44 40 45 94 46 88 47 90 48 41 49 93 50 87 51 86 52 42 54
REMARK SMILES IDX 74 55 54 56 73 57 55 58 58 59 72 60 91 61 56 62 57 63 71 65
REMARK SMILES IDX 92 66 59 67 43 68 44 69 52 70 45 71 47 72 53 73 46 74 48 75
REMARK SMILES IDX 49 76 50 77 51 78 75 79 76 80 84 81 77 82 79 83 85 84 78 85
REMARK SMILES IDX 80 86 81 87 82 88 83 89 60 90 61 91 69 92 62 93 64 94 70 95
REMARK SMILES IDX 63 96 65 97 66 98 67 99 68 100
REMARK H PARENT 11 16 90 53 58 64
REMARK Flexibility Score: inf
ROOT
ATOM      1  C   UNL A   1      33.457  32.580  27.781  1.00  0.00     0.188 C 
ENDROOT
BRANCH   1   2
ATOM      2  O   UNL A   1      32.993  31.254  27.472  1.00  0.00    -0.376 OA
BRANCH   2   3
ATOM      3  C   UNL A   1      33.767  30.344  26.655  1.00  0.00     0.202 C 
BRANCH   3   4
ATOM      4  C   UNL A   1      34.209  28.881  27.255  1.00  0.00     0.261 C 
BRANCH   4   5
ATOM      5  O   UNL A   1      33.198  27.735  27.096  1.00  0.00    -0.463 OA
BRANCH   5   6
ATOM      6  C   UNL A   1      31.853  27.534  26.838  1.00  0.00     0.310 C 
ATOM      7  O   UNL A   1      31.024  27.700  27.690  1.00  0.00    -0.252 OA
BRANCH   6   8
ATOM      8  C   UNL A   1      31.486  27.073  25.194  1.00  0.00     0.116 C 
ATOM      9  C   UNL A   1      31.449  25.557  24.916  1.00  0.00     0.097 C 
ATOM     10  C   UNL A   1      30.741  25.161  23.596  1.00  0.00     0.041 C 
ATOM     11  C   UNL A   1      29.377  25.759  23.478  1.00  0.00    -0.030 C 
ATOM     12  C   UNL A   1      30.517  27.800  24.111  1.00  0.00     0.043 C 
ATOM     13  C   UNL A   1      29.253  27.052  23.782  1.00  0.00    -0.030 C 
BRANCH   9  14
ATOM     14  C   UNL A   1      30.964  24.727  26.075  1.00  0.00     0.228 C 
ATOM     15  N   UNL A   1      31.635  23.592  26.437  1.00  0.00    -0.326 N 
ATOM     16  H   UNL A   1      31.307  23.187  27.273  1.00  0.00     0.169 HD
ATOM     17  O   UNL A   1      30.010  25.088  26.768  1.00  0.00    -0.274 OA
BRANCH  15  18
ATOM     18  C   UNL A   1      32.705  22.888  25.846  1.00  0.00     0.044 A 
ATOM     19  C   UNL A   1      33.346  20.685  24.979  1.00  0.00     0.062 A 
ATOM     20  C   UNL A   1      34.637  21.168  24.757  1.00  0.00     0.016 A 
ATOM     21  C   UNL A   1      32.394  21.553  25.509  1.00  0.00     0.042 A 
ATOM     22  C   UNL A   1      34.949  22.498  25.040  1.00  0.00     0.006 A 
ATOM     23  C   UNL A   1      33.992  23.382  25.576  1.00  0.00    -0.027 A 
ATOM     24  C   UNL A   1      34.455  24.800  25.776  1.00  0.00     0.046 C 
BRANCH  19  25
ATOM     25  C   UNL A   1      33.100  19.232  24.776  1.00  0.00     0.337 C 
ATOM     26  O   UNL A   1      32.063  18.747  25.227  1.00  0.00    -0.246 OA
BRANCH  25  27
ATOM     27  O   UNL A   1      33.993  18.458  24.118  1.00  0.00    -0.465 OA
ATOM     28  C   UNL A   1      33.664  17.225  23.456  1.00  0.00     0.282 C 
ENDBRANCH  25  27
ENDBRANCH  19  25
ENDBRANCH  15  18
ENDBRANCH   9  14
ENDBRANCH   6   8
ENDBRANCH   5   6
ENDBRANCH   4   5
ENDBRANCH   3   4
ENDBRANCH   2   3
ENDBRANCH   1   2
BRANCH   1  29
ATOM     29  C   UNL A   1      32.623  33.845  27.576  1.00  0.00     0.188 C 
BRANCH  29  30
ATOM     30  O   UNL A   1      32.489  34.594  28.780  1.00  0.00    -0.376 OA
BRANCH  30  31
ATOM     31  C   UNL A   1      33.724  34.777  29.469  1.00  0.00     0.202 C 
BRANCH  31  32
ATOM     32  C   UNL A   1      33.542  35.525  30.811  1.00  0.00     0.261 C 
BRANCH  32  33
ATOM     33  O   UNL A   1      34.003  34.711  31.922  1.00  0.00    -0.460 OA
BRANCH  33  34
ATOM     34  C   UNL A   1      34.929  35.282  32.766  1.00  0.00     0.338 C 
ATOM     35  O   UNL A   1      34.658  35.987  33.719  1.00  0.00    -0.246 OA
BRANCH  34  36
ATOM     36  C   UNL A   1      36.253  34.650  32.487  1.00  0.00     0.060 A 
ATOM     37  C   UNL A   1      36.956  34.465  31.294  1.00  0.00     0.016 A 
ATOM     38  C   UNL A   1      36.831  34.127  33.596  1.00  0.00     0.016 A 
ATOM     39  C   UNL A   1      38.142  33.603  31.209  1.00  0.00     0.010 A 
ATOM     40  C   UNL A   1      37.901  33.249  33.456  1.00  0.00     0.010 A 
ATOM     41  C   UNL A   1      38.652  32.887  32.306  1.00  0.00    -0.014 A 
BRANCH  41  42
ATOM     42  C   UNL A   1      39.694  31.629  32.291  1.00  0.00     0.031 A 
ATOM     43  C   UNL A   1      39.852  30.134  31.530  1.00  0.00     0.074 A 
ATOM     44  C   UNL A   1      40.884  32.125  32.696  1.00  0.00     0.049 A 
ATOM     45  N   UNL A   1      41.037  29.618  31.300  1.00  0.00    -0.248 NA
ATOM     46  C   UNL A   1      38.886  29.131  30.938  1.00  0.00     0.031 C 
ATOM     47  C   UNL A   1      42.256  31.734  32.405  1.00  0.00     0.029 A 
ATOM     48  N   UNL A   1      41.035  33.108  33.660  1.00  0.00    -0.354 N 
ATOM     49  C   UNL A   1      40.950  28.588  30.377  1.00  0.00     0.074 A 
ATOM     50  C   UNL A   1      39.593  28.287  30.201  1.00  0.00     0.031 C 
ATOM     51  C   UNL A   1      43.071  32.262  33.330  1.00  0.00     0.029 A 
ATOM     52  C   UNL A   1      42.226  32.872  34.333  1.00  0.00     0.049 A 
ATOM     53  H   UNL A   1      40.406  33.845  33.839  1.00  0.00     0.167 HD
ATOM     54  C   UNL A   1      42.028  28.015  29.797  1.00  0.00     0.034 A 
ATOM     55  C   UNL A   1      42.103  32.520  35.642  1.00  0.00     0.034 A 
ATOM     56  C   UNL A   1      43.133  28.101  30.735  1.00  0.00     0.049 A 
ATOM     57  C   UNL A   1      42.510  31.066  35.819  1.00  0.00     0.074 A 
ATOM     58  C   UNL A   1      44.236  28.915  30.870  1.00  0.00     0.029 A 
ATOM     59  N   UNL A   1      42.909  27.543  32.002  1.00  0.00    -0.354 N 
ATOM     60  N   UNL A   1      42.722  30.245  34.817  1.00  0.00    -0.248 NA
ATOM     61  C   UNL A   1      42.847  30.447  37.092  1.00  0.00     0.031 C 
ATOM     62  C   UNL A   1      44.506  29.020  32.279  1.00  0.00     0.029 A 
ATOM     63  C   UNL A   1      43.613  28.223  32.990  1.00  0.00     0.049 A 
ATOM     64  H   UNL A   1      42.327  26.768  32.171  1.00  0.00     0.167 HD
ATOM     65  C   UNL A   1      43.159  29.032  35.254  1.00  0.00     0.074 A 
ATOM     66  C   UNL A   1      43.255  29.225  36.696  1.00  0.00     0.031 C 
ATOM     67  C   UNL A   1      43.355  27.956  34.422  1.00  0.00     0.034 A 
BRANCH  54  68
ATOM     68  C   UNL A   1      41.939  27.348  28.429  1.00  0.00     0.023 A 
ATOM     69  C   UNL A   1      41.403  28.059  27.343  1.00  0.00     0.012 A 
ATOM     70  C   UNL A   1      42.285  25.978  28.171  1.00  0.00     0.148 A 
ATOM     71  C   UNL A   1      41.268  27.473  26.071  1.00  0.00     0.002 A 
ATOM     72  C   UNL A   1      42.222  25.420  26.888  1.00  0.00     0.091 A 
ATOM     73  F   UNL A   1      42.606  25.175  29.195  1.00  0.00    -0.205 F 
ATOM     74  C   UNL A   1      41.703  26.169  25.833  1.00  0.00     0.022 A 
BRANCH  72  75
ATOM     75  S   UNL A   1      42.837  23.762  26.490  1.00  0.00     0.127 S 
ATOM     76  O   UNL A   1      42.699  23.713  25.034  1.00  0.00    -0.237 OA
ATOM     77  O   UNL A   1      44.223  23.817  26.959  1.00  0.00    -0.237 OA
ATOM     78  O   UNL A   1      41.998  22.820  27.218  1.00  0.00    -0.744 OA
ENDBRANCH  72  75
ENDBRANCH  54  68
BRANCH  55  79
ATOM     79  C   UNL A   1      41.085  33.426  36.318  1.00  0.00     0.023 A 
ATOM     80  C   UNL A   1      39.807  32.804  36.504  1.00  0.00     0.012 A 
ATOM     81  C   UNL A   1      41.357  34.561  37.110  1.00  0.00     0.148 A 
ATOM     82  C   UNL A   1      38.925  33.176  37.522  1.00  0.00     0.002 A 
ATOM     83  C   UNL A   1      40.425  34.978  38.089  1.00  0.00     0.091 A 
ATOM     84  F   UNL A   1      42.533  35.186  36.966  1.00  0.00    -0.205 F 
ATOM     85  C   UNL A   1      39.240  34.258  38.324  1.00  0.00     0.022 A 
BRANCH  83  86
ATOM     86  S   UNL A   1      40.742  36.376  39.198  1.00  0.00     0.127 S 
ATOM     87  O   UNL A   1      41.312  37.359  38.283  1.00  0.00    -0.237 OA
ATOM     88  O   UNL A   1      39.406  36.719  39.693  1.00  0.00    -0.237 OA
ATOM     89  O   UNL A   1      41.628  35.839  40.220  1.00  0.00    -0.744 OA
ENDBRANCH  83  86
ENDBRANCH  55  79
BRANCH  67  90
ATOM     90  C   UNL A   1      43.216  26.530  34.945  1.00  0.00     0.023 A 
ATOM     91  C   UNL A   1      41.948  25.974  35.230  1.00  0.00     0.012 A 
ATOM     92  C   UNL A   1      44.304  25.627  34.962  1.00  0.00     0.148 A 
ATOM     93  C   UNL A   1      41.771  24.633  35.581  1.00  0.00     0.002 A 
ATOM     94  C   UNL A   1      44.100  24.261  35.162  1.00  0.00     0.091 A 
ATOM     95  F   UNL A   1      45.555  26.073  34.773  1.00  0.00    -0.205 F 
ATOM     96  C   UNL A   1      42.846  23.765  35.516  1.00  0.00     0.022 A 
BRANCH  94  97
ATOM     97  S   UNL A   1      45.397  23.095  34.724  1.00  0.00     0.127 S 
ATOM     98  O   UNL A   1      44.639  21.892  34.397  1.00  0.00    -0.237 OA
ATOM     99  O   UNL A   1      46.042  23.740  33.578  1.00  0.00    -0.237 OA
ATOM    100  O   UNL A   1      46.231  23.038  35.919  1.00  0.00    -0.744 OA
ENDBRANCH  94  97
ENDBRANCH  67  90
ENDBRANCH  41  42
ENDBRANCH  34  36
ENDBRANCH  33  34
ENDBRANCH  32  33
ENDBRANCH  31  32
ENDBRANCH  30  31
ENDBRANCH  29  30
ENDBRANCH   1  29
TORSDOF 24
ENDMDL
MODEL 3
REMARK VINA RESULT:     -10.2      4.535     10.949
REMARK SMILES COC(=O)c1ccc(C)c(NC(=O)[C@H]2CC=CC[C@H]2C(=O)OCCOCCOCCOC(=O)c2ccc(-c3c4nc(c(-c5cccc(S(=O)(=O)[O-])c5F)c5ccc([nH]5)c(-c5cccc(S(=O)(=O)[O-])c5F)c5nc(c(-c6cccc(S(=O)(=O)[O-])c6F)c6ccc3[nH]6)C=C5)C=C4)cc2)c1
REMARK SMILES IDX 26 1 25 2 24 3 23 4 22 5 20 6 21 7 19 8 14 9 15 10 16 11
REMARK SMILES IDX 18 12 17 13 12 14 11 15 13 17 10 18 5 19 6 20 97 21 7 22
REMARK SMILES IDX 8 23 9 24 3 25 4 26 2 27 1 28 27 29 28 30 29 31 30 32 31 33
REMARK SMILES IDX 32 34 33 35 34 36 35 37 96 38 36 39 95 40 37 41 38 42 39 43
REMARK SMILES IDX 89 44 40 45 94 46 88 47 90 48 41 49 93 50 87 51 86 52 42 54
REMARK SMILES IDX 74 55 54 56 73 57 55 58 58 59 72 60 91 61 56 62 57 63 71 65
REMARK SMILES IDX 92 66 59 67 43 68 44 69 52 70 45 71 47 72 53 73 46 74 48 75
REMARK SMILES IDX 49 76 50 77 51 78 75 79 76 80 84 81 77 82 79 83 85 84 78 85
REMARK SMILES IDX 80 86 81 87 82 88 83 89 60 90 61 91 69 92 62 93 64 94 70 95
REMARK SMILES IDX 63 96 65 97 66 98 67 99 68 100
REMARK H PARENT 11 16 90 53 58 64
REMARK Flexibility Score: inf
ROOT
ATOM      1  C   UNL A   1      37.748  21.467  25.379  1.00  0.00     0.188 C 
ENDROOT
BRANCH   1   2
ATOM      2  O   UNL A   1      36.644  20.605  25.055  1.00  0.00    -0.376 OA
BRANCH   2   3
ATOM      3  C   UNL A   1      35.271  21.048  25.161  1.00  0.00     0.202 C 
BRANCH   3   4
ATOM      4  C   UNL A   1      34.773  21.853  26.503  1.00  0.00     0.261 C 
BRANCH   4   5
ATOM      5  O   UNL A   1      34.794  23.388  26.435  1.00  0.00    -0.463 OA
BRANCH   5   6
ATOM      6  C   UNL A   1      34.345  24.421  25.631  1.00  0.00     0.310 C 
ATOM      7  O   UNL A   1      35.107  25.223  25.164  1.00  0.00    -0.252 OA
BRANCH   6   8
ATOM      8  C   UNL A   1      32.624  24.422  25.336  1.00  0.00     0.116 C 
ATOM      9  C   UNL A   1      32.063  25.681  24.644  1.00  0.00     0.097 C 
ATOM     10  C   UNL A   1      30.650  25.504  24.033  1.00  0.00     0.041 C 
ATOM     11  C   UNL A   1      30.560  24.314  23.134  1.00  0.00    -0.030 C 
ATOM     12  C   UNL A   1      31.639  23.180  24.983  1.00  0.00     0.043 C 
ATOM     13  C   UNL A   1      31.095  23.176  23.579  1.00  0.00    -0.030 C 
BRANCH   9  14
ATOM     14  C   UNL A   1      33.011  26.324  23.668  1.00  0.00     0.228 C 
ATOM     15  N   UNL A   1      33.386  27.629  23.830  1.00  0.00    -0.326 N 
ATOM     16  H   UNL A   1      34.094  27.918  23.209  1.00  0.00     0.169 HD
ATOM     17  O   UNL A   1      33.531  25.676  22.755  1.00  0.00    -0.274 OA
BRANCH  15  18
ATOM     18  C   UNL A   1      32.956  28.641  24.713  1.00  0.00     0.044 A 
ATOM     19  C   UNL A   1      33.662  29.966  26.652  1.00  0.00     0.062 A 
ATOM     20  C   UNL A   1      32.395  30.550  26.693  1.00  0.00     0.016 A 
ATOM     21  C   UNL A   1      33.931  29.028  25.657  1.00  0.00     0.042 A 
ATOM     22  C   UNL A   1      31.435  30.214  25.737  1.00  0.00     0.006 A 
ATOM     23  C   UNL A   1      31.698  29.267  24.729  1.00  0.00    -0.027 A 
ATOM     24  C   UNL A   1      30.589  29.048  23.736  1.00  0.00     0.046 C 
BRANCH  19  25
ATOM     25  C   UNL A   1      34.605  30.267  27.763  1.00  0.00     0.337 C 
ATOM     26  O   UNL A   1      35.181  29.328  28.311  1.00  0.00    -0.246 OA
BRANCH  25  27
ATOM     27  O   UNL A   1      34.824  31.539  28.168  1.00  0.00    -0.465 OA
ATOM     28  C   UNL A   1      36.069  32.239  28.007  1.00  0.00     0.282 C 
ENDBRANCH  25  27
ENDBRANCH  19  25
ENDBRANCH  15  18
ENDBRANCH   9  14
ENDBRANCH   6   8
ENDBRANCH   5   6
ENDBRANCH   4   5
ENDBRANCH   3   4
ENDBRANCH   2   3
ENDBRANCH   1   2
BRANCH   1  29
ATOM     29  C   UNL A   1      39.161  20.967  25.683  1.00  0.00     0.188 C 
BRANCH  29  30
ATOM     30  O   UNL A   1      39.659  21.492  26.910  1.00  0.00    -0.376 OA
BRANCH  30  31
ATOM     31  C   UNL A   1      40.742  22.402  26.734  1.00  0.00     0.202 C 
BRANCH  31  32
ATOM     32  C   UNL A   1      42.046  21.895  27.394  1.00  0.00     0.261 C 
BRANCH  32  33
ATOM     33  O   UNL A   1      43.142  22.815  27.145  1.00  0.00    -0.460 OA
BRANCH  33  34
ATOM     34  C   UNL A   1      43.753  23.365  28.249  1.00  0.00     0.338 C 
ATOM     35  O   UNL A   1      44.786  22.959  28.746  1.00  0.00    -0.246 OA
BRANCH  34  36
ATOM     36  C   UNL A   1      43.103  24.682  28.523  1.00  0.00     0.060 A 
ATOM     37  C   UNL A   1      42.288  25.493  27.729  1.00  0.00     0.016 A 
ATOM     38  C   UNL A   1      43.413  25.178  29.745  1.00  0.00     0.016 A 
ATOM     39  C   UNL A   1      41.946  26.870  28.109  1.00  0.00     0.010 A 
ATOM     40  C   UNL A   1      43.142  26.513  30.026  1.00  0.00     0.010 A 
ATOM     41  C   UNL A   1      42.417  27.483  29.283  1.00  0.00    -0.014 A 
BRANCH  41  42
ATOM     42  C   UNL A   1      42.443  29.076  29.646  1.00  0.00     0.031 A 
ATOM     43  C   UNL A   1      41.358  30.283  30.096  1.00  0.00     0.074 A 
ATOM     44  C   UNL A   1      43.704  29.345  30.052  1.00  0.00     0.049 A 
ATOM     45  N   UNL A   1      41.744  31.291  30.843  1.00  0.00    -0.248 NA
ATOM     46  C   UNL A   1      39.880  30.523  29.878  1.00  0.00     0.031 C 
ATOM     47  C   UNL A   1      44.245  30.335  30.973  1.00  0.00     0.029 A 
ATOM     48  N   UNL A   1      44.840  28.761  29.515  1.00  0.00    -0.354 N 
ATOM     49  C   UNL A   1      40.648  31.954  31.373  1.00  0.00     0.074 A 
ATOM     50  C   UNL A   1      39.504  31.473  30.722  1.00  0.00     0.031 C 
ATOM     51  C   UNL A   1      45.561  30.471  30.753  1.00  0.00     0.029 A 
ATOM     52  C   UNL A   1      45.871  29.689  29.576  1.00  0.00     0.049 A 
ATOM     53  H   UNL A   1      44.906  27.847  29.154  1.00  0.00     0.167 HD
ATOM     54  C   UNL A   1      40.743  32.896  32.337  1.00  0.00     0.034 A 
ATOM     55  C   UNL A   1      46.326  30.142  28.375  1.00  0.00     0.034 A 
ATOM     56  C   UNL A   1      42.028  33.554  32.189  1.00  0.00     0.049 A 
ATOM     57  C   UNL A   1      45.940  31.601  28.200  1.00  0.00     0.074 A 
ATOM     58  C   UNL A   1      43.248  33.466  32.823  1.00  0.00     0.029 A 
ATOM     59  N   UNL A   1      42.288  34.119  30.932  1.00  0.00    -0.354 N 
ATOM     60  N   UNL A   1      45.105  32.231  28.994  1.00  0.00    -0.248 NA
ATOM     61  C   UNL A   1      46.540  32.510  27.234  1.00  0.00     0.031 C 
ATOM     62  C   UNL A   1      44.253  33.755  31.835  1.00  0.00     0.029 A 
ATOM     63  C   UNL A   1      43.643  34.081  30.626  1.00  0.00     0.049 A 
ATOM     64  H   UNL A   1      41.598  34.495  30.340  1.00  0.00     0.167 HD
ATOM     65  C   UNL A   1      45.005  33.548  28.664  1.00  0.00     0.074 A 
ATOM     66  C   UNL A   1      45.960  33.678  27.569  1.00  0.00     0.031 C 
ATOM     67  C   UNL A   1      44.122  34.411  29.266  1.00  0.00     0.034 A 
BRANCH  54  68
ATOM     68  C   UNL A   1      39.589  33.178  33.294  1.00  0.00     0.023 A 
ATOM     69  C   UNL A   1      38.602  34.109  32.935  1.00  0.00     0.012 A 
ATOM     70  C   UNL A   1      39.476  32.621  34.614  1.00  0.00     0.148 A 
ATOM     71  C   UNL A   1      37.538  34.428  33.800  1.00  0.00     0.002 A 
ATOM     72  C   UNL A   1      38.377  32.882  35.443  1.00  0.00     0.091 A 
ATOM     73  F   UNL A   1      40.484  31.890  35.109  1.00  0.00    -0.205 F 
ATOM     74  C   UNL A   1      37.407  33.797  35.037  1.00  0.00     0.022 A 
BRANCH  72  75
ATOM     75  S   UNL A   1      38.102  32.044  37.026  1.00  0.00     0.127 S 
ATOM     76  O   UNL A   1      39.290  32.420  37.795  1.00  0.00    -0.237 OA
ATOM     77  O   UNL A   1      36.862  32.662  37.500  1.00  0.00    -0.237 OA
ATOM     78  O   UNL A   1      37.986  30.623  36.731  1.00  0.00    -0.744 OA
ENDBRANCH  72  75
ENDBRANCH  54  68
BRANCH  55  79
ATOM     79  C   UNL A   1      46.496  28.968  27.422  1.00  0.00     0.023 A 
ATOM     80  C   UNL A   1      45.827  29.154  26.168  1.00  0.00     0.012 A 
ATOM     81  C   UNL A   1      47.511  27.989  27.458  1.00  0.00     0.148 A 
ATOM     82  C   UNL A   1      46.245  28.534  24.987  1.00  0.00     0.002 A 
ATOM     83  C   UNL A   1      47.879  27.310  26.273  1.00  0.00     0.091 A 
ATOM     84  F   UNL A   1      48.159  27.768  28.609  1.00  0.00    -0.205 F 
ATOM     85  C   UNL A   1      47.282  27.620  25.037  1.00  0.00     0.022 A 
BRANCH  83  86
ATOM     86  S   UNL A   1      49.227  26.101  26.225  1.00  0.00     0.127 S 
ATOM     87  O   UNL A   1      50.322  26.850  26.832  1.00  0.00    -0.237 OA
ATOM     88  O   UNL A   1      48.720  25.001  27.051  1.00  0.00    -0.237 OA
ATOM     89  O   UNL A   1      49.365  25.762  24.816  1.00  0.00    -0.744 OA
ENDBRANCH  83  86
ENDBRANCH  55  79
BRANCH  67  90
ATOM     90  C   UNL A   1      43.581  35.623  28.513  1.00  0.00     0.023 A 
ATOM     91  C   UNL A   1      42.519  35.498  27.588  1.00  0.00     0.012 A 
ATOM     92  C   UNL A   1      43.949  36.945  28.855  1.00  0.00     0.148 A 
ATOM     93  C   UNL A   1      41.909  36.599  26.982  1.00  0.00     0.002 A 
ATOM     94  C   UNL A   1      43.235  38.039  28.365  1.00  0.00     0.091 A 
ATOM     95  F   UNL A   1      44.990  37.167  29.671  1.00  0.00    -0.205 F 
ATOM     96  C   UNL A   1      42.246  37.876  27.394  1.00  0.00     0.022 A 
BRANCH  94  97
ATOM     97  S   UNL A   1      43.411  39.644  29.156  1.00  0.00     0.127 S 
ATOM     98  O   UNL A   1      44.579  40.199  28.480  1.00  0.00    -0.237 OA
ATOM     99  O   UNL A   1      42.146  40.307  28.832  1.00  0.00    -0.237 OA
ATOM    100  O   UNL A   1      43.566  39.320  30.569  1.00  0.00    -0.744 OA
ENDBRANCH  94  97
ENDBRANCH  67  90
ENDBRANCH  41  42
ENDBRANCH  34  36
ENDBRANCH  33  34
ENDBRANCH  32  33
ENDBRANCH  31  32
ENDBRANCH  30  31
ENDBRANCH  29  30
ENDBRANCH   1  29
TORSDOF 24
ENDMDL
