MODEL 1
REMARK VINA RESULT:      -9.2      0.000      0.000
REMARK SMILES O=C(OCCOCCOCCOC(=O)c1ccc(-c2c3nc(c(-c4cccc(S(=O)(=O)[O-])c4F)c4ccc([nH]4)c(-c4cccc(S(=O)(=O)[O-])c4F)c4nc(c(-c5cccc(S(=O)(=O)[O-])c5F)c5ccc2[nH]5)C=C4)C=C3)cc1)C1=Cc2cc(Cl)cc(-c3ccccc3)c2O[C@@H]1C(F)(F)F
REMARK SMILES IDX 8 1 7 2 6 3 5 4 4 5 3 6 2 7 1 8 78 9 79 10 94 11 80 12 93 13
REMARK SMILES IDX 81 14 92 15 82 16 85 17 83 18 84 19 95 20 96 21 97 22 98 23
REMARK SMILES IDX 86 24 87 25 91 26 88 27 90 28 89 29 9 30 10 31 11 32 12 33
REMARK SMILES IDX 13 34 14 35 15 36 16 37 77 38 17 39 76 40 18 41 19 42 20 43
REMARK SMILES IDX 70 44 21 45 75 46 69 47 71 48 22 49 74 50 68 51 67 52 23 54
REMARK SMILES IDX 55 55 35 56 54 57 36 58 39 59 53 60 72 61 37 62 38 63 52 65
REMARK SMILES IDX 73 66 40 67 24 68 25 69 33 70 26 71 28 72 34 73 27 74 29 75
REMARK SMILES IDX 30 76 31 77 32 78 56 79 57 80 65 81 58 82 60 83 66 84 59 85
REMARK SMILES IDX 61 86 62 87 63 88 64 89 41 90 42 91 50 92 43 93 45 94 51 95
REMARK SMILES IDX 44 96 46 97 47 98 48 99 49 100
REMARK H PARENT 71 53 39 64
REMARK Flexibility Score: inf
ROOT
ATOM      1  C   UNL A   1      43.036  19.106  25.708  1.00  0.00     0.188 C 
ENDROOT
BRANCH   1   2
ATOM      2  C   UNL A   1      41.912  20.039  26.183  1.00  0.00     0.188 C 
BRANCH   2   3
ATOM      3  O   UNL A   1      42.060  21.551  26.306  1.00  0.00    -0.376 OA
BRANCH   3   4
ATOM      4  C   UNL A   1      40.801  22.701  26.807  1.00  0.00     0.202 C 
BRANCH   4   5
ATOM      5  C   UNL A   1      41.264  24.434  28.034  1.00  0.00     0.261 C 
BRANCH   5   6
ATOM      6  O   UNL A   1      40.393  25.668  28.216  1.00  0.00    -0.460 OA
BRANCH   6   7
ATOM      7  C   UNL A   1      41.075  26.681  28.775  1.00  0.00     0.338 C 
ATOM      8  O   UNL A   1      41.798  26.634  29.740  1.00  0.00    -0.246 OA
BRANCH   7   9
ATOM      9  C   UNL A   1      40.265  27.759  28.226  1.00  0.00     0.087 C 
ATOM     10  C   UNL A   1      39.072  28.119  28.962  1.00  0.00     0.027 C 
ATOM     11  C   UNL A   1      41.774  28.903  27.980  1.00  0.00     0.316 C 
ATOM     12  C   UNL A   1      38.942  29.539  30.037  1.00  0.00     0.019 A 
ATOM     13  O   UNL A   1      41.740  30.386  29.279  1.00  0.00    -0.475 OA
ATOM     14  C   UNL A   1      37.819  29.620  30.820  1.00  0.00     0.032 A 
ATOM     15  C   UNL A   1      40.234  30.664  30.287  1.00  0.00     0.135 A 
ATOM     16  C   UNL A   1      37.808  30.671  31.739  1.00  0.00     0.042 A 
ATOM     17  C   UNL A   1      40.100  31.719  31.177  1.00  0.00     0.026 A 
ATOM     18  Cl  UNL A   1      36.435  30.798  32.789  1.00  0.00    -0.084 Cl
ATOM     19  C   UNL A   1      38.856  31.654  31.886  1.00  0.00     0.033 A 
BRANCH  11  20
ATOM     20  C   UNL A   1      41.542  28.850  26.257  1.00  0.00     0.430 C 
ATOM     21  F   UNL A   1      41.694  27.712  25.564  1.00  0.00    -0.167 F 
ATOM     22  F   UNL A   1      40.296  29.317  25.982  1.00  0.00    -0.167 F 
ATOM     23  F   UNL A   1      42.389  29.710  25.613  1.00  0.00    -0.167 F 
ENDBRANCH  11  20
BRANCH  17  24
ATOM     24  C   UNL A   1      40.925  32.892  31.449  1.00  0.00    -0.015 A 
ATOM     25  C   UNL A   1      41.295  33.789  30.444  1.00  0.00     0.009 A 
ATOM     26  C   UNL A   1      41.545  33.029  32.711  1.00  0.00     0.009 A 
ATOM     27  C   UNL A   1      42.170  34.847  30.718  1.00  0.00     0.001 A 
ATOM     28  C   UNL A   1      42.405  34.096  32.993  1.00  0.00     0.001 A 
ATOM     29  C   UNL A   1      42.695  35.022  31.998  1.00  0.00     0.000 A 
ENDBRANCH  17  24
ENDBRANCH   7   9
ENDBRANCH   6   7
ENDBRANCH   5   6
ENDBRANCH   4   5
ENDBRANCH   3   4
ENDBRANCH   2   3
ENDBRANCH   1   2
BRANCH   1  30
ATOM     30  O   UNL A   1      43.605  19.306  24.446  1.00  0.00    -0.376 OA
BRANCH  30  31
ATOM     31  C   UNL A   1      45.010  19.430  24.456  1.00  0.00     0.202 C 
BRANCH  31  32
ATOM     32  C   UNL A   1      45.681  20.606  25.171  1.00  0.00     0.261 C 
BRANCH  32  33
ATOM     33  O   UNL A   1      46.109  21.665  24.309  1.00  0.00    -0.460 OA
BRANCH  33  34
ATOM     34  C   UNL A   1      45.154  22.552  23.942  1.00  0.00     0.338 C 
ATOM     35  O   UNL A   1      44.307  22.419  23.076  1.00  0.00    -0.246 OA
BRANCH  34  36
ATOM     36  C   UNL A   1      45.165  23.658  24.913  1.00  0.00     0.060 A 
ATOM     37  C   UNL A   1      46.362  24.006  25.558  1.00  0.00     0.016 A 
ATOM     38  C   UNL A   1      43.972  24.313  25.211  1.00  0.00     0.016 A 
ATOM     39  C   UNL A   1      46.372  25.023  26.504  1.00  0.00     0.010 A 
ATOM     40  C   UNL A   1      43.971  25.294  26.198  1.00  0.00     0.010 A 
ATOM     41  C   UNL A   1      45.165  25.626  26.865  1.00  0.00    -0.014 A 
BRANCH  41  42
ATOM     42  C   UNL A   1      45.102  26.387  28.125  1.00  0.00     0.031 A 
ATOM     43  C   UNL A   1      45.194  27.882  28.031  1.00  0.00     0.074 A 
ATOM     44  C   UNL A   1      44.975  25.768  29.309  1.00  0.00     0.049 A 
ATOM     45  N   UNL A   1      45.219  28.771  28.985  1.00  0.00    -0.248 NA
ATOM     46  C   UNL A   1      45.275  28.450  26.672  1.00  0.00     0.031 C 
ATOM     47  C   UNL A   1      44.851  24.325  29.501  1.00  0.00     0.029 A 
ATOM     48  N   UNL A   1      44.958  26.284  30.578  1.00  0.00    -0.354 N 
ATOM     49  C   UNL A   1      45.351  29.998  28.347  1.00  0.00     0.074 A 
ATOM     50  C   UNL A   1      45.409  29.741  26.926  1.00  0.00     0.031 C 
ATOM     51  C   UNL A   1      44.807  24.066  30.820  1.00  0.00     0.029 A 
ATOM     52  C   UNL A   1      44.933  25.322  31.559  1.00  0.00     0.049 A 
ATOM     53  H   UNL A   1      44.964  27.251  30.769  1.00  0.00     0.167 HD
ATOM     54  C   UNL A   1      45.420  31.229  28.900  1.00  0.00     0.034 A 
ATOM     55  C   UNL A   1      45.036  25.450  32.895  1.00  0.00     0.034 A 
ATOM     56  C   UNL A   1      45.384  31.466  30.314  1.00  0.00     0.049 A 
ATOM     57  C   UNL A   1      45.165  26.832  33.487  1.00  0.00     0.074 A 
ATOM     58  C   UNL A   1      45.416  32.675  30.983  1.00  0.00     0.029 A 
ATOM     59  N   UNL A   1      45.339  30.471  31.279  1.00  0.00    -0.354 N 
ATOM     60  N   UNL A   1      45.198  27.993  32.877  1.00  0.00    -0.248 NA
ATOM     61  C   UNL A   1      45.244  26.923  34.951  1.00  0.00     0.031 C 
ATOM     62  C   UNL A   1      45.454  32.408  32.355  1.00  0.00     0.029 A 
ATOM     63  C   UNL A   1      45.367  31.037  32.541  1.00  0.00     0.049 A 
ATOM     64  H   UNL A   1      45.294  29.505  31.093  1.00  0.00     0.167 HD
ATOM     65  C   UNL A   1      45.252  28.953  33.883  1.00  0.00     0.074 A 
ATOM     66  C   UNL A   1      45.237  28.236  35.142  1.00  0.00     0.031 C 
ATOM     67  C   UNL A   1      45.310  30.304  33.779  1.00  0.00     0.034 A 
BRANCH  54  68
ATOM     68  C   UNL A   1      45.568  32.403  27.971  1.00  0.00     0.023 A 
ATOM     69  C   UNL A   1      46.802  32.660  27.339  1.00  0.00     0.012 A 
ATOM     70  C   UNL A   1      44.465  33.237  27.701  1.00  0.00     0.148 A 
ATOM     71  C   UNL A   1      46.946  33.751  26.482  1.00  0.00     0.002 A 
ATOM     72  C   UNL A   1      44.602  34.288  26.805  1.00  0.00     0.091 A 
ATOM     73  F   UNL A   1      43.309  32.991  28.333  1.00  0.00    -0.205 F 
ATOM     74  C   UNL A   1      45.844  34.556  26.207  1.00  0.00     0.022 A 
BRANCH  72  75
ATOM     75  S   UNL A   1      43.224  35.333  26.322  1.00  0.00     0.127 S 
ATOM     76  O   UNL A   1      43.814  36.667  26.427  1.00  0.00    -0.237 OA
ATOM     77  O   UNL A   1      42.969  34.884  24.953  1.00  0.00    -0.237 OA
ATOM     78  O   UNL A   1      42.153  35.054  27.267  1.00  0.00    -0.744 OA
ENDBRANCH  72  75
ENDBRANCH  54  68
BRANCH  55  79
ATOM     79  C   UNL A   1      45.018  24.243  33.770  1.00  0.00     0.023 A 
ATOM     80  C   UNL A   1      43.789  23.662  34.138  1.00  0.00     0.012 A 
ATOM     81  C   UNL A   1      46.216  23.674  34.243  1.00  0.00     0.148 A 
ATOM     82  C   UNL A   1      43.752  22.563  34.996  1.00  0.00     0.002 A 
ATOM     83  C   UNL A   1      46.174  22.543  35.050  1.00  0.00     0.091 A 
ATOM     84  F   UNL A   1      47.374  24.248  33.891  1.00  0.00    -0.205 F 
ATOM     85  C   UNL A   1      44.943  21.998  35.444  1.00  0.00     0.022 A 
BRANCH  83  86
ATOM     86  S   UNL A   1      47.657  21.683  35.584  1.00  0.00     0.127 S 
ATOM     87  O   UNL A   1      48.287  21.349  34.310  1.00  0.00    -0.237 OA
ATOM     88  O   UNL A   1      48.342  22.719  36.359  1.00  0.00    -0.237 OA
ATOM     89  O   UNL A   1      47.196  20.547  36.372  1.00  0.00    -0.744 OA
ENDBRANCH  83  86
ENDBRANCH  55  79
BRANCH  67  90
ATOM     90  C   UNL A   1      45.288  31.110  35.053  1.00  0.00     0.023 A 
ATOM     91  C   UNL A   1      46.489  31.534  35.655  1.00  0.00     0.012 A 
ATOM     92  C   UNL A   1      44.056  31.513  35.607  1.00  0.00     0.148 A 
ATOM     93  C   UNL A   1      46.463  32.314  36.811  1.00  0.00     0.002 A 
ATOM     94  C   UNL A   1      44.038  32.338  36.722  1.00  0.00     0.091 A 
ATOM     95  F   UNL A   1      42.924  31.089  35.026  1.00  0.00    -0.205 F 
ATOM     96  C   UNL A   1      45.240  32.726  37.336  1.00  0.00     0.022 A 
BRANCH  94  97
ATOM     97  S   UNL A   1      42.516  33.003  37.405  1.00  0.00     0.127 S 
ATOM     98  O   UNL A   1      41.782  31.783  37.736  1.00  0.00    -0.237 OA
ATOM     99  O   UNL A   1      43.002  33.756  38.562  1.00  0.00    -0.237 OA
ATOM    100  O   UNL A   1      41.922  33.819  36.355  1.00  0.00    -0.744 OA
ENDBRANCH  94  97
ENDBRANCH  67  90
ENDBRANCH  41  42
ENDBRANCH  34  36
ENDBRANCH  33  34
ENDBRANCH  32  33
ENDBRANCH  31  32
ENDBRANCH  30  31
ENDBRANCH   1  30
TORSDOF 22
ENDMDL
MODEL 2
REMARK VINA RESULT:      -8.5      5.653      8.647
REMARK SMILES O=C(OCCOCCOCCOC(=O)c1ccc(-c2c3nc(c(-c4cccc(S(=O)(=O)[O-])c4F)c4ccc([nH]4)c(-c4cccc(S(=O)(=O)[O-])c4F)c4nc(c(-c5cccc(S(=O)(=O)[O-])c5F)c5ccc2[nH]5)C=C4)C=C3)cc1)C1=Cc2cc(Cl)cc(-c3ccccc3)c2O[C@@H]1C(F)(F)F
REMARK SMILES IDX 8 1 7 2 6 3 5 4 4 5 3 6 2 7 1 8 78 9 79 10 94 11 80 12 93 13
REMARK SMILES IDX 81 14 92 15 82 16 85 17 83 18 84 19 95 20 96 21 97 22 98 23
REMARK SMILES IDX 86 24 87 25 91 26 88 27 90 28 89 29 9 30 10 31 11 32 12 33
REMARK SMILES IDX 13 34 14 35 15 36 16 37 77 38 17 39 76 40 18 41 19 42 20 43
REMARK SMILES IDX 70 44 21 45 75 46 69 47 71 48 22 49 74 50 68 51 67 52 23 54
REMARK SMILES IDX 55 55 35 56 54 57 36 58 39 59 53 60 72 61 37 62 38 63 52 65
REMARK SMILES IDX 73 66 40 67 24 68 25 69 33 70 26 71 28 72 34 73 27 74 29 75
REMARK SMILES IDX 30 76 31 77 32 78 56 79 57 80 65 81 58 82 60 83 66 84 59 85
REMARK SMILES IDX 61 86 62 87 63 88 64 89 41 90 42 91 50 92 43 93 45 94 51 95
REMARK SMILES IDX 44 96 46 97 47 98 48 99 49 100
REMARK H PARENT 71 53 39 64
REMARK Flexibility Score: inf
ROOT
ATOM      1  C   UNL A   1      36.747  23.439  26.485  1.00  0.00     0.188 C 
ENDROOT
BRANCH   1   2
ATOM      2  C   UNL A   1      35.253  23.468  26.840  1.00  0.00     0.188 C 
BRANCH   2   3
ATOM      3  O   UNL A   1      34.419  22.220  27.102  1.00  0.00    -0.376 OA
BRANCH   3   4
ATOM      4  C   UNL A   1      32.788  22.164  27.805  1.00  0.00     0.202 C 
BRANCH   4   5
ATOM      5  C   UNL A   1      31.089  23.090  26.816  1.00  0.00     0.261 C 
BRANCH   5   6
ATOM      6  O   UNL A   1      31.055  23.620  25.389  1.00  0.00    -0.460 OA
BRANCH   6   7
ATOM      7  C   UNL A   1      31.434  22.687  24.502  1.00  0.00     0.338 C 
ATOM      8  O   UNL A   1      31.652  21.519  24.713  1.00  0.00    -0.246 OA
BRANCH   7   9
ATOM      9  C   UNL A   1      31.964  23.604  23.502  1.00  0.00     0.087 C 
ATOM     10  C   UNL A   1      31.052  24.601  22.984  1.00  0.00     0.027 C 
ATOM     11  C   UNL A   1      33.521  23.992  24.537  1.00  0.00     0.316 C 
ATOM     12  C   UNL A   1      31.033  26.311  23.495  1.00  0.00     0.019 A 
ATOM     13  O   UNL A   1      33.435  25.824  25.259  1.00  0.00    -0.475 OA
ATOM     14  C   UNL A   1      29.976  27.072  23.067  1.00  0.00     0.032 A 
ATOM     15  C   UNL A   1      32.137  26.970  24.655  1.00  0.00     0.135 A 
ATOM     16  C   UNL A   1      29.923  28.367  23.588  1.00  0.00     0.042 A 
ATOM     17  C   UNL A   1      32.043  28.292  25.061  1.00  0.00     0.026 A 
ATOM     18  Cl  UNL A   1      28.584  29.362  23.119  1.00  0.00    -0.084 Cl
ATOM     19  C   UNL A   1      30.894  28.935  24.494  1.00  0.00     0.033 A 
BRANCH  11  20
ATOM     20  C   UNL A   1      34.522  23.259  23.318  1.00  0.00     0.430 C 
ATOM     21  F   UNL A   1      34.092  23.105  22.057  1.00  0.00    -0.167 F 
ATOM     22  F   UNL A   1      35.690  23.949  23.257  1.00  0.00    -0.167 F 
ATOM     23  F   UNL A   1      34.883  21.987  23.669  1.00  0.00    -0.167 F 
ENDBRANCH  11  20
BRANCH  17  24
ATOM     24  C   UNL A   1      32.918  29.145  25.860  1.00  0.00    -0.015 A 
ATOM     25  C   UNL A   1      34.163  28.708  26.318  1.00  0.00     0.009 A 
ATOM     26  C   UNL A   1      32.424  30.368  26.366  1.00  0.00     0.009 A 
ATOM     27  C   UNL A   1      34.933  29.513  27.167  1.00  0.00     0.001 A 
ATOM     28  C   UNL A   1      33.200  31.182  27.199  1.00  0.00     0.001 A 
ATOM     29  C   UNL A   1      34.469  30.762  27.577  1.00  0.00     0.000 A 
ENDBRANCH  17  24
ENDBRANCH   7   9
ENDBRANCH   6   7
ENDBRANCH   5   6
ENDBRANCH   4   5
ENDBRANCH   3   4
ENDBRANCH   2   3
ENDBRANCH   1   2
BRANCH   1  30
ATOM     30  O   UNL A   1      37.260  22.356  25.764  1.00  0.00    -0.376 OA
BRANCH  30  31
ATOM     31  C   UNL A   1      38.668  22.321  25.691  1.00  0.00     0.202 C 
BRANCH  31  32
ATOM     32  C   UNL A   1      39.458  21.242  26.436  1.00  0.00     0.261 C 
BRANCH  32  33
ATOM     33  O   UNL A   1      40.386  20.513  25.627  1.00  0.00    -0.460 OA
BRANCH  33  34
ATOM     34  C   UNL A   1      41.487  20.048  26.263  1.00  0.00     0.338 C 
ATOM     35  O   UNL A   1      41.812  18.886  26.434  1.00  0.00    -0.246 OA
BRANCH  34  36
ATOM     36  C   UNL A   1      42.363  21.194  26.550  1.00  0.00     0.060 A 
ATOM     37  C   UNL A   1      42.637  21.544  27.882  1.00  0.00     0.016 A 
ATOM     38  C   UNL A   1      42.870  21.945  25.492  1.00  0.00     0.016 A 
ATOM     39  C   UNL A   1      43.431  22.648  28.162  1.00  0.00     0.010 A 
ATOM     40  C   UNL A   1      43.621  23.083  25.773  1.00  0.00     0.010 A 
ATOM     41  C   UNL A   1      43.874  23.451  27.108  1.00  0.00    -0.014 A 
BRANCH  41  42
ATOM     42  C   UNL A   1      44.348  24.814  27.406  1.00  0.00     0.031 A 
ATOM     43  C   UNL A   1      43.331  25.805  27.891  1.00  0.00     0.074 A 
ATOM     44  C   UNL A   1      45.636  25.156  27.245  1.00  0.00     0.049 A 
ATOM     45  N   UNL A   1      43.477  27.071  28.169  1.00  0.00    -0.248 NA
ATOM     46  C   UNL A   1      41.960  25.297  28.084  1.00  0.00     0.031 C 
ATOM     47  C   UNL A   1      46.701  24.258  26.806  1.00  0.00     0.029 A 
ATOM     48  N   UNL A   1      46.255  26.367  27.408  1.00  0.00    -0.354 N 
ATOM     49  C   UNL A   1      42.214  27.519  28.536  1.00  0.00     0.074 A 
ATOM     50  C   UNL A   1      41.312  26.395  28.439  1.00  0.00     0.031 C 
ATOM     51  C   UNL A   1      47.843  24.962  26.698  1.00  0.00     0.029 A 
ATOM     52  C   UNL A   1      47.575  26.361  27.030  1.00  0.00     0.049 A 
ATOM     53  H   UNL A   1      45.797  27.166  27.762  1.00  0.00     0.167 HD
ATOM     54  C   UNL A   1      41.842  28.761  28.918  1.00  0.00     0.034 A 
ATOM     55  C   UNL A   1      48.450  27.380  26.933  1.00  0.00     0.034 A 
ATOM     56  C   UNL A   1      42.746  29.873  28.988  1.00  0.00     0.049 A 
ATOM     57  C   UNL A   1      47.996  28.768  27.314  1.00  0.00     0.074 A 
ATOM     58  C   UNL A   1      42.482  31.169  29.390  1.00  0.00     0.029 A 
ATOM     59  N   UNL A   1      44.081  29.828  28.616  1.00  0.00    -0.354 N 
ATOM     60  N   UNL A   1      46.823  29.165  27.747  1.00  0.00    -0.248 NA
ATOM     61  C   UNL A   1      48.993  29.843  27.221  1.00  0.00     0.031 C 
ATOM     62  C   UNL A   1      43.644  31.923  29.202  1.00  0.00     0.029 A 
ATOM     63  C   UNL A   1      44.651  31.080  28.757  1.00  0.00     0.049 A 
ATOM     64  H   UNL A   1      44.553  29.024  28.299  1.00  0.00     0.167 HD
ATOM     65  C   UNL A   1      46.955  30.522  28.022  1.00  0.00     0.074 A 
ATOM     66  C   UNL A   1      48.326  30.876  27.717  1.00  0.00     0.031 C 
ATOM     67  C   UNL A   1      46.029  31.399  28.485  1.00  0.00     0.034 A 
BRANCH  54  68
ATOM     68  C   UNL A   1      40.393  28.980  29.261  1.00  0.00     0.023 A 
ATOM     69  C   UNL A   1      39.448  29.214  28.242  1.00  0.00     0.012 A 
ATOM     70  C   UNL A   1      39.966  28.922  30.602  1.00  0.00     0.148 A 
ATOM     71  C   UNL A   1      38.106  29.424  28.555  1.00  0.00     0.002 A 
ATOM     72  C   UNL A   1      38.619  29.077  30.901  1.00  0.00     0.091 A 
ATOM     73  F   UNL A   1      40.885  28.725  31.557  1.00  0.00    -0.205 F 
ATOM     74  C   UNL A   1      37.690  29.344  29.882  1.00  0.00     0.022 A 
BRANCH  72  75
ATOM     75  S   UNL A   1      37.973  28.911  32.568  1.00  0.00     0.127 S 
ATOM     76  O   UNL A   1      36.591  29.356  32.394  1.00  0.00    -0.237 OA
ATOM     77  O   UNL A   1      38.128  27.477  32.810  1.00  0.00    -0.237 OA
ATOM     78  O   UNL A   1      38.797  29.767  33.409  1.00  0.00    -0.744 OA
ENDBRANCH  72  75
ENDBRANCH  54  68
BRANCH  55  79
ATOM     79  C   UNL A   1      49.841  27.135  26.459  1.00  0.00     0.023 A 
ATOM     80  C   UNL A   1      50.109  27.055  25.079  1.00  0.00     0.012 A 
ATOM     81  C   UNL A   1      50.900  26.975  27.374  1.00  0.00     0.148 A 
ATOM     82  C   UNL A   1      51.397  26.776  24.620  1.00  0.00     0.002 A 
ATOM     83  C   UNL A   1      52.191  26.757  26.909  1.00  0.00     0.091 A 
ATOM     84  F   UNL A   1      50.623  27.043  28.684  1.00  0.00    -0.205 F 
ATOM     85  C   UNL A   1      52.439  26.637  25.533  1.00  0.00     0.022 A 
BRANCH  83  86
ATOM     86  S   UNL A   1      53.611  26.673  28.005  1.00  0.00     0.127 S 
ATOM     87  O   UNL A   1      53.006  26.194  29.245  1.00  0.00    -0.237 OA
ATOM     88  O   UNL A   1      54.462  25.700  27.319  1.00  0.00    -0.237 OA
ATOM     89  O   UNL A   1      54.157  28.023  28.054  1.00  0.00    -0.744 OA
ENDBRANCH  83  86
ENDBRANCH  55  79
BRANCH  67  90
ATOM     90  C   UNL A   1      46.474  32.812  28.762  1.00  0.00     0.023 A 
ATOM     91  C   UNL A   1      46.964  33.175  30.031  1.00  0.00     0.012 A 
ATOM     92  C   UNL A   1      46.477  33.763  27.721  1.00  0.00     0.148 A 
ATOM     93  C   UNL A   1      47.413  34.473  30.272  1.00  0.00     0.002 A 
ATOM     94  C   UNL A   1      46.981  35.035  27.951  1.00  0.00     0.091 A 
ATOM     95  F   UNL A   1      45.996  33.401  26.523  1.00  0.00    -0.205 F 
ATOM     96  C   UNL A   1      47.434  35.398  29.230  1.00  0.00     0.022 A 
BRANCH  94  97
ATOM     97  S   UNL A   1      47.143  36.258  26.645  1.00  0.00     0.127 S 
ATOM     98  O   UNL A   1      45.757  36.412  26.209  1.00  0.00    -0.237 OA
ATOM     99  O   UNL A   1      47.687  37.408  27.368  1.00  0.00    -0.237 OA
ATOM    100  O   UNL A   1      48.044  35.679  25.657  1.00  0.00    -0.744 OA
ENDBRANCH  94  97
ENDBRANCH  67  90
ENDBRANCH  41  42
ENDBRANCH  34  36
ENDBRANCH  33  34
ENDBRANCH  32  33
ENDBRANCH  31  32
ENDBRANCH  30  31
ENDBRANCH   1  30
TORSDOF 22
ENDMDL
MODEL 3
REMARK VINA RESULT:      -7.7      4.884     12.642
REMARK SMILES O=C(OCCOCCOCCOC(=O)c1ccc(-c2c3nc(c(-c4cccc(S(=O)(=O)[O-])c4F)c4ccc([nH]4)c(-c4cccc(S(=O)(=O)[O-])c4F)c4nc(c(-c5cccc(S(=O)(=O)[O-])c5F)c5ccc2[nH]5)C=C4)C=C3)cc1)C1=Cc2cc(Cl)cc(-c3ccccc3)c2O[C@@H]1C(F)(F)F
REMARK SMILES IDX 8 1 7 2 6 3 5 4 4 5 3 6 2 7 1 8 78 9 79 10 94 11 80 12 93 13
REMARK SMILES IDX 81 14 92 15 82 16 85 17 83 18 84 19 95 20 96 21 97 22 98 23
REMARK SMILES IDX 86 24 87 25 91 26 88 27 90 28 89 29 9 30 10 31 11 32 12 33
REMARK SMILES IDX 13 34 14 35 15 36 16 37 77 38 17 39 76 40 18 41 19 42 20 43
REMARK SMILES IDX 70 44 21 45 75 46 69 47 71 48 22 49 74 50 68 51 67 52 23 54
REMARK SMILES IDX 55 55 35 56 54 57 36 58 39 59 53 60 72 61 37 62 38 63 52 65
REMARK SMILES IDX 73 66 40 67 24 68 25 69 33 70 26 71 28 72 34 73 27 74 29 75
REMARK SMILES IDX 30 76 31 77 32 78 56 79 57 80 65 81 58 82 60 83 66 84 59 85
REMARK SMILES IDX 61 86 62 87 63 88 64 89 41 90 42 91 50 92 43 93 45 94 51 95
REMARK SMILES IDX 44 96 46 97 47 98 48 99 49 100
REMARK H PARENT 71 53 39 64
REMARK Flexibility Score: inf
ROOT
ATOM      1  C   UNL A   1      43.014  41.259  29.783  1.00  0.00     0.188 C 
ENDROOT
BRANCH   1   2
ATOM      2  C   UNL A   1      41.575  40.931  29.357  1.00  0.00     0.188 C 
BRANCH   2   3
ATOM      3  O   UNL A   1      41.221  39.910  28.282  1.00  0.00    -0.376 OA
BRANCH   3   4
ATOM      4  C   UNL A   1      41.436  40.100  26.529  1.00  0.00     0.202 C 
BRANCH   4   5
ATOM      5  C   UNL A   1      43.001  41.363  25.703  1.00  0.00     0.261 C 
BRANCH   5   6
ATOM      6  O   UNL A   1      44.344  41.672  26.348  1.00  0.00    -0.460 OA
BRANCH   6   7
ATOM      7  C   UNL A   1      45.301  40.827  25.935  1.00  0.00     0.338 C 
ATOM      8  O   UNL A   1      45.578  40.530  24.799  1.00  0.00    -0.246 OA
BRANCH   7   9
ATOM      9  C   UNL A   1      45.435  40.093  27.186  1.00  0.00     0.087 C 
ATOM     10  C   UNL A   1      44.715  38.842  27.288  1.00  0.00     0.027 C 
ATOM     11  C   UNL A   1      47.338  40.251  27.192  1.00  0.00     0.316 C 
ATOM     12  C   UNL A   1      45.461  37.232  27.100  1.00  0.00     0.019 A 
ATOM     13  O   UNL A   1      48.181  38.511  26.811  1.00  0.00    -0.475 OA
ATOM     14  C   UNL A   1      44.608  36.161  27.017  1.00  0.00     0.032 A 
ATOM     15  C   UNL A   1      47.150  36.994  26.804  1.00  0.00     0.135 A 
ATOM     16  C   UNL A   1      45.215  34.934  26.743  1.00  0.00     0.042 A 
ATOM     17  C   UNL A   1      47.670  35.724  26.609  1.00  0.00     0.026 A 
ATOM     18  Cl  UNL A   1      44.183  33.552  26.579  1.00  0.00    -0.084 Cl
ATOM     19  C   UNL A   1      46.635  34.733  26.576  1.00  0.00     0.033 A 
BRANCH  11  20
ATOM     20  C   UNL A   1      47.259  41.224  28.632  1.00  0.00     0.430 C 
ATOM     21  F   UNL A   1      46.900  40.700  29.813  1.00  0.00    -0.167 F 
ATOM     22  F   UNL A   1      48.468  41.816  28.812  1.00  0.00    -0.167 F 
ATOM     23  F   UNL A   1      46.379  42.262  28.484  1.00  0.00    -0.167 F 
ENDBRANCH  11  20
BRANCH  17  24
ATOM     24  C   UNL A   1      49.037  35.218  26.523  1.00  0.00    -0.015 A 
ATOM     25  C   UNL A   1      49.891  35.197  27.629  1.00  0.00     0.009 A 
ATOM     26  C   UNL A   1      49.594  34.931  25.257  1.00  0.00     0.009 A 
ATOM     27  C   UNL A   1      51.227  34.801  27.490  1.00  0.00     0.001 A 
ATOM     28  C   UNL A   1      50.924  34.517  25.119  1.00  0.00     0.001 A 
ATOM     29  C   UNL A   1      51.732  34.427  26.246  1.00  0.00     0.000 A 
ENDBRANCH  17  24
ENDBRANCH   7   9
ENDBRANCH   6   7
ENDBRANCH   5   6
ENDBRANCH   4   5
ENDBRANCH   3   4
ENDBRANCH   2   3
ENDBRANCH   1   2
BRANCH   1  30
ATOM     30  O   UNL A   1      43.269  42.443  30.483  1.00  0.00    -0.376 OA
BRANCH  30  31
ATOM     31  C   UNL A   1      44.516  42.471  31.141  1.00  0.00     0.202 C 
BRANCH  31  32
ATOM     32  C   UNL A   1      44.680  41.830  32.522  1.00  0.00     0.261 C 
BRANCH  32  33
ATOM     33  O   UNL A   1      44.853  40.410  32.507  1.00  0.00    -0.460 OA
BRANCH  33  34
ATOM     34  C   UNL A   1      43.831  39.684  33.017  1.00  0.00     0.338 C 
ATOM     35  O   UNL A   1      42.878  40.089  33.659  1.00  0.00    -0.246 OA
BRANCH  34  36
ATOM     36  C   UNL A   1      43.942  38.314  32.492  1.00  0.00     0.060 A 
ATOM     37  C   UNL A   1      43.924  38.096  31.106  1.00  0.00     0.016 A 
ATOM     38  C   UNL A   1      44.016  37.248  33.385  1.00  0.00     0.016 A 
ATOM     39  C   UNL A   1      43.989  36.803  30.604  1.00  0.00     0.010 A 
ATOM     40  C   UNL A   1      44.026  35.949  32.884  1.00  0.00     0.010 A 
ATOM     41  C   UNL A   1      43.981  35.727  31.495  1.00  0.00    -0.014 A 
BRANCH  41  42
ATOM     42  C   UNL A   1      43.637  34.388  30.987  1.00  0.00     0.031 A 
ATOM     43  C   UNL A   1      44.745  33.577  30.382  1.00  0.00     0.074 A 
ATOM     44  C   UNL A   1      42.383  33.916  31.056  1.00  0.00     0.049 A 
ATOM     45  N   UNL A   1      44.698  32.401  29.818  1.00  0.00    -0.248 NA
ATOM     46  C   UNL A   1      46.092  34.178  30.414  1.00  0.00     0.031 C 
ATOM     47  C   UNL A   1      41.246  34.616  31.649  1.00  0.00     0.029 A 
ATOM     48  N   UNL A   1      41.856  32.738  30.593  1.00  0.00    -0.354 N 
ATOM     49  C   UNL A   1      45.995  32.137  29.399  1.00  0.00     0.074 A 
ATOM     50  C   UNL A   1      46.808  33.274  29.765  1.00  0.00     0.031 C 
ATOM     51  C   UNL A   1      40.141  33.867  31.480  1.00  0.00     0.029 A 
ATOM     52  C   UNL A   1      40.493  32.655  30.741  1.00  0.00     0.049 A 
ATOM     53  H   UNL A   1      42.401  32.022  30.192  1.00  0.00     0.167 HD
ATOM     54  C   UNL A   1      46.466  31.042  28.762  1.00  0.00     0.034 A 
ATOM     55  C   UNL A   1      39.632  31.720  30.296  1.00  0.00     0.034 A 
ATOM     56  C   UNL A   1      45.642  29.929  28.386  1.00  0.00     0.049 A 
ATOM     57  C   UNL A   1      40.175  30.532  29.541  1.00  0.00     0.074 A 
ATOM     58  C   UNL A   1      46.019  28.754  27.764  1.00  0.00     0.029 A 
ATOM     59  N   UNL A   1      44.269  29.868  28.567  1.00  0.00    -0.354 N 
ATOM     60  N   UNL A   1      41.417  30.246  29.229  1.00  0.00    -0.248 NA
ATOM     61  C   UNL A   1      39.202  29.522  29.102  1.00  0.00     0.031 C 
ATOM     62  C   UNL A   1      44.863  28.009  27.513  1.00  0.00     0.029 A 
ATOM     63  C   UNL A   1      43.777  28.685  28.047  1.00  0.00     0.049 A 
ATOM     64  H   UNL A   1      43.724  30.564  29.001  1.00  0.00     0.167 HD
ATOM     65  C   UNL A   1      41.379  29.005  28.601  1.00  0.00     0.074 A 
ATOM     66  C   UNL A   1      39.992  28.589  28.588  1.00  0.00     0.031 C 
ATOM     67  C   UNL A   1      42.397  28.274  28.082  1.00  0.00     0.034 A 
BRANCH  54  68
ATOM     68  C   UNL A   1      47.930  31.011  28.415  1.00  0.00     0.023 A 
ATOM     69  C   UNL A   1      48.385  31.569  27.202  1.00  0.00     0.012 A 
ATOM     70  C   UNL A   1      48.860  30.454  29.312  1.00  0.00     0.148 A 
ATOM     71  C   UNL A   1      49.738  31.538  26.872  1.00  0.00     0.002 A 
ATOM     72  C   UNL A   1      50.213  30.476  29.002  1.00  0.00     0.091 A 
ATOM     73  F   UNL A   1      48.404  29.905  30.447  1.00  0.00    -0.205 F 
ATOM     74  C   UNL A   1      50.653  31.003  27.776  1.00  0.00     0.022 A 
BRANCH  72  75
ATOM     75  S   UNL A   1      51.475  29.885  30.133  1.00  0.00     0.127 S 
ATOM     76  O   UNL A   1      51.164  30.643  31.345  1.00  0.00    -0.237 OA
ATOM     77  O   UNL A   1      51.167  28.457  30.210  1.00  0.00    -0.237 OA
ATOM     78  O   UNL A   1      52.754  30.203  29.516  1.00  0.00    -0.744 OA
ENDBRANCH  72  75
ENDBRANCH  54  68
BRANCH  55  79
ATOM     79  C   UNL A   1      38.171  31.860  30.551  1.00  0.00     0.023 A 
ATOM     80  C   UNL A   1      37.604  31.300  31.712  1.00  0.00     0.012 A 
ATOM     81  C   UNL A   1      37.339  32.542  29.641  1.00  0.00     0.148 A 
ATOM     82  C   UNL A   1      36.230  31.379  31.941  1.00  0.00     0.002 A 
ATOM     83  C   UNL A   1      35.980  32.669  29.905  1.00  0.00     0.091 A 
ATOM     84  F   UNL A   1      37.895  33.058  28.537  1.00  0.00    -0.205 F 
ATOM     85  C   UNL A   1      35.420  32.071  31.044  1.00  0.00     0.022 A 
BRANCH  83  86
ATOM     86  S   UNL A   1      34.880  33.633  28.864  1.00  0.00     0.127 S 
ATOM     87  O   UNL A   1      35.248  35.000  29.223  1.00  0.00    -0.237 OA
ATOM     88  O   UNL A   1      35.292  33.215  27.524  1.00  0.00    -0.237 OA
ATOM     89  O   UNL A   1      33.529  33.231  29.233  1.00  0.00    -0.744 OA
ENDBRANCH  83  86
ENDBRANCH  55  79
BRANCH  67  90
ATOM     90  C   UNL A   1      42.071  26.916  27.517  1.00  0.00     0.023 A 
ATOM     91  C   UNL A   1      41.482  26.789  26.244  1.00  0.00     0.012 A 
ATOM     92  C   UNL A   1      42.429  25.754  28.232  1.00  0.00     0.148 A 
ATOM     93  C   UNL A   1      41.220  25.529  25.707  1.00  0.00     0.002 A 
ATOM     94  C   UNL A   1      42.220  24.504  27.667  1.00  0.00     0.091 A 
ATOM     95  F   UNL A   1      42.977  25.895  29.447  1.00  0.00    -0.205 F 
ATOM     96  C   UNL A   1      41.600  24.389  26.412  1.00  0.00     0.022 A 
BRANCH  94  97
ATOM     97  S   UNL A   1      42.770  22.987  28.453  1.00  0.00     0.127 S 
ATOM     98  O   UNL A   1      42.922  23.411  29.844  1.00  0.00    -0.237 OA
ATOM     99  O   UNL A   1      41.641  22.088  28.210  1.00  0.00    -0.237 OA
ATOM    100  O   UNL A   1      44.005  22.606  27.782  1.00  0.00    -0.744 OA
ENDBRANCH  94  97
ENDBRANCH  67  90
ENDBRANCH  41  42
ENDBRANCH  34  36
ENDBRANCH  33  34
ENDBRANCH  32  33
ENDBRANCH  31  32
ENDBRANCH  30  31
ENDBRANCH   1  30
TORSDOF 22
ENDMDL
