MODEL 1
REMARK VINA RESULT:     -10.8      0.000      0.000
REMARK SMILES CN(C)c1nccnc1N1CCC(Oc2ccc3ccccc3c2)(C(=O)OCCOCCOCCOC(=O)c2ccc(-c3c4nc(c(-c5cccc(S(=O)(=O)[O-])c5F)c5ccc([nH]5)c(-c5cccc(S(=O)(=O)[O-])c5F)c5nc(c(-c6cccc(S(=O)(=O)[O-])c6F)c6ccc3[nH]6)C=C5)C=C4)cc2)CC1
REMARK SMILES IDX 32 1 31 2 30 3 29 4 28 5 27 6 25 7 26 8 13 9 10 10 11 11
REMARK SMILES IDX 103 12 12 13 102 14 9 15 4 16 5 17 6 18 8 19 7 20 2 21 1 22
REMARK SMILES IDX 3 23 14 24 15 25 16 26 24 27 17 28 23 29 18 30 22 31 19 32
REMARK SMILES IDX 21 33 20 34 33 35 34 36 35 37 36 38 37 39 38 40 39 41 40 42
REMARK SMILES IDX 101 43 41 44 100 45 42 46 43 47 44 48 94 49 45 50 99 51
REMARK SMILES IDX 93 52 95 53 46 54 98 55 92 56 91 57 47 59 79 60 59 61 78 62
REMARK SMILES IDX 60 63 63 64 77 65 96 66 61 67 62 68 76 70 97 71 64 72 48 73
REMARK SMILES IDX 49 74 57 75 50 76 52 77 58 78 51 79 53 80 54 81 55 82 56 83
REMARK SMILES IDX 80 84 81 85 89 86 82 87 84 88 90 89 83 90 85 91 86 92 87 93
REMARK SMILES IDX 88 94 65 95 66 96 74 97 67 98 69 99 75 100 68 101 70 102
REMARK SMILES IDX 71 103 72 104 73 105
REMARK H PARENT 95 58 63 69
REMARK Flexibility Score: inf
ROOT
ATOM      1  C   UNL A   1      31.826  29.248  25.554  1.00  0.00     0.188 C 
ENDROOT
BRANCH   1   2
ATOM      2  C   UNL A   1      31.006  29.337  24.259  1.00  0.00     0.188 C 
BRANCH   2   3
ATOM      3  O   UNL A   1      30.964  28.186  23.427  1.00  0.00    -0.376 OA
BRANCH   3   4
ATOM      4  C   UNL A   1      29.808  27.357  23.472  1.00  0.00     0.202 C 
BRANCH   4   5
ATOM      5  C   UNL A   1      29.932  26.082  24.306  1.00  0.00     0.261 C 
BRANCH   5   6
ATOM      6  O   UNL A   1      31.309  25.788  24.633  1.00  0.00    -0.460 OA
BRANCH   6   7
ATOM      7  C   UNL A   1      31.545  25.030  25.748  1.00  0.00     0.350 C 
ATOM      8  O   UNL A   1      31.160  25.353  26.867  1.00  0.00    -0.247 OA
BRANCH   7   9
ATOM      9  C   UNL A   1      32.402  23.770  25.450  1.00  0.00     0.209 C 
ATOM     10  N   UNL A   1      35.201  23.759  26.116  1.00  0.00    -0.353 N 
ATOM     11  C   UNL A   1      34.347  23.305  27.181  1.00  0.00     0.123 C 
ATOM     12  C   UNL A   1      34.732  24.771  25.196  1.00  0.00     0.123 C 
ATOM     13  C   UNL A   1      32.909  23.052  26.727  1.00  0.00     0.082 C 
ATOM     14  C   UNL A   1      33.528  24.181  24.465  1.00  0.00     0.082 C 
BRANCH  10  15
ATOM     15  C   UNL A   1      36.474  23.227  26.001  1.00  0.00     0.171 A 
ATOM     16  C   UNL A   1      36.739  21.913  25.502  1.00  0.00     0.171 A 
ATOM     17  N   UNL A   1      38.005  21.417  25.444  1.00  0.00    -0.234 NA
ATOM     18  C   UNL A   1      38.989  22.221  25.875  1.00  0.00     0.134 A 
ATOM     19  N   UNL A   1      37.499  24.028  26.398  1.00  0.00    -0.234 NA
ATOM     20  C   UNL A   1      38.740  23.495  26.339  1.00  0.00     0.134 A 
BRANCH  16  21
ATOM     21  N   UNL A   1      35.730  21.118  24.915  1.00  0.00    -0.360 N 
ATOM     22  C   UNL A   1      36.084  19.701  24.889  1.00  0.00     0.145 C 
ATOM     23  C   UNL A   1      35.335  21.700  23.635  1.00  0.00     0.145 C 
ENDBRANCH  16  21
ENDBRANCH  10  15
BRANCH   9  24
ATOM     24  O   UNL A   1      31.320  22.976  24.851  1.00  0.00    -0.475 OA
BRANCH  24  25
ATOM     25  C   UNL A   1      31.663  21.774  24.306  1.00  0.00     0.121 A 
ATOM     26  C   UNL A   1      31.772  21.600  22.932  1.00  0.00     0.047 A 
ATOM     27  C   UNL A   1      32.014  20.742  25.174  1.00  0.00     0.055 A 
ATOM     28  C   UNL A   1      32.147  20.363  22.412  1.00  0.00     0.012 A 
ATOM     29  C   UNL A   1      32.417  19.497  24.666  1.00  0.00    -0.015 A 
ATOM     30  C   UNL A   1      32.471  19.303  23.266  1.00  0.00    -0.018 A 
ATOM     31  C   UNL A   1      32.772  18.439  25.516  1.00  0.00     0.009 A 
ATOM     32  C   UNL A   1      32.860  18.059  22.753  1.00  0.00     0.009 A 
ATOM     33  C   UNL A   1      33.169  17.207  24.990  1.00  0.00     0.001 A 
ATOM     34  C   UNL A   1      33.208  17.017  23.611  1.00  0.00     0.001 A 
ENDBRANCH  24  25
ENDBRANCH   9  24
ENDBRANCH   7   9
ENDBRANCH   6   7
ENDBRANCH   5   6
ENDBRANCH   4   5
ENDBRANCH   3   4
ENDBRANCH   2   3
ENDBRANCH   1   2
BRANCH   1  35
ATOM     35  O   UNL A   1      32.110  30.438  26.274  1.00  0.00    -0.376 OA
BRANCH  35  36
ATOM     36  C   UNL A   1      33.343  30.445  26.987  1.00  0.00     0.202 C 
BRANCH  36  37
ATOM     37  C   UNL A   1      33.598  31.722  27.784  1.00  0.00     0.261 C 
BRANCH  37  38
ATOM     38  O   UNL A   1      35.011  31.944  27.961  1.00  0.00    -0.460 OA
BRANCH  38  39
ATOM     39  C   UNL A   1      35.481  31.538  29.160  1.00  0.00     0.338 C 
ATOM     40  O   UNL A   1      35.134  31.977  30.252  1.00  0.00    -0.246 OA
BRANCH  39  41
ATOM     41  C   UNL A   1      36.449  30.426  29.035  1.00  0.00     0.060 A 
ATOM     42  C   UNL A   1      36.623  29.501  30.065  1.00  0.00     0.016 A 
ATOM     43  C   UNL A   1      37.377  30.475  27.995  1.00  0.00     0.016 A 
ATOM     44  C   UNL A   1      37.799  28.751  30.139  1.00  0.00     0.010 A 
ATOM     45  C   UNL A   1      38.527  29.677  28.041  1.00  0.00     0.010 A 
ATOM     46  C   UNL A   1      38.802  28.885  29.167  1.00  0.00    -0.014 A 
BRANCH  46  47
ATOM     47  C   UNL A   1      40.195  28.400  29.436  1.00  0.00     0.031 A 
ATOM     48  C   UNL A   1      41.016  29.063  30.525  1.00  0.00     0.074 A 
ATOM     49  C   UNL A   1      40.705  27.301  28.848  1.00  0.00     0.049 A 
ATOM     50  N   UNL A   1      42.286  28.919  30.811  1.00  0.00    -0.248 NA
ATOM     51  C   UNL A   1      40.311  29.995  31.424  1.00  0.00     0.031 C 
ATOM     52  C   UNL A   1      40.006  26.444  27.894  1.00  0.00     0.029 A 
ATOM     53  N   UNL A   1      41.935  26.700  28.992  1.00  0.00    -0.354 N 
ATOM     54  C   UNL A   1      42.547  29.800  31.855  1.00  0.00     0.074 A 
ATOM     55  C   UNL A   1      41.298  30.453  32.180  1.00  0.00     0.031 C 
ATOM     56  C   UNL A   1      40.794  25.405  27.575  1.00  0.00     0.029 A 
ATOM     57  C   UNL A   1      42.099  25.581  28.208  1.00  0.00     0.049 A 
ATOM     58  H   UNL A   1      42.631  27.038  29.601  1.00  0.00     0.167 HD
ATOM     59  C   UNL A   1      43.714  30.046  32.496  1.00  0.00     0.034 A 
ATOM     60  C   UNL A   1      43.184  24.814  27.975  1.00  0.00     0.034 A 
ATOM     61  C   UNL A   1      44.945  29.349  32.249  1.00  0.00     0.049 A 
ATOM     62  C   UNL A   1      44.497  25.163  28.625  1.00  0.00     0.074 A 
ATOM     63  C   UNL A   1      46.190  29.573  32.811  1.00  0.00     0.029 A 
ATOM     64  N   UNL A   1      45.083  28.270  31.394  1.00  0.00    -0.354 N 
ATOM     65  N   UNL A   1      44.753  26.062  29.543  1.00  0.00    -0.248 NA
ATOM     66  C   UNL A   1      45.675  24.396  28.190  1.00  0.00     0.031 C 
ATOM     67  C   UNL A   1      47.083  28.629  32.293  1.00  0.00     0.029 A 
ATOM     68  C   UNL A   1      46.390  27.813  31.415  1.00  0.00     0.049 A 
ATOM     69  H   UNL A   1      44.359  27.884  30.850  1.00  0.00     0.167 HD
ATOM     70  C   UNL A   1      46.116  25.961  29.804  1.00  0.00     0.074 A 
ATOM     71  C   UNL A   1      46.626  24.890  28.973  1.00  0.00     0.031 C 
ATOM     72  C   UNL A   1      46.882  26.711  30.633  1.00  0.00     0.034 A 
BRANCH  59  73
ATOM     73  C   UNL A   1      43.725  31.131  33.538  1.00  0.00     0.023 A 
ATOM     74  C   UNL A   1      44.063  32.449  33.177  1.00  0.00     0.012 A 
ATOM     75  C   UNL A   1      43.332  30.850  34.860  1.00  0.00     0.148 A 
ATOM     76  C   UNL A   1      44.018  33.472  34.125  1.00  0.00     0.002 A 
ATOM     77  C   UNL A   1      43.256  31.880  35.790  1.00  0.00     0.091 A 
ATOM     78  F   UNL A   1      43.046  29.580  35.187  1.00  0.00    -0.205 F 
ATOM     79  C   UNL A   1      43.604  33.190  35.425  1.00  0.00     0.022 A 
BRANCH  77  80
ATOM     80  S   UNL A   1      42.665  31.613  37.465  1.00  0.00     0.127 S 
ATOM     81  O   UNL A   1      42.856  32.935  38.060  1.00  0.00    -0.237 OA
ATOM     82  O   UNL A   1      41.266  31.239  37.247  1.00  0.00    -0.237 OA
ATOM     83  O   UNL A   1      43.494  30.548  38.012  1.00  0.00    -0.744 OA
ENDBRANCH  77  80
ENDBRANCH  59  73
BRANCH  60  84
ATOM     84  C   UNL A   1      43.089  23.652  27.044  1.00  0.00     0.023 A 
ATOM     85  C   UNL A   1      43.747  23.697  25.801  1.00  0.00     0.012 A 
ATOM     86  C   UNL A   1      42.368  22.495  27.395  1.00  0.00     0.148 A 
ATOM     87  C   UNL A   1      43.680  22.613  24.922  1.00  0.00     0.002 A 
ATOM     88  C   UNL A   1      42.369  21.392  26.550  1.00  0.00     0.091 A 
ATOM     89  F   UNL A   1      41.698  22.484  28.557  1.00  0.00    -0.205 F 
ATOM     90  C   UNL A   1      43.008  21.454  25.304  1.00  0.00     0.022 A 
BRANCH  88  91
ATOM     91  S   UNL A   1      41.675  19.820  27.074  1.00  0.00     0.127 S 
ATOM     92  O   UNL A   1      40.965  19.388  25.874  1.00  0.00    -0.237 OA
ATOM     93  O   UNL A   1      42.871  19.042  27.396  1.00  0.00    -0.237 OA
ATOM     94  O   UNL A   1      40.850  20.143  28.232  1.00  0.00    -0.744 OA
ENDBRANCH  88  91
ENDBRANCH  60  84
BRANCH  72  95
ATOM     95  C   UNL A   1      48.354  26.400  30.705  1.00  0.00     0.023 A 
ATOM     96  C   UNL A   1      48.836  25.575  31.740  1.00  0.00     0.012 A 
ATOM     97  C   UNL A   1      49.244  26.860  29.715  1.00  0.00     0.148 A 
ATOM     98  C   UNL A   1      50.187  25.235  31.805  1.00  0.00     0.002 A 
ATOM     99  C   UNL A   1      50.583  26.484  29.763  1.00  0.00     0.091 A 
ATOM    100  F   UNL A   1      48.772  27.661  28.749  1.00  0.00    -0.205 F 
ATOM    101  C   UNL A   1      51.057  25.679  30.812  1.00  0.00     0.022 A 
BRANCH  99 102
ATOM    102  S   UNL A   1      51.750  26.944  28.477  1.00  0.00     0.127 S 
ATOM    103  O   UNL A   1      53.013  26.463  29.034  1.00  0.00    -0.237 OA
ATOM    104  O   UNL A   1      51.265  26.183  27.324  1.00  0.00    -0.237 OA
ATOM    105  O   UNL A   1      51.630  28.388  28.335  1.00  0.00    -0.744 OA
ENDBRANCH  99 102
ENDBRANCH  72  95
ENDBRANCH  46  47
ENDBRANCH  39  41
ENDBRANCH  38  39
ENDBRANCH  37  38
ENDBRANCH  36  37
ENDBRANCH  35  36
ENDBRANCH   1  35
TORSDOF 24
ENDMDL
MODEL 2
REMARK VINA RESULT:      -9.9      5.387     10.593
REMARK SMILES CN(C)c1nccnc1N1CCC(Oc2ccc3ccccc3c2)(C(=O)OCCOCCOCCOC(=O)c2ccc(-c3c4nc(c(-c5cccc(S(=O)(=O)[O-])c5F)c5ccc([nH]5)c(-c5cccc(S(=O)(=O)[O-])c5F)c5nc(c(-c6cccc(S(=O)(=O)[O-])c6F)c6ccc3[nH]6)C=C5)C=C4)cc2)CC1
REMARK SMILES IDX 32 1 31 2 30 3 29 4 28 5 27 6 25 7 26 8 13 9 10 10 11 11
REMARK SMILES IDX 103 12 12 13 102 14 9 15 4 16 5 17 6 18 8 19 7 20 2 21 1 22
REMARK SMILES IDX 3 23 14 24 15 25 16 26 24 27 17 28 23 29 18 30 22 31 19 32
REMARK SMILES IDX 21 33 20 34 33 35 34 36 35 37 36 38 37 39 38 40 39 41 40 42
REMARK SMILES IDX 101 43 41 44 100 45 42 46 43 47 44 48 94 49 45 50 99 51
REMARK SMILES IDX 93 52 95 53 46 54 98 55 92 56 91 57 47 59 79 60 59 61 78 62
REMARK SMILES IDX 60 63 63 64 77 65 96 66 61 67 62 68 76 70 97 71 64 72 48 73
REMARK SMILES IDX 49 74 57 75 50 76 52 77 58 78 51 79 53 80 54 81 55 82 56 83
REMARK SMILES IDX 80 84 81 85 89 86 82 87 84 88 90 89 83 90 85 91 86 92 87 93
REMARK SMILES IDX 88 94 65 95 66 96 74 97 67 98 69 99 75 100 68 101 70 102
REMARK SMILES IDX 71 103 72 104 73 105
REMARK H PARENT 95 58 63 69
REMARK Flexibility Score: inf
ROOT
ATOM      1  C   UNL A   1      39.497  27.831  29.938  1.00  0.00     0.188 C 
ENDROOT
BRANCH   1   2
ATOM      2  C   UNL A   1      38.475  28.976  29.939  1.00  0.00     0.188 C 
BRANCH   2   3
ATOM      3  O   UNL A   1      38.554  29.928  28.888  1.00  0.00    -0.376 OA
BRANCH   3   4
ATOM      4  C   UNL A   1      37.502  29.968  27.928  1.00  0.00     0.202 C 
BRANCH   4   5
ATOM      5  C   UNL A   1      36.100  29.676  28.461  1.00  0.00     0.261 C 
BRANCH   5   6
ATOM      6  O   UNL A   1      35.303  28.948  27.499  1.00  0.00    -0.460 OA
BRANCH   6   7
ATOM      7  C   UNL A   1      34.277  29.619  26.891  1.00  0.00     0.350 C 
ATOM      8  O   UNL A   1      34.153  30.838  26.948  1.00  0.00    -0.247 OA
BRANCH   7   9
ATOM      9  C   UNL A   1      33.267  28.670  26.190  1.00  0.00     0.209 C 
ATOM     10  N   UNL A   1      31.246  29.767  24.461  1.00  0.00    -0.353 N 
ATOM     11  C   UNL A   1      32.480  29.453  23.789  1.00  0.00     0.123 C 
ATOM     12  C   UNL A   1      31.265  30.208  25.837  1.00  0.00     0.123 C 
ATOM     13  C   UNL A   1      33.433  28.623  24.649  1.00  0.00     0.082 C 
ATOM     14  C   UNL A   1      31.842  29.059  26.662  1.00  0.00     0.082 C 
BRANCH  10  15
ATOM     15  C   UNL A   1      30.055  29.656  23.764  1.00  0.00     0.171 A 
ATOM     16  C   UNL A   1      29.527  28.414  23.291  1.00  0.00     0.171 A 
ATOM     17  N   UNL A   1      28.371  28.359  22.576  1.00  0.00    -0.234 NA
ATOM     18  C   UNL A   1      27.752  29.524  22.339  1.00  0.00     0.134 A 
ATOM     19  N   UNL A   1      29.383  30.817  23.534  1.00  0.00    -0.234 NA
ATOM     20  C   UNL A   1      28.246  30.723  22.808  1.00  0.00     0.134 A 
BRANCH  16  21
ATOM     21  N   UNL A   1      30.095  27.174  23.658  1.00  0.00    -0.360 N 
ATOM     22  C   UNL A   1      30.910  26.598  22.590  1.00  0.00     0.145 C 
ATOM     23  C   UNL A   1      29.055  26.304  24.204  1.00  0.00     0.145 C 
ENDBRANCH  16  21
ENDBRANCH  10  15
BRANCH   9  24
ATOM     24  O   UNL A   1      33.788  27.423  26.768  1.00  0.00    -0.475 OA
BRANCH  24  25
ATOM     25  C   UNL A   1      33.598  26.281  26.048  1.00  0.00     0.121 A 
ATOM     26  C   UNL A   1      34.504  25.869  25.079  1.00  0.00     0.047 A 
ATOM     27  C   UNL A   1      32.518  25.469  26.389  1.00  0.00     0.055 A 
ATOM     28  C   UNL A   1      34.288  24.684  24.379  1.00  0.00     0.012 A 
ATOM     29  C   UNL A   1      32.300  24.261  25.710  1.00  0.00    -0.015 A 
ATOM     30  C   UNL A   1      33.190  23.871  24.683  1.00  0.00    -0.018 A 
ATOM     31  C   UNL A   1      31.218  23.425  26.029  1.00  0.00     0.009 A 
ATOM     32  C   UNL A   1      32.971  22.672  23.993  1.00  0.00     0.009 A 
ATOM     33  C   UNL A   1      31.018  22.227  25.341  1.00  0.00     0.001 A 
ATOM     34  C   UNL A   1      31.891  21.854  24.321  1.00  0.00     0.001 A 
ENDBRANCH  24  25
ENDBRANCH   9  24
ENDBRANCH   7   9
ENDBRANCH   6   7
ENDBRANCH   5   6
ENDBRANCH   4   5
ENDBRANCH   3   4
ENDBRANCH   2   3
ENDBRANCH   1   2
BRANCH   1  35
ATOM     35  O   UNL A   1      39.176  26.621  29.268  1.00  0.00    -0.376 OA
BRANCH  35  36
ATOM     36  C   UNL A   1      39.580  26.547  27.904  1.00  0.00     0.202 C 
BRANCH  36  37
ATOM     37  C   UNL A   1      40.912  25.836  27.683  1.00  0.00     0.261 C 
BRANCH  37  38
ATOM     38  O   UNL A   1      41.552  26.304  26.480  1.00  0.00    -0.460 OA
BRANCH  38  39
ATOM     39  C   UNL A   1      42.900  26.334  26.554  1.00  0.00     0.338 C 
ATOM     40  O   UNL A   1      43.646  25.368  26.429  1.00  0.00    -0.246 OA
BRANCH  39  41
ATOM     41  C   UNL A   1      43.420  27.704  26.750  1.00  0.00     0.060 A 
ATOM     42  C   UNL A   1      44.519  27.949  27.575  1.00  0.00     0.016 A 
ATOM     43  C   UNL A   1      42.635  28.775  26.322  1.00  0.00     0.016 A 
ATOM     44  C   UNL A   1      44.729  29.226  28.100  1.00  0.00     0.010 A 
ATOM     45  C   UNL A   1      42.885  30.067  26.803  1.00  0.00     0.010 A 
ATOM     46  C   UNL A   1      43.869  30.287  27.781  1.00  0.00    -0.014 A 
BRANCH  46  47
ATOM     47  C   UNL A   1      43.843  31.529  28.619  1.00  0.00     0.031 A 
ATOM     48  C   UNL A   1      44.767  32.681  28.271  1.00  0.00     0.074 A 
ATOM     49  C   UNL A   1      42.931  31.729  29.590  1.00  0.00     0.049 A 
ATOM     50  N   UNL A   1      45.029  33.770  28.950  1.00  0.00    -0.248 NA
ATOM     51  C   UNL A   1      45.472  32.608  26.979  1.00  0.00     0.031 C 
ATOM     52  C   UNL A   1      41.866  30.801  29.960  1.00  0.00     0.029 A 
ATOM     53  N   UNL A   1      42.740  32.804  30.429  1.00  0.00    -0.354 N 
ATOM     54  C   UNL A   1      45.986  34.460  28.215  1.00  0.00     0.074 A 
ATOM     55  C   UNL A   1      46.239  33.688  27.019  1.00  0.00     0.031 C 
ATOM     56  C   UNL A   1      41.106  31.361  30.915  1.00  0.00     0.029 A 
ATOM     57  C   UNL A   1      41.696  32.638  31.310  1.00  0.00     0.049 A 
ATOM     58  H   UNL A   1      43.298  33.614  30.401  1.00  0.00     0.167 HD
ATOM     59  C   UNL A   1      46.601  35.633  28.499  1.00  0.00     0.034 A 
ATOM     60  C   UNL A   1      41.289  33.391  32.352  1.00  0.00     0.034 A 
ATOM     61  C   UNL A   1      46.304  36.457  29.637  1.00  0.00     0.049 A 
ATOM     62  C   UNL A   1      42.047  34.643  32.708  1.00  0.00     0.074 A 
ATOM     63  C   UNL A   1      46.920  37.632  30.033  1.00  0.00     0.029 A 
ATOM     64  N   UNL A   1      45.288  36.215  30.543  1.00  0.00    -0.354 N 
ATOM     65  N   UNL A   1      43.015  35.238  32.057  1.00  0.00    -0.248 NA
ATOM     66  C   UNL A   1      41.661  35.318  33.957  1.00  0.00     0.031 C 
ATOM     67  C   UNL A   1      46.275  38.101  31.183  1.00  0.00     0.029 A 
ATOM     68  C   UNL A   1      45.252  37.220  31.495  1.00  0.00     0.049 A 
ATOM     69  H   UNL A   1      44.678  35.442  30.515  1.00  0.00     0.167 HD
ATOM     70  C   UNL A   1      43.346  36.361  32.809  1.00  0.00     0.074 A 
ATOM     71  C   UNL A   1      42.451  36.384  33.947  1.00  0.00     0.031 C 
ATOM     72  C   UNL A   1      44.324  37.272  32.593  1.00  0.00     0.034 A 
BRANCH  59  73
ATOM     73  C   UNL A   1      47.677  36.104  27.559  1.00  0.00     0.023 A 
ATOM     74  C   UNL A   1      47.364  37.010  26.529  1.00  0.00     0.012 A 
ATOM     75  C   UNL A   1      49.012  35.696  27.746  1.00  0.00     0.148 A 
ATOM     76  C   UNL A   1      48.366  37.497  25.690  1.00  0.00     0.002 A 
ATOM     77  C   UNL A   1      50.009  36.212  26.928  1.00  0.00     0.091 A 
ATOM     78  F   UNL A   1      49.280  34.807  28.714  1.00  0.00    -0.205 F 
ATOM     79  C   UNL A   1      49.688  37.108  25.898  1.00  0.00     0.022 A 
BRANCH  77  80
ATOM     80  S   UNL A   1      51.745  35.817  27.175  1.00  0.00     0.127 S 
ATOM     81  O   UNL A   1      52.288  36.020  25.833  1.00  0.00    -0.237 OA
ATOM     82  O   UNL A   1      52.158  36.821  28.158  1.00  0.00    -0.237 OA
ATOM     83  O   UNL A   1      51.773  34.447  27.667  1.00  0.00    -0.744 OA
ENDBRANCH  77  80
ENDBRANCH  59  73
BRANCH  60  84
ATOM     84  C   UNL A   1      40.118  32.960  33.171  1.00  0.00     0.023 A 
ATOM     85  C   UNL A   1      40.320  32.158  34.310  1.00  0.00     0.012 A 
ATOM     86  C   UNL A   1      38.810  33.359  32.838  1.00  0.00     0.148 A 
ATOM     87  C   UNL A   1      39.237  31.756  35.095  1.00  0.00     0.002 A 
ATOM     88  C   UNL A   1      37.748  33.019  33.667  1.00  0.00     0.091 A 
ATOM     89  F   UNL A   1      38.623  34.076  31.721  1.00  0.00    -0.205 F 
ATOM     90  C   UNL A   1      37.954  32.202  34.786  1.00  0.00     0.022 A 
BRANCH  88  91
ATOM     91  S   UNL A   1      36.112  33.718  33.413  1.00  0.00     0.127 S 
ATOM     92  O   UNL A   1      35.696  33.069  32.173  1.00  0.00    -0.237 OA
ATOM     93  O   UNL A   1      35.394  33.277  34.609  1.00  0.00    -0.237 OA
ATOM     94  O   UNL A   1      36.326  35.158  33.348  1.00  0.00    -0.744 OA
ENDBRANCH  88  91
ENDBRANCH  60  84
BRANCH  72  95
ATOM     95  C   UNL A   1      44.481  38.388  33.592  1.00  0.00     0.023 A 
ATOM     96  C   UNL A   1      45.389  38.237  34.659  1.00  0.00     0.012 A 
ATOM     97  C   UNL A   1      43.791  39.606  33.437  1.00  0.00     0.148 A 
ATOM     98  C   UNL A   1      45.586  39.271  35.573  1.00  0.00     0.002 A 
ATOM     99  C   UNL A   1      44.023  40.648  34.330  1.00  0.00     0.091 A 
ATOM    100  F   UNL A   1      42.916  39.725  32.429  1.00  0.00    -0.205 F 
ATOM    101  C   UNL A   1      44.913  40.479  35.403  1.00  0.00     0.022 A 
BRANCH  99 102
ATOM    102  S   UNL A   1      43.261  42.262  34.131  1.00  0.00     0.127 S 
ATOM    103  O   UNL A   1      43.644  42.929  35.374  1.00  0.00    -0.237 OA
ATOM    104  O   UNL A   1      43.925  42.780  32.933  1.00  0.00    -0.237 OA
ATOM    105  O   UNL A   1      41.837  42.007  33.962  1.00  0.00    -0.744 OA
ENDBRANCH  99 102
ENDBRANCH  72  95
ENDBRANCH  46  47
ENDBRANCH  39  41
ENDBRANCH  38  39
ENDBRANCH  37  38
ENDBRANCH  36  37
ENDBRANCH  35  36
ENDBRANCH   1  35
TORSDOF 24
ENDMDL
MODEL 3
REMARK VINA RESULT:      -9.7      4.681      9.932
REMARK SMILES CN(C)c1nccnc1N1CCC(Oc2ccc3ccccc3c2)(C(=O)OCCOCCOCCOC(=O)c2ccc(-c3c4nc(c(-c5cccc(S(=O)(=O)[O-])c5F)c5ccc([nH]5)c(-c5cccc(S(=O)(=O)[O-])c5F)c5nc(c(-c6cccc(S(=O)(=O)[O-])c6F)c6ccc3[nH]6)C=C5)C=C4)cc2)CC1
REMARK SMILES IDX 32 1 31 2 30 3 29 4 28 5 27 6 25 7 26 8 13 9 10 10 11 11
REMARK SMILES IDX 103 12 12 13 102 14 9 15 4 16 5 17 6 18 8 19 7 20 2 21 1 22
REMARK SMILES IDX 3 23 14 24 15 25 16 26 24 27 17 28 23 29 18 30 22 31 19 32
REMARK SMILES IDX 21 33 20 34 33 35 34 36 35 37 36 38 37 39 38 40 39 41 40 42
REMARK SMILES IDX 101 43 41 44 100 45 42 46 43 47 44 48 94 49 45 50 99 51
REMARK SMILES IDX 93 52 95 53 46 54 98 55 92 56 91 57 47 59 79 60 59 61 78 62
REMARK SMILES IDX 60 63 63 64 77 65 96 66 61 67 62 68 76 70 97 71 64 72 48 73
REMARK SMILES IDX 49 74 57 75 50 76 52 77 58 78 51 79 53 80 54 81 55 82 56 83
REMARK SMILES IDX 80 84 81 85 89 86 82 87 84 88 90 89 83 90 85 91 86 92 87 93
REMARK SMILES IDX 88 94 65 95 66 96 74 97 67 98 69 99 75 100 68 101 70 102
REMARK SMILES IDX 71 103 72 104 73 105
REMARK H PARENT 95 58 63 69
REMARK Flexibility Score: inf
ROOT
ATOM      1  C   UNL A   1      43.153  20.198  26.104  1.00  0.00     0.188 C 
ENDROOT
BRANCH   1   2
ATOM      2  C   UNL A   1      41.993  19.193  26.132  1.00  0.00     0.188 C 
BRANCH   2   3
ATOM      3  O   UNL A   1      40.671  19.716  26.127  1.00  0.00    -0.376 OA
BRANCH   3   4
ATOM      4  C   UNL A   1      40.489  21.100  25.850  1.00  0.00     0.202 C 
BRANCH   4   5
ATOM      5  C   UNL A   1      39.274  21.759  26.503  1.00  0.00     0.261 C 
BRANCH   5   6
ATOM      6  O   UNL A   1      38.246  22.065  25.534  1.00  0.00    -0.460 OA
BRANCH   6   7
ATOM      7  C   UNL A   1      37.439  23.141  25.787  1.00  0.00     0.350 C 
ATOM      8  O   UNL A   1      37.855  24.184  26.281  1.00  0.00    -0.247 OA
BRANCH   7   9
ATOM      9  C   UNL A   1      35.948  22.869  25.447  1.00  0.00     0.209 C 
ATOM     10  N   UNL A   1      34.494  24.745  23.822  1.00  0.00    -0.353 N 
ATOM     11  C   UNL A   1      35.171  23.724  23.068  1.00  0.00     0.123 C 
ATOM     12  C   UNL A   1      35.064  25.228  25.059  1.00  0.00     0.123 C 
ATOM     13  C   UNL A   1      35.701  22.588  23.943  1.00  0.00     0.082 C 
ATOM     14  C   UNL A   1      35.108  24.041  26.019  1.00  0.00     0.082 C 
BRANCH  10  15
ATOM     15  C   UNL A   1      33.305  25.263  23.335  1.00  0.00     0.171 A 
ATOM     16  C   UNL A   1      32.084  24.520  23.276  1.00  0.00     0.171 A 
ATOM     17  N   UNL A   1      30.949  25.059  22.753  1.00  0.00    -0.234 NA
ATOM     18  C   UNL A   1      31.033  26.318  22.298  1.00  0.00     0.134 A 
ATOM     19  N   UNL A   1      33.346  26.550  22.895  1.00  0.00    -0.234 NA
ATOM     20  C   UNL A   1      32.202  27.044  22.369  1.00  0.00     0.134 A 
BRANCH  16  21
ATOM     21  N   UNL A   1      31.952  23.252  23.882  1.00  0.00    -0.360 N 
ATOM     22  C   UNL A   1      31.743  22.188  22.901  1.00  0.00     0.145 C 
ATOM     23  C   UNL A   1      30.968  23.326  24.959  1.00  0.00     0.145 C 
ENDBRANCH  16  21
ENDBRANCH  10  15
BRANCH   9  24
ATOM     24  O   UNL A   1      35.838  21.610  26.196  1.00  0.00    -0.475 OA
BRANCH  24  25
ATOM     25  C   UNL A   1      34.921  20.704  25.751  1.00  0.00     0.121 A 
ATOM     26  C   UNL A   1      33.555  20.930  25.870  1.00  0.00     0.047 A 
ATOM     27  C   UNL A   1      35.389  19.584  25.067  1.00  0.00     0.055 A 
ATOM     28  C   UNL A   1      32.646  19.992  25.384  1.00  0.00     0.012 A 
ATOM     29  C   UNL A   1      34.487  18.642  24.550  1.00  0.00    -0.015 A 
ATOM     30  C   UNL A   1      33.098  18.843  24.724  1.00  0.00    -0.018 A 
ATOM     31  C   UNL A   1      34.930  17.503  23.861  1.00  0.00     0.009 A 
ATOM     32  C   UNL A   1      32.192  17.901  24.221  1.00  0.00     0.009 A 
ATOM     33  C   UNL A   1      34.016  16.577  23.356  1.00  0.00     0.001 A 
ATOM     34  C   UNL A   1      32.649  16.774  23.540  1.00  0.00     0.001 A 
ENDBRANCH  24  25
ENDBRANCH   9  24
ENDBRANCH   7   9
ENDBRANCH   6   7
ENDBRANCH   5   6
ENDBRANCH   4   5
ENDBRANCH   3   4
ENDBRANCH   2   3
ENDBRANCH   1   2
BRANCH   1  35
ATOM     35  O   UNL A   1      43.386  20.948  24.921  1.00  0.00    -0.376 OA
BRANCH  35  36
ATOM     36  C   UNL A   1      44.413  21.931  25.010  1.00  0.00     0.202 C 
BRANCH  36  37
ATOM     37  C   UNL A   1      43.903  23.370  25.014  1.00  0.00     0.261 C 
BRANCH  37  38
ATOM     38  O   UNL A   1      43.193  23.660  26.235  1.00  0.00    -0.460 OA
BRANCH  38  39
ATOM     39  C   UNL A   1      42.314  24.678  26.126  1.00  0.00     0.338 C 
ATOM     40  O   UNL A   1      41.106  24.565  25.941  1.00  0.00    -0.246 OA
BRANCH  39  41
ATOM     41  C   UNL A   1      42.956  25.997  26.316  1.00  0.00     0.060 A 
ATOM     42  C   UNL A   1      43.916  26.197  27.309  1.00  0.00     0.016 A 
ATOM     43  C   UNL A   1      42.393  27.102  25.676  1.00  0.00     0.016 A 
ATOM     44  C   UNL A   1      44.185  27.487  27.771  1.00  0.00     0.010 A 
ATOM     45  C   UNL A   1      42.712  28.398  26.101  1.00  0.00     0.010 A 
ATOM     46  C   UNL A   1      43.530  28.600  27.225  1.00  0.00    -0.014 A 
BRANCH  46  47
ATOM     47  C   UNL A   1      43.511  29.909  27.954  1.00  0.00     0.031 A 
ATOM     48  C   UNL A   1      44.570  30.950  27.643  1.00  0.00     0.074 A 
ATOM     49  C   UNL A   1      42.507  30.265  28.778  1.00  0.00     0.049 A 
ATOM     50  N   UNL A   1      44.841  32.071  28.264  1.00  0.00    -0.248 NA
ATOM     51  C   UNL A   1      45.421  30.709  26.463  1.00  0.00     0.031 C 
ATOM     52  C   UNL A   1      41.325  29.459  29.076  1.00  0.00     0.029 A 
ATOM     53  N   UNL A   1      42.309  31.421  29.500  1.00  0.00    -0.354 N 
ATOM     54  C   UNL A   1      45.940  32.616  27.610  1.00  0.00     0.074 A 
ATOM     55  C   UNL A   1      46.270  31.724  26.520  1.00  0.00     0.031 C 
ATOM     56  C   UNL A   1      40.506  30.160  29.876  1.00  0.00     0.029 A 
ATOM     57  C   UNL A   1      41.153  31.415  30.246  1.00  0.00     0.049 A 
ATOM     58  H   UNL A   1      42.936  32.180  29.482  1.00  0.00     0.167 HD
ATOM     59  C   UNL A   1      46.617  33.758  27.880  1.00  0.00     0.034 A 
ATOM     60  C   UNL A   1      40.688  32.288  31.164  1.00  0.00     0.034 A 
ATOM     61  C   UNL A   1      46.255  34.700  28.903  1.00  0.00     0.049 A 
ATOM     62  C   UNL A   1      41.504  33.502  31.518  1.00  0.00     0.074 A 
ATOM     63  C   UNL A   1      46.919  35.853  29.284  1.00  0.00     0.029 A 
ATOM     64  N   UNL A   1      45.116  34.619  29.683  1.00  0.00    -0.354 N 
ATOM     65  N   UNL A   1      42.595  33.960  30.957  1.00  0.00    -0.248 NA
ATOM     66  C   UNL A   1      41.027  34.313  32.650  1.00  0.00     0.031 C 
ATOM     67  C   UNL A   1      46.180  36.470  30.299  1.00  0.00     0.029 A 
ATOM     68  C   UNL A   1      45.052  35.703  30.542  1.00  0.00     0.049 A 
ATOM     69  H   UNL A   1      44.448  33.897  29.635  1.00  0.00     0.167 HD
ATOM     70  C   UNL A   1      42.928  35.115  31.656  1.00  0.00     0.074 A 
ATOM     71  C   UNL A   1      41.904  35.309  32.661  1.00  0.00     0.031 C 
ATOM     72  C   UNL A   1      44.003  35.925  31.500  1.00  0.00     0.034 A 
BRANCH  59  73
ATOM     73  C   UNL A   1      47.839  34.058  27.056  1.00  0.00     0.023 A 
ATOM     74  C   UNL A   1      47.731  34.859  25.904  1.00  0.00     0.012 A 
ATOM     75  C   UNL A   1      49.104  33.600  27.470  1.00  0.00     0.148 A 
ATOM     76  C   UNL A   1      48.868  35.191  25.168  1.00  0.00     0.002 A 
ATOM     77  C   UNL A   1      50.236  33.963  26.751  1.00  0.00     0.091 A 
ATOM     78  F   UNL A   1      49.177  32.811  28.552  1.00  0.00    -0.205 F 
ATOM     79  C   UNL A   1      50.119  34.754  25.598  1.00  0.00     0.022 A 
BRANCH  77  80
ATOM     80  S   UNL A   1      51.891  33.501  27.277  1.00  0.00     0.127 S 
ATOM     81  O   UNL A   1      51.630  32.273  28.027  1.00  0.00    -0.237 OA
ATOM     82  O   UNL A   1      52.581  33.300  26.001  1.00  0.00    -0.237 OA
ATOM     83  O   UNL A   1      52.386  34.625  28.059  1.00  0.00    -0.744 OA
ENDBRANCH  77  80
ENDBRANCH  59  73
BRANCH  60  84
ATOM     84  C   UNL A   1      39.391  32.023  31.853  1.00  0.00     0.023 A 
ATOM     85  C   UNL A   1      39.382  31.363  33.096  1.00  0.00     0.012 A 
ATOM     86  C   UNL A   1      38.169  32.442  31.292  1.00  0.00     0.148 A 
ATOM     87  C   UNL A   1      38.178  31.119  33.761  1.00  0.00     0.002 A 
ATOM     88  C   UNL A   1      36.985  32.264  31.995  1.00  0.00     0.091 A 
ATOM     89  F   UNL A   1      38.185  33.019  30.082  1.00  0.00    -0.205 F 
ATOM     90  C   UNL A   1      36.982  31.586  33.221  1.00  0.00     0.022 A 
BRANCH  88  91
ATOM     91  S   UNL A   1      35.450  33.006  31.429  1.00  0.00     0.127 S 
ATOM     92  O   UNL A   1      35.665  34.417  31.734  1.00  0.00    -0.237 OA
ATOM     93  O   UNL A   1      35.450  32.677  30.003  1.00  0.00    -0.237 OA
ATOM     94  O   UNL A   1      34.405  32.333  32.190  1.00  0.00    -0.744 OA
ENDBRANCH  88  91
ENDBRANCH  60  84
BRANCH  72  95
ATOM     95  C   UNL A   1      44.133  37.108  32.423  1.00  0.00     0.023 A 
ATOM     96  C   UNL A   1      44.693  36.928  33.703  1.00  0.00     0.012 A 
ATOM     97  C   UNL A   1      43.772  38.403  32.000  1.00  0.00     0.148 A 
ATOM     98  C   UNL A   1      44.866  38.015  34.560  1.00  0.00     0.002 A 
ATOM     99  C   UNL A   1      43.985  39.488  32.846  1.00  0.00     0.091 A 
ATOM    100  F   UNL A   1      43.222  38.553  30.788  1.00  0.00    -0.205 F 
ATOM    101  C   UNL A   1      44.523  39.294  34.129  1.00  0.00     0.022 A 
BRANCH  99 102
ATOM    102  S   UNL A   1      43.649  41.176  32.333  1.00  0.00     0.127 S 
ATOM    103  O   UNL A   1      44.428  41.275  31.100  1.00  0.00    -0.237 OA
ATOM    104  O   UNL A   1      42.198  41.165  32.136  1.00  0.00    -0.237 OA
ATOM    105  O   UNL A   1      44.097  42.018  33.433  1.00  0.00    -0.744 OA
ENDBRANCH  99 102
ENDBRANCH  72  95
ENDBRANCH  46  47
ENDBRANCH  39  41
ENDBRANCH  38  39
ENDBRANCH  37  38
ENDBRANCH  36  37
ENDBRANCH  35  36
ENDBRANCH   1  35
TORSDOF 24
ENDMDL
