MODEL 1
REMARK VINA RESULT:      -9.8      0.000      0.000
REMARK SMILES COCCNS(=O)(=O)c1c[nH]c(C(=O)OCCOCCOCCOC(=O)c2ccc(-c3c4nc(c(-c5cccc(S(=O)(=O)[O-])c5F)c5ccc([nH]5)c(-c5cccc(S(=O)(=O)[O-])c5F)c5nc(c(-c6cccc(S(=O)(=O)[O-])c6F)c6ccc3[nH]6)C=C5)C=C4)cc2)c1
REMARK SMILES IDX 19 1 18 2 17 3 16 4 15 5 13 6 14 7 12 8 9 9 10 10 90 11
REMARK SMILES IDX 11 12 6 14 7 15 8 16 5 17 4 19 3 20 2 21 1 22 20 23 21 24
REMARK SMILES IDX 22 25 23 26 24 27 25 28 26 29 27 30 28 31 89 32 29 33 88 34
REMARK SMILES IDX 30 35 31 36 32 37 82 38 33 39 87 40 81 41 83 42 34 43 86 44
REMARK SMILES IDX 80 45 79 46 35 48 67 49 47 50 66 51 48 52 51 53 65 54 84 55
REMARK SMILES IDX 49 56 50 57 64 59 85 60 52 61 36 62 37 63 45 64 38 65 40 66
REMARK SMILES IDX 46 67 39 68 41 69 42 70 43 71 44 72 68 73 69 74 77 75 70 76
REMARK SMILES IDX 72 77 78 78 71 79 73 80 74 81 75 82 76 83 53 84 54 85 62 86
REMARK SMILES IDX 55 87 57 88 63 89 56 90 58 91 59 92 60 93 61 94
REMARK H PARENT 11 13 5 18 83 47 51 58
REMARK Flexibility Score: inf
ROOT
ATOM      1  C   UNL A   1      31.504  29.954  25.689  1.00  0.00     0.188 C 
ENDROOT
BRANCH   1   2
ATOM      2  O   UNL A   1      31.646  29.005  24.635  1.00  0.00    -0.376 OA
BRANCH   2   3
ATOM      3  C   UNL A   1      30.575  28.725  23.758  1.00  0.00     0.202 C 
BRANCH   3   4
ATOM      4  C   UNL A   1      30.705  27.413  22.973  1.00  0.00     0.261 C 
BRANCH   4   5
ATOM      5  O   UNL A   1      31.795  27.385  22.041  1.00  0.00    -0.459 OA
BRANCH   5   6
ATOM      6  C   UNL A   1      32.458  26.203  21.940  1.00  0.00     0.354 C 
ATOM      7  O   UNL A   1      33.342  25.938  21.134  1.00  0.00    -0.244 OA
BRANCH   6   8
ATOM      8  C   UNL A   1      32.019  25.295  22.976  1.00  0.00     0.126 A 
ATOM      9  C   UNL A   1      31.728  24.035  24.844  1.00  0.00     0.100 A 
ATOM     10  C   UNL A   1      30.787  23.654  23.909  1.00  0.00     0.104 A 
ATOM     11  C   UNL A   1      32.528  25.037  24.240  1.00  0.00     0.057 A 
ATOM     12  N   UNL A   1      30.961  24.429  22.795  1.00  0.00    -0.354 N 
ATOM     13  H   UNL A   1      30.410  24.377  21.980  1.00  0.00     0.166 HD
BRANCH   9  14
ATOM     14  S   UNL A   1      31.915  23.413  26.444  1.00  0.00     0.242 S 
ATOM     15  O   UNL A   1      30.739  23.836  27.165  1.00  0.00    -0.207 OA
ATOM     16  O   UNL A   1      33.252  23.784  26.845  1.00  0.00    -0.207 OA
BRANCH  14  17
ATOM     17  N   UNL A   1      31.911  21.722  26.368  1.00  0.00    -0.209 NA
ATOM     18  H   UNL A   1      32.377  21.373  27.207  1.00  0.00     0.141 HD
BRANCH  17  19
ATOM     19  C   UNL A   1      32.581  21.111  25.196  1.00  0.00     0.127 C 
BRANCH  19  20
ATOM     20  C   UNL A   1      32.927  19.643  25.464  1.00  0.00     0.176 C 
BRANCH  20  21
ATOM     21  O   UNL A   1      32.136  18.722  24.710  1.00  0.00    -0.383 OA
ATOM     22  C   UNL A   1      32.454  18.676  23.329  1.00  0.00     0.194 C 
ENDBRANCH  20  21
ENDBRANCH  19  20
ENDBRANCH  17  19
ENDBRANCH  14  17
ENDBRANCH   9  14
ENDBRANCH   6   8
ENDBRANCH   5   6
ENDBRANCH   4   5
ENDBRANCH   3   4
ENDBRANCH   2   3
ENDBRANCH   1   2
BRANCH   1  23
ATOM     23  C   UNL A   1      32.373  29.967  26.970  1.00  0.00     0.188 C 
BRANCH  23  24
ATOM     24  O   UNL A   1      33.708  30.434  26.835  1.00  0.00    -0.376 OA
BRANCH  24  25
ATOM     25  C   UNL A   1      34.052  31.573  27.617  1.00  0.00     0.202 C 
BRANCH  25  26
ATOM     26  C   UNL A   1      32.941  32.621  27.710  1.00  0.00     0.261 C 
BRANCH  26  27
ATOM     27  O   UNL A   1      33.378  33.964  27.517  1.00  0.00    -0.460 OA
BRANCH  27  28
ATOM     28  C   UNL A   1      33.251  34.750  28.603  1.00  0.00     0.338 C 
ATOM     29  O   UNL A   1      32.373  35.562  28.843  1.00  0.00    -0.246 OA
BRANCH  28  30
ATOM     30  C   UNL A   1      34.391  34.566  29.481  1.00  0.00     0.060 A 
ATOM     31  C   UNL A   1      35.664  34.681  28.914  1.00  0.00     0.016 A 
ATOM     32  C   UNL A   1      34.149  33.924  30.696  1.00  0.00     0.016 A 
ATOM     33  C   UNL A   1      36.700  33.992  29.502  1.00  0.00     0.010 A 
ATOM     34  C   UNL A   1      35.171  33.186  31.241  1.00  0.00     0.010 A 
ATOM     35  C   UNL A   1      36.423  33.190  30.616  1.00  0.00    -0.014 A 
BRANCH  35  36
ATOM     36  C   UNL A   1      37.501  32.368  31.168  1.00  0.00     0.031 A 
ATOM     37  C   UNL A   1      37.742  31.139  30.295  1.00  0.00     0.074 A 
ATOM     38  C   UNL A   1      38.036  32.812  32.348  1.00  0.00     0.049 A 
ATOM     39  N   UNL A   1      38.108  29.944  30.643  1.00  0.00    -0.248 NA
ATOM     40  C   UNL A   1      37.396  31.194  28.846  1.00  0.00     0.031 C 
ATOM     41  C   UNL A   1      37.654  34.075  33.026  1.00  0.00     0.029 A 
ATOM     42  N   UNL A   1      38.992  32.323  33.214  1.00  0.00    -0.354 N 
ATOM     43  C   UNL A   1      38.293  29.219  29.445  1.00  0.00     0.074 A 
ATOM     44  C   UNL A   1      37.658  29.963  28.406  1.00  0.00     0.031 C 
ATOM     45  C   UNL A   1      38.300  34.208  34.205  1.00  0.00     0.029 A 
ATOM     46  C   UNL A   1      39.191  33.079  34.398  1.00  0.00     0.049 A 
ATOM     47  H   UNL A   1      39.502  31.503  33.024  1.00  0.00     0.167 HD
ATOM     48  C   UNL A   1      39.143  28.158  29.353  1.00  0.00     0.034 A 
ATOM     49  C   UNL A   1      40.000  32.808  35.470  1.00  0.00     0.034 A 
ATOM     50  C   UNL A   1      39.780  27.958  30.612  1.00  0.00     0.049 A 
ATOM     51  C   UNL A   1      40.822  31.662  35.065  1.00  0.00     0.074 A 
ATOM     52  C   UNL A   1      39.344  27.465  31.813  1.00  0.00     0.029 A 
ATOM     53  N   UNL A   1      40.948  28.665  30.793  1.00  0.00    -0.354 N 
ATOM     54  N   UNL A   1      41.795  31.727  34.206  1.00  0.00    -0.248 NA
ATOM     55  C   UNL A   1      40.498  30.327  35.585  1.00  0.00     0.031 C 
ATOM     56  C   UNL A   1      40.066  28.215  32.761  1.00  0.00     0.029 A 
ATOM     57  C   UNL A   1      41.028  29.005  32.115  1.00  0.00     0.049 A 
ATOM     58  H   UNL A   1      41.607  28.885  30.095  1.00  0.00     0.167 HD
ATOM     59  C   UNL A   1      41.907  30.420  33.809  1.00  0.00     0.074 A 
ATOM     60  C   UNL A   1      41.385  29.617  34.893  1.00  0.00     0.031 C 
ATOM     61  C   UNL A   1      41.852  30.133  32.482  1.00  0.00     0.034 A 
BRANCH  48  62
ATOM     62  C   UNL A   1      39.724  27.401  28.188  1.00  0.00     0.023 A 
ATOM     63  C   UNL A   1      39.315  26.040  28.095  1.00  0.00     0.012 A 
ATOM     64  C   UNL A   1      40.813  27.802  27.398  1.00  0.00     0.148 A 
ATOM     65  C   UNL A   1      40.026  25.095  27.362  1.00  0.00     0.002 A 
ATOM     66  C   UNL A   1      41.487  26.861  26.615  1.00  0.00     0.091 A 
ATOM     67  F   UNL A   1      41.260  29.059  27.471  1.00  0.00    -0.205 F 
ATOM     68  C   UNL A   1      41.122  25.506  26.628  1.00  0.00     0.022 A 
BRANCH  66  69
ATOM     69  S   UNL A   1      42.860  27.303  25.544  1.00  0.00     0.127 S 
ATOM     70  O   UNL A   1      42.255  28.304  24.670  1.00  0.00    -0.237 OA
ATOM     71  O   UNL A   1      43.830  27.841  26.500  1.00  0.00    -0.237 OA
ATOM     72  O   UNL A   1      43.281  26.057  24.918  1.00  0.00    -0.744 OA
ENDBRANCH  66  69
ENDBRANCH  48  62
BRANCH  49  73
ATOM     73  C   UNL A   1      40.197  33.307  36.885  1.00  0.00     0.023 A 
ATOM     74  C   UNL A   1      41.120  34.291  37.262  1.00  0.00     0.012 A 
ATOM     75  C   UNL A   1      39.318  32.855  37.919  1.00  0.00     0.148 A 
ATOM     76  C   UNL A   1      41.100  34.856  38.554  1.00  0.00     0.002 A 
ATOM     77  C   UNL A   1      39.205  33.508  39.140  1.00  0.00     0.091 A 
ATOM     78  F   UNL A   1      38.590  31.748  37.740  1.00  0.00    -0.205 F 
ATOM     79  C   UNL A   1      40.112  34.505  39.474  1.00  0.00     0.022 A 
BRANCH  77  80
ATOM     80  S   UNL A   1      37.800  33.221  40.237  1.00  0.00     0.127 S 
ATOM     81  O   UNL A   1      38.221  32.034  40.979  1.00  0.00    -0.237 OA
ATOM     82  O   UNL A   1      37.785  34.459  41.015  1.00  0.00    -0.237 OA
ATOM     83  O   UNL A   1      36.637  33.035  39.379  1.00  0.00    -0.744 OA
ENDBRANCH  77  80
ENDBRANCH  49  73
BRANCH  61  84
ATOM     84  C   UNL A   1      42.357  31.261  31.576  1.00  0.00     0.023 A 
ATOM     85  C   UNL A   1      41.382  32.033  30.909  1.00  0.00     0.012 A 
ATOM     86  C   UNL A   1      43.710  31.512  31.245  1.00  0.00     0.148 A 
ATOM     87  C   UNL A   1      41.722  32.980  29.937  1.00  0.00     0.002 A 
ATOM     88  C   UNL A   1      44.053  32.454  30.264  1.00  0.00     0.091 A 
ATOM     89  F   UNL A   1      44.659  30.824  31.876  1.00  0.00    -0.205 F 
ATOM     90  C   UNL A   1      43.055  33.187  29.612  1.00  0.00     0.022 A 
BRANCH  88  91
ATOM     91  S   UNL A   1      45.742  32.781  29.723  1.00  0.00     0.127 S 
ATOM     92  O   UNL A   1      45.575  33.937  28.841  1.00  0.00    -0.237 OA
ATOM     93  O   UNL A   1      46.419  33.085  30.982  1.00  0.00    -0.237 OA
ATOM     94  O   UNL A   1      46.201  31.573  29.051  1.00  0.00    -0.744 OA
ENDBRANCH  88  91
ENDBRANCH  61  84
ENDBRANCH  35  36
ENDBRANCH  28  30
ENDBRANCH  27  28
ENDBRANCH  26  27
ENDBRANCH  25  26
ENDBRANCH  24  25
ENDBRANCH  23  24
ENDBRANCH   1  23
TORSDOF 25
ENDMDL
MODEL 2
REMARK VINA RESULT:      -9.4      4.395      6.507
REMARK SMILES COCCNS(=O)(=O)c1c[nH]c(C(=O)OCCOCCOCCOC(=O)c2ccc(-c3c4nc(c(-c5cccc(S(=O)(=O)[O-])c5F)c5ccc([nH]5)c(-c5cccc(S(=O)(=O)[O-])c5F)c5nc(c(-c6cccc(S(=O)(=O)[O-])c6F)c6ccc3[nH]6)C=C5)C=C4)cc2)c1
REMARK SMILES IDX 19 1 18 2 17 3 16 4 15 5 13 6 14 7 12 8 9 9 10 10 90 11
REMARK SMILES IDX 11 12 6 14 7 15 8 16 5 17 4 19 3 20 2 21 1 22 20 23 21 24
REMARK SMILES IDX 22 25 23 26 24 27 25 28 26 29 27 30 28 31 89 32 29 33 88 34
REMARK SMILES IDX 30 35 31 36 32 37 82 38 33 39 87 40 81 41 83 42 34 43 86 44
REMARK SMILES IDX 80 45 79 46 35 48 67 49 47 50 66 51 48 52 51 53 65 54 84 55
REMARK SMILES IDX 49 56 50 57 64 59 85 60 52 61 36 62 37 63 45 64 38 65 40 66
REMARK SMILES IDX 46 67 39 68 41 69 42 70 43 71 44 72 68 73 69 74 77 75 70 76
REMARK SMILES IDX 72 77 78 78 71 79 73 80 74 81 75 82 76 83 53 84 54 85 62 86
REMARK SMILES IDX 55 87 57 88 63 89 56 90 58 91 59 92 60 93 61 94
REMARK H PARENT 11 13 5 18 83 47 51 58
REMARK Flexibility Score: inf
ROOT
ATOM      1  C   UNL A   1      31.311  30.344  25.897  1.00  0.00     0.188 C 
ENDROOT
BRANCH   1   2
ATOM      2  O   UNL A   1      30.915  29.171  25.192  1.00  0.00    -0.376 OA
BRANCH   2   3
ATOM      3  C   UNL A   1      30.916  29.134  23.780  1.00  0.00     0.202 C 
BRANCH   3   4
ATOM      4  C   UNL A   1      30.481  27.798  23.165  1.00  0.00     0.261 C 
BRANCH   4   5
ATOM      5  O   UNL A   1      31.433  27.224  22.258  1.00  0.00    -0.459 OA
BRANCH   5   6
ATOM      6  C   UNL A   1      32.697  27.083  22.737  1.00  0.00     0.354 C 
ATOM      7  O   UNL A   1      33.701  27.627  22.293  1.00  0.00    -0.244 OA
BRANCH   6   8
ATOM      8  C   UNL A   1      32.695  26.236  23.909  1.00  0.00     0.126 A 
ATOM      9  C   UNL A   1      32.394  24.620  25.477  1.00  0.00     0.100 A 
ATOM     10  C   UNL A   1      33.111  25.653  26.046  1.00  0.00     0.104 A 
ATOM     11  C   UNL A   1      32.098  25.007  24.145  1.00  0.00     0.057 A 
ATOM     12  N   UNL A   1      33.299  26.613  25.089  1.00  0.00    -0.354 N 
ATOM     13  H   UNL A   1      33.796  27.453  25.224  1.00  0.00     0.166 HD
BRANCH   9  14
ATOM     14  S   UNL A   1      31.930  23.137  26.231  1.00  0.00     0.242 S 
ATOM     15  O   UNL A   1      30.717  22.728  25.567  1.00  0.00    -0.207 OA
ATOM     16  O   UNL A   1      31.993  23.395  27.652  1.00  0.00    -0.207 OA
BRANCH  14  17
ATOM     17  N   UNL A   1      33.124  21.978  25.921  1.00  0.00    -0.209 NA
ATOM     18  H   UNL A   1      32.667  21.066  25.877  1.00  0.00     0.141 HD
BRANCH  17  19
ATOM     19  C   UNL A   1      34.224  21.881  26.910  1.00  0.00     0.127 C 
BRANCH  19  20
ATOM     20  C   UNL A   1      35.481  22.595  26.402  1.00  0.00     0.176 C 
BRANCH  20  21
ATOM     21  O   UNL A   1      36.232  21.828  25.458  1.00  0.00    -0.383 OA
ATOM     22  C   UNL A   1      37.589  22.222  25.337  1.00  0.00     0.194 C 
ENDBRANCH  20  21
ENDBRANCH  19  20
ENDBRANCH  17  19
ENDBRANCH  14  17
ENDBRANCH   9  14
ENDBRANCH   6   8
ENDBRANCH   5   6
ENDBRANCH   4   5
ENDBRANCH   3   4
ENDBRANCH   2   3
ENDBRANCH   1   2
BRANCH   1  23
ATOM     23  C   UNL A   1      32.601  30.455  26.745  1.00  0.00     0.188 C 
BRANCH  23  24
ATOM     24  O   UNL A   1      33.545  29.402  26.618  1.00  0.00    -0.376 OA
BRANCH  24  25
ATOM     25  C   UNL A   1      34.691  29.487  27.460  1.00  0.00     0.202 C 
BRANCH  25  26
ATOM     26  C   UNL A   1      35.271  30.897  27.577  1.00  0.00     0.261 C 
BRANCH  26  27
ATOM     27  O   UNL A   1      36.605  30.948  28.077  1.00  0.00    -0.460 OA
BRANCH  27  28
ATOM     28  C   UNL A   1      36.770  30.357  29.277  1.00  0.00     0.338 C 
ATOM     29  O   UNL A   1      36.319  30.709  30.355  1.00  0.00    -0.246 OA
BRANCH  28  30
ATOM     30  C   UNL A   1      37.664  29.222  29.150  1.00  0.00     0.060 A 
ATOM     31  C   UNL A   1      37.986  28.524  30.318  1.00  0.00     0.016 A 
ATOM     32  C   UNL A   1      38.423  29.150  27.982  1.00  0.00     0.016 A 
ATOM     33  C   UNL A   1      39.192  27.862  30.365  1.00  0.00     0.010 A 
ATOM     34  C   UNL A   1      39.652  28.544  28.056  1.00  0.00     0.010 A 
ATOM     35  C   UNL A   1      40.044  27.945  29.258  1.00  0.00    -0.014 A 
BRANCH  35  36
ATOM     36  C   UNL A   1      41.374  27.339  29.356  1.00  0.00     0.031 A 
ATOM     37  C   UNL A   1      41.352  25.903  28.838  1.00  0.00     0.074 A 
ATOM     38  C   UNL A   1      42.341  28.127  29.921  1.00  0.00     0.049 A 
ATOM     39  N   UNL A   1      42.034  24.876  29.239  1.00  0.00    -0.248 NA
ATOM     40  C   UNL A   1      40.330  25.508  27.827  1.00  0.00     0.031 C 
ATOM     41  C   UNL A   1      42.141  29.535  30.346  1.00  0.00     0.029 A 
ATOM     42  N   UNL A   1      43.666  27.935  30.252  1.00  0.00    -0.354 N 
ATOM     43  C   UNL A   1      41.719  23.819  28.355  1.00  0.00     0.074 A 
ATOM     44  C   UNL A   1      40.540  24.204  27.651  1.00  0.00     0.031 C 
ATOM     45  C   UNL A   1      43.253  30.028  30.933  1.00  0.00     0.029 A 
ATOM     46  C   UNL A   1      44.296  29.019  30.916  1.00  0.00     0.049 A 
ATOM     47  H   UNL A   1      44.143  27.099  30.044  1.00  0.00     0.167 HD
ATOM     48  C   UNL A   1      42.574  22.787  28.111  1.00  0.00     0.034 A 
ATOM     49  C   UNL A   1      45.561  29.096  31.435  1.00  0.00     0.034 A 
ATOM     50  C   UNL A   1      43.775  22.988  28.853  1.00  0.00     0.049 A 
ATOM     51  C   UNL A   1      46.253  27.887  30.972  1.00  0.00     0.074 A 
ATOM     52  C   UNL A   1      44.078  22.884  30.184  1.00  0.00     0.029 A 
ATOM     53  N   UNL A   1      44.743  23.724  28.208  1.00  0.00    -0.354 N 
ATOM     54  N   UNL A   1      46.646  27.692  29.750  1.00  0.00    -0.248 NA
ATOM     55  C   UNL A   1      46.455  26.774  31.909  1.00  0.00     0.031 C 
ATOM     56  C   UNL A   1      45.039  23.894  30.384  1.00  0.00     0.029 A 
ATOM     57  C   UNL A   1      45.409  24.454  29.153  1.00  0.00     0.049 A 
ATOM     58  H   UNL A   1      44.923  23.724  27.240  1.00  0.00     0.167 HD
ATOM     59  C   UNL A   1      46.762  26.327  29.706  1.00  0.00     0.074 A 
ATOM     60  C   UNL A   1      46.988  25.892  31.067  1.00  0.00     0.031 C 
ATOM     61  C   UNL A   1      46.106  25.646  28.730  1.00  0.00     0.034 A 
BRANCH  48  62
ATOM     62  C   UNL A   1      42.619  21.713  27.056  1.00  0.00     0.023 A 
ATOM     63  C   UNL A   1      41.683  20.655  27.239  1.00  0.00     0.012 A 
ATOM     64  C   UNL A   1      43.649  21.509  26.124  1.00  0.00     0.148 A 
ATOM     65  C   UNL A   1      41.831  19.413  26.631  1.00  0.00     0.002 A 
ATOM     66  C   UNL A   1      43.758  20.279  25.468  1.00  0.00     0.091 A 
ATOM     67  F   UNL A   1      44.574  22.454  25.937  1.00  0.00    -0.205 F 
ATOM     68  C   UNL A   1      42.880  19.222  25.751  1.00  0.00     0.022 A 
BRANCH  66  69
ATOM     69  S   UNL A   1      45.019  19.955  24.230  1.00  0.00     0.127 S 
ATOM     70  O   UNL A   1      44.755  20.999  23.244  1.00  0.00    -0.237 OA
ATOM     71  O   UNL A   1      46.253  20.144  24.996  1.00  0.00    -0.237 OA
ATOM     72  O   UNL A   1      44.798  18.580  23.802  1.00  0.00    -0.744 OA
ENDBRANCH  66  69
ENDBRANCH  48  62
BRANCH  49  73
ATOM     73  C   UNL A   1      46.347  30.007  32.353  1.00  0.00     0.023 A 
ATOM     74  C   UNL A   1      47.640  30.478  32.094  1.00  0.00     0.012 A 
ATOM     75  C   UNL A   1      45.716  30.542  33.521  1.00  0.00     0.148 A 
ATOM     76  C   UNL A   1      48.223  31.488  32.886  1.00  0.00     0.002 A 
ATOM     77  C   UNL A   1      46.230  31.632  34.212  1.00  0.00     0.091 A 
ATOM     78  F   UNL A   1      44.607  29.972  34.001  1.00  0.00    -0.205 F 
ATOM     79  C   UNL A   1      47.501  32.102  33.910  1.00  0.00     0.022 A 
BRANCH  77  80
ATOM     80  S   UNL A   1      45.219  32.572  35.375  1.00  0.00     0.127 S 
ATOM     81  O   UNL A   1      43.986  32.782  34.620  1.00  0.00    -0.237 OA
ATOM     82  O   UNL A   1      45.107  31.629  36.488  1.00  0.00    -0.237 OA
ATOM     83  O   UNL A   1      45.967  33.783  35.687  1.00  0.00    -0.744 OA
ENDBRANCH  77  80
ENDBRANCH  49  73
BRANCH  61  84
ATOM     84  C   UNL A   1      45.902  26.445  27.439  1.00  0.00     0.023 A 
ATOM     85  C   UNL A   1      44.596  26.913  27.174  1.00  0.00     0.012 A 
ATOM     86  C   UNL A   1      46.870  26.642  26.425  1.00  0.00     0.148 A 
ATOM     87  C   UNL A   1      44.255  27.512  25.957  1.00  0.00     0.002 A 
ATOM     88  C   UNL A   1      46.527  27.232  25.201  1.00  0.00     0.091 A 
ATOM     89  F   UNL A   1      48.119  26.240  26.652  1.00  0.00    -0.205 F 
ATOM     90  C   UNL A   1      45.217  27.667  24.970  1.00  0.00     0.022 A 
BRANCH  88  91
ATOM     91  S   UNL A   1      47.676  27.449  23.826  1.00  0.00     0.127 S 
ATOM     92  O   UNL A   1      46.917  28.302  22.910  1.00  0.00    -0.237 OA
ATOM     93  O   UNL A   1      48.805  28.120  24.467  1.00  0.00    -0.237 OA
ATOM     94  O   UNL A   1      47.959  26.116  23.312  1.00  0.00    -0.744 OA
ENDBRANCH  88  91
ENDBRANCH  61  84
ENDBRANCH  35  36
ENDBRANCH  28  30
ENDBRANCH  27  28
ENDBRANCH  26  27
ENDBRANCH  25  26
ENDBRANCH  24  25
ENDBRANCH  23  24
ENDBRANCH   1  23
TORSDOF 25
ENDMDL
MODEL 3
REMARK VINA RESULT:      -9.3      2.009      2.363
REMARK SMILES COCCNS(=O)(=O)c1c[nH]c(C(=O)OCCOCCOCCOC(=O)c2ccc(-c3c4nc(c(-c5cccc(S(=O)(=O)[O-])c5F)c5ccc([nH]5)c(-c5cccc(S(=O)(=O)[O-])c5F)c5nc(c(-c6cccc(S(=O)(=O)[O-])c6F)c6ccc3[nH]6)C=C5)C=C4)cc2)c1
REMARK SMILES IDX 19 1 18 2 17 3 16 4 15 5 13 6 14 7 12 8 9 9 10 10 90 11
REMARK SMILES IDX 11 12 6 14 7 15 8 16 5 17 4 19 3 20 2 21 1 22 20 23 21 24
REMARK SMILES IDX 22 25 23 26 24 27 25 28 26 29 27 30 28 31 89 32 29 33 88 34
REMARK SMILES IDX 30 35 31 36 32 37 82 38 33 39 87 40 81 41 83 42 34 43 86 44
REMARK SMILES IDX 80 45 79 46 35 48 67 49 47 50 66 51 48 52 51 53 65 54 84 55
REMARK SMILES IDX 49 56 50 57 64 59 85 60 52 61 36 62 37 63 45 64 38 65 40 66
REMARK SMILES IDX 46 67 39 68 41 69 42 70 43 71 44 72 68 73 69 74 77 75 70 76
REMARK SMILES IDX 72 77 78 78 71 79 73 80 74 81 75 82 76 83 53 84 54 85 62 86
REMARK SMILES IDX 55 87 57 88 63 89 56 90 58 91 59 92 60 93 61 94
REMARK H PARENT 11 13 5 18 83 47 51 58
REMARK Flexibility Score: inf
ROOT
ATOM      1  C   UNL A   1      31.589  29.167  25.476  1.00  0.00     0.188 C 
ENDROOT
BRANCH   1   2
ATOM      2  O   UNL A   1      31.702  28.143  24.491  1.00  0.00    -0.376 OA
BRANCH   2   3
ATOM      3  C   UNL A   1      30.640  27.867  23.602  1.00  0.00     0.202 C 
BRANCH   3   4
ATOM      4  C   UNL A   1      31.019  27.019  22.381  1.00  0.00     0.261 C 
BRANCH   4   5
ATOM      5  O   UNL A   1      32.427  26.787  22.234  1.00  0.00    -0.459 OA
BRANCH   5   6
ATOM      6  C   UNL A   1      32.775  25.695  21.503  1.00  0.00     0.354 C 
ATOM      7  O   UNL A   1      33.187  25.701  20.350  1.00  0.00    -0.244 OA
BRANCH   6   8
ATOM      8  C   UNL A   1      32.653  24.498  22.305  1.00  0.00     0.126 A 
ATOM      9  C   UNL A   1      32.531  22.929  23.943  1.00  0.00     0.100 A 
ATOM     10  C   UNL A   1      32.500  22.288  22.721  1.00  0.00     0.104 A 
ATOM     11  C   UNL A   1      32.670  24.315  23.679  1.00  0.00     0.057 A 
ATOM     12  N   UNL A   1      32.558  23.243  21.742  1.00  0.00    -0.354 N 
ATOM     13  H   UNL A   1      32.536  23.061  20.775  1.00  0.00     0.166 HD
BRANCH   9  14
ATOM     14  S   UNL A   1      32.432  22.196  25.503  1.00  0.00     0.242 S 
ATOM     15  O   UNL A   1      31.643  21.002  25.322  1.00  0.00    -0.207 OA
ATOM     16  O   UNL A   1      32.043  23.259  26.402  1.00  0.00    -0.207 OA
BRANCH  14  17
ATOM     17  N   UNL A   1      33.989  21.737  25.983  1.00  0.00    -0.209 NA
ATOM     18  H   UNL A   1      34.158  22.132  26.909  1.00  0.00     0.141 HD
BRANCH  17  19
ATOM     19  C   UNL A   1      35.104  22.160  25.103  1.00  0.00     0.127 C 
BRANCH  19  20
ATOM     20  C   UNL A   1      36.392  21.405  25.447  1.00  0.00     0.176 C 
BRANCH  20  21
ATOM     21  O   UNL A   1      37.505  22.262  25.709  1.00  0.00    -0.383 OA
ATOM     22  C   UNL A   1      37.270  23.628  25.408  1.00  0.00     0.194 C 
ENDBRANCH  20  21
ENDBRANCH  19  20
ENDBRANCH  17  19
ENDBRANCH  14  17
ENDBRANCH   9  14
ENDBRANCH   6   8
ENDBRANCH   5   6
ENDBRANCH   4   5
ENDBRANCH   3   4
ENDBRANCH   2   3
ENDBRANCH   1   2
BRANCH   1  23
ATOM     23  C   UNL A   1      32.267  29.116  26.866  1.00  0.00     0.188 C 
BRANCH  23  24
ATOM     24  O   UNL A   1      33.677  29.283  26.898  1.00  0.00    -0.376 OA
BRANCH  24  25
ATOM     25  C   UNL A   1      34.147  30.517  27.430  1.00  0.00     0.202 C 
BRANCH  25  26
ATOM     26  C   UNL A   1      33.116  31.647  27.379  1.00  0.00     0.261 C 
BRANCH  26  27
ATOM     27  O   UNL A   1      33.670  32.942  27.164  1.00  0.00    -0.460 OA
BRANCH  27  28
ATOM     28  C   UNL A   1      33.374  33.838  28.126  1.00  0.00     0.338 C 
ATOM     29  O   UNL A   1      32.404  34.576  28.191  1.00  0.00    -0.246 OA
BRANCH  28  30
ATOM     30  C   UNL A   1      34.445  33.886  29.103  1.00  0.00     0.060 A 
ATOM     31  C   UNL A   1      35.706  34.291  28.654  1.00  0.00     0.016 A 
ATOM     32  C   UNL A   1      34.246  33.174  30.286  1.00  0.00     0.016 A 
ATOM     33  C   UNL A   1      36.813  33.831  29.330  1.00  0.00     0.010 A 
ATOM     34  C   UNL A   1      35.354  32.665  30.917  1.00  0.00     0.010 A 
ATOM     35  C   UNL A   1      36.623  32.959  30.409  1.00  0.00    -0.014 A 
BRANCH  35  36
ATOM     36  C   UNL A   1      37.804  32.379  31.051  1.00  0.00     0.031 A 
ATOM     37  C   UNL A   1      38.240  31.106  30.330  1.00  0.00     0.074 A 
ATOM     38  C   UNL A   1      38.250  33.034  32.168  1.00  0.00     0.049 A 
ATOM     39  N   UNL A   1      38.774  30.029  30.817  1.00  0.00    -0.248 NA
ATOM     40  C   UNL A   1      37.910  30.937  28.886  1.00  0.00     0.031 C 
ATOM     41  C   UNL A   1      37.673  34.297  32.693  1.00  0.00     0.029 A 
ATOM     42  N   UNL A   1      39.255  32.800  33.084  1.00  0.00    -0.354 N 
ATOM     43  C   UNL A   1      39.084  29.204  29.713  1.00  0.00     0.074 A 
ATOM     44  C   UNL A   1      38.360  29.716  28.595  1.00  0.00     0.031 C 
ATOM     45  C   UNL A   1      38.274  34.663  33.846  1.00  0.00     0.029 A 
ATOM     46  C   UNL A   1      39.321  33.712  34.169  1.00  0.00     0.049 A 
ATOM     47  H   UNL A   1      39.884  32.049  32.991  1.00  0.00     0.167 HD
ATOM     48  C   UNL A   1      40.084  28.279  29.744  1.00  0.00     0.034 A 
ATOM     49  C   UNL A   1      40.145  33.693  35.263  1.00  0.00     0.034 A 
ATOM     50  C   UNL A   1      40.725  28.327  31.017  1.00  0.00     0.049 A 
ATOM     51  C   UNL A   1      41.135  32.644  34.994  1.00  0.00     0.074 A 
ATOM     52  C   UNL A   1      40.349  27.920  32.269  1.00  0.00     0.029 A 
ATOM     53  N   UNL A   1      41.771  29.217  31.109  1.00  0.00    -0.354 N 
ATOM     54  N   UNL A   1      42.100  32.753  34.131  1.00  0.00    -0.248 NA
ATOM     55  C   UNL A   1      41.007  31.347  35.671  1.00  0.00     0.031 C 
ATOM     56  C   UNL A   1      40.937  28.876  33.118  1.00  0.00     0.029 A 
ATOM     57  C   UNL A   1      41.780  29.719  32.381  1.00  0.00     0.049 A 
ATOM     58  H   UNL A   1      42.400  29.450  30.387  1.00  0.00     0.167 HD
ATOM     59  C   UNL A   1      42.412  31.440  33.892  1.00  0.00     0.074 A 
ATOM     60  C   UNL A   1      42.000  30.702  35.065  1.00  0.00     0.031 C 
ATOM     61  C   UNL A   1      42.420  30.994  32.608  1.00  0.00     0.034 A 
BRANCH  48  62
ATOM     62  C   UNL A   1      40.789  27.485  28.676  1.00  0.00     0.023 A 
ATOM     63  C   UNL A   1      40.912  26.093  28.948  1.00  0.00     0.012 A 
ATOM     64  C   UNL A   1      41.566  28.010  27.631  1.00  0.00     0.148 A 
ATOM     65  C   UNL A   1      41.849  25.287  28.309  1.00  0.00     0.002 A 
ATOM     66  C   UNL A   1      42.462  27.182  26.949  1.00  0.00     0.091 A 
ATOM     67  F   UNL A   1      41.515  29.316  27.354  1.00  0.00    -0.205 F 
ATOM     68  C   UNL A   1      42.634  25.838  27.314  1.00  0.00     0.022 A 
BRANCH  66  69
ATOM     69  S   UNL A   1      43.457  27.764  25.572  1.00  0.00     0.127 S 
ATOM     70  O   UNL A   1      42.439  28.173  24.610  1.00  0.00    -0.237 OA
ATOM     71  O   UNL A   1      44.196  28.874  26.180  1.00  0.00    -0.237 OA
ATOM     72  O   UNL A   1      44.298  26.635  25.196  1.00  0.00    -0.744 OA
ENDBRANCH  66  69
ENDBRANCH  48  62
BRANCH  49  73
ATOM     73  C   UNL A   1      40.244  34.380  36.608  1.00  0.00     0.023 A 
ATOM     74  C   UNL A   1      39.360  34.176  37.675  1.00  0.00     0.012 A 
ATOM     75  C   UNL A   1      41.371  35.215  36.890  1.00  0.00     0.148 A 
ATOM     76  C   UNL A   1      39.636  34.685  38.961  1.00  0.00     0.002 A 
ATOM     77  C   UNL A   1      41.714  35.594  38.182  1.00  0.00     0.091 A 
ATOM     78  F   UNL A   1      42.122  35.684  35.888  1.00  0.00    -0.205 F 
ATOM     79  C   UNL A   1      40.835  35.346  39.228  1.00  0.00     0.022 A 
BRANCH  77  80
ATOM     80  S   UNL A   1      43.353  36.242  38.571  1.00  0.00     0.127 S 
ATOM     81  O   UNL A   1      43.309  37.578  37.982  1.00  0.00    -0.237 OA
ATOM     82  O   UNL A   1      43.335  36.213  40.034  1.00  0.00    -0.237 OA
ATOM     83  O   UNL A   1      44.313  35.329  37.964  1.00  0.00    -0.744 OA
ENDBRANCH  77  80
ENDBRANCH  49  73
BRANCH  61  84
ATOM     84  C   UNL A   1      42.765  32.070  31.574  1.00  0.00     0.023 A 
ATOM     85  C   UNL A   1      41.688  32.644  30.863  1.00  0.00     0.012 A 
ATOM     86  C   UNL A   1      44.069  32.444  31.172  1.00  0.00     0.148 A 
ATOM     87  C   UNL A   1      41.890  33.514  29.787  1.00  0.00     0.002 A 
ATOM     88  C   UNL A   1      44.274  33.308  30.088  1.00  0.00     0.091 A 
ATOM     89  F   UNL A   1      45.108  31.945  31.839  1.00  0.00    -0.205 F 
ATOM     90  C   UNL A   1      43.181  33.843  29.396  1.00  0.00     0.022 A 
BRANCH  88  91
ATOM     91  S   UNL A   1      45.899  33.775  29.459  1.00  0.00     0.127 S 
ATOM     92  O   UNL A   1      46.526  34.395  30.627  1.00  0.00    -0.237 OA
ATOM     93  O   UNL A   1      46.473  32.483  29.090  1.00  0.00    -0.237 OA
ATOM     94  O   UNL A   1      45.664  34.687  28.348  1.00  0.00    -0.744 OA
ENDBRANCH  88  91
ENDBRANCH  61  84
ENDBRANCH  35  36
ENDBRANCH  28  30
ENDBRANCH  27  28
ENDBRANCH  26  27
ENDBRANCH  25  26
ENDBRANCH  24  25
ENDBRANCH  23  24
ENDBRANCH   1  23
TORSDOF 25
ENDMDL
