MODEL 1
REMARK VINA RESULT:      -8.3      0.000      0.000
REMARK SMILES CC(C)(C)c1cc2c(cc1Cl)C=C(C(=O)OCCOCCOCCOC(=O)c1ccc(-c3c4nc(c(-c5cccc(S(=O)(=O)[O-])c5F)c5ccc([nH]5)c(-c5cccc(S(=O)(=O)[O-])c5F)c5nc(c(-c6cccc(S(=O)(=O)[O-])c6F)c6ccc3[nH]6)C=C5)C=C4)cc1)[C@@H](C(F)(F)F)O2
REMARK SMILES IDX 21 1 20 2 19 3 18 4 17 5 16 6 14 7 15 8 13 9 5 10 6 11 10 12
REMARK SMILES IDX 7 13 9 14 11 15 8 16 96 17 12 18 91 19 2 20 1 21 3 22 4 23
REMARK SMILES IDX 92 24 93 25 94 26 95 27 22 28 23 29 24 30 25 31 26 32 27 33
REMARK SMILES IDX 28 34 29 35 90 36 30 37 89 38 31 39 32 40 33 41 83 42 34 43
REMARK SMILES IDX 88 44 82 45 84 46 35 47 87 48 81 49 80 50 36 52 68 53 48 54
REMARK SMILES IDX 67 55 49 56 52 57 66 58 85 59 50 60 51 61 65 63 86 64 53 65
REMARK SMILES IDX 37 66 38 67 46 68 39 69 41 70 47 71 40 72 42 73 43 74 44 75
REMARK SMILES IDX 45 76 69 77 70 78 78 79 71 80 73 81 79 82 72 83 74 84 75 85
REMARK SMILES IDX 76 86 77 87 54 88 55 89 63 90 56 91 58 92 64 93 57 94 59 95
REMARK SMILES IDX 60 96 61 97 62 98
REMARK H PARENT 84 51 52 62
REMARK Flexibility Score: inf
ROOT
ATOM      1  C   UNL A   1      41.760  19.621  26.477  1.00  0.00     0.188 C 
ENDROOT
BRANCH   1   2
ATOM      2  C   UNL A   1      41.424  20.911  27.258  1.00  0.00     0.188 C 
BRANCH   2   3
ATOM      3  O   UNL A   1      40.188  21.476  26.872  1.00  0.00    -0.376 OA
BRANCH   3   4
ATOM      4  C   UNL A   1      40.130  22.856  26.565  1.00  0.00     0.202 C 
BRANCH   4   5
ATOM      5  C   UNL A   1      39.618  23.885  27.589  1.00  0.00     0.261 C 
BRANCH   5   6
ATOM      6  O   UNL A   1      40.521  24.938  27.950  1.00  0.00    -0.460 OA
BRANCH   6   7
ATOM      7  C   UNL A   1      40.528  26.034  27.161  1.00  0.00     0.338 C 
ATOM      8  O   UNL A   1      40.401  26.055  25.948  1.00  0.00    -0.246 OA
BRANCH   7   9
ATOM      9  C   UNL A   1      40.600  27.236  28.019  1.00  0.00     0.087 C 
ATOM     10  C   UNL A   1      39.621  31.001  31.264  1.00  0.00    -0.020 A 
ATOM     11  C   UNL A   1      40.630  30.718  30.308  1.00  0.00     0.053 A 
ATOM     12  C   UNL A   1      38.701  29.956  31.513  1.00  0.00     0.045 A 
ATOM     13  C   UNL A   1      40.679  29.511  29.596  1.00  0.00     0.128 A 
ATOM     14  C   UNL A   1      38.771  28.737  30.815  1.00  0.00     0.032 A 
ATOM     15  Cl  UNL A   1      37.368  30.065  32.607  1.00  0.00    -0.084 Cl
ATOM     16  C   UNL A   1      39.731  28.528  29.829  1.00  0.00     0.019 A 
ATOM     17  O   UNL A   1      41.677  29.402  28.670  1.00  0.00    -0.475 OA
ATOM     18  C   UNL A   1      39.699  27.333  29.003  1.00  0.00     0.027 C 
ATOM     19  C   UNL A   1      41.680  28.259  27.769  1.00  0.00     0.316 C 
BRANCH  10  20
ATOM     20  C   UNL A   1      39.509  32.435  31.850  1.00  0.00    -0.012 C 
ATOM     21  C   UNL A   1      38.304  33.237  31.284  1.00  0.00     0.016 C 
ATOM     22  C   UNL A   1      40.739  33.337  31.597  1.00  0.00     0.016 C 
ATOM     23  C   UNL A   1      39.281  32.296  33.371  1.00  0.00     0.016 C 
ENDBRANCH  10  20
BRANCH  19  24
ATOM     24  C   UNL A   1      41.667  28.781  26.325  1.00  0.00     0.430 C 
ATOM     25  F   UNL A   1      42.233  27.891  25.474  1.00  0.00    -0.167 F 
ATOM     26  F   UNL A   1      40.406  28.989  25.876  1.00  0.00    -0.167 F 
ATOM     27  F   UNL A   1      42.339  29.947  26.195  1.00  0.00    -0.167 F 
ENDBRANCH  19  24
ENDBRANCH   7   9
ENDBRANCH   6   7
ENDBRANCH   5   6
ENDBRANCH   4   5
ENDBRANCH   3   4
ENDBRANCH   2   3
ENDBRANCH   1   2
BRANCH   1  28
ATOM     28  O   UNL A   1      42.608  19.688  25.335  1.00  0.00    -0.376 OA
BRANCH  28  29
ATOM     29  C   UNL A   1      44.016  19.559  25.505  1.00  0.00     0.202 C 
BRANCH  29  30
ATOM     30  C   UNL A   1      44.954  19.869  24.328  1.00  0.00     0.261 C 
BRANCH  30  31
ATOM     31  O   UNL A   1      45.607  21.146  24.395  1.00  0.00    -0.460 OA
BRANCH  31  32
ATOM     32  C   UNL A   1      44.924  22.179  23.837  1.00  0.00     0.338 C 
ATOM     33  O   UNL A   1      44.259  22.154  22.815  1.00  0.00    -0.246 OA
BRANCH  32  34
ATOM     34  C   UNL A   1      44.933  23.324  24.772  1.00  0.00     0.060 A 
ATOM     35  C   UNL A   1      43.742  23.907  25.208  1.00  0.00     0.016 A 
ATOM     36  C   UNL A   1      46.169  23.810  25.224  1.00  0.00     0.016 A 
ATOM     37  C   UNL A   1      43.792  24.964  26.121  1.00  0.00     0.010 A 
ATOM     38  C   UNL A   1      46.216  24.875  26.125  1.00  0.00     0.010 A 
ATOM     39  C   UNL A   1      45.026  25.446  26.596  1.00  0.00    -0.014 A 
BRANCH  39  40
ATOM     40  C   UNL A   1      45.052  26.418  27.715  1.00  0.00     0.031 A 
ATOM     41  C   UNL A   1      45.156  27.895  27.490  1.00  0.00     0.074 A 
ATOM     42  C   UNL A   1      44.985  25.932  28.970  1.00  0.00     0.049 A 
ATOM     43  N   UNL A   1      45.046  28.862  28.364  1.00  0.00    -0.248 NA
ATOM     44  C   UNL A   1      45.421  28.350  26.117  1.00  0.00     0.031 C 
ATOM     45  C   UNL A   1      44.956  24.509  29.316  1.00  0.00     0.029 A 
ATOM     46  N   UNL A   1      44.926  26.572  30.181  1.00  0.00    -0.354 N 
ATOM     47  C   UNL A   1      45.225  30.041  27.655  1.00  0.00     0.074 A 
ATOM     48  C   UNL A   1      45.473  29.669  26.278  1.00  0.00     0.031 C 
ATOM     49  C   UNL A   1      44.865  24.385  30.648  1.00  0.00     0.029 A 
ATOM     50  C   UNL A   1      44.830  25.715  31.249  1.00  0.00     0.049 A 
ATOM     51  H   UNL A   1      44.951  27.553  30.274  1.00  0.00     0.167 HD
ATOM     52  C   UNL A   1      45.157  31.314  28.112  1.00  0.00     0.034 A 
ATOM     53  C   UNL A   1      44.704  25.966  32.567  1.00  0.00     0.034 A 
ATOM     54  C   UNL A   1      44.894  31.676  29.481  1.00  0.00     0.049 A 
ATOM     55  C   UNL A   1      44.604  27.386  33.041  1.00  0.00     0.074 A 
ATOM     56  C   UNL A   1      44.730  32.944  30.015  1.00  0.00     0.029 A 
ATOM     57  N   UNL A   1      44.772  30.782  30.531  1.00  0.00    -0.354 N 
ATOM     58  N   UNL A   1      44.602  28.488  32.333  1.00  0.00    -0.248 NA
ATOM     59  C   UNL A   1      44.453  27.599  34.489  1.00  0.00     0.031 C 
ATOM     60  C   UNL A   1      44.521  32.815  31.391  1.00  0.00     0.029 A 
ATOM     61  C   UNL A   1      44.545  31.468  31.713  1.00  0.00     0.049 A 
ATOM     62  H   UNL A   1      44.837  29.803  30.451  1.00  0.00     0.167 HD
ATOM     63  C   UNL A   1      44.434  29.525  33.243  1.00  0.00     0.074 A 
ATOM     64  C   UNL A   1      44.319  28.918  34.554  1.00  0.00     0.031 C 
ATOM     65  C   UNL A   1      44.392  30.857  33.008  1.00  0.00     0.034 A 
BRANCH  52  66
ATOM     66  C   UNL A   1      45.290  32.435  27.118  1.00  0.00     0.023 A 
ATOM     67  C   UNL A   1      44.152  32.832  26.389  1.00  0.00     0.012 A 
ATOM     68  C   UNL A   1      46.483  33.177  27.004  1.00  0.00     0.148 A 
ATOM     69  C   UNL A   1      44.196  33.947  25.555  1.00  0.00     0.002 A 
ATOM     70  C   UNL A   1      46.512  34.303  26.190  1.00  0.00     0.091 A 
ATOM     71  F   UNL A   1      47.553  32.774  27.702  1.00  0.00    -0.205 F 
ATOM     72  C   UNL A   1      45.371  34.688  25.464  1.00  0.00     0.022 A 
BRANCH  70  73
ATOM     73  S   UNL A   1      47.956  35.362  26.041  1.00  0.00     0.127 S 
ATOM     74  O   UNL A   1      47.345  36.645  25.691  1.00  0.00    -0.237 OA
ATOM     75  O   UNL A   1      48.519  35.303  27.390  1.00  0.00    -0.237 OA
ATOM     76  O   UNL A   1      48.787  34.769  25.004  1.00  0.00    -0.744 OA
ENDBRANCH  70  73
ENDBRANCH  52  66
BRANCH  53  77
ATOM     77  C   UNL A   1      44.566  24.824  33.508  1.00  0.00     0.023 A 
ATOM     78  C   UNL A   1      43.282  24.437  33.934  1.00  0.00     0.012 A 
ATOM     79  C   UNL A   1      45.687  24.071  33.905  1.00  0.00     0.148 A 
ATOM     80  C   UNL A   1      43.115  23.320  34.751  1.00  0.00     0.002 A 
ATOM     81  C   UNL A   1      45.510  22.936  34.687  1.00  0.00     0.091 A 
ATOM     82  F   UNL A   1      46.896  24.463  33.480  1.00  0.00    -0.205 F 
ATOM     83  C   UNL A   1      44.226  22.564  35.118  1.00  0.00     0.022 A 
BRANCH  81  84
ATOM     84  S   UNL A   1      46.863  21.840  35.127  1.00  0.00     0.127 S 
ATOM     85  O   UNL A   1      46.713  21.750  36.577  1.00  0.00    -0.237 OA
ATOM     86  O   UNL A   1      46.511  20.624  34.393  1.00  0.00    -0.237 OA
ATOM     87  O   UNL A   1      48.076  22.500  34.663  1.00  0.00    -0.744 OA
ENDBRANCH  81  84
ENDBRANCH  53  77
BRANCH  65  88
ATOM     88  C   UNL A   1      44.218  31.778  34.185  1.00  0.00     0.023 A 
ATOM     89  C   UNL A   1      42.919  32.158  34.573  1.00  0.00     0.012 A 
ATOM     90  C   UNL A   1      45.321  32.159  34.974  1.00  0.00     0.148 A 
ATOM     91  C   UNL A   1      42.719  32.911  35.729  1.00  0.00     0.002 A 
ATOM     92  C   UNL A   1      45.111  32.882  36.143  1.00  0.00     0.091 A 
ATOM     93  F   UNL A   1      46.546  31.790  34.577  1.00  0.00    -0.205 F 
ATOM     94  C   UNL A   1      43.812  33.262  36.519  1.00  0.00     0.022 A 
BRANCH  92  95
ATOM     95  S   UNL A   1      46.442  33.319  37.266  1.00  0.00     0.127 S 
ATOM     96  O   UNL A   1      45.915  34.528  37.897  1.00  0.00    -0.237 OA
ATOM     97  O   UNL A   1      46.504  32.150  38.143  1.00  0.00    -0.237 OA
ATOM     98  O   UNL A   1      47.623  33.522  36.437  1.00  0.00    -0.744 OA
ENDBRANCH  92  95
ENDBRANCH  65  88
ENDBRANCH  39  40
ENDBRANCH  32  34
ENDBRANCH  31  32
ENDBRANCH  30  31
ENDBRANCH  29  30
ENDBRANCH  28  29
ENDBRANCH   1  28
TORSDOF 22
ENDMDL
MODEL 2
REMARK VINA RESULT:      -8.1      3.738     11.370
REMARK SMILES CC(C)(C)c1cc2c(cc1Cl)C=C(C(=O)OCCOCCOCCOC(=O)c1ccc(-c3c4nc(c(-c5cccc(S(=O)(=O)[O-])c5F)c5ccc([nH]5)c(-c5cccc(S(=O)(=O)[O-])c5F)c5nc(c(-c6cccc(S(=O)(=O)[O-])c6F)c6ccc3[nH]6)C=C5)C=C4)cc1)[C@@H](C(F)(F)F)O2
REMARK SMILES IDX 21 1 20 2 19 3 18 4 17 5 16 6 14 7 15 8 13 9 5 10 6 11 10 12
REMARK SMILES IDX 7 13 9 14 11 15 8 16 96 17 12 18 91 19 2 20 1 21 3 22 4 23
REMARK SMILES IDX 92 24 93 25 94 26 95 27 22 28 23 29 24 30 25 31 26 32 27 33
REMARK SMILES IDX 28 34 29 35 90 36 30 37 89 38 31 39 32 40 33 41 83 42 34 43
REMARK SMILES IDX 88 44 82 45 84 46 35 47 87 48 81 49 80 50 36 52 68 53 48 54
REMARK SMILES IDX 67 55 49 56 52 57 66 58 85 59 50 60 51 61 65 63 86 64 53 65
REMARK SMILES IDX 37 66 38 67 46 68 39 69 41 70 47 71 40 72 42 73 43 74 44 75
REMARK SMILES IDX 45 76 69 77 70 78 78 79 71 80 73 81 79 82 72 83 74 84 75 85
REMARK SMILES IDX 76 86 77 87 54 88 55 89 63 90 56 91 58 92 64 93 57 94 59 95
REMARK SMILES IDX 60 96 61 97 62 98
REMARK H PARENT 84 51 52 62
REMARK Flexibility Score: inf
ROOT
ATOM      1  C   UNL A   1      34.896  33.760  29.517  1.00  0.00     0.188 C 
ENDROOT
BRANCH   1   2
ATOM      2  C   UNL A   1      34.910  32.218  29.437  1.00  0.00     0.188 C 
BRANCH   2   3
ATOM      3  O   UNL A   1      35.342  31.612  30.637  1.00  0.00    -0.376 OA
BRANCH   3   4
ATOM      4  C   UNL A   1      35.943  30.333  30.584  1.00  0.00     0.202 C 
BRANCH   4   5
ATOM      5  C   UNL A   1      36.372  29.702  29.246  1.00  0.00     0.261 C 
BRANCH   5   6
ATOM      6  O   UNL A   1      37.780  29.547  29.030  1.00  0.00    -0.460 OA
BRANCH   6   7
ATOM      7  C   UNL A   1      38.402  28.573  29.729  1.00  0.00     0.338 C 
ATOM      8  O   UNL A   1      38.128  28.202  30.858  1.00  0.00    -0.246 OA
BRANCH   7   9
ATOM      9  C   UNL A   1      39.412  27.935  28.857  1.00  0.00     0.087 C 
ATOM     10  C   UNL A   1      42.487  24.665  26.509  1.00  0.00    -0.020 A 
ATOM     11  C   UNL A   1      42.377  26.076  26.595  1.00  0.00     0.053 A 
ATOM     12  C   UNL A   1      41.432  23.930  27.098  1.00  0.00     0.045 A 
ATOM     13  C   UNL A   1      41.332  26.712  27.279  1.00  0.00     0.128 A 
ATOM     14  C   UNL A   1      40.372  24.574  27.761  1.00  0.00     0.032 A 
ATOM     15  Cl  UNL A   1      41.351  22.205  27.151  1.00  0.00    -0.084 Cl
ATOM     16  C   UNL A   1      40.341  25.960  27.890  1.00  0.00     0.019 A 
ATOM     17  O   UNL A   1      41.387  28.077  27.323  1.00  0.00    -0.475 OA
ATOM     18  C   UNL A   1      39.332  26.607  28.710  1.00  0.00     0.027 C 
ATOM     19  C   UNL A   1      40.442  28.793  28.167  1.00  0.00     0.316 C 
BRANCH  10  20
ATOM     20  C   UNL A   1      43.781  24.038  25.921  1.00  0.00    -0.012 C 
ATOM     21  C   UNL A   1      43.516  23.127  24.690  1.00  0.00     0.016 C 
ATOM     22  C   UNL A   1      44.578  23.152  26.905  1.00  0.00     0.016 C 
ATOM     23  C   UNL A   1      44.678  25.198  25.435  1.00  0.00     0.016 C 
ENDBRANCH  10  20
BRANCH  19  24
ATOM     24  C   UNL A   1      41.237  29.659  29.155  1.00  0.00     0.430 C 
ATOM     25  F   UNL A   1      40.647  30.866  29.339  1.00  0.00    -0.167 F 
ATOM     26  F   UNL A   1      41.315  29.083  30.379  1.00  0.00    -0.167 F 
ATOM     27  F   UNL A   1      42.501  29.888  28.736  1.00  0.00    -0.167 F 
ENDBRANCH  19  24
ENDBRANCH   7   9
ENDBRANCH   6   7
ENDBRANCH   5   6
ENDBRANCH   4   5
ENDBRANCH   3   4
ENDBRANCH   2   3
ENDBRANCH   1   2
BRANCH   1  28
ATOM     28  O   UNL A   1      35.270  34.407  30.730  1.00  0.00    -0.376 OA
BRANCH  28  29
ATOM     29  C   UNL A   1      34.268  35.042  31.518  1.00  0.00     0.202 C 
BRANCH  29  30
ATOM     30  C   UNL A   1      34.467  35.173  33.036  1.00  0.00     0.261 C 
BRANCH  30  31
ATOM     31  O   UNL A   1      35.835  35.157  33.470  1.00  0.00    -0.460 OA
BRANCH  31  32
ATOM     32  C   UNL A   1      36.114  34.299  34.486  1.00  0.00     0.338 C 
ATOM     33  O   UNL A   1      35.403  34.036  35.441  1.00  0.00    -0.246 OA
BRANCH  32  34
ATOM     34  C   UNL A   1      37.350  33.555  34.163  1.00  0.00     0.060 A 
ATOM     35  C   UNL A   1      37.365  32.586  33.159  1.00  0.00     0.016 A 
ATOM     36  C   UNL A   1      38.516  33.851  34.883  1.00  0.00     0.016 A 
ATOM     37  C   UNL A   1      38.563  31.931  32.858  1.00  0.00     0.010 A 
ATOM     38  C   UNL A   1      39.708  33.184  34.590  1.00  0.00     0.010 A 
ATOM     39  C   UNL A   1      39.744  32.234  33.560  1.00  0.00    -0.014 A 
BRANCH  39  40
ATOM     40  C   UNL A   1      41.038  31.687  33.089  1.00  0.00     0.031 A 
ATOM     41  C   UNL A   1      41.661  30.469  33.698  1.00  0.00     0.074 A 
ATOM     42  C   UNL A   1      41.660  32.328  32.080  1.00  0.00     0.049 A 
ATOM     43  N   UNL A   1      42.711  29.802  33.294  1.00  0.00    -0.248 NA
ATOM     44  C   UNL A   1      41.037  29.930  34.916  1.00  0.00     0.031 C 
ATOM     45  C   UNL A   1      41.187  33.566  31.457  1.00  0.00     0.029 A 
ATOM     46  N   UNL A   1      42.814  32.031  31.402  1.00  0.00    -0.354 N 
ATOM     47  C   UNL A   1      42.878  28.764  34.199  1.00  0.00     0.074 A 
ATOM     48  C   UNL A   1      41.832  28.901  35.192  1.00  0.00     0.031 C 
ATOM     49  C   UNL A   1      42.033  33.911  30.475  1.00  0.00     0.029 A 
ATOM     50  C   UNL A   1      43.104  32.923  30.400  1.00  0.00     0.049 A 
ATOM     51  H   UNL A   1      43.379  31.252  31.614  1.00  0.00     0.167 HD
ATOM     52  C   UNL A   1      43.803  27.775  34.182  1.00  0.00     0.034 A 
ATOM     53  C   UNL A   1      44.108  32.937  29.501  1.00  0.00     0.034 A 
ATOM     54  C   UNL A   1      44.830  27.637  33.182  1.00  0.00     0.049 A 
ATOM     55  C   UNL A   1      45.102  31.814  29.488  1.00  0.00     0.074 A 
ATOM     56  C   UNL A   1      45.760  26.619  33.044  1.00  0.00     0.029 A 
ATOM     57  N   UNL A   1      45.077  28.543  32.164  1.00  0.00    -0.354 N 
ATOM     58  N   UNL A   1      45.143  30.746  30.246  1.00  0.00    -0.248 NA
ATOM     59  C   UNL A   1      46.167  31.874  28.475  1.00  0.00     0.031 C 
ATOM     60  C   UNL A   1      46.577  26.918  31.950  1.00  0.00     0.029 A 
ATOM     61  C   UNL A   1      46.150  28.115  31.400  1.00  0.00     0.049 A 
ATOM     62  H   UNL A   1      44.566  29.369  32.007  1.00  0.00     0.167 HD
ATOM     63  C   UNL A   1      46.224  29.999  29.795  1.00  0.00     0.074 A 
ATOM     64  C   UNL A   1      46.803  30.727  28.684  1.00  0.00     0.031 C 
ATOM     65  C   UNL A   1      46.697  28.823  30.271  1.00  0.00     0.034 A 
BRANCH  52  66
ATOM     66  C   UNL A   1      43.715  26.700  35.229  1.00  0.00     0.023 A 
ATOM     67  C   UNL A   1      43.137  25.462  34.882  1.00  0.00     0.012 A 
ATOM     68  C   UNL A   1      44.315  26.856  36.494  1.00  0.00     0.148 A 
ATOM     69  C   UNL A   1      43.152  24.395  35.779  1.00  0.00     0.002 A 
ATOM     70  C   UNL A   1      44.348  25.780  37.374  1.00  0.00     0.091 A 
ATOM     71  F   UNL A   1      44.851  28.045  36.802  1.00  0.00    -0.205 F 
ATOM     72  C   UNL A   1      43.766  24.551  37.018  1.00  0.00     0.022 A 
BRANCH  70  73
ATOM     73  S   UNL A   1      45.162  25.853  38.974  1.00  0.00     0.127 S 
ATOM     74  O   UNL A   1      44.314  26.804  39.692  1.00  0.00    -0.237 OA
ATOM     75  O   UNL A   1      45.053  24.469  39.436  1.00  0.00    -0.237 OA
ATOM     76  O   UNL A   1      46.521  26.307  38.716  1.00  0.00    -0.744 OA
ENDBRANCH  70  73
ENDBRANCH  52  66
BRANCH  53  77
ATOM     77  C   UNL A   1      44.146  34.016  28.479  1.00  0.00     0.023 A 
ATOM     78  C   UNL A   1      43.722  33.734  27.168  1.00  0.00     0.012 A 
ATOM     79  C   UNL A   1      44.511  35.331  28.825  1.00  0.00     0.148 A 
ATOM     80  C   UNL A   1      43.668  34.745  26.210  1.00  0.00     0.002 A 
ATOM     81  C   UNL A   1      44.418  36.341  27.876  1.00  0.00     0.091 A 
ATOM     82  F   UNL A   1      44.907  35.568  30.083  1.00  0.00    -0.205 F 
ATOM     83  C   UNL A   1      44.005  36.049  26.565  1.00  0.00     0.022 A 
BRANCH  81  84
ATOM     84  S   UNL A   1      44.731  38.067  28.262  1.00  0.00     0.127 S 
ATOM     85  O   UNL A   1      44.447  38.715  26.984  1.00  0.00    -0.237 OA
ATOM     86  O   UNL A   1      43.745  38.320  29.313  1.00  0.00    -0.237 OA
ATOM     87  O   UNL A   1      46.117  38.131  28.703  1.00  0.00    -0.744 OA
ENDBRANCH  81  84
ENDBRANCH  53  77
BRANCH  65  88
ATOM     88  C   UNL A   1      47.908  28.227  29.608  1.00  0.00     0.023 A 
ATOM     89  C   UNL A   1      49.189  28.648  30.014  1.00  0.00     0.012 A 
ATOM     90  C   UNL A   1      47.781  27.172  28.684  1.00  0.00     0.148 A 
ATOM     91  C   UNL A   1      50.330  28.029  29.504  1.00  0.00     0.002 A 
ATOM     92  C   UNL A   1      48.922  26.538  28.205  1.00  0.00     0.091 A 
ATOM     93  F   UNL A   1      46.550  26.798  28.310  1.00  0.00    -0.205 F 
ATOM     94  C   UNL A   1      50.196  26.968  28.611  1.00  0.00     0.022 A 
BRANCH  92  95
ATOM     95  S   UNL A   1      48.855  25.117  27.110  1.00  0.00     0.127 S 
ATOM     96  O   UNL A   1      50.136  24.467  27.385  1.00  0.00    -0.237 OA
ATOM     97  O   UNL A   1      47.685  24.395  27.610  1.00  0.00    -0.237 OA
ATOM     98  O   UNL A   1      48.712  25.649  25.761  1.00  0.00    -0.744 OA
ENDBRANCH  92  95
ENDBRANCH  65  88
ENDBRANCH  39  40
ENDBRANCH  32  34
ENDBRANCH  31  32
ENDBRANCH  30  31
ENDBRANCH  29  30
ENDBRANCH  28  29
ENDBRANCH   1  28
TORSDOF 22
ENDMDL
MODEL 3
REMARK VINA RESULT:      -7.7      4.057      8.760
REMARK SMILES CC(C)(C)c1cc2c(cc1Cl)C=C(C(=O)OCCOCCOCCOC(=O)c1ccc(-c3c4nc(c(-c5cccc(S(=O)(=O)[O-])c5F)c5ccc([nH]5)c(-c5cccc(S(=O)(=O)[O-])c5F)c5nc(c(-c6cccc(S(=O)(=O)[O-])c6F)c6ccc3[nH]6)C=C5)C=C4)cc1)[C@@H](C(F)(F)F)O2
REMARK SMILES IDX 21 1 20 2 19 3 18 4 17 5 16 6 14 7 15 8 13 9 5 10 6 11 10 12
REMARK SMILES IDX 7 13 9 14 11 15 8 16 96 17 12 18 91 19 2 20 1 21 3 22 4 23
REMARK SMILES IDX 92 24 93 25 94 26 95 27 22 28 23 29 24 30 25 31 26 32 27 33
REMARK SMILES IDX 28 34 29 35 90 36 30 37 89 38 31 39 32 40 33 41 83 42 34 43
REMARK SMILES IDX 88 44 82 45 84 46 35 47 87 48 81 49 80 50 36 52 68 53 48 54
REMARK SMILES IDX 67 55 49 56 52 57 66 58 85 59 50 60 51 61 65 63 86 64 53 65
REMARK SMILES IDX 37 66 38 67 46 68 39 69 41 70 47 71 40 72 42 73 43 74 44 75
REMARK SMILES IDX 45 76 69 77 70 78 78 79 71 80 73 81 79 82 72 83 74 84 75 85
REMARK SMILES IDX 76 86 77 87 54 88 55 89 63 90 56 91 58 92 64 93 57 94 59 95
REMARK SMILES IDX 60 96 61 97 62 98
REMARK H PARENT 84 51 52 62
REMARK Flexibility Score: inf
ROOT
ATOM      1  C   UNL A   1      41.444  19.181  26.031  1.00  0.00     0.188 C 
ENDROOT
BRANCH   1   2
ATOM      2  C   UNL A   1      40.184  20.075  26.019  1.00  0.00     0.188 C 
BRANCH   2   3
ATOM      3  O   UNL A   1      39.045  19.406  25.518  1.00  0.00    -0.376 OA
BRANCH   3   4
ATOM      4  C   UNL A   1      38.096  20.136  24.765  1.00  0.00     0.202 C 
BRANCH   4   5
ATOM      5  C   UNL A   1      36.587  20.017  25.044  1.00  0.00     0.261 C 
BRANCH   5   6
ATOM      6  O   UNL A   1      35.845  21.242  25.105  1.00  0.00    -0.460 OA
BRANCH   6   7
ATOM      7  C   UNL A   1      34.539  21.182  24.766  1.00  0.00     0.338 C 
ATOM      8  O   UNL A   1      33.943  20.205  24.343  1.00  0.00    -0.246 OA
BRANCH   7   9
ATOM      9  C   UNL A   1      33.902  22.474  25.101  1.00  0.00     0.087 C 
ATOM     10  C   UNL A   1      32.696  27.377  25.508  1.00  0.00    -0.020 A 
ATOM     11  C   UNL A   1      32.308  26.177  26.155  1.00  0.00     0.053 A 
ATOM     12  C   UNL A   1      33.527  27.223  24.374  1.00  0.00     0.045 A 
ATOM     13  C   UNL A   1      32.770  24.917  25.751  1.00  0.00     0.128 A 
ATOM     14  C   UNL A   1      33.966  25.953  23.956  1.00  0.00     0.032 A 
ATOM     15  Cl  UNL A   1      34.156  28.529  23.435  1.00  0.00    -0.084 Cl
ATOM     16  C   UNL A   1      33.625  24.805  24.666  1.00  0.00     0.019 A 
ATOM     17  O   UNL A   1      32.353  23.855  26.503  1.00  0.00    -0.475 OA
ATOM     18  C   UNL A   1      34.210  23.520  24.325  1.00  0.00     0.027 C 
ATOM     19  C   UNL A   1      32.935  22.545  26.256  1.00  0.00     0.316 C 
BRANCH  10  20
ATOM     20  C   UNL A   1      32.315  28.742  26.144  1.00  0.00    -0.012 C 
ATOM     21  C   UNL A   1      33.543  29.653  26.422  1.00  0.00     0.016 C 
ATOM     22  C   UNL A   1      31.580  28.643  27.500  1.00  0.00     0.016 C 
ATOM     23  C   UNL A   1      31.421  29.491  25.131  1.00  0.00     0.016 C 
ENDBRANCH  10  20
BRANCH  19  24
ATOM     24  C   UNL A   1      33.554  22.036  27.566  1.00  0.00     0.430 C 
ATOM     25  F   UNL A   1      32.754  22.307  28.627  1.00  0.00    -0.167 F 
ATOM     26  F   UNL A   1      33.727  20.693  27.553  1.00  0.00    -0.167 F 
ATOM     27  F   UNL A   1      34.759  22.596  27.817  1.00  0.00    -0.167 F 
ENDBRANCH  19  24
ENDBRANCH   7   9
ENDBRANCH   6   7
ENDBRANCH   5   6
ENDBRANCH   4   5
ENDBRANCH   3   4
ENDBRANCH   2   3
ENDBRANCH   1   2
BRANCH   1  28
ATOM     28  O   UNL A   1      42.618  19.609  25.346  1.00  0.00    -0.376 OA
BRANCH  28  29
ATOM     29  C   UNL A   1      43.237  20.834  25.725  1.00  0.00     0.202 C 
BRANCH  29  30
ATOM     30  C   UNL A   1      44.769  20.954  25.682  1.00  0.00     0.261 C 
BRANCH  30  31
ATOM     31  O   UNL A   1      45.313  21.305  24.401  1.00  0.00    -0.460 OA
BRANCH  31  32
ATOM     32  C   UNL A   1      44.829  22.451  23.856  1.00  0.00     0.338 C 
ATOM     33  O   UNL A   1      44.203  22.564  22.816  1.00  0.00    -0.246 OA
BRANCH  32  34
ATOM     34  C   UNL A   1      44.999  23.554  24.826  1.00  0.00     0.060 A 
ATOM     35  C   UNL A   1      43.934  24.396  25.151  1.00  0.00     0.016 A 
ATOM     36  C   UNL A   1      46.254  23.733  25.425  1.00  0.00     0.016 A 
ATOM     37  C   UNL A   1      44.124  25.404  26.101  1.00  0.00     0.010 A 
ATOM     38  C   UNL A   1      46.445  24.750  26.363  1.00  0.00     0.010 A 
ATOM     39  C   UNL A   1      45.374  25.579  26.723  1.00  0.00    -0.014 A 
BRANCH  39  40
ATOM     40  C   UNL A   1      45.498  26.508  27.871  1.00  0.00     0.031 A 
ATOM     41  C   UNL A   1      45.305  26.059  29.287  1.00  0.00     0.074 A 
ATOM     42  C   UNL A   1      45.789  27.797  27.608  1.00  0.00     0.049 A 
ATOM     43  N   UNL A   1      45.522  26.728  30.391  1.00  0.00    -0.248 NA
ATOM     44  C   UNL A   1      44.800  24.695  29.500  1.00  0.00     0.031 C 
ATOM     45  C   UNL A   1      45.926  28.366  26.265  1.00  0.00     0.029 A 
ATOM     46  N   UNL A   1      46.024  28.856  28.446  1.00  0.00    -0.354 N 
ATOM     47  C   UNL A   1      45.187  25.873  31.430  1.00  0.00     0.074 A 
ATOM     48  C   UNL A   1      44.728  24.639  30.826  1.00  0.00     0.031 C 
ATOM     49  C   UNL A   1      46.240  29.665  26.372  1.00  0.00     0.029 A 
ATOM     50  C   UNL A   1      46.326  30.021  27.785  1.00  0.00     0.049 A 
ATOM     51  H   UNL A   1      45.979  28.787  29.428  1.00  0.00     0.167 HD
ATOM     52  C   UNL A   1      45.282  26.092  32.763  1.00  0.00     0.034 A 
ATOM     53  C   UNL A   1      46.658  31.237  28.259  1.00  0.00     0.034 A 
ATOM     54  C   UNL A   1      45.755  27.316  33.356  1.00  0.00     0.049 A 
ATOM     55  C   UNL A   1      46.784  31.444  29.739  1.00  0.00     0.074 A 
ATOM     56  C   UNL A   1      45.959  27.596  34.697  1.00  0.00     0.029 A 
ATOM     57  N   UNL A   1      46.081  28.466  32.655  1.00  0.00    -0.354 N 
ATOM     58  N   UNL A   1      46.629  30.571  30.705  1.00  0.00    -0.248 NA
ATOM     59  C   UNL A   1      47.164  32.789  30.198  1.00  0.00     0.031 C 
ATOM     60  C   UNL A   1      46.396  28.919  34.807  1.00  0.00     0.029 A 
ATOM     61  C   UNL A   1      46.474  29.460  33.535  1.00  0.00     0.049 A 
ATOM     62  H   UNL A   1      46.039  28.562  31.677  1.00  0.00     0.167 HD
ATOM     63  C   UNL A   1      46.907  31.253  31.882  1.00  0.00     0.074 A 
ATOM     64  C   UNL A   1      47.259  32.608  31.510  1.00  0.00     0.031 C 
ATOM     65  C   UNL A   1      46.861  30.795  33.156  1.00  0.00     0.034 A 
BRANCH  52  66
ATOM     66  C   UNL A   1      44.947  24.962  33.696  1.00  0.00     0.023 A 
ATOM     67  C   UNL A   1      43.600  24.763  34.062  1.00  0.00     0.012 A 
ATOM     68  C   UNL A   1      45.921  24.027  34.097  1.00  0.00     0.148 A 
ATOM     69  C   UNL A   1      43.226  23.654  34.818  1.00  0.00     0.002 A 
ATOM     70  C   UNL A   1      45.536  22.909  34.829  1.00  0.00     0.091 A 
ATOM     71  F   UNL A   1      47.195  24.242  33.742  1.00  0.00    -0.205 F 
ATOM     72  C   UNL A   1      44.191  22.723  35.191  1.00  0.00     0.022 A 
BRANCH  70  73
ATOM     73  S   UNL A   1      46.687  21.618  35.316  1.00  0.00     0.127 S 
ATOM     74  O   UNL A   1      46.028  21.068  36.500  1.00  0.00    -0.237 OA
ATOM     75  O   UNL A   1      46.674  20.739  34.147  1.00  0.00    -0.237 OA
ATOM     76  O   UNL A   1      47.957  22.283  35.567  1.00  0.00    -0.744 OA
ENDBRANCH  70  73
ENDBRANCH  52  66
BRANCH  53  77
ATOM     77  C   UNL A   1      46.991  32.319  27.295  1.00  0.00     0.023 A 
ATOM     78  C   UNL A   1      45.969  33.173  26.842  1.00  0.00     0.012 A 
ATOM     79  C   UNL A   1      48.322  32.557  26.902  1.00  0.00     0.148 A 
ATOM     80  C   UNL A   1      46.265  34.246  26.003  1.00  0.00     0.002 A 
ATOM     81  C   UNL A   1      48.614  33.652  26.098  1.00  0.00     0.091 A 
ATOM     82  F   UNL A   1      49.273  31.728  27.353  1.00  0.00    -0.205 F 
ATOM     83  C   UNL A   1      47.586  34.492  25.640  1.00  0.00     0.022 A 
BRANCH  81  84
ATOM     84  S   UNL A   1      50.295  34.111  25.660  1.00  0.00     0.127 S 
ATOM     85  O   UNL A   1      50.071  35.269  24.797  1.00  0.00    -0.237 OA
ATOM     86  O   UNL A   1      50.869  34.420  26.969  1.00  0.00    -0.237 OA
ATOM     87  O   UNL A   1      50.869  32.944  25.005  1.00  0.00    -0.744 OA
ENDBRANCH  81  84
ENDBRANCH  53  77
BRANCH  65  88
ATOM     88  C   UNL A   1      47.194  31.755  34.265  1.00  0.00     0.023 A 
ATOM     89  C   UNL A   1      46.152  32.458  34.900  1.00  0.00     0.012 A 
ATOM     90  C   UNL A   1      48.509  31.863  34.757  1.00  0.00     0.148 A 
ATOM     91  C   UNL A   1      46.415  33.261  36.008  1.00  0.00     0.002 A 
ATOM     92  C   UNL A   1      48.759  32.640  35.883  1.00  0.00     0.091 A 
ATOM     93  F   UNL A   1      49.482  31.190  34.129  1.00  0.00    -0.205 F 
ATOM     94  C   UNL A   1      47.714  33.343  36.507  1.00  0.00     0.022 A 
BRANCH  92  95
ATOM     95  S   UNL A   1      50.381  32.753  36.644  1.00  0.00     0.127 S 
ATOM     96  O   UNL A   1      50.140  33.715  37.719  1.00  0.00    -0.237 OA
ATOM     97  O   UNL A   1      50.608  31.380  37.094  1.00  0.00    -0.237 OA
ATOM     98  O   UNL A   1      51.289  33.210  35.601  1.00  0.00    -0.744 OA
ENDBRANCH  92  95
ENDBRANCH  65  88
ENDBRANCH  39  40
ENDBRANCH  32  34
ENDBRANCH  31  32
ENDBRANCH  30  31
ENDBRANCH  29  30
ENDBRANCH  28  29
ENDBRANCH   1  28
TORSDOF 22
ENDMDL
