MODEL 1
REMARK VINA RESULT:      -8.4      0.000      0.000
REMARK SMILES C[C@H]([NH3+])c1ccc(F)cc1OCC(C)(C)C(=O)OCCOCCOCCOC(=O)c1ccc(-c2c3nc(c(-c4cccc(S(=O)(=O)[O-])c4F)c4ccc([nH]4)c(-c4cccc(S(=O)(=O)[O-])c4F)c4nc(c(-c5cccc(S(=O)(=O)[O-])c5F)c5ccc2[nH]5)C=C4)C=C3)cc1
REMARK SMILES IDX 22 1 21 2 20 3 19 4 18 5 16 6 17 7 13 8 14 9 15 10 12 11
REMARK SMILES IDX 11 12 10 13 4 14 5 15 6 16 9 17 7 18 8 19 2 20 1 21 3 22
REMARK SMILES IDX 23 26 24 27 25 28 26 29 27 30 28 31 29 32 30 33 31 34 92 35
REMARK SMILES IDX 32 36 91 37 33 38 34 39 35 40 85 41 36 42 90 43 84 44 86 45
REMARK SMILES IDX 37 46 89 47 83 48 82 49 38 51 70 52 50 53 69 54 51 55 54 56
REMARK SMILES IDX 68 57 87 58 52 59 53 60 67 62 88 63 55 64 39 65 40 66 48 67
REMARK SMILES IDX 41 68 43 69 49 70 42 71 44 72 45 73 46 74 47 75 71 76 72 77
REMARK SMILES IDX 80 78 73 79 75 80 81 81 74 82 76 83 77 84 78 85 79 86 56 87
REMARK SMILES IDX 57 88 65 89 58 90 60 91 66 92 59 93 61 94 62 95 63 96 64 97
REMARK H PARENT 3 23 3 24 3 25 86 50 54 61
REMARK Flexibility Score: inf
ROOT
ATOM      1  C   UNL A   1      38.761  22.073  25.953  1.00  0.00     0.188 C 
ENDROOT
BRANCH   1   2
ATOM      2  O   UNL A   1      38.163  20.989  25.257  1.00  0.00    -0.376 OA
BRANCH   2   3
ATOM      3  C   UNL A   1      36.824  21.226  24.858  1.00  0.00     0.202 C 
BRANCH   3   4
ATOM      4  C   UNL A   1      36.006  22.102  25.812  1.00  0.00     0.261 C 
BRANCH   4   5
ATOM      5  O   UNL A   1      34.932  22.866  25.241  1.00  0.00    -0.463 OA
BRANCH   5   6
ATOM      6  C   UNL A   1      33.672  22.386  25.404  1.00  0.00     0.315 C 
ATOM      7  O   UNL A   1      33.220  21.455  24.753  1.00  0.00    -0.251 OA
BRANCH   6   8
ATOM      8  C   UNL A   1      32.861  23.241  26.394  1.00  0.00     0.096 C 
ATOM      9  C   UNL A   1      32.992  22.456  27.707  1.00  0.00     0.027 C 
ATOM     10  C   UNL A   1      31.338  23.339  26.108  1.00  0.00     0.027 C 
BRANCH   8  11
ATOM     11  C   UNL A   1      33.382  24.709  26.319  1.00  0.00     0.247 C 
BRANCH  11  12
ATOM     12  O   UNL A   1      32.546  25.761  25.868  1.00  0.00    -0.492 OA
BRANCH  12  13
ATOM     13  C   UNL A   1      32.914  26.653  24.913  1.00  0.00     0.131 A 
ATOM     14  C   UNL A   1      33.241  28.019  25.055  1.00  0.00     0.051 A 
ATOM     15  C   UNL A   1      33.632  28.710  23.883  1.00  0.00     0.017 A 
ATOM     16  C   UNL A   1      33.673  28.087  22.633  1.00  0.00     0.040 A 
ATOM     17  C   UNL A   1      32.907  26.051  23.643  1.00  0.00     0.086 A 
ATOM     18  C   UNL A   1      33.294  26.763  22.522  1.00  0.00     0.126 A 
ATOM     19  F   UNL A   1      33.312  26.167  21.324  1.00  0.00    -0.207 F 
BRANCH  14  20
ATOM     20  C   UNL A   1      33.159  28.782  26.368  1.00  0.00     0.212 C 
ATOM     21  C   UNL A   1      34.535  29.192  26.885  1.00  0.00     0.081 C 
BRANCH  20  22
ATOM     22  N   UNL A   1      32.406  28.072  27.417  1.00  0.00    -0.351 N 
ATOM     23  H   UNL A   1      32.512  28.564  28.304  1.00  0.00     0.345 HD
ATOM     24  H   UNL A   1      32.768  27.123  27.510  1.00  0.00     0.345 HD
ATOM     25  H   UNL A   1      31.419  28.037  27.164  1.00  0.00     0.345 HD
ENDBRANCH  20  22
ENDBRANCH  14  20
ENDBRANCH  12  13
ENDBRANCH  11  12
ENDBRANCH   8  11
ENDBRANCH   6   8
ENDBRANCH   5   6
ENDBRANCH   4   5
ENDBRANCH   3   4
ENDBRANCH   2   3
ENDBRANCH   1   2
BRANCH   1  26
ATOM     26  C   UNL A   1      40.248  21.863  26.231  1.00  0.00     0.188 C 
BRANCH  26  27
ATOM     27  O   UNL A   1      40.714  21.022  27.275  1.00  0.00    -0.376 OA
BRANCH  27  28
ATOM     28  C   UNL A   1      40.935  19.649  26.999  1.00  0.00     0.202 C 
BRANCH  28  29
ATOM     29  C   UNL A   1      41.739  19.258  25.748  1.00  0.00     0.261 C 
BRANCH  29  30
ATOM     30  O   UNL A   1      43.164  19.237  25.903  1.00  0.00    -0.460 OA
BRANCH  30  31
ATOM     31  C   UNL A   1      43.862  19.964  24.993  1.00  0.00     0.338 C 
ATOM     32  O   UNL A   1      44.165  19.627  23.858  1.00  0.00    -0.246 OA
BRANCH  31  33
ATOM     33  C   UNL A   1      44.015  21.345  25.511  1.00  0.00     0.060 A 
ATOM     34  C   UNL A   1      43.981  22.408  24.593  1.00  0.00     0.016 A 
ATOM     35  C   UNL A   1      44.127  21.602  26.878  1.00  0.00     0.016 A 
ATOM     36  C   UNL A   1      44.064  23.728  25.037  1.00  0.00     0.010 A 
ATOM     37  C   UNL A   1      44.254  22.922  27.319  1.00  0.00     0.010 A 
ATOM     38  C   UNL A   1      44.248  23.987  26.400  1.00  0.00    -0.014 A 
BRANCH  38  39
ATOM     39  C   UNL A   1      44.658  25.337  26.852  1.00  0.00     0.031 A 
ATOM     40  C   UNL A   1      43.589  26.251  27.383  1.00  0.00     0.074 A 
ATOM     41  C   UNL A   1      45.931  25.764  26.762  1.00  0.00     0.049 A 
ATOM     42  N   UNL A   1      43.667  27.510  27.720  1.00  0.00    -0.248 NA
ATOM     43  C   UNL A   1      42.248  25.663  27.550  1.00  0.00     0.031 C 
ATOM     44  C   UNL A   1      47.062  24.966  26.299  1.00  0.00     0.029 A 
ATOM     45  N   UNL A   1      46.471  26.997  27.031  1.00  0.00    -0.354 N 
ATOM     46  C   UNL A   1      42.385  27.875  28.106  1.00  0.00     0.074 A 
ATOM     47  C   UNL A   1      41.545  26.706  27.964  1.00  0.00     0.031 C 
ATOM     48  C   UNL A   1      48.161  25.743  26.277  1.00  0.00     0.029 A 
ATOM     49  C   UNL A   1      47.800  27.099  26.694  1.00  0.00     0.049 A 
ATOM     50  H   UNL A   1      45.957  27.738  27.427  1.00  0.00     0.167 HD
ATOM     51  C   UNL A   1      41.944  29.074  28.549  1.00  0.00     0.034 A 
ATOM     52  C   UNL A   1      48.622  28.170  26.692  1.00  0.00     0.034 A 
ATOM     53  C   UNL A   1      42.779  30.232  28.704  1.00  0.00     0.049 A 
ATOM     54  C   UNL A   1      48.097  29.510  27.147  1.00  0.00     0.074 A 
ATOM     55  C   UNL A   1      42.424  31.484  29.174  1.00  0.00     0.029 A 
ATOM     56  N   UNL A   1      44.126  30.287  28.387  1.00  0.00    -0.354 N 
ATOM     57  N   UNL A   1      46.904  29.822  27.594  1.00  0.00    -0.248 NA
ATOM     58  C   UNL A   1      49.038  30.641  27.121  1.00  0.00     0.031 C 
ATOM     59  C   UNL A   1      43.554  32.304  29.116  1.00  0.00     0.029 A 
ATOM     60  C   UNL A   1      44.618  31.554  28.641  1.00  0.00     0.049 A 
ATOM     61  H   UNL A   1      44.654  29.536  28.032  1.00  0.00     0.167 HD
ATOM     62  C   UNL A   1      46.960  31.171  27.933  1.00  0.00     0.074 A 
ATOM     63  C   UNL A   1      48.310  31.615  27.654  1.00  0.00     0.031 C 
ATOM     64  C   UNL A   1      45.978  31.972  28.416  1.00  0.00     0.034 A 
BRANCH  51  65
ATOM     65  C   UNL A   1      40.493  29.191  28.923  1.00  0.00     0.023 A 
ATOM     66  C   UNL A   1      39.524  29.328  27.910  1.00  0.00     0.012 A 
ATOM     67  C   UNL A   1      40.085  29.088  30.266  1.00  0.00     0.148 A 
ATOM     68  C   UNL A   1      38.169  29.378  28.229  1.00  0.00     0.002 A 
ATOM     69  C   UNL A   1      38.731  29.094  30.573  1.00  0.00     0.091 A 
ATOM     70  F   UNL A   1      41.027  28.987  31.215  1.00  0.00    -0.205 F 
ATOM     71  C   UNL A   1      37.771  29.247  29.558  1.00  0.00     0.022 A 
BRANCH  69  72
ATOM     72  S   UNL A   1      38.115  28.850  32.242  1.00  0.00     0.127 S 
ATOM     73  O   UNL A   1      38.862  29.867  32.983  1.00  0.00    -0.237 OA
ATOM     74  O   UNL A   1      36.688  29.133  32.087  1.00  0.00    -0.237 OA
ATOM     75  O   UNL A   1      38.429  27.471  32.591  1.00  0.00    -0.744 OA
ENDBRANCH  69  72
ENDBRANCH  51  65
BRANCH  52  76
ATOM     76  C   UNL A   1      50.042  28.014  26.268  1.00  0.00     0.023 A 
ATOM     77  C   UNL A   1      50.364  28.056  24.897  1.00  0.00     0.012 A 
ATOM     78  C   UNL A   1      51.077  27.856  27.212  1.00  0.00     0.148 A 
ATOM     79  C   UNL A   1      51.687  27.924  24.472  1.00  0.00     0.002 A 
ATOM     80  C   UNL A   1      52.398  27.779  26.785  1.00  0.00     0.091 A 
ATOM     81  F   UNL A   1      50.747  27.797  28.510  1.00  0.00    -0.205 F 
ATOM     82  C   UNL A   1      52.704  27.798  25.415  1.00  0.00     0.022 A 
BRANCH  80  83
ATOM     83  S   UNL A   1      53.783  27.734  27.928  1.00  0.00     0.127 S 
ATOM     84  O   UNL A   1      54.916  27.956  27.034  1.00  0.00    -0.237 OA
ATOM     85  O   UNL A   1      53.473  28.852  28.819  1.00  0.00    -0.237 OA
ATOM     86  O   UNL A   1      53.730  26.424  28.564  1.00  0.00    -0.744 OA
ENDBRANCH  80  83
ENDBRANCH  52  76
BRANCH  64  87
ATOM     87  C   UNL A   1      46.309  33.413  28.716  1.00  0.00     0.023 A 
ATOM     88  C   UNL A   1      46.181  34.385  27.707  1.00  0.00     0.012 A 
ATOM     89  C   UNL A   1      46.622  33.819  30.031  1.00  0.00     0.148 A 
ATOM     90  C   UNL A   1      46.377  35.736  27.994  1.00  0.00     0.002 A 
ATOM     91  C   UNL A   1      46.767  35.170  30.320  1.00  0.00     0.091 A 
ATOM     92  F   UNL A   1      46.755  32.877  30.977  1.00  0.00    -0.205 F 
ATOM     93  C   UNL A   1      46.655  36.129  29.301  1.00  0.00     0.022 A 
BRANCH  91  94
ATOM     94  S   UNL A   1      47.019  35.777  31.993  1.00  0.00     0.127 S 
ATOM     95  O   UNL A   1      47.083  37.221  31.779  1.00  0.00    -0.237 OA
ATOM     96  O   UNL A   1      45.810  35.315  32.677  1.00  0.00    -0.237 OA
ATOM     97  O   UNL A   1      48.252  35.160  32.463  1.00  0.00    -0.744 OA
ENDBRANCH  91  94
ENDBRANCH  64  87
ENDBRANCH  38  39
ENDBRANCH  31  33
ENDBRANCH  30  31
ENDBRANCH  29  30
ENDBRANCH  28  29
ENDBRANCH  27  28
ENDBRANCH  26  27
ENDBRANCH   1  26
TORSDOF 25
ENDMDL
MODEL 2
REMARK VINA RESULT:      -7.8      1.778      2.227
REMARK SMILES C[C@H]([NH3+])c1ccc(F)cc1OCC(C)(C)C(=O)OCCOCCOCCOC(=O)c1ccc(-c2c3nc(c(-c4cccc(S(=O)(=O)[O-])c4F)c4ccc([nH]4)c(-c4cccc(S(=O)(=O)[O-])c4F)c4nc(c(-c5cccc(S(=O)(=O)[O-])c5F)c5ccc2[nH]5)C=C4)C=C3)cc1
REMARK SMILES IDX 22 1 21 2 20 3 19 4 18 5 16 6 17 7 13 8 14 9 15 10 12 11
REMARK SMILES IDX 11 12 10 13 4 14 5 15 6 16 9 17 7 18 8 19 2 20 1 21 3 22
REMARK SMILES IDX 23 26 24 27 25 28 26 29 27 30 28 31 29 32 30 33 31 34 92 35
REMARK SMILES IDX 32 36 91 37 33 38 34 39 35 40 85 41 36 42 90 43 84 44 86 45
REMARK SMILES IDX 37 46 89 47 83 48 82 49 38 51 70 52 50 53 69 54 51 55 54 56
REMARK SMILES IDX 68 57 87 58 52 59 53 60 67 62 88 63 55 64 39 65 40 66 48 67
REMARK SMILES IDX 41 68 43 69 49 70 42 71 44 72 45 73 46 74 47 75 71 76 72 77
REMARK SMILES IDX 80 78 73 79 75 80 81 81 74 82 76 83 77 84 78 85 79 86 56 87
REMARK SMILES IDX 57 88 65 89 58 90 60 91 66 92 59 93 61 94 62 95 63 96 64 97
REMARK H PARENT 3 23 3 24 3 25 86 50 54 61
REMARK Flexibility Score: inf
ROOT
ATOM      1  C   UNL A   1      38.568  22.115  25.761  1.00  0.00     0.188 C 
ENDROOT
BRANCH   1   2
ATOM      2  O   UNL A   1      37.705  21.156  25.167  1.00  0.00    -0.376 OA
BRANCH   2   3
ATOM      3  C   UNL A   1      36.425  21.661  24.829  1.00  0.00     0.202 C 
BRANCH   3   4
ATOM      4  C   UNL A   1      35.822  22.640  25.842  1.00  0.00     0.261 C 
BRANCH   4   5
ATOM      5  O   UNL A   1      34.808  23.536  25.364  1.00  0.00    -0.463 OA
BRANCH   5   6
ATOM      6  C   UNL A   1      34.681  23.671  24.018  1.00  0.00     0.315 C 
ATOM      7  O   UNL A   1      35.621  23.922  23.278  1.00  0.00    -0.251 OA
BRANCH   6   8
ATOM      8  C   UNL A   1      33.207  23.607  23.577  1.00  0.00     0.096 C 
ATOM      9  C   UNL A   1      32.959  22.099  23.440  1.00  0.00     0.027 C 
ATOM     10  C   UNL A   1      32.896  24.217  22.183  1.00  0.00     0.027 C 
BRANCH   8  11
ATOM     11  C   UNL A   1      32.355  24.441  24.583  1.00  0.00     0.247 C 
BRANCH  11  12
ATOM     12  O   UNL A   1      32.476  25.851  24.653  1.00  0.00    -0.492 OA
BRANCH  12  13
ATOM     13  C   UNL A   1      31.567  26.708  24.121  1.00  0.00     0.131 A 
ATOM     14  C   UNL A   1      31.781  27.970  23.524  1.00  0.00     0.051 A 
ATOM     15  C   UNL A   1      30.643  28.639  23.013  1.00  0.00     0.017 A 
ATOM     16  C   UNL A   1      29.358  28.098  23.111  1.00  0.00     0.040 A 
ATOM     17  C   UNL A   1      30.264  26.199  24.262  1.00  0.00     0.086 A 
ATOM     18  C   UNL A   1      29.178  26.886  23.750  1.00  0.00     0.126 A 
ATOM     19  F   UNL A   1      27.947  26.374  23.864  1.00  0.00    -0.207 F 
BRANCH  14  20
ATOM     20  C   UNL A   1      33.138  28.652  23.439  1.00  0.00     0.212 C 
ATOM     21  C   UNL A   1      33.937  28.197  22.220  1.00  0.00     0.081 C 
BRANCH  20  22
ATOM     22  N   UNL A   1      33.945  28.514  24.664  1.00  0.00    -0.351 N 
ATOM     23  H   UNL A   1      33.823  27.577  25.048  1.00  0.00     0.345 HD
ATOM     24  H   UNL A   1      33.642  29.204  25.350  1.00  0.00     0.345 HD
ATOM     25  H   UNL A   1      34.930  28.664  24.442  1.00  0.00     0.345 HD
ENDBRANCH  20  22
ENDBRANCH  14  20
ENDBRANCH  12  13
ENDBRANCH  11  12
ENDBRANCH   8  11
ENDBRANCH   6   8
ENDBRANCH   5   6
ENDBRANCH   4   5
ENDBRANCH   3   4
ENDBRANCH   2   3
ENDBRANCH   1   2
BRANCH   1  26
ATOM     26  C   UNL A   1      39.973  21.578  26.025  1.00  0.00     0.188 C 
BRANCH  26  27
ATOM     27  O   UNL A   1      40.225  20.526  26.944  1.00  0.00    -0.376 OA
BRANCH  27  28
ATOM     28  C   UNL A   1      40.670  19.276  26.446  1.00  0.00     0.202 C 
BRANCH  28  29
ATOM     29  C   UNL A   1      41.962  19.220  25.615  1.00  0.00     0.261 C 
BRANCH  29  30
ATOM     30  O   UNL A   1      43.121  19.808  26.220  1.00  0.00    -0.460 OA
BRANCH  30  31
ATOM     31  C   UNL A   1      43.927  20.508  25.382  1.00  0.00     0.338 C 
ATOM     32  O   UNL A   1      44.321  20.160  24.279  1.00  0.00    -0.246 OA
BRANCH  31  33
ATOM     33  C   UNL A   1      44.083  21.882  25.916  1.00  0.00     0.060 A 
ATOM     34  C   UNL A   1      43.905  22.963  25.036  1.00  0.00     0.016 A 
ATOM     35  C   UNL A   1      44.338  22.113  27.269  1.00  0.00     0.016 A 
ATOM     36  C   UNL A   1      43.985  24.275  25.503  1.00  0.00     0.010 A 
ATOM     37  C   UNL A   1      44.461  23.427  27.727  1.00  0.00     0.010 A 
ATOM     38  C   UNL A   1      44.310  24.512  26.844  1.00  0.00    -0.014 A 
BRANCH  38  39
ATOM     39  C   UNL A   1      44.716  25.867  27.283  1.00  0.00     0.031 A 
ATOM     40  C   UNL A   1      43.645  26.778  27.817  1.00  0.00     0.074 A 
ATOM     41  C   UNL A   1      45.985  26.301  27.181  1.00  0.00     0.049 A 
ATOM     42  N   UNL A   1      43.719  28.039  28.145  1.00  0.00    -0.248 NA
ATOM     43  C   UNL A   1      42.310  26.183  27.999  1.00  0.00     0.031 C 
ATOM     44  C   UNL A   1      47.118  25.507  26.714  1.00  0.00     0.029 A 
ATOM     45  N   UNL A   1      46.520  27.540  27.436  1.00  0.00    -0.354 N 
ATOM     46  C   UNL A   1      42.437  28.399  28.538  1.00  0.00     0.074 A 
ATOM     47  C   UNL A   1      41.604  27.224  28.410  1.00  0.00     0.031 C 
ATOM     48  C   UNL A   1      48.211  26.291  26.678  1.00  0.00     0.029 A 
ATOM     49  C   UNL A   1      47.846  27.647  27.088  1.00  0.00     0.049 A 
ATOM     50  H   UNL A   1      46.004  28.280  27.832  1.00  0.00     0.167 HD
ATOM     51  C   UNL A   1      41.992  29.598  28.976  1.00  0.00     0.034 A 
ATOM     52  C   UNL A   1      48.660  28.724  27.072  1.00  0.00     0.034 A 
ATOM     53  C   UNL A   1      42.820  30.763  29.117  1.00  0.00     0.049 A 
ATOM     54  C   UNL A   1      48.131  30.063  27.523  1.00  0.00     0.074 A 
ATOM     55  C   UNL A   1      42.462  32.016  29.581  1.00  0.00     0.029 A 
ATOM     56  N   UNL A   1      44.165  30.824  28.788  1.00  0.00    -0.354 N 
ATOM     57  N   UNL A   1      46.939  30.371  27.976  1.00  0.00    -0.248 NA
ATOM     58  C   UNL A   1      49.064  31.200  27.481  1.00  0.00     0.031 C 
ATOM     59  C   UNL A   1      43.586  32.842  29.509  1.00  0.00     0.029 A 
ATOM     60  C   UNL A   1      44.651  32.096  29.030  1.00  0.00     0.049 A 
ATOM     61  H   UNL A   1      44.695  30.074  28.435  1.00  0.00     0.167 HD
ATOM     62  C   UNL A   1      46.990  31.723  28.306  1.00  0.00     0.074 A 
ATOM     63  C   UNL A   1      48.335  32.173  28.014  1.00  0.00     0.031 C 
ATOM     64  C   UNL A   1      46.006  32.521  28.791  1.00  0.00     0.034 A 
BRANCH  51  65
ATOM     65  C   UNL A   1      40.544  29.709  29.361  1.00  0.00     0.023 A 
ATOM     66  C   UNL A   1      39.579  29.975  28.368  1.00  0.00     0.012 A 
ATOM     67  C   UNL A   1      40.130  29.474  30.686  1.00  0.00     0.148 A 
ATOM     68  C   UNL A   1      38.225  30.022  28.692  1.00  0.00     0.002 A 
ATOM     69  C   UNL A   1      38.776  29.478  30.992  1.00  0.00     0.091 A 
ATOM     70  F   UNL A   1      41.068  29.251  31.618  1.00  0.00    -0.205 F 
ATOM     71  C   UNL A   1      37.822  29.761  30.000  1.00  0.00     0.022 A 
BRANCH  69  72
ATOM     72  S   UNL A   1      38.151  29.074  32.626  1.00  0.00     0.127 S 
ATOM     73  O   UNL A   1      36.707  29.198  32.429  1.00  0.00    -0.237 OA
ATOM     74  O   UNL A   1      38.626  27.701  32.805  1.00  0.00    -0.237 OA
ATOM     75  O   UNL A   1      38.741  30.045  33.537  1.00  0.00    -0.744 OA
ENDBRANCH  69  72
ENDBRANCH  51  65
BRANCH  52  76
ATOM     76  C   UNL A   1      50.078  28.574  26.638  1.00  0.00     0.023 A 
ATOM     77  C   UNL A   1      50.403  28.717  25.275  1.00  0.00     0.012 A 
ATOM     78  C   UNL A   1      51.108  28.320  27.567  1.00  0.00     0.148 A 
ATOM     79  C   UNL A   1      51.725  28.593  24.842  1.00  0.00     0.002 A 
ATOM     80  C   UNL A   1      52.428  28.251  27.137  1.00  0.00     0.091 A 
ATOM     81  F   UNL A   1      50.774  28.166  28.856  1.00  0.00    -0.205 F 
ATOM     82  C   UNL A   1      52.737  28.373  25.772  1.00  0.00     0.022 A 
BRANCH  80  83
ATOM     83  S   UNL A   1      53.809  28.088  28.273  1.00  0.00     0.127 S 
ATOM     84  O   UNL A   1      53.738  29.346  29.013  1.00  0.00    -0.237 OA
ATOM     85  O   UNL A   1      53.429  26.901  29.038  1.00  0.00    -0.237 OA
ATOM     86  O   UNL A   1      54.991  27.915  27.438  1.00  0.00    -0.744 OA
ENDBRANCH  80  83
ENDBRANCH  52  76
BRANCH  64  87
ATOM     87  C   UNL A   1      46.331  33.965  29.079  1.00  0.00     0.023 A 
ATOM     88  C   UNL A   1      46.946  34.315  30.297  1.00  0.00     0.012 A 
ATOM     89  C   UNL A   1      46.145  34.954  28.091  1.00  0.00     0.148 A 
ATOM     90  C   UNL A   1      47.353  35.627  30.535  1.00  0.00     0.002 A 
ATOM     91  C   UNL A   1      46.597  36.249  28.315  1.00  0.00     0.091 A 
ATOM     92  F   UNL A   1      45.544  34.606  26.943  1.00  0.00    -0.205 F 
ATOM     93  C   UNL A   1      47.192  36.589  29.540  1.00  0.00     0.022 A 
BRANCH  91  94
ATOM     94  S   UNL A   1      46.531  37.527  27.053  1.00  0.00     0.127 S 
ATOM     95  O   UNL A   1      45.093  37.767  26.949  1.00  0.00    -0.237 OA
ATOM     96  O   UNL A   1      47.288  38.616  27.673  1.00  0.00    -0.237 OA
ATOM     97  O   UNL A   1      47.157  36.955  25.869  1.00  0.00    -0.744 OA
ENDBRANCH  91  94
ENDBRANCH  64  87
ENDBRANCH  38  39
ENDBRANCH  31  33
ENDBRANCH  30  31
ENDBRANCH  29  30
ENDBRANCH  28  29
ENDBRANCH  27  28
ENDBRANCH  26  27
ENDBRANCH   1  26
TORSDOF 25
ENDMDL
MODEL 3
REMARK VINA RESULT:      -7.7      4.865      9.548
REMARK SMILES C[C@H]([NH3+])c1ccc(F)cc1OCC(C)(C)C(=O)OCCOCCOCCOC(=O)c1ccc(-c2c3nc(c(-c4cccc(S(=O)(=O)[O-])c4F)c4ccc([nH]4)c(-c4cccc(S(=O)(=O)[O-])c4F)c4nc(c(-c5cccc(S(=O)(=O)[O-])c5F)c5ccc2[nH]5)C=C4)C=C3)cc1
REMARK SMILES IDX 22 1 21 2 20 3 19 4 18 5 16 6 17 7 13 8 14 9 15 10 12 11
REMARK SMILES IDX 11 12 10 13 4 14 5 15 6 16 9 17 7 18 8 19 2 20 1 21 3 22
REMARK SMILES IDX 23 26 24 27 25 28 26 29 27 30 28 31 29 32 30 33 31 34 92 35
REMARK SMILES IDX 32 36 91 37 33 38 34 39 35 40 85 41 36 42 90 43 84 44 86 45
REMARK SMILES IDX 37 46 89 47 83 48 82 49 38 51 70 52 50 53 69 54 51 55 54 56
REMARK SMILES IDX 68 57 87 58 52 59 53 60 67 62 88 63 55 64 39 65 40 66 48 67
REMARK SMILES IDX 41 68 43 69 49 70 42 71 44 72 45 73 46 74 47 75 71 76 72 77
REMARK SMILES IDX 80 78 73 79 75 80 81 81 74 82 76 83 77 84 78 85 79 86 56 87
REMARK SMILES IDX 57 88 65 89 58 90 60 91 66 92 59 93 61 94 62 95 63 96 64 97
REMARK H PARENT 3 23 3 24 3 25 86 50 54 61
REMARK Flexibility Score: inf
ROOT
ATOM      1  C   UNL A   1      48.647  25.444  25.818  1.00  0.00     0.188 C 
ENDROOT
BRANCH   1   2
ATOM      2  O   UNL A   1      47.543  25.866  26.605  1.00  0.00    -0.376 OA
BRANCH   2   3
ATOM      3  C   UNL A   1      47.214  24.982  27.663  1.00  0.00     0.202 C 
BRANCH   3   4
ATOM      4  C   UNL A   1      46.049  24.029  27.375  1.00  0.00     0.261 C 
BRANCH   4   5
ATOM      5  O   UNL A   1      44.895  24.583  26.725  1.00  0.00    -0.463 OA
BRANCH   5   6
ATOM      6  C   UNL A   1      43.683  24.323  27.280  1.00  0.00     0.315 C 
ATOM      7  O   UNL A   1      43.509  24.201  28.484  1.00  0.00    -0.251 OA
BRANCH   6   8
ATOM      8  C   UNL A   1      42.609  24.068  26.207  1.00  0.00     0.096 C 
ATOM      9  C   UNL A   1      41.561  23.241  26.965  1.00  0.00     0.027 C 
ATOM     10  C   UNL A   1      43.054  23.190  25.005  1.00  0.00     0.027 C 
BRANCH   8  11
ATOM     11  C   UNL A   1      42.204  25.436  25.579  1.00  0.00     0.247 C 
BRANCH  11  12
ATOM     12  O   UNL A   1      41.010  26.095  25.965  1.00  0.00    -0.492 OA
BRANCH  12  13
ATOM     13  C   UNL A   1      40.904  26.861  27.081  1.00  0.00     0.131 A 
ATOM     14  C   UNL A   1      41.585  28.056  27.404  1.00  0.00     0.051 A 
ATOM     15  C   UNL A   1      41.248  28.674  28.632  1.00  0.00     0.017 A 
ATOM     16  C   UNL A   1      40.304  28.124  29.504  1.00  0.00     0.040 A 
ATOM     17  C   UNL A   1      39.997  26.290  27.990  1.00  0.00     0.086 A 
ATOM     18  C   UNL A   1      39.697  26.926  29.181  1.00  0.00     0.126 A 
ATOM     19  F   UNL A   1      38.808  26.386  30.023  1.00  0.00    -0.207 F 
BRANCH  14  20
ATOM     20  C   UNL A   1      42.668  28.679  26.538  1.00  0.00     0.212 C 
ATOM     21  C   UNL A   1      43.285  29.916  27.185  1.00  0.00     0.081 C 
BRANCH  20  22
ATOM     22  N   UNL A   1      42.224  28.984  25.166  1.00  0.00    -0.351 N 
ATOM     23  H   UNL A   1      42.278  28.140  24.595  1.00  0.00     0.345 HD
ATOM     24  H   UNL A   1      42.827  29.703  24.765  1.00  0.00     0.345 HD
ATOM     25  H   UNL A   1      41.261  29.320  25.186  1.00  0.00     0.345 HD
ENDBRANCH  20  22
ENDBRANCH  14  20
ENDBRANCH  12  13
ENDBRANCH  11  12
ENDBRANCH   8  11
ENDBRANCH   6   8
ENDBRANCH   5   6
ENDBRANCH   4   5
ENDBRANCH   3   4
ENDBRANCH   2   3
ENDBRANCH   1   2
BRANCH   1  26
ATOM     26  C   UNL A   1      48.632  26.018  24.403  1.00  0.00     0.188 C 
BRANCH  26  27
ATOM     27  O   UNL A   1      49.237  27.261  24.081  1.00  0.00    -0.376 OA
BRANCH  27  28
ATOM     28  C   UNL A   1      50.532  27.261  23.505  1.00  0.00     0.202 C 
BRANCH  28  29
ATOM     29  C   UNL A   1      51.665  28.022  24.213  1.00  0.00     0.261 C 
BRANCH  29  30
ATOM     30  O   UNL A   1      51.559  28.114  25.640  1.00  0.00    -0.460 OA
BRANCH  30  31
ATOM     31  C   UNL A   1      51.585  29.372  26.149  1.00  0.00     0.338 C 
ATOM     32  O   UNL A   1      52.348  30.275  25.841  1.00  0.00    -0.246 OA
BRANCH  31  33
ATOM     33  C   UNL A   1      50.381  29.564  26.993  1.00  0.00     0.060 A 
ATOM     34  C   UNL A   1      49.159  29.040  26.540  1.00  0.00     0.016 A 
ATOM     35  C   UNL A   1      50.457  30.191  28.238  1.00  0.00     0.016 A 
ATOM     36  C   UNL A   1      48.010  29.145  27.324  1.00  0.00     0.010 A 
ATOM     37  C   UNL A   1      49.297  30.335  29.003  1.00  0.00     0.010 A 
ATOM     38  C   UNL A   1      48.066  29.835  28.541  1.00  0.00    -0.014 A 
BRANCH  38  39
ATOM     39  C   UNL A   1      46.816  30.238  29.226  1.00  0.00     0.031 A 
ATOM     40  C   UNL A   1      46.166  29.235  30.139  1.00  0.00     0.074 A 
ATOM     41  C   UNL A   1      46.244  31.438  29.022  1.00  0.00     0.049 A 
ATOM     42  N   UNL A   1      45.015  29.296  30.751  1.00  0.00    -0.248 NA
ATOM     43  C   UNL A   1      46.919  27.994  30.390  1.00  0.00     0.031 C 
ATOM     44  C   UNL A   1      46.790  32.507  28.191  1.00  0.00     0.029 A 
ATOM     45  N   UNL A   1      45.052  31.939  29.482  1.00  0.00    -0.354 N 
ATOM     46  C   UNL A   1      44.888  28.092  31.430  1.00  0.00     0.074 A 
ATOM     47  C   UNL A   1      46.079  27.319  31.158  1.00  0.00     0.031 C 
ATOM     48  C   UNL A   1      45.913  33.528  28.166  1.00  0.00     0.029 A 
ATOM     49  C   UNL A   1      44.733  33.168  28.954  1.00  0.00     0.049 A 
ATOM     50  H   UNL A   1      44.479  31.466  30.128  1.00  0.00     0.167 HD
ATOM     51  C   UNL A   1      43.874  27.670  32.219  1.00  0.00     0.034 A 
ATOM     52  C   UNL A   1      43.606  33.903  29.067  1.00  0.00     0.034 A 
ATOM     53  C   UNL A   1      42.696  28.441  32.501  1.00  0.00     0.049 A 
ATOM     54  C   UNL A   1      42.468  33.391  29.916  1.00  0.00     0.074 A 
ATOM     55  C   UNL A   1      41.628  28.105  33.313  1.00  0.00     0.029 A 
ATOM     56  N   UNL A   1      42.426  29.695  31.977  1.00  0.00    -0.354 N 
ATOM     57  N   UNL A   1      42.395  32.289  30.625  1.00  0.00    -0.248 NA
ATOM     58  C   UNL A   1      41.264  34.233  30.000  1.00  0.00     0.031 C 
ATOM     59  C   UNL A   1      40.698  29.146  33.259  1.00  0.00     0.029 A 
ATOM     60  C   UNL A   1      41.202  30.144  32.440  1.00  0.00     0.049 A 
ATOM     61  H   UNL A   1      43.016  30.192  31.366  1.00  0.00     0.167 HD
ATOM     62  C   UNL A   1      41.159  32.323  31.264  1.00  0.00     0.074 A 
ATOM     63  C   UNL A   1      40.520  33.562  30.871  1.00  0.00     0.031 C 
ATOM     64  C   UNL A   1      40.599  31.404  32.089  1.00  0.00     0.034 A 
BRANCH  51  65
ATOM     65  C   UNL A   1      44.002  26.315  32.856  1.00  0.00     0.023 A 
ATOM     66  C   UNL A   1      43.912  25.159  32.055  1.00  0.00     0.012 A 
ATOM     67  C   UNL A   1      44.288  26.188  34.228  1.00  0.00     0.148 A 
ATOM     68  C   UNL A   1      44.088  23.895  32.614  1.00  0.00     0.002 A 
ATOM     69  C   UNL A   1      44.505  24.928  34.770  1.00  0.00     0.091 A 
ATOM     70  F   UNL A   1      44.340  27.301  34.975  1.00  0.00    -0.205 F 
ATOM     71  C   UNL A   1      44.397  23.780  33.968  1.00  0.00     0.022 A 
BRANCH  69  72
ATOM     72  S   UNL A   1      44.990  24.681  36.481  1.00  0.00     0.127 S 
ATOM     73  O   UNL A   1      45.130  23.226  36.541  1.00  0.00    -0.237 OA
ATOM     74  O   UNL A   1      46.251  25.418  36.553  1.00  0.00    -0.237 OA
ATOM     75  O   UNL A   1      43.914  25.235  37.291  1.00  0.00    -0.744 OA
ENDBRANCH  69  72
ENDBRANCH  51  65
BRANCH  52  76
ATOM     76  C   UNL A   1      43.507  35.221  28.378  1.00  0.00     0.023 A 
ATOM     77  C   UNL A   1      42.922  35.290  27.099  1.00  0.00     0.012 A 
ATOM     78  C   UNL A   1      43.961  36.406  28.991  1.00  0.00     0.148 A 
ATOM     79  C   UNL A   1      42.806  36.513  26.435  1.00  0.00     0.002 A 
ATOM     80  C   UNL A   1      43.794  37.627  28.348  1.00  0.00     0.091 A 
ATOM     81  F   UNL A   1      44.535  36.314  30.200  1.00  0.00    -0.205 F 
ATOM     82  C   UNL A   1      43.230  37.681  27.064  1.00  0.00     0.022 A 
BRANCH  80  83
ATOM     83  S   UNL A   1      44.201  39.194  29.126  1.00  0.00     0.127 S 
ATOM     84  O   UNL A   1      45.661  39.165  29.112  1.00  0.00    -0.237 OA
ATOM     85  O   UNL A   1      43.595  40.153  28.201  1.00  0.00    -0.237 OA
ATOM     86  O   UNL A   1      43.583  39.154  30.444  1.00  0.00    -0.744 OA
ENDBRANCH  80  83
ENDBRANCH  52  76
BRANCH  64  87
ATOM     87  C   UNL A   1      39.236  31.694  32.666  1.00  0.00     0.023 A 
ATOM     88  C   UNL A   1      38.081  31.280  31.974  1.00  0.00     0.012 A 
ATOM     89  C   UNL A   1      39.105  32.259  33.952  1.00  0.00     0.148 A 
ATOM     90  C   UNL A   1      36.817  31.441  32.542  1.00  0.00     0.002 A 
ATOM     91  C   UNL A   1      37.847  32.371  34.533  1.00  0.00     0.091 A 
ATOM     92  F   UNL A   1      40.214  32.660  34.590  1.00  0.00    -0.205 F 
ATOM     93  C   UNL A   1      36.702  31.971  33.825  1.00  0.00     0.022 A 
BRANCH  91  94
ATOM     94  S   UNL A   1      37.610  32.941  36.221  1.00  0.00     0.127 S 
ATOM     95  O   UNL A   1      36.253  33.479  36.165  1.00  0.00    -0.237 OA
ATOM     96  O   UNL A   1      37.745  31.703  36.989  1.00  0.00    -0.237 OA
ATOM     97  O   UNL A   1      38.662  33.920  36.465  1.00  0.00    -0.744 OA
ENDBRANCH  91  94
ENDBRANCH  64  87
ENDBRANCH  38  39
ENDBRANCH  31  33
ENDBRANCH  30  31
ENDBRANCH  29  30
ENDBRANCH  28  29
ENDBRANCH  27  28
ENDBRANCH  26  27
ENDBRANCH   1  26
TORSDOF 25
ENDMDL
