MODEL 1
REMARK VINA RESULT:      -9.8      0.000      0.000
REMARK SMILES Cc1cc(C(=O)OCCOCCOCCOC(=O)c2ccc(-c3c4nc(c(-c5cccc(S(=O)(=O)[O-])c5F)c5ccc([nH]5)c(-c5cccc(S(=O)(=O)[O-])c5F)c5nc(c(-c6cccc(S(=O)(=O)[O-])c6F)c6ccc3[nH]6)C=C5)C=C4)cc2)ccc1NS(=O)(=O)c1ccc(C#N)cc1C
REMARK SMILES IDX 11 1 10 2 9 3 8 4 7 5 5 6 6 7 4 8 1 9 2 10 3 11 84 12 83 13
REMARK SMILES IDX 82 14 85 15 86 17 87 18 88 19 89 20 90 21 96 22 91 23 95 24
REMARK SMILES IDX 97 25 92 26 93 27 94 28 12 29 13 30 14 31 15 32 16 33 17 34
REMARK SMILES IDX 18 35 19 36 20 37 81 38 21 39 80 40 22 41 23 42 24 43 74 44
REMARK SMILES IDX 25 45 79 46 73 47 75 48 26 49 78 50 72 51 71 52 27 54 59 55
REMARK SMILES IDX 39 56 58 57 40 58 43 59 57 60 76 61 41 62 42 63 56 65 77 66
REMARK SMILES IDX 44 67 28 68 29 69 37 70 30 71 32 72 38 73 31 74 33 75 34 76
REMARK SMILES IDX 35 77 36 78 60 79 61 80 69 81 62 82 64 83 70 84 63 85 65 86
REMARK SMILES IDX 66 87 67 88 68 89 45 90 46 91 54 92 47 93 49 94 55 95 48 96
REMARK SMILES IDX 50 97 51 98 52 99 53 100
REMARK H PARENT 85 16 75 53 43 64
REMARK Flexibility Score: inf
ROOT
ATOM      1  C   UNL A   1      40.491  34.581  30.630  1.00  0.00     0.188 C 
ENDROOT
BRANCH   1   2
ATOM      2  O   UNL A   1      41.326  34.387  29.527  1.00  0.00    -0.376 OA
BRANCH   2   3
ATOM      3  C   UNL A   1      42.577  33.881  29.987  1.00  0.00     0.202 C 
BRANCH   3   4
ATOM      4  C   UNL A   1      43.612  35.017  30.442  1.00  0.00     0.261 C 
BRANCH   4   5
ATOM      5  O   UNL A   1      44.877  35.987  29.621  1.00  0.00    -0.460 OA
BRANCH   5   6
ATOM      6  C   UNL A   1      45.275  36.916  28.515  1.00  0.00     0.338 C 
ATOM      7  O   UNL A   1      46.035  36.779  27.558  1.00  0.00    -0.246 OA
BRANCH   6   8
ATOM      8  C   UNL A   1      44.527  38.142  28.312  1.00  0.00     0.060 A 
ATOM      9  C   UNL A   1      41.388  39.420  26.608  1.00  0.00     0.046 C 
ATOM     10  C   UNL A   1      42.809  39.382  27.121  1.00  0.00    -0.026 A 
ATOM     11  C   UNL A   1      43.364  38.164  27.491  1.00  0.00     0.021 A 
ATOM     12  C   UNL A   1      43.539  40.514  27.497  1.00  0.00     0.052 A 
ATOM     13  C   UNL A   1      44.442  40.474  28.555  1.00  0.00     0.028 A 
ATOM     14  C   UNL A   1      44.978  39.273  28.937  1.00  0.00     0.018 A 
BRANCH  12  15
ATOM     15  N   UNL A   1      43.522  41.718  26.746  1.00  0.00    -0.279 N 
ATOM     16  H   UNL A   1      43.235  42.556  27.176  1.00  0.00     0.180 HD
BRANCH  15  17
ATOM     17  S   UNL A   1      43.998  41.728  25.085  1.00  0.00     0.262 S 
ATOM     18  O   UNL A   1      45.008  40.700  24.945  1.00  0.00    -0.201 OA
ATOM     19  O   UNL A   1      42.711  41.569  24.430  1.00  0.00    -0.201 OA
BRANCH  17  20
ATOM     20  C   UNL A   1      44.730  43.255  24.412  1.00  0.00     0.090 A 
ATOM     21  C   UNL A   1      44.041  44.090  23.528  1.00  0.00     0.024 A 
ATOM     22  C   UNL A   1      46.007  43.695  24.821  1.00  0.00    -0.029 A 
ATOM     23  C   UNL A   1      44.710  45.090  22.784  1.00  0.00     0.021 A 
ATOM     24  C   UNL A   1      46.662  44.731  24.104  1.00  0.00     0.024 A 
ATOM     25  C   UNL A   1      46.658  43.299  26.118  1.00  0.00     0.046 C 
ATOM     26  C   UNL A   1      46.049  45.377  23.030  1.00  0.00     0.052 A 
BRANCH  26  27
ATOM     27  C   UNL A   1      46.786  46.283  22.215  1.00  0.00     0.099 C 
ATOM     28  N   UNL A   1      47.523  46.975  21.599  1.00  0.00    -0.192 NA
ENDBRANCH  26  27
ENDBRANCH  17  20
ENDBRANCH  15  17
ENDBRANCH  12  15
ENDBRANCH   6   8
ENDBRANCH   5   6
ENDBRANCH   4   5
ENDBRANCH   3   4
ENDBRANCH   2   3
ENDBRANCH   1   2
BRANCH   1  29
ATOM     29  C   UNL A   1      39.191  33.828  30.623  1.00  0.00     0.188 C 
BRANCH  29  30
ATOM     30  O   UNL A   1      38.574  33.749  29.363  1.00  0.00    -0.376 OA
BRANCH  30  31
ATOM     31  C   UNL A   1      37.344  34.459  29.291  1.00  0.00     0.202 C 
BRANCH  31  32
ATOM     32  C   UNL A   1      36.057  33.649  28.849  1.00  0.00     0.261 C 
BRANCH  32  33
ATOM     33  O   UNL A   1      36.153  32.151  28.879  1.00  0.00    -0.460 OA
BRANCH  33  34
ATOM     34  C   UNL A   1      36.507  31.227  29.856  1.00  0.00     0.338 C 
ATOM     35  O   UNL A   1      35.969  31.222  30.956  1.00  0.00    -0.246 OA
BRANCH  34  36
ATOM     36  C   UNL A   1      37.162  29.974  29.366  1.00  0.00     0.060 A 
ATOM     37  C   UNL A   1      37.395  28.788  30.032  1.00  0.00     0.016 A 
ATOM     38  C   UNL A   1      37.483  29.845  28.068  1.00  0.00     0.016 A 
ATOM     39  C   UNL A   1      38.581  28.016  29.767  1.00  0.00     0.010 A 
ATOM     40  C   UNL A   1      38.667  29.125  27.845  1.00  0.00     0.010 A 
ATOM     41  C   UNL A   1      39.486  28.412  28.803  1.00  0.00    -0.014 A 
BRANCH  41  42
ATOM     42  C   UNL A   1      41.190  27.921  28.827  1.00  0.00     0.031 A 
ATOM     43  C   UNL A   1      42.073  26.413  28.271  1.00  0.00     0.074 A 
ATOM     44  C   UNL A   1      41.964  28.870  29.406  1.00  0.00     0.049 A 
ATOM     45  N   UNL A   1      42.872  25.715  29.045  1.00  0.00    -0.248 NA
ATOM     46  C   UNL A   1      41.793  25.382  27.067  1.00  0.00     0.031 C 
ATOM     47  C   UNL A   1      43.412  28.957  29.494  1.00  0.00     0.029 A 
ATOM     48  N   UNL A   1      41.565  30.007  30.082  1.00  0.00    -0.354 N 
ATOM     49  C   UNL A   1      43.128  24.485  28.371  1.00  0.00     0.074 A 
ATOM     50  C   UNL A   1      42.037  24.190  27.565  1.00  0.00     0.031 C 
ATOM     51  C   UNL A   1      43.731  29.891  30.420  1.00  0.00     0.029 A 
ATOM     52  C   UNL A   1      42.495  30.325  31.057  1.00  0.00     0.049 A 
ATOM     53  H   UNL A   1      40.742  30.515  29.899  1.00  0.00     0.167 HD
ATOM     54  C   UNL A   1      44.386  24.032  28.129  1.00  0.00     0.034 A 
ATOM     55  C   UNL A   1      42.157  30.094  32.366  1.00  0.00     0.034 A 
ATOM     56  C   UNL A   1      45.224  24.766  29.054  1.00  0.00     0.049 A 
ATOM     57  C   UNL A   1      42.881  28.848  32.907  1.00  0.00     0.074 A 
ATOM     58  C   UNL A   1      45.898  25.967  28.939  1.00  0.00     0.029 A 
ATOM     59  N   UNL A   1      44.883  24.630  30.393  1.00  0.00    -0.354 N 
ATOM     60  N   UNL A   1      43.561  27.985  32.184  1.00  0.00    -0.248 NA
ATOM     61  C   UNL A   1      42.957  28.532  34.330  1.00  0.00     0.031 C 
ATOM     62  C   UNL A   1      45.809  26.618  30.217  1.00  0.00     0.029 A 
ATOM     63  C   UNL A   1      45.129  25.795  31.107  1.00  0.00     0.049 A 
ATOM     64  H   UNL A   1      44.512  23.808  30.788  1.00  0.00     0.167 HD
ATOM     65  C   UNL A   1      44.064  26.979  32.973  1.00  0.00     0.074 A 
ATOM     66  C   UNL A   1      43.714  27.422  34.317  1.00  0.00     0.031 C 
ATOM     67  C   UNL A   1      44.698  25.847  32.509  1.00  0.00     0.034 A 
BRANCH  54  68
ATOM     68  C   UNL A   1      44.852  23.149  26.931  1.00  0.00     0.023 A 
ATOM     69  C   UNL A   1      45.865  23.728  26.145  1.00  0.00     0.012 A 
ATOM     70  C   UNL A   1      44.376  21.878  26.437  1.00  0.00     0.148 A 
ATOM     71  C   UNL A   1      46.361  23.134  24.971  1.00  0.00     0.002 A 
ATOM     72  C   UNL A   1      44.900  21.266  25.281  1.00  0.00     0.091 A 
ATOM     73  F   UNL A   1      43.359  21.237  27.013  1.00  0.00    -0.205 F 
ATOM     74  C   UNL A   1      45.888  21.903  24.539  1.00  0.00     0.022 A 
BRANCH  72  75
ATOM     75  S   UNL A   1      44.348  19.647  24.660  1.00  0.00     0.127 S 
ATOM     76  O   UNL A   1      45.220  18.726  25.390  1.00  0.00    -0.237 OA
ATOM     77  O   UNL A   1      42.946  19.610  25.078  1.00  0.00    -0.237 OA
ATOM     78  O   UNL A   1      44.544  19.673  23.216  1.00  0.00    -0.744 OA
ENDBRANCH  72  75
ENDBRANCH  54  68
BRANCH  55  79
ATOM     79  C   UNL A   1      40.765  30.608  32.717  1.00  0.00     0.023 A 
ATOM     80  C   UNL A   1      39.719  29.634  32.714  1.00  0.00     0.012 A 
ATOM     81  C   UNL A   1      40.479  31.845  33.325  1.00  0.00     0.148 A 
ATOM     82  C   UNL A   1      38.552  29.788  33.469  1.00  0.00     0.002 A 
ATOM     83  C   UNL A   1      39.277  32.018  34.038  1.00  0.00     0.091 A 
ATOM     84  F   UNL A   1      41.403  32.814  33.300  1.00  0.00    -0.205 F 
ATOM     85  C   UNL A   1      38.338  30.976  34.147  1.00  0.00     0.022 A 
BRANCH  83  86
ATOM     86  S   UNL A   1      39.014  33.506  35.035  1.00  0.00     0.127 S 
ATOM     87  O   UNL A   1      37.596  33.426  35.393  1.00  0.00    -0.237 OA
ATOM     88  O   UNL A   1      39.917  33.332  36.164  1.00  0.00    -0.237 OA
ATOM     89  O   UNL A   1      39.339  34.565  34.087  1.00  0.00    -0.744 OA
ENDBRANCH  83  86
ENDBRANCH  55  79
BRANCH  67  90
ATOM     90  C   UNL A   1      44.934  24.594  33.370  1.00  0.00     0.023 A 
ATOM     91  C   UNL A   1      44.058  23.495  33.350  1.00  0.00     0.012 A 
ATOM     92  C   UNL A   1      46.143  24.400  34.097  1.00  0.00     0.148 A 
ATOM     93  C   UNL A   1      44.295  22.336  34.096  1.00  0.00     0.002 A 
ATOM     94  C   UNL A   1      46.465  23.171  34.663  1.00  0.00     0.091 A 
ATOM     95  F   UNL A   1      47.008  25.411  34.272  1.00  0.00    -0.205 F 
ATOM     96  C   UNL A   1      45.515  22.157  34.728  1.00  0.00     0.022 A 
BRANCH  94  97
ATOM     97  S   UNL A   1      48.167  22.789  35.111  1.00  0.00     0.127 S 
ATOM     98  O   UNL A   1      48.301  23.448  36.406  1.00  0.00    -0.237 OA
ATOM     99  O   UNL A   1      48.160  21.326  35.167  1.00  0.00    -0.237 OA
ATOM    100  O   UNL A   1      48.963  23.335  34.017  1.00  0.00    -0.744 OA
ENDBRANCH  94  97
ENDBRANCH  67  90
ENDBRANCH  41  42
ENDBRANCH  34  36
ENDBRANCH  33  34
ENDBRANCH  32  33
ENDBRANCH  31  32
ENDBRANCH  30  31
ENDBRANCH  29  30
ENDBRANCH   1  29
TORSDOF 24
ENDMDL
MODEL 2
REMARK VINA RESULT:      -9.3      7.327     14.436
REMARK SMILES Cc1cc(C(=O)OCCOCCOCCOC(=O)c2ccc(-c3c4nc(c(-c5cccc(S(=O)(=O)[O-])c5F)c5ccc([nH]5)c(-c5cccc(S(=O)(=O)[O-])c5F)c5nc(c(-c6cccc(S(=O)(=O)[O-])c6F)c6ccc3[nH]6)C=C5)C=C4)cc2)ccc1NS(=O)(=O)c1ccc(C#N)cc1C
REMARK SMILES IDX 11 1 10 2 9 3 8 4 7 5 5 6 6 7 4 8 1 9 2 10 3 11 84 12 83 13
REMARK SMILES IDX 82 14 85 15 86 17 87 18 88 19 89 20 90 21 96 22 91 23 95 24
REMARK SMILES IDX 97 25 92 26 93 27 94 28 12 29 13 30 14 31 15 32 16 33 17 34
REMARK SMILES IDX 18 35 19 36 20 37 81 38 21 39 80 40 22 41 23 42 24 43 74 44
REMARK SMILES IDX 25 45 79 46 73 47 75 48 26 49 78 50 72 51 71 52 27 54 59 55
REMARK SMILES IDX 39 56 58 57 40 58 43 59 57 60 76 61 41 62 42 63 56 65 77 66
REMARK SMILES IDX 44 67 28 68 29 69 37 70 30 71 32 72 38 73 31 74 33 75 34 76
REMARK SMILES IDX 35 77 36 78 60 79 61 80 69 81 62 82 64 83 70 84 63 85 65 86
REMARK SMILES IDX 66 87 67 88 68 89 45 90 46 91 54 92 47 93 49 94 55 95 48 96
REMARK SMILES IDX 50 97 51 98 52 99 53 100
REMARK H PARENT 85 16 75 53 43 64
REMARK Flexibility Score: inf
ROOT
ATOM      1  C   UNL A   1      35.268  31.185  28.712  1.00  0.00     0.188 C 
ENDROOT
BRANCH   1   2
ATOM      2  O   UNL A   1      34.133  31.728  28.108  1.00  0.00    -0.376 OA
BRANCH   2   3
ATOM      3  C   UNL A   1      33.508  30.718  27.320  1.00  0.00     0.202 C 
BRANCH   3   4
ATOM      4  C   UNL A   1      32.091  31.151  26.710  1.00  0.00     0.261 C 
BRANCH   4   5
ATOM      5  O   UNL A   1      31.073  30.598  25.341  1.00  0.00    -0.460 OA
BRANCH   5   6
ATOM      6  C   UNL A   1      30.705  29.529  24.357  1.00  0.00     0.338 C 
ATOM      7  O   UNL A   1      30.426  29.573  23.160  1.00  0.00    -0.246 OA
BRANCH   6   8
ATOM      8  C   UNL A   1      30.896  28.136  24.715  1.00  0.00     0.060 A 
ATOM      9  C   UNL A   1      30.555  24.654  23.250  1.00  0.00     0.046 C 
ATOM     10  C   UNL A   1      30.519  25.779  24.258  1.00  0.00    -0.026 A 
ATOM     11  C   UNL A   1      30.552  27.093  23.809  1.00  0.00     0.021 A 
ATOM     12  C   UNL A   1      30.709  25.609  25.633  1.00  0.00     0.052 A 
ATOM     13  C   UNL A   1      31.364  26.569  26.397  1.00  0.00     0.028 A 
ATOM     14  C   UNL A   1      31.417  27.864  25.950  1.00  0.00     0.018 A 
BRANCH  12  15
ATOM     15  N   UNL A   1      30.127  24.536  26.358  1.00  0.00    -0.279 N 
ATOM     16  H   UNL A   1      29.217  24.632  26.722  1.00  0.00     0.180 HD
BRANCH  15  17
ATOM     17  S   UNL A   1      30.999  23.066  26.608  1.00  0.00     0.262 S 
ATOM     18  O   UNL A   1      31.237  22.971  28.032  1.00  0.00    -0.201 OA
ATOM     19  O   UNL A   1      30.117  22.111  25.958  1.00  0.00    -0.201 OA
BRANCH  17  20
ATOM     20  C   UNL A   1      32.626  22.887  25.806  1.00  0.00     0.090 A 
ATOM     21  C   UNL A   1      33.689  23.754  26.068  1.00  0.00     0.024 A 
ATOM     22  C   UNL A   1      32.896  21.811  24.934  1.00  0.00    -0.029 A 
ATOM     23  C   UNL A   1      34.830  23.798  25.232  1.00  0.00     0.021 A 
ATOM     24  C   UNL A   1      34.064  21.830  24.126  1.00  0.00     0.024 A 
ATOM     25  C   UNL A   1      32.144  20.508  24.948  1.00  0.00     0.046 C 
ATOM     26  C   UNL A   1      34.995  22.866  24.212  1.00  0.00     0.052 A 
BRANCH  26  27
ATOM     27  C   UNL A   1      36.062  22.959  23.274  1.00  0.00     0.099 C 
ATOM     28  N   UNL A   1      37.009  22.916  22.565  1.00  0.00    -0.192 NA
ENDBRANCH  26  27
ENDBRANCH  17  20
ENDBRANCH  15  17
ENDBRANCH  12  15
ENDBRANCH   6   8
ENDBRANCH   5   6
ENDBRANCH   4   5
ENDBRANCH   3   4
ENDBRANCH   2   3
ENDBRANCH   1   2
BRANCH   1  29
ATOM     29  C   UNL A   1      36.514  31.139  27.873  1.00  0.00     0.188 C 
BRANCH  29  30
ATOM     30  O   UNL A   1      37.620  30.550  28.510  1.00  0.00    -0.376 OA
BRANCH  30  31
ATOM     31  C   UNL A   1      37.987  29.293  27.955  1.00  0.00     0.202 C 
BRANCH  31  32
ATOM     32  C   UNL A   1      39.184  28.514  28.638  1.00  0.00     0.261 C 
BRANCH  32  33
ATOM     33  O   UNL A   1      40.479  29.259  28.793  1.00  0.00    -0.460 OA
BRANCH  33  34
ATOM     34  C   UNL A   1      41.572  29.124  29.642  1.00  0.00     0.338 C 
ATOM     35  O   UNL A   1      41.715  28.135  30.349  1.00  0.00    -0.246 OA
BRANCH  34  36
ATOM     36  C   UNL A   1      42.774  29.945  29.295  1.00  0.00     0.060 A 
ATOM     37  C   UNL A   1      43.249  30.326  28.056  1.00  0.00     0.016 A 
ATOM     38  C   UNL A   1      43.478  30.552  30.264  1.00  0.00     0.016 A 
ATOM     39  C   UNL A   1      44.664  30.435  27.811  1.00  0.00     0.010 A 
ATOM     40  C   UNL A   1      44.859  30.603  30.017  1.00  0.00     0.010 A 
ATOM     41  C   UNL A   1      45.579  30.215  28.822  1.00  0.00    -0.014 A 
BRANCH  41  42
ATOM     42  C   UNL A   1      47.254  29.725  28.509  1.00  0.00     0.031 A 
ATOM     43  C   UNL A   1      48.736  30.621  27.908  1.00  0.00     0.074 A 
ATOM     44  C   UNL A   1      47.430  28.404  28.752  1.00  0.00     0.049 A 
ATOM     45  N   UNL A   1      49.458  30.225  26.885  1.00  0.00    -0.248 NA
ATOM     46  C   UNL A   1      49.215  32.149  28.079  1.00  0.00     0.031 C 
ATOM     47  C   UNL A   1      48.655  27.622  28.780  1.00  0.00     0.029 A 
ATOM     48  N   UNL A   1      46.471  27.447  29.022  1.00  0.00    -0.354 N 
ATOM     49  C   UNL A   1      50.322  31.306  26.546  1.00  0.00     0.074 A 
ATOM     50  C   UNL A   1      49.702  32.494  26.909  1.00  0.00     0.031 C 
ATOM     51  C   UNL A   1      48.329  26.310  28.747  1.00  0.00     0.029 A 
ATOM     52  C   UNL A   1      46.889  26.215  28.548  1.00  0.00     0.049 A 
ATOM     53  H   UNL A   1      45.618  27.614  29.484  1.00  0.00     0.167 HD
ATOM     54  C   UNL A   1      51.669  31.162  26.444  1.00  0.00     0.034 A 
ATOM     55  C   UNL A   1      46.277  25.718  27.426  1.00  0.00     0.034 A 
ATOM     56  C   UNL A   1      51.873  29.737  26.287  1.00  0.00     0.049 A 
ATOM     57  C   UNL A   1      47.196  25.849  26.197  1.00  0.00     0.074 A 
ATOM     58  C   UNL A   1      52.080  28.726  27.206  1.00  0.00     0.029 A 
ATOM     59  N   UNL A   1      51.216  29.162  25.207  1.00  0.00    -0.354 N 
ATOM     60  N   UNL A   1      48.321  26.530  26.154  1.00  0.00    -0.248 NA
ATOM     61  C   UNL A   1      46.947  25.146  24.944  1.00  0.00     0.031 C 
ATOM     62  C   UNL A   1      51.387  27.567  26.713  1.00  0.00     0.029 A 
ATOM     63  C   UNL A   1      50.808  27.865  25.485  1.00  0.00     0.049 A 
ATOM     64  H   UNL A   1      51.059  29.619  24.350  1.00  0.00     0.167 HD
ATOM     65  C   UNL A   1      48.885  26.458  24.903  1.00  0.00     0.074 A 
ATOM     66  C   UNL A   1      48.013  25.513  24.214  1.00  0.00     0.031 C 
ATOM     67  C   UNL A   1      49.985  27.173  24.485  1.00  0.00     0.034 A 
BRANCH  54  68
ATOM     68  C   UNL A   1      52.754  32.244  26.728  1.00  0.00     0.023 A 
ATOM     69  C   UNL A   1      53.022  32.450  28.094  1.00  0.00     0.012 A 
ATOM     70  C   UNL A   1      53.477  33.130  25.846  1.00  0.00     0.148 A 
ATOM     71  C   UNL A   1      53.902  33.441  28.564  1.00  0.00     0.002 A 
ATOM     72  C   UNL A   1      54.386  34.098  26.316  1.00  0.00     0.091 A 
ATOM     73  F   UNL A   1      53.274  33.129  24.528  1.00  0.00    -0.205 F 
ATOM     74  C   UNL A   1      54.590  34.262  27.681  1.00  0.00     0.022 A 
BRANCH  72  75
ATOM     75  S   UNL A   1      55.340  35.198  25.225  1.00  0.00     0.127 S 
ATOM     76  O   UNL A   1      54.290  36.026  24.631  1.00  0.00    -0.237 OA
ATOM     77  O   UNL A   1      56.205  35.907  26.169  1.00  0.00    -0.237 OA
ATOM     78  O   UNL A   1      56.051  34.334  24.290  1.00  0.00    -0.744 OA
ENDBRANCH  72  75
ENDBRANCH  54  68
BRANCH  55  79
ATOM     79  C   UNL A   1      44.757  25.820  27.486  1.00  0.00     0.023 A 
ATOM     80  C   UNL A   1      44.186  27.008  26.935  1.00  0.00     0.012 A 
ATOM     81  C   UNL A   1      43.876  24.752  27.744  1.00  0.00     0.148 A 
ATOM     82  C   UNL A   1      42.875  27.053  26.452  1.00  0.00     0.002 A 
ATOM     83  C   UNL A   1      42.539  24.822  27.307  1.00  0.00     0.091 A 
ATOM     84  F   UNL A   1      44.349  23.639  28.319  1.00  0.00    -0.205 F 
ATOM     85  C   UNL A   1      42.054  25.951  26.621  1.00  0.00     0.022 A 
BRANCH  83  86
ATOM     86  S   UNL A   1      41.472  23.362  27.401  1.00  0.00     0.127 S 
ATOM     87  O   UNL A   1      41.933  22.534  26.285  1.00  0.00    -0.237 OA
ATOM     88  O   UNL A   1      41.768  22.800  28.712  1.00  0.00    -0.237 OA
ATOM     89  O   UNL A   1      40.148  23.944  27.217  1.00  0.00    -0.744 OA
ENDBRANCH  83  86
ENDBRANCH  55  79
BRANCH  67  90
ATOM     90  C   UNL A   1      50.378  27.339  23.007  1.00  0.00     0.023 A 
ATOM     91  C   UNL A   1      49.489  27.858  22.050  1.00  0.00     0.012 A 
ATOM     92  C   UNL A   1      51.717  27.149  22.560  1.00  0.00     0.148 A 
ATOM     93  C   UNL A   1      49.858  28.054  20.714  1.00  0.00     0.002 A 
ATOM     94  C   UNL A   1      52.125  27.543  21.290  1.00  0.00     0.091 A 
ATOM     95  F   UNL A   1      52.628  26.566  23.353  1.00  0.00    -0.205 F 
ATOM     96  C   UNL A   1      51.186  27.928  20.339  1.00  0.00     0.022 A 
BRANCH  94  97
ATOM     97  S   UNL A   1      53.872  27.779  20.924  1.00  0.00     0.127 S 
ATOM     98  O   UNL A   1      54.375  26.409  20.922  1.00  0.00    -0.237 OA
ATOM     99  O   UNL A   1      53.837  28.420  19.608  1.00  0.00    -0.237 OA
ATOM    100  O   UNL A   1      54.354  28.648  21.992  1.00  0.00    -0.744 OA
ENDBRANCH  94  97
ENDBRANCH  67  90
ENDBRANCH  41  42
ENDBRANCH  34  36
ENDBRANCH  33  34
ENDBRANCH  32  33
ENDBRANCH  31  32
ENDBRANCH  30  31
ENDBRANCH  29  30
ENDBRANCH   1  29
TORSDOF 24
ENDMDL
MODEL 3
REMARK VINA RESULT:      -9.2      7.738     15.118
REMARK SMILES Cc1cc(C(=O)OCCOCCOCCOC(=O)c2ccc(-c3c4nc(c(-c5cccc(S(=O)(=O)[O-])c5F)c5ccc([nH]5)c(-c5cccc(S(=O)(=O)[O-])c5F)c5nc(c(-c6cccc(S(=O)(=O)[O-])c6F)c6ccc3[nH]6)C=C5)C=C4)cc2)ccc1NS(=O)(=O)c1ccc(C#N)cc1C
REMARK SMILES IDX 11 1 10 2 9 3 8 4 7 5 5 6 6 7 4 8 1 9 2 10 3 11 84 12 83 13
REMARK SMILES IDX 82 14 85 15 86 17 87 18 88 19 89 20 90 21 96 22 91 23 95 24
REMARK SMILES IDX 97 25 92 26 93 27 94 28 12 29 13 30 14 31 15 32 16 33 17 34
REMARK SMILES IDX 18 35 19 36 20 37 81 38 21 39 80 40 22 41 23 42 24 43 74 44
REMARK SMILES IDX 25 45 79 46 73 47 75 48 26 49 78 50 72 51 71 52 27 54 59 55
REMARK SMILES IDX 39 56 58 57 40 58 43 59 57 60 76 61 41 62 42 63 56 65 77 66
REMARK SMILES IDX 44 67 28 68 29 69 37 70 30 71 32 72 38 73 31 74 33 75 34 76
REMARK SMILES IDX 35 77 36 78 60 79 61 80 69 81 62 82 64 83 70 84 63 85 65 86
REMARK SMILES IDX 66 87 67 88 68 89 45 90 46 91 54 92 47 93 49 94 55 95 48 96
REMARK SMILES IDX 50 97 51 98 52 99 53 100
REMARK H PARENT 85 16 75 53 43 64
REMARK Flexibility Score: inf
ROOT
ATOM      1  C   UNL A   1      37.154  29.962  32.638  1.00  0.00     0.188 C 
ENDROOT
BRANCH   1   2
ATOM      2  O   UNL A   1      37.914  29.063  31.886  1.00  0.00    -0.376 OA
BRANCH   2   3
ATOM      3  C   UNL A   1      37.942  29.512  30.533  1.00  0.00     0.202 C 
BRANCH   3   4
ATOM      4  C   UNL A   1      36.524  29.429  29.790  1.00  0.00     0.261 C 
BRANCH   4   5
ATOM      5  O   UNL A   1      35.703  30.378  28.509  1.00  0.00    -0.460 OA
BRANCH   5   6
ATOM      6  C   UNL A   1      34.434  30.851  27.868  1.00  0.00     0.338 C 
ATOM      7  O   UNL A   1      33.943  31.972  27.742  1.00  0.00    -0.246 OA
BRANCH   6   8
ATOM      8  C   UNL A   1      33.684  29.944  27.020  1.00  0.00     0.060 A 
ATOM      9  C   UNL A   1      33.845  26.423  25.618  1.00  0.00     0.046 C 
ATOM     10  C   UNL A   1      33.578  27.908  25.696  1.00  0.00    -0.026 A 
ATOM     11  C   UNL A   1      34.195  28.656  26.692  1.00  0.00     0.021 A 
ATOM     12  C   UNL A   1      32.556  28.561  25.000  1.00  0.00     0.052 A 
ATOM     13  C   UNL A   1      31.876  29.639  25.556  1.00  0.00     0.028 A 
ATOM     14  C   UNL A   1      32.471  30.370  26.551  1.00  0.00     0.018 A 
BRANCH  12  15
ATOM     15  N   UNL A   1      32.250  28.271  23.645  1.00  0.00    -0.279 N 
ATOM     16  H   UNL A   1      32.697  28.774  22.926  1.00  0.00     0.180 HD
BRANCH  15  17
ATOM     17  S   UNL A   1      31.099  27.045  23.244  1.00  0.00     0.262 S 
ATOM     18  O   UNL A   1      30.001  27.199  24.175  1.00  0.00    -0.201 OA
ATOM     19  O   UNL A   1      30.892  27.316  21.832  1.00  0.00    -0.201 OA
BRANCH  17  20
ATOM     20  C   UNL A   1      31.626  25.305  23.360  1.00  0.00     0.090 A 
ATOM     21  C   UNL A   1      32.604  24.760  22.524  1.00  0.00     0.024 A 
ATOM     22  C   UNL A   1      31.111  24.450  24.359  1.00  0.00    -0.029 A 
ATOM     23  C   UNL A   1      32.786  23.362  22.413  1.00  0.00     0.021 A 
ATOM     24  C   UNL A   1      31.331  23.050  24.275  1.00  0.00     0.024 A 
ATOM     25  C   UNL A   1      30.519  24.933  25.655  1.00  0.00     0.046 C 
ATOM     26  C   UNL A   1      32.101  22.491  23.255  1.00  0.00     0.052 A 
BRANCH  26  27
ATOM     27  C   UNL A   1      32.162  21.078  23.086  1.00  0.00     0.099 C 
ATOM     28  N   UNL A   1      32.244  19.933  22.800  1.00  0.00    -0.192 NA
ENDBRANCH  26  27
ENDBRANCH  17  20
ENDBRANCH  15  17
ENDBRANCH  12  15
ENDBRANCH   6   8
ENDBRANCH   5   6
ENDBRANCH   4   5
ENDBRANCH   3   4
ENDBRANCH   2   3
ENDBRANCH   1   2
BRANCH   1  29
ATOM     29  C   UNL A   1      37.841  31.232  33.054  1.00  0.00     0.188 C 
BRANCH  29  30
ATOM     30  O   UNL A   1      37.065  32.392  32.883  1.00  0.00    -0.376 OA
BRANCH  30  31
ATOM     31  C   UNL A   1      35.747  32.126  32.420  1.00  0.00     0.202 C 
BRANCH  31  32
ATOM     32  C   UNL A   1      35.331  32.729  31.016  1.00  0.00     0.261 C 
BRANCH  32  33
ATOM     33  O   UNL A   1      36.362  33.552  30.297  1.00  0.00    -0.460 OA
BRANCH  33  34
ATOM     34  C   UNL A   1      37.257  33.289  29.267  1.00  0.00     0.338 C 
ATOM     35  O   UNL A   1      36.942  33.431  28.092  1.00  0.00    -0.246 OA
BRANCH  34  36
ATOM     36  C   UNL A   1      38.707  33.324  29.636  1.00  0.00     0.060 A 
ATOM     37  C   UNL A   1      39.546  32.289  29.996  1.00  0.00     0.016 A 
ATOM     38  C   UNL A   1      39.410  34.460  29.497  1.00  0.00     0.016 A 
ATOM     39  C   UNL A   1      40.586  32.490  30.971  1.00  0.00     0.010 A 
ATOM     40  C   UNL A   1      40.386  34.649  30.489  1.00  0.00     0.010 A 
ATOM     41  C   UNL A   1      40.806  33.734  31.530  1.00  0.00    -0.014 A 
BRANCH  41  42
ATOM     42  C   UNL A   1      41.585  33.952  33.107  1.00  0.00     0.031 A 
ATOM     43  C   UNL A   1      40.978  34.511  34.745  1.00  0.00     0.074 A 
ATOM     44  C   UNL A   1      42.907  33.661  33.044  1.00  0.00     0.049 A 
ATOM     45  N   UNL A   1      41.530  35.486  35.429  1.00  0.00    -0.248 NA
ATOM     46  C   UNL A   1      39.548  34.366  35.470  1.00  0.00     0.031 C 
ATOM     47  C   UNL A   1      43.883  33.551  34.116  1.00  0.00     0.029 A 
ATOM     48  N   UNL A   1      43.676  33.406  31.925  1.00  0.00    -0.354 N 
ATOM     49  C   UNL A   1      40.625  35.818  36.478  1.00  0.00     0.074 A 
ATOM     50  C   UNL A   1      39.336  35.522  36.057  1.00  0.00     0.031 C 
ATOM     51  C   UNL A   1      45.121  33.558  33.571  1.00  0.00     0.029 A 
ATOM     52  C   UNL A   1      44.979  33.821  32.145  1.00  0.00     0.049 A 
ATOM     53  H   UNL A   1      43.348  32.990  31.096  1.00  0.00     0.167 HD
ATOM     54  C   UNL A   1      41.000  35.852  37.784  1.00  0.00     0.034 A 
ATOM     55  C   UNL A   1      45.407  34.955  31.504  1.00  0.00     0.034 A 
ATOM     56  C   UNL A   1      42.444  35.955  37.747  1.00  0.00     0.049 A 
ATOM     57  C   UNL A   1      45.482  36.143  32.481  1.00  0.00     0.074 A 
ATOM     58  C   UNL A   1      43.439  34.997  37.740  1.00  0.00     0.029 A 
ATOM     59  N   UNL A   1      42.940  37.046  37.046  1.00  0.00    -0.354 N 
ATOM     60  N   UNL A   1      45.004  36.154  33.706  1.00  0.00    -0.248 NA
ATOM     61  C   UNL A   1      46.181  37.384  32.166  1.00  0.00     0.031 C 
ATOM     62  C   UNL A   1      44.481  35.485  36.880  1.00  0.00     0.029 A 
ATOM     63  C   UNL A   1      44.138  36.747  36.411  1.00  0.00     0.049 A 
ATOM     64  H   UNL A   1      42.496  37.924  37.005  1.00  0.00     0.167 HD
ATOM     65  C   UNL A   1      45.219  37.375  34.300  1.00  0.00     0.074 A 
ATOM     66  C   UNL A   1      46.028  38.074  33.309  1.00  0.00     0.031 C 
ATOM     67  C   UNL A   1      44.717  37.763  35.523  1.00  0.00     0.034 A 
BRANCH  54  68
ATOM     68  C   UNL A   1      40.107  35.551  39.026  1.00  0.00     0.023 A 
ATOM     69  C   UNL A   1      40.016  36.613  39.944  1.00  0.00     0.012 A 
ATOM     70  C   UNL A   1      39.420  34.351  39.443  1.00  0.00     0.148 A 
ATOM     71  C   UNL A   1      39.333  36.514  41.169  1.00  0.00     0.002 A 
ATOM     72  C   UNL A   1      38.704  34.265  40.653  1.00  0.00     0.091 A 
ATOM     73  F   UNL A   1      39.479  33.225  38.732  1.00  0.00    -0.205 F 
ATOM     74  C   UNL A   1      38.672  35.347  41.525  1.00  0.00     0.022 A 
BRANCH  72  75
ATOM     75  S   UNL A   1      37.796  32.780  41.183  1.00  0.00     0.127 S 
ATOM     76  O   UNL A   1      36.834  32.605  40.093  1.00  0.00    -0.237 OA
ATOM     77  O   UNL A   1      38.848  31.764  41.227  1.00  0.00    -0.237 OA
ATOM     78  O   UNL A   1      37.211  33.097  42.480  1.00  0.00    -0.744 OA
ENDBRANCH  72  75
ENDBRANCH  54  68
BRANCH  55  79
ATOM     79  C   UNL A   1      45.047  34.969  30.022  1.00  0.00     0.023 A 
ATOM     80  C   UNL A   1      44.991  33.694  29.379  1.00  0.00     0.012 A 
ATOM     81  C   UNL A   1      44.481  36.055  29.329  1.00  0.00     0.148 A 
ATOM     82  C   UNL A   1      44.218  33.466  28.237  1.00  0.00     0.002 A 
ATOM     83  C   UNL A   1      43.750  35.832  28.146  1.00  0.00     0.091 A 
ATOM     84  F   UNL A   1      44.562  37.282  29.859  1.00  0.00    -0.205 F 
ATOM     85  C   UNL A   1      43.580  34.534  27.628  1.00  0.00     0.022 A 
BRANCH  83  86
ATOM     86  S   UNL A   1      42.805  37.178  27.390  1.00  0.00     0.127 S 
ATOM     87  O   UNL A   1      42.114  36.522  26.277  1.00  0.00    -0.237 OA
ATOM     88  O   UNL A   1      41.916  37.620  28.456  1.00  0.00    -0.237 OA
ATOM     89  O   UNL A   1      43.861  38.099  26.987  1.00  0.00    -0.744 OA
ENDBRANCH  83  86
ENDBRANCH  55  79
BRANCH  67  90
ATOM     90  C   UNL A   1      44.678  39.225  35.998  1.00  0.00     0.023 A 
ATOM     91  C   UNL A   1      45.454  39.684  37.077  1.00  0.00     0.012 A 
ATOM     92  C   UNL A   1      43.995  40.235  35.262  1.00  0.00     0.148 A 
ATOM     93  C   UNL A   1      45.454  41.024  37.481  1.00  0.00     0.002 A 
ATOM     94  C   UNL A   1      44.168  41.586  35.543  1.00  0.00     0.091 A 
ATOM     95  F   UNL A   1      43.145  39.908  34.277  1.00  0.00    -0.205 F 
ATOM     96  C   UNL A   1      44.838  41.984  36.694  1.00  0.00     0.022 A 
BRANCH  94  97
ATOM     97  S   UNL A   1      43.734  42.836  34.320  1.00  0.00     0.127 S 
ATOM     98  O   UNL A   1      42.300  42.996  34.538  1.00  0.00    -0.237 OA
ATOM     99  O   UNL A   1      44.546  43.982  34.736  1.00  0.00    -0.237 OA
ATOM    100  O   UNL A   1      44.139  42.255  33.046  1.00  0.00    -0.744 OA
ENDBRANCH  94  97
ENDBRANCH  67  90
ENDBRANCH  41  42
ENDBRANCH  34  36
ENDBRANCH  33  34
ENDBRANCH  32  33
ENDBRANCH  31  32
ENDBRANCH  30  31
ENDBRANCH  29  30
ENDBRANCH   1  29
TORSDOF 24
ENDMDL
