MODEL 1
REMARK VINA RESULT:      -9.4      0.000      0.000
REMARK SMILES COc1ccc(C2=NN(C(=O)CCC(=O)OCCOCCOCCOC(=O)c3ccc(-c4c5nc(c(-c6cccc(S(=O)(=O)[O-])c6F)c6ccc([nH]6)c(-c6cccc(S(=O)(=O)[O-])c6F)c6nc(c(-c7cccc(S(=O)(=O)[O-])c7F)c7ccc4[nH]7)C=C6)C=C5)cc3)[C@H](c3ccc(Cl)cc3Cl)C2)cc1
REMARK SMILES IDX 20 1 19 2 18 3 17 4 16 5 14 6 15 7 13 8 12 9 10 10 11 11
REMARK SMILES IDX 9 12 7 13 8 14 100 15 91 16 6 17 3 18 4 19 102 20 5 21
REMARK SMILES IDX 101 22 2 23 1 24 92 25 93 26 98 27 94 28 97 29 99 30 95 31
REMARK SMILES IDX 96 32 21 33 22 34 23 35 24 36 25 37 26 38 27 39 28 40 29 41
REMARK SMILES IDX 90 42 30 43 89 44 31 45 32 46 33 47 83 48 34 49 88 50 82 51
REMARK SMILES IDX 84 52 35 53 87 54 81 55 80 56 36 58 68 59 48 60 67 61 49 62
REMARK SMILES IDX 52 63 66 64 85 65 50 66 51 67 65 69 86 70 53 71 37 72 38 73
REMARK SMILES IDX 46 74 39 75 41 76 47 77 40 78 42 79 43 80 44 81 45 82 69 83
REMARK SMILES IDX 70 84 78 85 71 86 73 87 79 88 72 89 74 90 75 91 76 92 77 93
REMARK SMILES IDX 54 94 55 95 63 96 56 97 58 98 64 99 57 100 59 101 60 102
REMARK SMILES IDX 61 103 62 104
REMARK H PARENT 84 57 52 68
REMARK Flexibility Score: inf
ROOT
ATOM      1  C   UNL A   1      45.115  17.571  25.832  1.00  0.00     0.188 C 
ENDROOT
BRANCH   1   2
ATOM      2  O   UNL A   1      46.071  18.511  25.185  1.00  0.00    -0.376 OA
BRANCH   2   3
ATOM      3  C   UNL A   1      46.160  19.864  24.668  1.00  0.00     0.202 C 
BRANCH   3   4
ATOM      4  C   UNL A   1      45.618  21.169  25.281  1.00  0.00     0.261 C 
BRANCH   4   5
ATOM      5  O   UNL A   1      44.778  21.882  24.407  1.00  0.00    -0.463 OA
BRANCH   5   6
ATOM      6  C   UNL A   1      43.945  22.762  24.983  1.00  0.00     0.306 C 
ATOM      7  O   UNL A   1      42.747  22.605  25.092  1.00  0.00    -0.252 OA
BRANCH   6   8
ATOM      8  C   UNL A   1      44.714  23.943  25.521  1.00  0.00     0.132 C 
BRANCH   8   9
ATOM      9  C   UNL A   1      45.299  23.853  26.947  1.00  0.00     0.114 C 
BRANCH   9  10
ATOM     10  C   UNL A   1      46.782  24.187  27.152  1.00  0.00     0.243 C 
ATOM     11  O   UNL A   1      47.417  23.873  26.111  1.00  0.00    -0.273 OA
BRANCH  10  12
ATOM     12  N   UNL A   1      47.470  24.828  28.243  1.00  0.00    -0.225 N 
ATOM     13  C   UNL A   1      49.562  25.567  28.439  1.00  0.00     0.071 C 
ATOM     14  N   UNL A   1      48.686  25.118  27.641  1.00  0.00    -0.174 NA
ATOM     15  C   UNL A   1      49.168  25.688  29.863  1.00  0.00     0.091 C 
ATOM     16  C   UNL A   1      47.531  25.536  29.935  1.00  0.00     0.149 C 
BRANCH  13  17
ATOM     17  C   UNL A   1      50.920  25.802  27.900  1.00  0.00    -0.002 A 
ATOM     18  C   UNL A   1      53.639  25.815  27.188  1.00  0.00     0.118 A 
ATOM     19  C   UNL A   1      52.676  25.296  26.314  1.00  0.00     0.047 A 
ATOM     20  C   UNL A   1      53.236  26.332  28.419  1.00  0.00     0.047 A 
ATOM     21  C   UNL A   1      51.318  25.265  26.674  1.00  0.00     0.014 A 
ATOM     22  C   UNL A   1      51.882  26.315  28.778  1.00  0.00     0.014 A 
BRANCH  18  23
ATOM     23  O   UNL A   1      54.929  25.801  26.728  1.00  0.00    -0.497 OA
ATOM     24  C   UNL A   1      55.945  25.709  27.724  1.00  0.00     0.278 C 
ENDBRANCH  18  23
ENDBRANCH  13  17
BRANCH  16  25
ATOM     25  C   UNL A   1      46.220  26.626  30.899  1.00  0.00    -0.004 A 
ATOM     26  C   UNL A   1      45.080  25.974  31.149  1.00  0.00     0.009 A 
ATOM     27  C   UNL A   1      46.087  27.946  31.737  1.00  0.00     0.047 A 
ATOM     28  C   UNL A   1      44.185  26.233  32.287  1.00  0.00     0.021 A 
ATOM     29  C   UNL A   1      45.204  28.186  32.847  1.00  0.00     0.041 A 
ATOM     30  Cl  UNL A   1      46.493  29.685  31.289  1.00  0.00    -0.084 Cl
ATOM     31  C   UNL A   1      44.279  27.266  33.169  1.00  0.00     0.042 A 
ATOM     32  Cl  UNL A   1      43.214  27.421  34.498  1.00  0.00    -0.084 Cl
ENDBRANCH  16  25
ENDBRANCH  10  12
ENDBRANCH   9  10
ENDBRANCH   8   9
ENDBRANCH   6   8
ENDBRANCH   5   6
ENDBRANCH   4   5
ENDBRANCH   3   4
ENDBRANCH   2   3
ENDBRANCH   1   2
BRANCH   1  33
ATOM     33  C   UNL A   1      43.609  17.889  27.056  1.00  0.00     0.188 C 
BRANCH  33  34
ATOM     34  O   UNL A   1      42.332  19.087  26.953  1.00  0.00    -0.376 OA
BRANCH  34  35
ATOM     35  C   UNL A   1      41.270  19.697  25.779  1.00  0.00     0.202 C 
BRANCH  35  36
ATOM     36  C   UNL A   1      39.406  19.954  25.670  1.00  0.00     0.261 C 
BRANCH  36  37
ATOM     37  O   UNL A   1      38.507  21.046  26.422  1.00  0.00    -0.460 OA
BRANCH  37  38
ATOM     38  C   UNL A   1      38.291  22.402  25.982  1.00  0.00     0.338 C 
ATOM     39  O   UNL A   1      37.985  22.645  24.818  1.00  0.00    -0.246 OA
BRANCH  38  40
ATOM     40  C   UNL A   1      39.008  23.552  26.876  1.00  0.00     0.060 A 
ATOM     41  C   UNL A   1      38.544  24.893  26.767  1.00  0.00     0.016 A 
ATOM     42  C   UNL A   1      40.227  23.427  27.556  1.00  0.00     0.016 A 
ATOM     43  C   UNL A   1      39.337  26.028  27.123  1.00  0.00     0.010 A 
ATOM     44  C   UNL A   1      40.939  24.583  28.068  1.00  0.00     0.010 A 
ATOM     45  C   UNL A   1      40.518  25.917  27.868  1.00  0.00    -0.014 A 
BRANCH  45  46
ATOM     46  C   UNL A   1      41.185  27.124  28.554  1.00  0.00     0.031 A 
ATOM     47  C   UNL A   1      40.415  28.199  29.323  1.00  0.00     0.074 A 
ATOM     48  C   UNL A   1      42.518  27.362  28.420  1.00  0.00     0.049 A 
ATOM     49  N   UNL A   1      40.741  29.452  29.565  1.00  0.00    -0.248 NA
ATOM     50  C   UNL A   1      39.140  27.803  29.936  1.00  0.00     0.031 C 
ATOM     51  C   UNL A   1      43.509  26.444  27.860  1.00  0.00     0.029 A 
ATOM     52  N   UNL A   1      43.267  28.502  28.688  1.00  0.00    -0.354 N 
ATOM     53  C   UNL A   1      39.681  30.019  30.275  1.00  0.00     0.074 A 
ATOM     54  C   UNL A   1      38.725  28.945  30.482  1.00  0.00     0.031 C 
ATOM     55  C   UNL A   1      44.696  27.055  27.769  1.00  0.00     0.029 A 
ATOM     56  C   UNL A   1      44.543  28.449  28.155  1.00  0.00     0.049 A 
ATOM     57  H   UNL A   1      42.927  29.268  29.204  1.00  0.00     0.167 HD
ATOM     58  C   UNL A   1      39.504  31.303  30.699  1.00  0.00     0.034 A 
ATOM     59  C   UNL A   1      45.472  29.396  27.893  1.00  0.00     0.034 A 
ATOM     60  C   UNL A   1      40.468  32.372  30.560  1.00  0.00     0.049 A 
ATOM     61  C   UNL A   1      45.216  30.838  28.235  1.00  0.00     0.074 A 
ATOM     62  C   UNL A   1      40.344  33.703  30.944  1.00  0.00     0.029 A 
ATOM     63  N   UNL A   1      41.732  32.247  30.010  1.00  0.00    -0.354 N 
ATOM     64  N   UNL A   1      44.187  31.369  28.843  1.00  0.00    -0.248 NA
ATOM     65  C   UNL A   1      46.257  31.813  27.863  1.00  0.00     0.031 C 
ATOM     66  C   UNL A   1      41.514  34.385  30.591  1.00  0.00     0.029 A 
ATOM     67  C   UNL A   1      42.387  33.471  30.028  1.00  0.00     0.049 A 
ATOM     68  H   UNL A   1      42.112  31.410  29.657  1.00  0.00     0.167 HD
ATOM     69  C   UNL A   1      44.478  32.725  28.968  1.00  0.00     0.074 A 
ATOM     70  C   UNL A   1      45.779  32.937  28.378  1.00  0.00     0.031 C 
ATOM     71  C   UNL A   1      43.715  33.698  29.521  1.00  0.00     0.034 A 
BRANCH  58  72
ATOM     72  C   UNL A   1      38.181  31.679  31.336  1.00  0.00     0.023 A 
ATOM     73  C   UNL A   1      38.016  31.622  32.734  1.00  0.00     0.012 A 
ATOM     74  C   UNL A   1      37.136  32.209  30.545  1.00  0.00     0.148 A 
ATOM     75  C   UNL A   1      36.823  32.045  33.327  1.00  0.00     0.002 A 
ATOM     76  C   UNL A   1      35.965  32.663  31.146  1.00  0.00     0.091 A 
ATOM     77  F   UNL A   1      37.311  32.271  29.217  1.00  0.00    -0.205 F 
ATOM     78  C   UNL A   1      35.803  32.571  32.536  1.00  0.00     0.022 A 
BRANCH  76  79
ATOM     79  S   UNL A   1      34.630  33.430  30.216  1.00  0.00     0.127 S 
ATOM     80  O   UNL A   1      35.336  34.499  29.513  1.00  0.00    -0.237 OA
ATOM     81  O   UNL A   1      34.176  32.334  29.359  1.00  0.00    -0.237 OA
ATOM     82  O   UNL A   1      33.653  33.869  31.204  1.00  0.00    -0.744 OA
ENDBRANCH  76  79
ENDBRANCH  58  72
BRANCH  59  83
ATOM     83  C   UNL A   1      46.744  29.017  27.199  1.00  0.00     0.023 A 
ATOM     84  C   UNL A   1      47.966  29.097  27.891  1.00  0.00     0.012 A 
ATOM     85  C   UNL A   1      46.742  28.576  25.859  1.00  0.00     0.148 A 
ATOM     86  C   UNL A   1      49.165  28.768  27.256  1.00  0.00     0.002 A 
ATOM     87  C   UNL A   1      47.931  28.187  25.254  1.00  0.00     0.091 A 
ATOM     88  F   UNL A   1      45.573  28.533  25.204  1.00  0.00    -0.205 F 
ATOM     89  C   UNL A   1      49.147  28.300  25.944  1.00  0.00     0.022 A 
BRANCH  87  90
ATOM     90  S   UNL A   1      47.984  27.445  23.618  1.00  0.00     0.127 S 
ATOM     91  O   UNL A   1      47.062  28.296  22.873  1.00  0.00    -0.237 OA
ATOM     92  O   UNL A   1      49.395  27.602  23.261  1.00  0.00    -0.237 OA
ATOM     93  O   UNL A   1      47.564  26.062  23.799  1.00  0.00    -0.744 OA
ENDBRANCH  87  90
ENDBRANCH  59  83
BRANCH  71  94
ATOM     94  C   UNL A   1      44.280  35.094  29.606  1.00  0.00     0.023 A 
ATOM     95  C   UNL A   1      45.199  35.431  30.618  1.00  0.00     0.012 A 
ATOM     96  C   UNL A   1      43.967  36.049  28.616  1.00  0.00     0.148 A 
ATOM     97  C   UNL A   1      45.788  36.696  30.652  1.00  0.00     0.002 A 
ATOM     98  C   UNL A   1      44.592  37.292  28.629  1.00  0.00     0.091 A 
ATOM     99  F   UNL A   1      43.072  35.721  27.674  1.00  0.00    -0.205 F 
ATOM    100  C   UNL A   1      45.496  37.620  29.651  1.00  0.00     0.022 A 
BRANCH  98 101
ATOM    101  S   UNL A   1      44.350  38.513  27.331  1.00  0.00     0.127 S 
ATOM    102  O   UNL A   1      45.558  38.337  26.527  1.00  0.00    -0.237 OA
ATOM    103  O   UNL A   1      43.120  38.045  26.694  1.00  0.00    -0.237 OA
ATOM    104  O   UNL A   1      44.235  39.800  28.003  1.00  0.00    -0.744 OA
ENDBRANCH  98 101
ENDBRANCH  71  94
ENDBRANCH  45  46
ENDBRANCH  38  40
ENDBRANCH  37  38
ENDBRANCH  36  37
ENDBRANCH  35  36
ENDBRANCH  34  35
ENDBRANCH  33  34
ENDBRANCH   1  33
TORSDOF 26
ENDMDL
MODEL 2
REMARK VINA RESULT:      -9.3      3.302      7.905
REMARK SMILES COc1ccc(C2=NN(C(=O)CCC(=O)OCCOCCOCCOC(=O)c3ccc(-c4c5nc(c(-c6cccc(S(=O)(=O)[O-])c6F)c6ccc([nH]6)c(-c6cccc(S(=O)(=O)[O-])c6F)c6nc(c(-c7cccc(S(=O)(=O)[O-])c7F)c7ccc4[nH]7)C=C6)C=C5)cc3)[C@H](c3ccc(Cl)cc3Cl)C2)cc1
REMARK SMILES IDX 20 1 19 2 18 3 17 4 16 5 14 6 15 7 13 8 12 9 10 10 11 11
REMARK SMILES IDX 9 12 7 13 8 14 100 15 91 16 6 17 3 18 4 19 102 20 5 21
REMARK SMILES IDX 101 22 2 23 1 24 92 25 93 26 98 27 94 28 97 29 99 30 95 31
REMARK SMILES IDX 96 32 21 33 22 34 23 35 24 36 25 37 26 38 27 39 28 40 29 41
REMARK SMILES IDX 90 42 30 43 89 44 31 45 32 46 33 47 83 48 34 49 88 50 82 51
REMARK SMILES IDX 84 52 35 53 87 54 81 55 80 56 36 58 68 59 48 60 67 61 49 62
REMARK SMILES IDX 52 63 66 64 85 65 50 66 51 67 65 69 86 70 53 71 37 72 38 73
REMARK SMILES IDX 46 74 39 75 41 76 47 77 40 78 42 79 43 80 44 81 45 82 69 83
REMARK SMILES IDX 70 84 78 85 71 86 73 87 79 88 72 89 74 90 75 91 76 92 77 93
REMARK SMILES IDX 54 94 55 95 63 96 56 97 58 98 64 99 57 100 59 101 60 102
REMARK SMILES IDX 61 103 62 104
REMARK H PARENT 84 57 52 68
REMARK Flexibility Score: inf
ROOT
ATOM      1  C   UNL A   1      44.312  18.077  25.736  1.00  0.00     0.188 C 
ENDROOT
BRANCH   1   2
ATOM      2  O   UNL A   1      45.563  18.832  25.450  1.00  0.00    -0.376 OA
BRANCH   2   3
ATOM      3  C   UNL A   1      46.031  20.076  24.868  1.00  0.00     0.202 C 
BRANCH   3   4
ATOM      4  C   UNL A   1      45.643  21.521  25.236  1.00  0.00     0.261 C 
BRANCH   4   5
ATOM      5  O   UNL A   1      45.000  22.203  24.188  1.00  0.00    -0.463 OA
BRANCH   5   6
ATOM      6  C   UNL A   1      44.100  23.129  24.556  1.00  0.00     0.306 C 
ATOM      7  O   UNL A   1      42.913  22.919  24.693  1.00  0.00    -0.252 OA
BRANCH   6   8
ATOM      8  C   UNL A   1      44.782  24.447  24.829  1.00  0.00     0.132 C 
BRANCH   8   9
ATOM      9  C   UNL A   1      44.026  25.510  25.654  1.00  0.00     0.114 C 
BRANCH   9  10
ATOM     10  C   UNL A   1      44.843  26.578  26.394  1.00  0.00     0.243 C 
ATOM     11  O   UNL A   1      44.420  27.715  26.059  1.00  0.00    -0.273 OA
BRANCH  10  12
ATOM     12  N   UNL A   1      45.877  26.463  27.389  1.00  0.00    -0.225 N 
ATOM     13  C   UNL A   1      48.090  26.292  27.205  1.00  0.00     0.071 C 
ATOM     14  N   UNL A   1      47.008  26.523  26.588  1.00  0.00    -0.174 NA
ATOM     15  C   UNL A   1      47.980  25.979  28.650  1.00  0.00     0.091 C 
ATOM     16  C   UNL A   1      46.460  26.389  29.128  1.00  0.00     0.149 C 
BRANCH  13  17
ATOM     17  C   UNL A   1      49.333  26.231  26.405  1.00  0.00    -0.002 A 
ATOM     18  C   UNL A   1      51.882  26.484  25.247  1.00  0.00     0.118 A 
ATOM     19  C   UNL A   1      51.567  25.375  26.041  1.00  0.00     0.047 A 
ATOM     20  C   UNL A   1      50.915  27.465  25.030  1.00  0.00     0.047 A 
ATOM     21  C   UNL A   1      50.303  25.254  26.642  1.00  0.00     0.014 A 
ATOM     22  C   UNL A   1      49.648  27.343  25.616  1.00  0.00     0.014 A 
BRANCH  18  23
ATOM     23  O   UNL A   1      53.141  26.492  24.707  1.00  0.00    -0.497 OA
ATOM     24  C   UNL A   1      53.222  26.214  23.311  1.00  0.00     0.278 C 
ENDBRANCH  18  23
ENDBRANCH  13  17
BRANCH  16  25
ATOM     25  C   UNL A   1      45.879  27.399  30.702  1.00  0.00    -0.004 A 
ATOM     26  C   UNL A   1      46.044  28.718  30.568  1.00  0.00     0.009 A 
ATOM     27  C   UNL A   1      45.033  27.260  32.017  1.00  0.00     0.047 A 
ATOM     28  C   UNL A   1      45.227  29.749  31.227  1.00  0.00     0.021 A 
ATOM     29  C   UNL A   1      44.240  28.278  32.652  1.00  0.00     0.041 A 
ATOM     30  Cl  UNL A   1      45.208  26.088  33.425  1.00  0.00    -0.084 Cl
ATOM     31  C   UNL A   1      44.288  29.540  32.191  1.00  0.00     0.042 A 
ATOM     32  Cl  UNL A   1      43.351  30.817  32.834  1.00  0.00    -0.084 Cl
ENDBRANCH  16  25
ENDBRANCH  10  12
ENDBRANCH   9  10
ENDBRANCH   8   9
ENDBRANCH   6   8
ENDBRANCH   5   6
ENDBRANCH   4   5
ENDBRANCH   3   4
ENDBRANCH   2   3
ENDBRANCH   1   2
BRANCH   1  33
ATOM     33  C   UNL A   1      42.620  18.635  26.569  1.00  0.00     0.188 C 
BRANCH  33  34
ATOM     34  O   UNL A   1      41.600  20.011  26.191  1.00  0.00    -0.376 OA
BRANCH  34  35
ATOM     35  C   UNL A   1      40.554  21.066  27.011  1.00  0.00     0.202 C 
BRANCH  35  36
ATOM     36  C   UNL A   1      39.751  22.724  26.615  1.00  0.00     0.261 C 
BRANCH  36  37
ATOM     37  O   UNL A   1      40.017  24.146  27.301  1.00  0.00    -0.460 OA
BRANCH  37  38
ATOM     38  C   UNL A   1      41.227  24.538  27.980  1.00  0.00     0.338 C 
ATOM     39  O   UNL A   1      41.768  23.786  28.786  1.00  0.00    -0.246 OA
BRANCH  38  40
ATOM     40  C   UNL A   1      41.491  26.136  28.078  1.00  0.00     0.060 A 
ATOM     41  C   UNL A   1      42.398  26.622  29.061  1.00  0.00     0.016 A 
ATOM     42  C   UNL A   1      40.718  27.138  27.476  1.00  0.00     0.016 A 
ATOM     43  C   UNL A   1      42.381  27.966  29.547  1.00  0.00     0.010 A 
ATOM     44  C   UNL A   1      40.838  28.533  27.861  1.00  0.00     0.010 A 
ATOM     45  C   UNL A   1      41.671  28.989  28.907  1.00  0.00    -0.014 A 
BRANCH  45  46
ATOM     46  C   UNL A   1      41.917  30.482  29.197  1.00  0.00     0.031 A 
ATOM     47  C   UNL A   1      43.146  31.252  28.710  1.00  0.00     0.074 A 
ATOM     48  C   UNL A   1      41.088  31.186  30.013  1.00  0.00     0.049 A 
ATOM     49  N   UNL A   1      43.711  32.332  29.211  1.00  0.00    -0.248 NA
ATOM     50  C   UNL A   1      43.793  30.776  27.480  1.00  0.00     0.031 C 
ATOM     51  C   UNL A   1      39.782  30.750  30.506  1.00  0.00     0.029 A 
ATOM     52  N   UNL A   1      41.259  32.417  30.638  1.00  0.00    -0.354 N 
ATOM     53  C   UNL A   1      44.826  32.612  28.419  1.00  0.00     0.074 A 
ATOM     54  C   UNL A   1      44.816  31.620  27.358  1.00  0.00     0.031 C 
ATOM     55  C   UNL A   1      39.303  31.641  31.382  1.00  0.00     0.029 A 
ATOM     56  C   UNL A   1      40.309  32.667  31.613  1.00  0.00     0.049 A 
ATOM     57  H   UNL A   1      41.982  33.046  30.411  1.00  0.00     0.167 HD
ATOM     58  C   UNL A   1      45.774  33.582  28.561  1.00  0.00     0.034 A 
ATOM     59  C   UNL A   1      40.259  33.534  32.649  1.00  0.00     0.034 A 
ATOM     60  C   UNL A   1      45.768  34.619  29.570  1.00  0.00     0.049 A 
ATOM     61  C   UNL A   1      41.376  34.511  32.887  1.00  0.00     0.074 A 
ATOM     62  C   UNL A   1      46.710  35.618  29.788  1.00  0.00     0.029 A 
ATOM     63  N   UNL A   1      44.781  34.808  30.521  1.00  0.00    -0.354 N 
ATOM     64  N   UNL A   1      42.452  34.722  32.173  1.00  0.00    -0.248 NA
ATOM     65  C   UNL A   1      41.268  35.381  34.072  1.00  0.00     0.031 C 
ATOM     66  C   UNL A   1      46.311  36.381  30.890  1.00  0.00     0.029 A 
ATOM     67  C   UNL A   1      45.097  35.888  31.334  1.00  0.00     0.049 A 
ATOM     68  H   UNL A   1      43.970  34.255  30.609  1.00  0.00     0.167 HD
ATOM     69  C   UNL A   1      43.119  35.775  32.792  1.00  0.00     0.074 A 
ATOM     70  C   UNL A   1      42.330  36.165  33.937  1.00  0.00     0.031 C 
ATOM     71  C   UNL A   1      44.291  36.351  32.433  1.00  0.00     0.034 A 
BRANCH  58  72
ATOM     72  C   UNL A   1      46.965  33.574  27.622  1.00  0.00     0.023 A 
ATOM     73  C   UNL A   1      47.055  34.505  26.570  1.00  0.00     0.012 A 
ATOM     74  C   UNL A   1      48.057  32.711  27.868  1.00  0.00     0.148 A 
ATOM     75  C   UNL A   1      48.189  34.549  25.755  1.00  0.00     0.002 A 
ATOM     76  C   UNL A   1      49.199  32.786  27.076  1.00  0.00     0.091 A 
ATOM     77  F   UNL A   1      47.964  31.838  28.882  1.00  0.00    -0.205 F 
ATOM     78  C   UNL A   1      49.262  33.696  26.011  1.00  0.00     0.022 A 
BRANCH  76  79
ATOM     79  S   UNL A   1      50.661  31.784  27.381  1.00  0.00     0.127 S 
ATOM     80  O   UNL A   1      50.583  30.810  26.293  1.00  0.00    -0.237 OA
ATOM     81  O   UNL A   1      51.743  32.760  27.247  1.00  0.00    -0.237 OA
ATOM     82  O   UNL A   1      50.502  31.238  28.722  1.00  0.00    -0.744 OA
ENDBRANCH  76  79
ENDBRANCH  58  72
BRANCH  59  83
ATOM     83  C   UNL A   1      39.108  33.480  33.606  1.00  0.00     0.023 A 
ATOM     84  C   UNL A   1      37.890  34.097  33.267  1.00  0.00     0.012 A 
ATOM     85  C   UNL A   1      39.221  32.819  34.847  1.00  0.00     0.148 A 
ATOM     86  C   UNL A   1      36.812  34.077  34.154  1.00  0.00     0.002 A 
ATOM     87  C   UNL A   1      38.123  32.746  35.697  1.00  0.00     0.091 A 
ATOM     88  F   UNL A   1      40.397  32.261  35.168  1.00  0.00    -0.205 F 
ATOM     89  C   UNL A   1      36.923  33.390  35.361  1.00  0.00     0.022 A 
BRANCH  87  90
ATOM     90  S   UNL A   1      38.134  31.769  37.205  1.00  0.00     0.127 S 
ATOM     91  O   UNL A   1      39.487  31.998  37.701  1.00  0.00    -0.237 OA
ATOM     92  O   UNL A   1      37.073  32.408  37.986  1.00  0.00    -0.237 OA
ATOM     93  O   UNL A   1      37.833  30.404  36.793  1.00  0.00    -0.744 OA
ENDBRANCH  87  90
ENDBRANCH  59  83
BRANCH  71  94
ATOM     94  C   UNL A   1      44.784  37.536  33.226  1.00  0.00     0.023 A 
ATOM     95  C   UNL A   1      45.710  37.359  34.271  1.00  0.00     0.012 A 
ATOM     96  C   UNL A   1      44.395  38.843  32.866  1.00  0.00     0.148 A 
ATOM     97  C   UNL A   1      46.233  38.459  34.953  1.00  0.00     0.002 A 
ATOM     98  C   UNL A   1      44.953  39.938  33.519  1.00  0.00     0.091 A 
ATOM     99  F   UNL A   1      43.493  38.993  31.885  1.00  0.00    -0.205 F 
ATOM    100  C   UNL A   1      45.866  39.747  34.568  1.00  0.00     0.022 A 
BRANCH  98 101
ATOM    101  S   UNL A   1      44.614  41.635  33.031  1.00  0.00     0.127 S 
ATOM    102  O   UNL A   1      44.328  41.485  31.605  1.00  0.00    -0.237 OA
ATOM    103  O   UNL A   1      43.451  41.964  33.855  1.00  0.00    -0.237 OA
ATOM    104  O   UNL A   1      45.816  42.394  33.346  1.00  0.00    -0.744 OA
ENDBRANCH  98 101
ENDBRANCH  71  94
ENDBRANCH  45  46
ENDBRANCH  38  40
ENDBRANCH  37  38
ENDBRANCH  36  37
ENDBRANCH  35  36
ENDBRANCH  34  35
ENDBRANCH  33  34
ENDBRANCH   1  33
TORSDOF 26
ENDMDL
MODEL 3
REMARK VINA RESULT:      -9.0     12.516     17.795
REMARK SMILES COc1ccc(C2=NN(C(=O)CCC(=O)OCCOCCOCCOC(=O)c3ccc(-c4c5nc(c(-c6cccc(S(=O)(=O)[O-])c6F)c6ccc([nH]6)c(-c6cccc(S(=O)(=O)[O-])c6F)c6nc(c(-c7cccc(S(=O)(=O)[O-])c7F)c7ccc4[nH]7)C=C6)C=C5)cc3)[C@H](c3ccc(Cl)cc3Cl)C2)cc1
REMARK SMILES IDX 20 1 19 2 18 3 17 4 16 5 14 6 15 7 13 8 12 9 10 10 11 11
REMARK SMILES IDX 9 12 7 13 8 14 100 15 91 16 6 17 3 18 4 19 102 20 5 21
REMARK SMILES IDX 101 22 2 23 1 24 92 25 93 26 98 27 94 28 97 29 99 30 95 31
REMARK SMILES IDX 96 32 21 33 22 34 23 35 24 36 25 37 26 38 27 39 28 40 29 41
REMARK SMILES IDX 90 42 30 43 89 44 31 45 32 46 33 47 83 48 34 49 88 50 82 51
REMARK SMILES IDX 84 52 35 53 87 54 81 55 80 56 36 58 68 59 48 60 67 61 49 62
REMARK SMILES IDX 52 63 66 64 85 65 50 66 51 67 65 69 86 70 53 71 37 72 38 73
REMARK SMILES IDX 46 74 39 75 41 76 47 77 40 78 42 79 43 80 44 81 45 82 69 83
REMARK SMILES IDX 70 84 78 85 71 86 73 87 79 88 72 89 74 90 75 91 76 92 77 93
REMARK SMILES IDX 54 94 55 95 63 96 56 97 58 98 64 99 57 100 59 101 60 102
REMARK SMILES IDX 61 103 62 104
REMARK H PARENT 84 57 52 68
REMARK Flexibility Score: inf
ROOT
ATOM      1  C   UNL A   1      47.979  40.067  32.106  1.00  0.00     0.188 C 
ENDROOT
BRANCH   1   2
ATOM      2  O   UNL A   1      49.219  39.520  32.722  1.00  0.00    -0.376 OA
BRANCH   2   3
ATOM      3  C   UNL A   1      50.417  38.772  32.391  1.00  0.00     0.202 C 
BRANCH   3   4
ATOM      4  C   UNL A   1      51.892  39.172  32.590  1.00  0.00     0.261 C 
BRANCH   4   5
ATOM      5  O   UNL A   1      52.402  39.944  31.532  1.00  0.00    -0.463 OA
BRANCH   5   6
ATOM      6  C   UNL A   1      53.035  39.265  30.563  1.00  0.00     0.306 C 
ATOM      7  O   UNL A   1      53.990  38.540  30.742  1.00  0.00    -0.252 OA
BRANCH   6   8
ATOM      8  C   UNL A   1      52.356  39.488  29.234  1.00  0.00     0.132 C 
BRANCH   8   9
ATOM      9  C   UNL A   1      51.413  40.701  29.082  1.00  0.00     0.114 C 
BRANCH   9  10
ATOM     10  C   UNL A   1      50.042  40.485  28.429  1.00  0.00     0.243 C 
ATOM     11  O   UNL A   1      49.314  41.482  28.675  1.00  0.00    -0.273 OA
BRANCH  10  12
ATOM     12  N   UNL A   1      49.548  39.430  27.582  1.00  0.00    -0.225 N 
ATOM     13  C   UNL A   1      47.607  39.176  26.519  1.00  0.00     0.071 C 
ATOM     14  N   UNL A   1      48.339  39.976  27.176  1.00  0.00    -0.174 NA
ATOM     15  C   UNL A   1      48.135  37.806  26.313  1.00  0.00     0.091 C 
ATOM     16  C   UNL A   1      49.733  37.830  26.702  1.00  0.00     0.149 C 
BRANCH  13  17
ATOM     17  C   UNL A   1      46.256  39.643  26.139  1.00  0.00    -0.002 A 
ATOM     18  C   UNL A   1      43.719  40.825  25.880  1.00  0.00     0.118 A 
ATOM     19  C   UNL A   1      44.801  41.289  25.123  1.00  0.00     0.047 A 
ATOM     20  C   UNL A   1      43.909  39.764  26.765  1.00  0.00     0.047 A 
ATOM     21  C   UNL A   1      46.078  40.718  25.266  1.00  0.00     0.014 A 
ATOM     22  C   UNL A   1      45.176  39.182  26.901  1.00  0.00     0.014 A 
BRANCH  18  23
ATOM     23  O   UNL A   1      42.522  41.452  25.653  1.00  0.00    -0.497 OA
ATOM     24  C   UNL A   1      41.354  40.671  25.894  1.00  0.00     0.278 C 
ENDBRANCH  18  23
ENDBRANCH  13  17
BRANCH  16  25
ATOM     25  C   UNL A   1      51.264  37.090  25.729  1.00  0.00    -0.004 A 
ATOM     26  C   UNL A   1      51.254  35.756  25.675  1.00  0.00     0.009 A 
ATOM     27  C   UNL A   1      52.413  37.496  24.741  1.00  0.00     0.047 A 
ATOM     28  C   UNL A   1      51.848  34.944  24.602  1.00  0.00     0.021 A 
ATOM     29  C   UNL A   1      52.987  36.690  23.696  1.00  0.00     0.041 A 
ATOM     30  Cl  UNL A   1      53.742  38.758  24.916  1.00  0.00    -0.084 Cl
ATOM     31  C   UNL A   1      52.632  35.399  23.586  1.00  0.00     0.042 A 
ATOM     32  Cl  UNL A   1      53.208  34.362  22.354  1.00  0.00    -0.084 Cl
ENDBRANCH  16  25
ENDBRANCH  10  12
ENDBRANCH   9  10
ENDBRANCH   8   9
ENDBRANCH   6   8
ENDBRANCH   5   6
ENDBRANCH   4   5
ENDBRANCH   3   4
ENDBRANCH   2   3
ENDBRANCH   1   2
BRANCH   1  33
ATOM     33  C   UNL A   1      46.962  39.510  30.517  1.00  0.00     0.188 C 
BRANCH  33  34
ATOM     34  O   UNL A   1      45.232  39.290  30.331  1.00  0.00    -0.376 OA
BRANCH  34  35
ATOM     35  C   UNL A   1      43.830  39.487  31.265  1.00  0.00     0.202 C 
BRANCH  35  36
ATOM     36  C   UNL A   1      43.047  40.915  32.214  1.00  0.00     0.261 C 
BRANCH  36  37
ATOM     37  O   UNL A   1      42.412  42.265  31.632  1.00  0.00    -0.460 OA
BRANCH  37  38
ATOM     38  C   UNL A   1      43.055  43.555  31.613  1.00  0.00     0.338 C 
ATOM     39  O   UNL A   1      42.548  44.520  32.177  1.00  0.00    -0.246 OA
BRANCH  38  40
ATOM     40  C   UNL A   1      44.097  43.801  30.392  1.00  0.00     0.060 A 
ATOM     41  C   UNL A   1      44.354  45.135  29.969  1.00  0.00     0.016 A 
ATOM     42  C   UNL A   1      44.582  42.824  29.512  1.00  0.00     0.016 A 
ATOM     43  C   UNL A   1      44.865  45.462  28.674  1.00  0.00     0.010 A 
ATOM     44  C   UNL A   1      45.258  43.174  28.277  1.00  0.00     0.010 A 
ATOM     45  C   UNL A   1      45.419  44.501  27.819  1.00  0.00    -0.014 A 
BRANCH  45  46
ATOM     46  C   UNL A   1      46.279  44.873  26.597  1.00  0.00     0.031 A 
ATOM     47  C   UNL A   1      45.826  44.682  25.148  1.00  0.00     0.074 A 
ATOM     48  C   UNL A   1      47.562  45.301  26.743  1.00  0.00     0.049 A 
ATOM     49  N   UNL A   1      46.549  44.526  24.057  1.00  0.00    -0.248 NA
ATOM     50  C   UNL A   1      44.381  44.721  24.886  1.00  0.00     0.031 C 
ATOM     51  C   UNL A   1      48.206  45.697  27.995  1.00  0.00     0.029 A 
ATOM     52  N   UNL A   1      48.594  45.410  25.816  1.00  0.00    -0.354 N 
ATOM     53  C   UNL A   1      45.656  44.355  22.998  1.00  0.00     0.074 A 
ATOM     54  C   UNL A   1      44.329  44.496  23.574  1.00  0.00     0.031 C 
ATOM     55  C   UNL A   1      49.504  45.942  27.783  1.00  0.00     0.029 A 
ATOM     56  C   UNL A   1      49.830  45.615  26.403  1.00  0.00     0.049 A 
ATOM     57  H   UNL A   1      48.459  45.348  24.843  1.00  0.00     0.167 HD
ATOM     58  C   UNL A   1      45.904  44.091  21.684  1.00  0.00     0.034 A 
ATOM     59  C   UNL A   1      51.097  45.470  25.956  1.00  0.00     0.034 A 
ATOM     60  C   UNL A   1      47.214  44.011  21.077  1.00  0.00     0.049 A 
ATOM     61  C   UNL A   1      51.368  45.040  24.541  1.00  0.00     0.074 A 
ATOM     62  C   UNL A   1      47.539  43.721  19.757  1.00  0.00     0.029 A 
ATOM     63  N   UNL A   1      48.416  44.225  21.730  1.00  0.00    -0.354 N 
ATOM     64  N   UNL A   1      50.517  44.819  23.571  1.00  0.00    -0.248 NA
ATOM     65  C   UNL A   1      52.777  44.850  24.152  1.00  0.00     0.031 C 
ATOM     66  C   UNL A   1      48.932  43.724  19.624  1.00  0.00     0.029 A 
ATOM     67  C   UNL A   1      49.477  44.059  20.851  1.00  0.00     0.049 A 
ATOM     68  H   UNL A   1      48.505  44.463  22.682  1.00  0.00     0.167 HD
ATOM     69  C   UNL A   1      51.287  44.513  22.453  1.00  0.00     0.074 A 
ATOM     70  C   UNL A   1      52.673  44.579  22.859  1.00  0.00     0.031 C 
ATOM     71  C   UNL A   1      50.865  44.197  21.205  1.00  0.00     0.034 A 
BRANCH  58  72
ATOM     72  C   UNL A   1      44.728  43.817  20.766  1.00  0.00     0.023 A 
ATOM     73  C   UNL A   1      43.939  42.662  20.937  1.00  0.00     0.012 A 
ATOM     74  C   UNL A   1      44.336  44.778  19.806  1.00  0.00     0.148 A 
ATOM     75  C   UNL A   1      42.809  42.450  20.142  1.00  0.00     0.002 A 
ATOM     76  C   UNL A   1      43.188  44.577  19.045  1.00  0.00     0.091 A 
ATOM     77  F   UNL A   1      45.088  45.879  19.664  1.00  0.00    -0.205 F 
ATOM     78  C   UNL A   1      42.430  43.408  19.203  1.00  0.00     0.022 A 
BRANCH  76  79
ATOM     79  S   UNL A   1      42.578  45.793  17.869  1.00  0.00     0.127 S 
ATOM     80  O   UNL A   1      42.974  45.195  16.595  1.00  0.00    -0.237 OA
ATOM     81  O   UNL A   1      41.137  45.781  18.124  1.00  0.00    -0.237 OA
ATOM     82  O   UNL A   1      43.241  47.046  18.204  1.00  0.00    -0.744 OA
ENDBRANCH  76  79
ENDBRANCH  58  72
BRANCH  59  83
ATOM     83  C   UNL A   1      52.245  45.677  26.896  1.00  0.00     0.023 A 
ATOM     84  C   UNL A   1      52.943  46.899  26.885  1.00  0.00     0.012 A 
ATOM     85  C   UNL A   1      52.641  44.669  27.800  1.00  0.00     0.148 A 
ATOM     86  C   UNL A   1      54.029  47.104  27.738  1.00  0.00     0.002 A 
ATOM     87  C   UNL A   1      53.680  44.905  28.692  1.00  0.00     0.091 A 
ATOM     88  F   UNL A   1      51.984  43.500  27.779  1.00  0.00    -0.205 F 
ATOM     89  C   UNL A   1      54.388  46.115  28.651  1.00  0.00     0.022 A 
BRANCH  87  90
ATOM     90  S   UNL A   1      54.120  43.743  29.991  1.00  0.00     0.127 S 
ATOM     91  O   UNL A   1      52.858  43.609  30.713  1.00  0.00    -0.237 OA
ATOM     92  O   UNL A   1      54.517  42.565  29.219  1.00  0.00    -0.237 OA
ATOM     93  O   UNL A   1      55.208  44.370  30.729  1.00  0.00    -0.744 OA
ENDBRANCH  87  90
ENDBRANCH  59  83
BRANCH  71  94
ATOM     94  C   UNL A   1      51.899  43.973  20.131  1.00  0.00     0.023 A 
ATOM     95  C   UNL A   1      52.390  42.678  19.873  1.00  0.00     0.012 A 
ATOM     96  C   UNL A   1      52.313  45.042  19.308  1.00  0.00     0.148 A 
ATOM     97  C   UNL A   1      53.284  42.452  18.825  1.00  0.00     0.002 A 
ATOM     98  C   UNL A   1      53.169  44.802  18.237  1.00  0.00     0.091 A 
ATOM     99  F   UNL A   1      51.855  46.271  19.582  1.00  0.00    -0.205 F 
ATOM    100  C   UNL A   1      53.662  43.510  17.999  1.00  0.00     0.022 A 
BRANCH  98 101
ATOM    101  S   UNL A   1      53.636  46.081  17.064  1.00  0.00     0.127 S 
ATOM    102  O   UNL A   1      52.332  46.560  16.608  1.00  0.00    -0.237 OA
ATOM    103  O   UNL A   1      54.369  47.023  17.910  1.00  0.00    -0.237 OA
ATOM    104  O   UNL A   1      54.445  45.422  16.047  1.00  0.00    -0.744 OA
ENDBRANCH  98 101
ENDBRANCH  71  94
ENDBRANCH  45  46
ENDBRANCH  38  40
ENDBRANCH  37  38
ENDBRANCH  36  37
ENDBRANCH  35  36
ENDBRANCH  34  35
ENDBRANCH  33  34
ENDBRANCH   1  33
TORSDOF 26
ENDMDL
