MODEL 1
REMARK VINA RESULT:     -10.8      0.000      0.000
REMARK SMILES NS(=O)(=O)c1ccc(-n2nc(C(=O)OCCOCCOCCOC(=O)c3ccc(-c4c5nc(c(-c6cccc(S(=O)(=O)[O-])c6F)c6ccc([nH]6)c(-c6cccc(S(=O)(=O)[O-])c6F)c6nc(c(-c7cccc(S(=O)(=O)[O-])c7F)c7ccc4[nH]7)C=C6)C=C5)cc3)cc2-c2ccc(Cl)s2)cc1
REMARK SMILES IDX 18 1 17 2 16 3 15 4 14 5 12 6 13 7 11 8 9 9 10 10 90 11
REMARK SMILES IDX 89 12 8 13 5 14 6 15 98 16 7 17 97 18 2 19 3 20 4 21 1 22
REMARK SMILES IDX 91 25 92 26 96 27 93 28 94 29 95 30 19 31 20 32 21 33 22 34
REMARK SMILES IDX 23 35 24 36 25 37 26 38 27 39 88 40 28 41 87 42 29 43 30 44
REMARK SMILES IDX 31 45 81 46 32 47 86 48 80 49 82 50 33 51 85 52 79 53 78 54
REMARK SMILES IDX 34 56 66 57 46 58 65 59 47 60 50 61 64 62 83 63 48 64 49 65
REMARK SMILES IDX 63 67 84 68 51 69 35 70 36 71 44 72 37 73 39 74 45 75 38 76
REMARK SMILES IDX 40 77 41 78 42 79 43 80 67 81 68 82 76 83 69 84 71 85 77 86
REMARK SMILES IDX 70 87 72 88 73 89 74 90 75 91 52 92 53 93 61 94 54 95 56 96
REMARK SMILES IDX 62 97 55 98 57 99 58 100 59 101 60 102
REMARK H PARENT 1 23 1 24 82 55 50 66
REMARK Flexibility Score: inf
ROOT
ATOM      1  C   UNL A   1      42.436  19.653  27.020  1.00  0.00     0.188 C 
ENDROOT
BRANCH   1   2
ATOM      2  O   UNL A   1      41.171  20.007  27.560  1.00  0.00    -0.376 OA
BRANCH   2   3
ATOM      3  C   UNL A   1      40.682  21.333  27.445  1.00  0.00     0.202 C 
BRANCH   3   4
ATOM      4  C   UNL A   1      39.949  21.813  26.174  1.00  0.00     0.261 C 
BRANCH   4   5
ATOM      5  O   UNL A   1      38.527  21.978  26.283  1.00  0.00    -0.458 OA
BRANCH   5   6
ATOM      6  C   UNL A   1      37.763  21.304  25.374  1.00  0.00     0.358 C 
ATOM      7  O   UNL A   1      38.107  20.273  24.810  1.00  0.00    -0.244 OA
BRANCH   6   8
ATOM      8  C   UNL A   1      36.432  21.921  25.210  1.00  0.00     0.171 A 
ATOM      9  N   UNL A   1      34.948  23.387  24.712  1.00  0.00    -0.231 N 
ATOM     10  N   UNL A   1      36.277  23.147  24.669  1.00  0.00    -0.160 NA
ATOM     11  C   UNL A   1      34.241  22.327  25.257  1.00  0.00     0.085 A 
ATOM     12  C   UNL A   1      35.173  21.340  25.504  1.00  0.00     0.068 A 
BRANCH   9  13
ATOM     13  C   UNL A   1      34.455  24.680  24.426  1.00  0.00     0.065 A 
ATOM     14  C   UNL A   1      33.225  27.122  23.947  1.00  0.00     0.082 A 
ATOM     15  C   UNL A   1      33.673  26.812  25.236  1.00  0.00     0.024 A 
ATOM     16  C   UNL A   1      33.411  26.224  22.888  1.00  0.00     0.024 A 
ATOM     17  C   UNL A   1      34.280  25.583  25.480  1.00  0.00     0.030 A 
ATOM     18  C   UNL A   1      34.050  25.000  23.123  1.00  0.00     0.030 A 
BRANCH  14  19
ATOM     19  S   UNL A   1      32.413  28.680  23.733  1.00  0.00     0.238 S 
ATOM     20  O   UNL A   1      32.475  29.037  22.345  1.00  0.00    -0.207 OA
ATOM     21  O   UNL A   1      32.877  29.570  24.785  1.00  0.00    -0.207 OA
BRANCH  19  22
ATOM     22  N   UNL A   1      30.798  28.394  24.072  1.00  0.00    -0.225 NA
ATOM     23  H   UNL A   1      30.665  28.353  25.083  1.00  0.00     0.137 HD
ATOM     24  H   UNL A   1      30.515  27.506  23.656  1.00  0.00     0.137 HD
ENDBRANCH  19  22
ENDBRANCH  14  19
ENDBRANCH   9  13
BRANCH  11  25
ATOM     25  C   UNL A   1      32.833  22.320  25.530  1.00  0.00     0.054 A 
ATOM     26  C   UNL A   1      31.857  21.801  24.701  1.00  0.00     0.024 A 
ATOM     27  S   UNL A   1      32.155  22.945  26.977  1.00  0.00    -0.122 S 
ATOM     28  C   UNL A   1      30.564  21.828  25.301  1.00  0.00     0.033 A 
ATOM     29  C   UNL A   1      30.610  22.409  26.542  1.00  0.00     0.094 A 
ATOM     30  Cl  UNL A   1      29.292  22.615  27.622  1.00  0.00    -0.072 Cl
ENDBRANCH  11  25
ENDBRANCH   6   8
ENDBRANCH   5   6
ENDBRANCH   4   5
ENDBRANCH   3   4
ENDBRANCH   2   3
ENDBRANCH   1   2
BRANCH   1  31
ATOM     31  C   UNL A   1      42.649  19.536  25.489  1.00  0.00     0.188 C 
BRANCH  31  32
ATOM     32  O   UNL A   1      43.904  19.982  25.016  1.00  0.00    -0.376 OA
BRANCH  32  33
ATOM     33  C   UNL A   1      44.346  21.321  25.194  1.00  0.00     0.202 C 
BRANCH  33  34
ATOM     34  C   UNL A   1      43.460  22.551  24.985  1.00  0.00     0.261 C 
BRANCH  34  35
ATOM     35  O   UNL A   1      43.147  23.254  26.161  1.00  0.00    -0.460 OA
BRANCH  35  36
ATOM     36  C   UNL A   1      42.611  24.470  25.942  1.00  0.00     0.338 C 
ATOM     37  O   UNL A   1      42.800  25.193  24.977  1.00  0.00    -0.246 OA
BRANCH  36  38
ATOM     38  C   UNL A   1      41.757  24.809  27.084  1.00  0.00     0.060 A 
ATOM     39  C   UNL A   1      40.630  25.559  26.754  1.00  0.00     0.016 A 
ATOM     40  C   UNL A   1      42.361  24.844  28.349  1.00  0.00     0.016 A 
ATOM     41  C   UNL A   1      40.380  26.652  27.533  1.00  0.00     0.010 A 
ATOM     42  C   UNL A   1      42.124  25.946  29.116  1.00  0.00     0.010 A 
ATOM     43  C   UNL A   1      41.238  26.890  28.610  1.00  0.00    -0.014 A 
BRANCH  43  44
ATOM     44  C   UNL A   1      41.198  28.202  29.193  1.00  0.00     0.031 A 
ATOM     45  C   UNL A   1      42.180  29.104  28.576  1.00  0.00     0.074 A 
ATOM     46  C   UNL A   1      40.301  28.515  30.144  1.00  0.00     0.049 A 
ATOM     47  N   UNL A   1      43.267  29.558  29.103  1.00  0.00    -0.248 NA
ATOM     48  C   UNL A   1      42.051  29.336  27.131  1.00  0.00     0.031 C 
ATOM     49  C   UNL A   1      39.125  27.753  30.580  1.00  0.00     0.029 A 
ATOM     50  N   UNL A   1      40.171  29.688  30.812  1.00  0.00    -0.354 N 
ATOM     51  C   UNL A   1      43.824  30.350  28.110  1.00  0.00     0.074 A 
ATOM     52  C   UNL A   1      43.191  29.975  26.875  1.00  0.00     0.031 C 
ATOM     53  C   UNL A   1      38.269  28.596  31.203  1.00  0.00     0.029 A 
ATOM     54  C   UNL A   1      38.894  29.904  31.308  1.00  0.00     0.049 A 
ATOM     55  H   UNL A   1      40.912  30.325  30.933  1.00  0.00     0.167 HD
ATOM     56  C   UNL A   1      44.521  31.473  28.422  1.00  0.00     0.034 A 
ATOM     57  C   UNL A   1      38.372  31.112  31.632  1.00  0.00     0.034 A 
ATOM     58  C   UNL A   1      44.940  31.479  29.800  1.00  0.00     0.049 A 
ATOM     59  C   UNL A   1      39.511  32.050  31.814  1.00  0.00     0.074 A 
ATOM     60  C   UNL A   1      45.700  30.637  30.588  1.00  0.00     0.029 A 
ATOM     61  N   UNL A   1      44.226  32.268  30.669  1.00  0.00    -0.354 N 
ATOM     62  N   UNL A   1      40.392  31.934  32.770  1.00  0.00    -0.248 NA
ATOM     63  C   UNL A   1      39.942  32.828  30.661  1.00  0.00     0.031 C 
ATOM     64  C   UNL A   1      45.054  30.639  31.858  1.00  0.00     0.029 A 
ATOM     65  C   UNL A   1      43.972  31.520  31.789  1.00  0.00     0.049 A 
ATOM     66  H   UNL A   1      43.946  33.200  30.515  1.00  0.00     0.167 HD
ATOM     67  C   UNL A   1      41.609  32.224  32.162  1.00  0.00     0.074 A 
ATOM     68  C   UNL A   1      41.258  32.863  30.894  1.00  0.00     0.031 C 
ATOM     69  C   UNL A   1      42.773  31.649  32.591  1.00  0.00     0.034 A 
BRANCH  56  70
ATOM     70  C   UNL A   1      44.470  32.728  27.594  1.00  0.00     0.023 A 
ATOM     71  C   UNL A   1      45.503  32.923  26.655  1.00  0.00     0.012 A 
ATOM     72  C   UNL A   1      43.630  33.834  27.869  1.00  0.00     0.148 A 
ATOM     73  C   UNL A   1      45.708  34.166  26.050  1.00  0.00     0.002 A 
ATOM     74  C   UNL A   1      43.779  35.036  27.195  1.00  0.00     0.091 A 
ATOM     75  F   UNL A   1      42.769  33.791  28.890  1.00  0.00    -0.205 F 
ATOM     76  C   UNL A   1      44.839  35.220  26.308  1.00  0.00     0.022 A 
BRANCH  74  77
ATOM     77  S   UNL A   1      42.640  36.399  27.462  1.00  0.00     0.127 S 
ATOM     78  O   UNL A   1      41.382  35.823  26.999  1.00  0.00    -0.237 OA
ATOM     79  O   UNL A   1      42.741  36.595  28.908  1.00  0.00    -0.237 OA
ATOM     80  O   UNL A   1      43.173  37.506  26.676  1.00  0.00    -0.744 OA
ENDBRANCH  74  77
ENDBRANCH  56  70
BRANCH  57  81
ATOM     81  C   UNL A   1      36.979  31.581  31.433  1.00  0.00     0.023 A 
ATOM     82  C   UNL A   1      36.231  32.040  32.534  1.00  0.00     0.012 A 
ATOM     83  C   UNL A   1      36.466  31.819  30.137  1.00  0.00     0.148 A 
ATOM     84  C   UNL A   1      35.021  32.723  32.349  1.00  0.00     0.002 A 
ATOM     85  C   UNL A   1      35.254  32.479  29.958  1.00  0.00     0.091 A 
ATOM     86  F   UNL A   1      37.208  31.483  29.074  1.00  0.00    -0.205 F 
ATOM     87  C   UNL A   1      34.534  32.944  31.063  1.00  0.00     0.022 A 
BRANCH  85  88
ATOM     88  S   UNL A   1      34.573  32.796  28.323  1.00  0.00     0.127 S 
ATOM     89  O   UNL A   1      35.724  33.368  27.623  1.00  0.00    -0.237 OA
ATOM     90  O   UNL A   1      34.195  31.454  27.887  1.00  0.00    -0.237 OA
ATOM     91  O   UNL A   1      33.473  33.730  28.524  1.00  0.00    -0.744 OA
ENDBRANCH  85  88
ENDBRANCH  57  81
BRANCH  69  92
ATOM     92  C   UNL A   1      42.744  30.848  33.871  1.00  0.00     0.023 A 
ATOM     93  C   UNL A   1      42.872  31.457  35.139  1.00  0.00     0.012 A 
ATOM     94  C   UNL A   1      42.389  29.491  33.806  1.00  0.00     0.148 A 
ATOM     95  C   UNL A   1      42.673  30.725  36.313  1.00  0.00     0.002 A 
ATOM     96  C   UNL A   1      42.148  28.777  34.975  1.00  0.00     0.091 A 
ATOM     97  F   UNL A   1      42.257  28.929  32.595  1.00  0.00    -0.205 F 
ATOM     98  C   UNL A   1      42.299  29.386  36.230  1.00  0.00     0.022 A 
BRANCH  96  99
ATOM     99  S   UNL A   1      41.540  27.089  34.937  1.00  0.00     0.127 S 
ATOM    100  O   UNL A   1      42.717  26.349  34.488  1.00  0.00    -0.237 OA
ATOM    101  O   UNL A   1      41.168  26.858  36.334  1.00  0.00    -0.237 OA
ATOM    102  O   UNL A   1      40.411  27.089  34.014  1.00  0.00    -0.744 OA
ENDBRANCH  96  99
ENDBRANCH  69  92
ENDBRANCH  43  44
ENDBRANCH  36  38
ENDBRANCH  35  36
ENDBRANCH  34  35
ENDBRANCH  33  34
ENDBRANCH  32  33
ENDBRANCH  31  32
ENDBRANCH   1  31
TORSDOF 24
ENDMDL
MODEL 2
REMARK VINA RESULT:      -9.8      3.205      6.963
REMARK SMILES NS(=O)(=O)c1ccc(-n2nc(C(=O)OCCOCCOCCOC(=O)c3ccc(-c4c5nc(c(-c6cccc(S(=O)(=O)[O-])c6F)c6ccc([nH]6)c(-c6cccc(S(=O)(=O)[O-])c6F)c6nc(c(-c7cccc(S(=O)(=O)[O-])c7F)c7ccc4[nH]7)C=C6)C=C5)cc3)cc2-c2ccc(Cl)s2)cc1
REMARK SMILES IDX 18 1 17 2 16 3 15 4 14 5 12 6 13 7 11 8 9 9 10 10 90 11
REMARK SMILES IDX 89 12 8 13 5 14 6 15 98 16 7 17 97 18 2 19 3 20 4 21 1 22
REMARK SMILES IDX 91 25 92 26 96 27 93 28 94 29 95 30 19 31 20 32 21 33 22 34
REMARK SMILES IDX 23 35 24 36 25 37 26 38 27 39 88 40 28 41 87 42 29 43 30 44
REMARK SMILES IDX 31 45 81 46 32 47 86 48 80 49 82 50 33 51 85 52 79 53 78 54
REMARK SMILES IDX 34 56 66 57 46 58 65 59 47 60 50 61 64 62 83 63 48 64 49 65
REMARK SMILES IDX 63 67 84 68 51 69 35 70 36 71 44 72 37 73 39 74 45 75 38 76
REMARK SMILES IDX 40 77 41 78 42 79 43 80 67 81 68 82 76 83 69 84 71 85 77 86
REMARK SMILES IDX 70 87 72 88 73 89 74 90 75 91 52 92 53 93 61 94 54 95 56 96
REMARK SMILES IDX 62 97 55 98 57 99 58 100 59 101 60 102
REMARK H PARENT 1 23 1 24 82 55 50 66
REMARK Flexibility Score: inf
ROOT
ATOM      1  C   UNL A   1      43.219  18.454  25.841  1.00  0.00     0.188 C 
ENDROOT
BRANCH   1   2
ATOM      2  O   UNL A   1      41.868  18.889  25.802  1.00  0.00    -0.376 OA
BRANCH   2   3
ATOM      3  C   UNL A   1      41.417  19.926  26.657  1.00  0.00     0.202 C 
BRANCH   3   4
ATOM      4  C   UNL A   1      40.755  21.202  26.095  1.00  0.00     0.261 C 
BRANCH   4   5
ATOM      5  O   UNL A   1      39.625  21.706  26.823  1.00  0.00    -0.458 OA
BRANCH   5   6
ATOM      6  C   UNL A   1      39.125  22.910  26.414  1.00  0.00     0.358 C 
ATOM      7  O   UNL A   1      39.764  23.955  26.399  1.00  0.00    -0.244 OA
BRANCH   6   8
ATOM      8  C   UNL A   1      37.743  22.788  25.911  1.00  0.00     0.171 A 
ATOM      9  N   UNL A   1      35.745  23.356  25.378  1.00  0.00    -0.231 N 
ATOM     10  N   UNL A   1      36.911  23.848  25.851  1.00  0.00    -0.160 NA
ATOM     11  C   UNL A   1      35.817  21.998  25.115  1.00  0.00     0.085 A 
ATOM     12  C   UNL A   1      37.123  21.633  25.372  1.00  0.00     0.068 A 
BRANCH   9  13
ATOM     13  C   UNL A   1      34.581  24.157  25.398  1.00  0.00     0.065 A 
ATOM     14  C   UNL A   1      32.155  25.504  25.321  1.00  0.00     0.082 A 
ATOM     15  C   UNL A   1      32.449  24.666  26.402  1.00  0.00     0.024 A 
ATOM     16  C   UNL A   1      33.081  25.691  24.286  1.00  0.00     0.024 A 
ATOM     17  C   UNL A   1      33.660  23.982  26.437  1.00  0.00     0.030 A 
ATOM     18  C   UNL A   1      34.315  25.029  24.334  1.00  0.00     0.030 A 
BRANCH  14  19
ATOM     19  S   UNL A   1      30.571  26.293  25.325  1.00  0.00     0.238 S 
ATOM     20  O   UNL A   1      30.730  27.632  24.835  1.00  0.00    -0.207 OA
ATOM     21  O   UNL A   1      29.933  26.003  26.599  1.00  0.00    -0.207 OA
BRANCH  19  22
ATOM     22  N   UNL A   1      29.662  25.479  24.177  1.00  0.00    -0.225 NA
ATOM     23  H   UNL A   1      28.756  25.231  24.575  1.00  0.00     0.137 HD
ATOM     24  H   UNL A   1      30.153  24.630  23.895  1.00  0.00     0.137 HD
ENDBRANCH  19  22
ENDBRANCH  14  19
ENDBRANCH   9  13
BRANCH  11  25
ATOM     25  C   UNL A   1      34.719  21.171  24.704  1.00  0.00     0.054 A 
ATOM     26  C   UNL A   1      33.606  21.603  24.007  1.00  0.00     0.024 A 
ATOM     27  S   UNL A   1      34.653  19.482  25.002  1.00  0.00    -0.122 S 
ATOM     28  C   UNL A   1      32.749  20.527  23.633  1.00  0.00     0.033 A 
ATOM     29  C   UNL A   1      33.227  19.331  24.103  1.00  0.00     0.094 A 
ATOM     30  Cl  UNL A   1      32.527  17.784  23.856  1.00  0.00    -0.072 Cl
ENDBRANCH  11  25
ENDBRANCH   6   8
ENDBRANCH   5   6
ENDBRANCH   4   5
ENDBRANCH   3   4
ENDBRANCH   2   3
ENDBRANCH   1   2
BRANCH   1  31
ATOM     31  C   UNL A   1      44.208  18.811  24.702  1.00  0.00     0.188 C 
BRANCH  31  32
ATOM     32  O   UNL A   1      45.578  18.730  25.041  1.00  0.00    -0.376 OA
BRANCH  32  33
ATOM     33  C   UNL A   1      46.419  19.876  25.070  1.00  0.00     0.202 C 
BRANCH  33  34
ATOM     34  C   UNL A   1      45.926  21.306  24.838  1.00  0.00     0.261 C 
BRANCH  34  35
ATOM     35  O   UNL A   1      45.874  22.102  25.995  1.00  0.00    -0.460 OA
BRANCH  35  36
ATOM     36  C   UNL A   1      44.688  22.709  26.184  1.00  0.00     0.338 C 
ATOM     37  O   UNL A   1      43.819  22.902  25.349  1.00  0.00    -0.246 OA
BRANCH  36  38
ATOM     38  C   UNL A   1      44.606  23.133  27.585  1.00  0.00     0.060 A 
ATOM     39  C   UNL A   1      43.313  23.412  28.025  1.00  0.00     0.016 A 
ATOM     40  C   UNL A   1      45.752  23.711  28.148  1.00  0.00     0.016 A 
ATOM     41  C   UNL A   1      43.147  24.578  28.716  1.00  0.00     0.010 A 
ATOM     42  C   UNL A   1      45.585  24.886  28.820  1.00  0.00     0.010 A 
ATOM     43  C   UNL A   1      44.284  25.355  28.959  1.00  0.00    -0.014 A 
BRANCH  43  44
ATOM     44  C   UNL A   1      44.064  26.719  29.352  1.00  0.00     0.031 A 
ATOM     45  C   UNL A   1      44.087  26.877  30.812  1.00  0.00     0.074 A 
ATOM     46  C   UNL A   1      43.923  27.694  28.437  1.00  0.00     0.049 A 
ATOM     47  N   UNL A   1      43.087  27.121  31.590  1.00  0.00    -0.248 NA
ATOM     48  C   UNL A   1      45.324  26.487  31.503  1.00  0.00     0.031 C 
ATOM     49  C   UNL A   1      44.181  27.639  26.994  1.00  0.00     0.029 A 
ATOM     50  N   UNL A   1      43.670  29.008  28.654  1.00  0.00    -0.354 N 
ATOM     51  C   UNL A   1      43.643  27.167  32.860  1.00  0.00     0.074 A 
ATOM     52  C   UNL A   1      44.929  26.529  32.773  1.00  0.00     0.031 C 
ATOM     53  C   UNL A   1      44.353  28.901  26.536  1.00  0.00     0.029 A 
ATOM     54  C   UNL A   1      44.098  29.831  27.623  1.00  0.00     0.049 A 
ATOM     55  H   UNL A   1      43.225  29.346  29.465  1.00  0.00     0.167 HD
ATOM     56  C   UNL A   1      43.153  28.008  33.806  1.00  0.00     0.034 A 
ATOM     57  C   UNL A   1      44.357  31.157  27.734  1.00  0.00     0.034 A 
ATOM     58  C   UNL A   1      41.829  28.471  33.481  1.00  0.00     0.049 A 
ATOM     59  C   UNL A   1      43.669  31.640  28.961  1.00  0.00     0.074 A 
ATOM     60  C   UNL A   1      40.620  27.854  33.224  1.00  0.00     0.029 A 
ATOM     61  N   UNL A   1      41.715  29.747  32.984  1.00  0.00    -0.354 N 
ATOM     62  N   UNL A   1      42.371  31.662  29.096  1.00  0.00    -0.248 NA
ATOM     63  C   UNL A   1      44.424  31.645  30.206  1.00  0.00     0.031 C 
ATOM     64  C   UNL A   1      40.029  28.623  32.180  1.00  0.00     0.029 A 
ATOM     65  C   UNL A   1      40.882  29.692  31.897  1.00  0.00     0.049 A 
ATOM     66  H   UNL A   1      42.153  30.553  33.343  1.00  0.00     0.167 HD
ATOM     67  C   UNL A   1      42.146  31.234  30.399  1.00  0.00     0.074 A 
ATOM     68  C   UNL A   1      43.445  31.336  31.063  1.00  0.00     0.031 C 
ATOM     69  C   UNL A   1      41.012  30.549  30.737  1.00  0.00     0.034 A 
BRANCH  56  70
ATOM     70  C   UNL A   1      44.026  28.716  34.808  1.00  0.00     0.023 A 
ATOM     71  C   UNL A   1      43.620  28.678  36.156  1.00  0.00     0.012 A 
ATOM     72  C   UNL A   1      45.057  29.624  34.468  1.00  0.00     0.148 A 
ATOM     73  C   UNL A   1      44.189  29.530  37.109  1.00  0.00     0.002 A 
ATOM     74  C   UNL A   1      45.683  30.396  35.434  1.00  0.00     0.091 A 
ATOM     75  F   UNL A   1      45.350  29.865  33.187  1.00  0.00    -0.205 F 
ATOM     76  C   UNL A   1      45.230  30.379  36.752  1.00  0.00     0.022 A 
BRANCH  74  77
ATOM     77  S   UNL A   1      47.068  31.462  35.019  1.00  0.00     0.127 S 
ATOM     78  O   UNL A   1      47.402  32.027  36.322  1.00  0.00    -0.237 OA
ATOM     79  O   UNL A   1      48.037  30.503  34.489  1.00  0.00    -0.237 OA
ATOM     80  O   UNL A   1      46.552  32.394  34.023  1.00  0.00    -0.744 OA
ENDBRANCH  74  77
ENDBRANCH  56  70
BRANCH  57  81
ATOM     81  C   UNL A   1      45.435  31.930  27.071  1.00  0.00     0.023 A 
ATOM     82  C   UNL A   1      45.148  33.184  26.498  1.00  0.00     0.012 A 
ATOM     83  C   UNL A   1      46.793  31.562  27.217  1.00  0.00     0.148 A 
ATOM     84  C   UNL A   1      46.178  34.046  26.097  1.00  0.00     0.002 A 
ATOM     85  C   UNL A   1      47.813  32.412  26.799  1.00  0.00     0.091 A 
ATOM     86  F   UNL A   1      47.092  30.421  27.852  1.00  0.00    -0.205 F 
ATOM     87  C   UNL A   1      47.508  33.662  26.249  1.00  0.00     0.022 A 
BRANCH  85  88
ATOM     88  S   UNL A   1      49.549  31.975  26.969  1.00  0.00     0.127 S 
ATOM     89  O   UNL A   1      50.175  32.827  25.956  1.00  0.00    -0.237 OA
ATOM     90  O   UNL A   1      49.825  32.361  28.350  1.00  0.00    -0.237 OA
ATOM     91  O   UNL A   1      49.631  30.549  26.680  1.00  0.00    -0.744 OA
ENDBRANCH  85  88
ENDBRANCH  57  81
BRANCH  69  92
ATOM     92  C   UNL A   1      39.909  30.445  29.711  1.00  0.00     0.023 A 
ATOM     93  C   UNL A   1      39.789  29.333  28.850  1.00  0.00     0.012 A 
ATOM     94  C   UNL A   1      38.868  31.387  29.746  1.00  0.00     0.148 A 
ATOM     95  C   UNL A   1      38.669  29.175  28.028  1.00  0.00     0.002 A 
ATOM     96  C   UNL A   1      37.735  31.205  28.960  1.00  0.00     0.091 A 
ATOM     97  F   UNL A   1      38.988  32.433  30.579  1.00  0.00    -0.205 F 
ATOM     98  C   UNL A   1      37.636  30.106  28.093  1.00  0.00     0.022 A 
BRANCH  96  99
ATOM     99  S   UNL A   1      36.316  32.295  29.089  1.00  0.00     0.127 S 
ATOM    100  O   UNL A   1      35.541  31.929  27.906  1.00  0.00    -0.237 OA
ATOM    101  O   UNL A   1      35.720  31.885  30.362  1.00  0.00    -0.237 OA
ATOM    102  O   UNL A   1      36.850  33.652  29.093  1.00  0.00    -0.744 OA
ENDBRANCH  96  99
ENDBRANCH  69  92
ENDBRANCH  43  44
ENDBRANCH  36  38
ENDBRANCH  35  36
ENDBRANCH  34  35
ENDBRANCH  33  34
ENDBRANCH  32  33
ENDBRANCH  31  32
ENDBRANCH   1  31
TORSDOF 24
ENDMDL
MODEL 3
REMARK VINA RESULT:      -9.6      6.151      8.943
REMARK SMILES NS(=O)(=O)c1ccc(-n2nc(C(=O)OCCOCCOCCOC(=O)c3ccc(-c4c5nc(c(-c6cccc(S(=O)(=O)[O-])c6F)c6ccc([nH]6)c(-c6cccc(S(=O)(=O)[O-])c6F)c6nc(c(-c7cccc(S(=O)(=O)[O-])c7F)c7ccc4[nH]7)C=C6)C=C5)cc3)cc2-c2ccc(Cl)s2)cc1
REMARK SMILES IDX 18 1 17 2 16 3 15 4 14 5 12 6 13 7 11 8 9 9 10 10 90 11
REMARK SMILES IDX 89 12 8 13 5 14 6 15 98 16 7 17 97 18 2 19 3 20 4 21 1 22
REMARK SMILES IDX 91 25 92 26 96 27 93 28 94 29 95 30 19 31 20 32 21 33 22 34
REMARK SMILES IDX 23 35 24 36 25 37 26 38 27 39 88 40 28 41 87 42 29 43 30 44
REMARK SMILES IDX 31 45 81 46 32 47 86 48 80 49 82 50 33 51 85 52 79 53 78 54
REMARK SMILES IDX 34 56 66 57 46 58 65 59 47 60 50 61 64 62 83 63 48 64 49 65
REMARK SMILES IDX 63 67 84 68 51 69 35 70 36 71 44 72 37 73 39 74 45 75 38 76
REMARK SMILES IDX 40 77 41 78 42 79 43 80 67 81 68 82 76 83 69 84 71 85 77 86
REMARK SMILES IDX 70 87 72 88 73 89 74 90 75 91 52 92 53 93 61 94 54 95 56 96
REMARK SMILES IDX 62 97 55 98 57 99 58 100 59 101 60 102
REMARK H PARENT 1 23 1 24 82 55 50 66
REMARK Flexibility Score: inf
ROOT
ATOM      1  C   UNL A   1      42.613  19.031  26.251  1.00  0.00     0.188 C 
ENDROOT
BRANCH   1   2
ATOM      2  O   UNL A   1      41.704  20.121  26.249  1.00  0.00    -0.376 OA
BRANCH   2   3
ATOM      3  C   UNL A   1      42.119  21.409  26.675  1.00  0.00     0.202 C 
BRANCH   3   4
ATOM      4  C   UNL A   1      41.275  22.666  26.377  1.00  0.00     0.261 C 
BRANCH   4   5
ATOM      5  O   UNL A   1      39.911  22.639  26.825  1.00  0.00    -0.458 OA
BRANCH   5   6
ATOM      6  C   UNL A   1      39.119  23.678  26.429  1.00  0.00     0.358 C 
ATOM      7  O   UNL A   1      39.468  24.851  26.424  1.00  0.00    -0.244 OA
BRANCH   6   8
ATOM      8  C   UNL A   1      37.813  23.211  25.924  1.00  0.00     0.171 A 
ATOM      9  N   UNL A   1      36.202  21.871  25.465  1.00  0.00    -0.231 N 
ATOM     10  N   UNL A   1      37.410  21.931  26.068  1.00  0.00    -0.160 NA
ATOM     11  C   UNL A   1      35.811  23.096  24.951  1.00  0.00     0.085 A 
ATOM     12  C   UNL A   1      36.798  23.989  25.313  1.00  0.00     0.068 A 
BRANCH   9  13
ATOM     13  C   UNL A   1      35.590  20.619  25.237  1.00  0.00     0.065 A 
ATOM     14  C   UNL A   1      34.392  18.223  24.504  1.00  0.00     0.082 A 
ATOM     15  C   UNL A   1      35.786  18.337  24.481  1.00  0.00     0.024 A 
ATOM     16  C   UNL A   1      33.592  19.298  24.915  1.00  0.00     0.024 A 
ATOM     17  C   UNL A   1      36.388  19.541  24.838  1.00  0.00     0.030 A 
ATOM     18  C   UNL A   1      34.195  20.500  25.306  1.00  0.00     0.030 A 
BRANCH  14  19
ATOM     19  S   UNL A   1      33.704  16.679  23.982  1.00  0.00     0.238 S 
ATOM     20  O   UNL A   1      34.028  16.483  22.598  1.00  0.00    -0.207 OA
ATOM     21  O   UNL A   1      32.339  16.610  24.478  1.00  0.00    -0.207 OA
BRANCH  19  22
ATOM     22  N   UNL A   1      34.544  15.504  24.830  1.00  0.00    -0.225 NA
ATOM     23  H   UNL A   1      35.527  15.770  24.896  1.00  0.00     0.137 HD
ATOM     24  H   UNL A   1      34.465  14.611  24.344  1.00  0.00     0.137 HD
ENDBRANCH  19  22
ENDBRANCH  14  19
ENDBRANCH   9  13
BRANCH  11  25
ATOM     25  C   UNL A   1      34.631  23.331  24.169  1.00  0.00     0.054 A 
ATOM     26  C   UNL A   1      34.497  23.067  22.819  1.00  0.00     0.024 A 
ATOM     27  S   UNL A   1      33.177  23.960  24.830  1.00  0.00    -0.122 S 
ATOM     28  C   UNL A   1      33.168  23.290  22.353  1.00  0.00     0.033 A 
ATOM     29  C   UNL A   1      32.364  23.756  23.360  1.00  0.00     0.094 A 
ATOM     30  Cl  UNL A   1      30.692  24.122  23.244  1.00  0.00    -0.072 Cl
ENDBRANCH  11  25
ENDBRANCH   6   8
ENDBRANCH   5   6
ENDBRANCH   4   5
ENDBRANCH   3   4
ENDBRANCH   2   3
ENDBRANCH   1   2
BRANCH   1  31
ATOM     31  C   UNL A   1      43.623  18.827  25.093  1.00  0.00     0.188 C 
BRANCH  31  32
ATOM     32  O   UNL A   1      44.905  18.373  25.478  1.00  0.00    -0.376 OA
BRANCH  32  33
ATOM     33  C   UNL A   1      46.062  19.190  25.362  1.00  0.00     0.202 C 
BRANCH  33  34
ATOM     34  C   UNL A   1      46.074  20.571  24.701  1.00  0.00     0.261 C 
BRANCH  34  35
ATOM     35  O   UNL A   1      45.270  21.532  25.339  1.00  0.00    -0.460 OA
BRANCH  35  36
ATOM     36  C   UNL A   1      45.212  22.709  24.690  1.00  0.00     0.338 C 
ATOM     37  O   UNL A   1      45.192  22.882  23.482  1.00  0.00    -0.246 OA
BRANCH  36  38
ATOM     38  C   UNL A   1      45.195  23.785  25.686  1.00  0.00     0.060 A 
ATOM     39  C   UNL A   1      44.921  25.047  25.162  1.00  0.00     0.016 A 
ATOM     40  C   UNL A   1      45.931  23.581  26.861  1.00  0.00     0.016 A 
ATOM     41  C   UNL A   1      45.744  26.060  25.564  1.00  0.00     0.010 A 
ATOM     42  C   UNL A   1      46.766  24.588  27.248  1.00  0.00     0.010 A 
ATOM     43  C   UNL A   1      46.744  25.754  26.491  1.00  0.00    -0.014 A 
BRANCH  43  44
ATOM     44  C   UNL A   1      47.810  26.706  26.632  1.00  0.00     0.031 A 
ATOM     45  C   UNL A   1      48.808  26.570  25.563  1.00  0.00     0.074 A 
ATOM     46  C   UNL A   1      47.800  27.624  27.614  1.00  0.00     0.049 A 
ATOM     47  N   UNL A   1      50.010  26.110  25.666  1.00  0.00    -0.248 NA
ATOM     48  C   UNL A   1      48.333  26.747  24.184  1.00  0.00     0.031 C 
ATOM     49  C   UNL A   1      46.702  27.987  28.516  1.00  0.00     0.029 A 
ATOM     50  N   UNL A   1      48.749  28.551  27.896  1.00  0.00    -0.354 N 
ATOM     51  C   UNL A   1      50.520  26.191  24.378  1.00  0.00     0.074 A 
ATOM     52  C   UNL A   1      49.394  26.335  23.494  1.00  0.00     0.031 C 
ATOM     53  C   UNL A   1      46.945  29.218  29.022  1.00  0.00     0.029 A 
ATOM     54  C   UNL A   1      48.256  29.657  28.574  1.00  0.00     0.049 A 
ATOM     55  H   UNL A   1      49.695  28.449  27.645  1.00  0.00     0.167 HD
ATOM     56  C   UNL A   1      51.833  26.461  24.163  1.00  0.00     0.034 A 
ATOM     57  C   UNL A   1      48.845  30.877  28.614  1.00  0.00     0.034 A 
ATOM     58  C   UNL A   1      52.629  26.230  25.340  1.00  0.00     0.049 A 
ATOM     59  C   UNL A   1      50.272  30.692  28.237  1.00  0.00     0.074 A 
ATOM     60  C   UNL A   1      52.857  25.141  26.160  1.00  0.00     0.029 A 
ATOM     61  N   UNL A   1      53.022  27.334  26.059  1.00  0.00    -0.354 N 
ATOM     62  N   UNL A   1      51.125  30.018  28.960  1.00  0.00    -0.248 NA
ATOM     63  C   UNL A   1      50.629  30.846  26.834  1.00  0.00     0.031 C 
ATOM     64  C   UNL A   1      52.923  25.681  27.477  1.00  0.00     0.029 A 
ATOM     65  C   UNL A   1      52.785  27.068  27.382  1.00  0.00     0.049 A 
ATOM     66  H   UNL A   1      53.402  28.164  25.690  1.00  0.00     0.167 HD
ATOM     67  C   UNL A   1      51.871  29.294  28.037  1.00  0.00     0.074 A 
ATOM     68  C   UNL A   1      51.590  29.920  26.745  1.00  0.00     0.031 C 
ATOM     69  C   UNL A   1      52.402  28.074  28.351  1.00  0.00     0.034 A 
BRANCH  56  70
ATOM     70  C   UNL A   1      52.320  27.310  23.019  1.00  0.00     0.023 A 
ATOM     71  C   UNL A   1      53.392  26.807  22.255  1.00  0.00     0.012 A 
ATOM     72  C   UNL A   1      51.968  28.667  22.824  1.00  0.00     0.148 A 
ATOM     73  C   UNL A   1      54.099  27.626  21.370  1.00  0.00     0.002 A 
ATOM     74  C   UNL A   1      52.611  29.448  21.876  1.00  0.00     0.091 A 
ATOM     75  F   UNL A   1      51.110  29.268  23.653  1.00  0.00    -0.205 F 
ATOM     76  C   UNL A   1      53.701  28.943  21.169  1.00  0.00     0.022 A 
BRANCH  74  77
ATOM     77  S   UNL A   1      52.086  31.134  21.551  1.00  0.00     0.127 S 
ATOM     78  O   UNL A   1      51.880  31.642  22.903  1.00  0.00    -0.237 OA
ATOM     79  O   UNL A   1      53.249  31.681  20.850  1.00  0.00    -0.237 OA
ATOM     80  O   UNL A   1      50.895  31.014  20.717  1.00  0.00    -0.744 OA
ENDBRANCH  74  77
ENDBRANCH  56  70
BRANCH  57  81
ATOM     81  C   UNL A   1      48.184  32.205  28.597  1.00  0.00     0.023 A 
ATOM     82  C   UNL A   1      48.425  33.121  29.639  1.00  0.00     0.012 A 
ATOM     83  C   UNL A   1      47.519  32.674  27.440  1.00  0.00     0.148 A 
ATOM     84  C   UNL A   1      48.028  34.461  29.525  1.00  0.00     0.002 A 
ATOM     85  C   UNL A   1      47.109  34.000  27.340  1.00  0.00     0.091 A 
ATOM     86  F   UNL A   1      47.371  31.848  26.397  1.00  0.00    -0.205 F 
ATOM     87  C   UNL A   1      47.373  34.900  28.378  1.00  0.00     0.022 A 
BRANCH  85  88
ATOM     88  S   UNL A   1      46.259  34.629  25.885  1.00  0.00     0.127 S 
ATOM     89  O   UNL A   1      45.367  33.517  25.553  1.00  0.00    -0.237 OA
ATOM     90  O   UNL A   1      45.591  35.815  26.412  1.00  0.00    -0.237 OA
ATOM     91  O   UNL A   1      47.298  34.876  24.893  1.00  0.00    -0.744 OA
ENDBRANCH  85  88
ENDBRANCH  57  81
BRANCH  69  92
ATOM     92  C   UNL A   1      52.336  27.616  29.789  1.00  0.00     0.023 A 
ATOM     93  C   UNL A   1      53.279  28.035  30.753  1.00  0.00     0.012 A 
ATOM     94  C   UNL A   1      51.200  26.911  30.218  1.00  0.00     0.148 A 
ATOM     95  C   UNL A   1      53.104  27.740  32.108  1.00  0.00     0.002 A 
ATOM     96  C   UNL A   1      51.007  26.656  31.571  1.00  0.00     0.091 A 
ATOM     97  F   UNL A   1      50.305  26.530  29.293  1.00  0.00    -0.205 F 
ATOM     98  C   UNL A   1      51.960  27.060  32.518  1.00  0.00     0.022 A 
BRANCH  96  99
ATOM     99  S   UNL A   1      49.497  25.900  32.180  1.00  0.00     0.127 S 
ATOM    100  O   UNL A   1      50.007  24.734  32.897  1.00  0.00    -0.237 OA
ATOM    101  O   UNL A   1      48.943  26.951  33.036  1.00  0.00    -0.237 OA
ATOM    102  O   UNL A   1      48.690  25.608  31.001  1.00  0.00    -0.744 OA
ENDBRANCH  96  99
ENDBRANCH  69  92
ENDBRANCH  43  44
ENDBRANCH  36  38
ENDBRANCH  35  36
ENDBRANCH  34  35
ENDBRANCH  33  34
ENDBRANCH  32  33
ENDBRANCH  31  32
ENDBRANCH   1  31
TORSDOF 24
ENDMDL
