MODEL 1
REMARK VINA RESULT:     -11.0      0.000      0.000
REMARK SMILES O=C(NC1(C(=O)OCCOCCOCCOC(=O)c2ccc(-c3c4nc(c(-c5cccc(S(=O)(=O)[O-])c5F)c5ccc([nH]5)c(-c5cccc(S(=O)(=O)[O-])c5F)c5nc(c(-c6cccc(S(=O)(=O)[O-])c6F)c6ccc3[nH]6)C=C5)C=C4)cc2)Cc2ccccc2C1)OCC1c2ccccc2-c2ccccc21
REMARK SMILES IDX 11 1 10 2 9 3 8 4 7 5 5 6 6 7 4 8 82 9 89 10 83 11 88 12
REMARK SMILES IDX 84 13 87 14 85 15 86 16 3 17 1 18 2 19 90 21 91 22 92 23
REMARK SMILES IDX 93 24 104 25 94 26 98 27 99 28 103 29 95 30 97 31 100 32
REMARK SMILES IDX 102 33 96 34 101 35 12 36 13 37 14 38 15 39 16 40 17 41
REMARK SMILES IDX 18 42 19 43 20 44 81 45 21 46 80 47 22 48 23 49 24 50 74 51
REMARK SMILES IDX 25 52 79 53 73 54 75 55 26 56 78 57 72 58 71 59 27 61 59 62
REMARK SMILES IDX 39 63 58 64 40 65 43 66 57 67 76 68 41 69 42 70 56 72 77 73
REMARK SMILES IDX 44 74 28 75 29 76 37 77 30 78 32 79 38 80 31 81 33 82 34 83
REMARK SMILES IDX 35 84 36 85 60 86 61 87 69 88 62 89 64 90 70 91 63 92 65 93
REMARK SMILES IDX 66 94 67 95 68 96 45 97 46 98 54 99 47 100 49 101 55 102
REMARK SMILES IDX 48 103 50 104 51 105 52 106 53 107
REMARK H PARENT 3 20 75 60 43 71
REMARK Flexibility Score: inf
ROOT
ATOM      1  C   UNL A   1      31.408  31.488  26.704  1.00  0.00     0.188 C 
ENDROOT
BRANCH   1   2
ATOM      2  O   UNL A   1      31.211  30.818  25.469  1.00  0.00    -0.376 OA
BRANCH   2   3
ATOM      3  C   UNL A   1      30.170  31.247  24.594  1.00  0.00     0.202 C 
BRANCH   3   4
ATOM      4  C   UNL A   1      29.579  30.247  23.593  1.00  0.00     0.261 C 
BRANCH   4   5
ATOM      5  O   UNL A   1      30.248  28.973  23.601  1.00  0.00    -0.461 OA
BRANCH   5   6
ATOM      6  C   UNL A   1      31.263  28.818  22.721  1.00  0.00     0.332 C 
ATOM      7  O   UNL A   1      31.428  29.525  21.727  1.00  0.00    -0.249 OA
BRANCH   6   8
ATOM      8  C   UNL A   1      32.179  27.603  23.003  1.00  0.00     0.149 C 
ATOM      9  C   UNL A   1      31.345  26.799  24.027  1.00  0.00     0.076 C 
ATOM     10  C   UNL A   1      33.550  27.820  23.699  1.00  0.00     0.076 C 
ATOM     11  C   UNL A   1      31.895  27.336  25.327  1.00  0.00    -0.042 A 
ATOM     12  C   UNL A   1      33.167  27.878  25.135  1.00  0.00    -0.042 A 
ATOM     13  C   UNL A   1      31.323  27.363  26.583  1.00  0.00     0.004 A 
ATOM     14  C   UNL A   1      33.928  28.389  26.168  1.00  0.00     0.004 A 
ATOM     15  C   UNL A   1      32.065  27.910  27.639  1.00  0.00     0.000 A 
ATOM     16  C   UNL A   1      33.365  28.405  27.437  1.00  0.00     0.000 A 
BRANCH   8  17
ATOM     17  N   UNL A   1      32.340  27.022  21.653  1.00  0.00    -0.305 N 
ATOM     18  O   UNL A   1      32.941  25.460  20.140  1.00  0.00    -0.225 OA
ATOM     19  C   UNL A   1      32.855  25.820  21.290  1.00  0.00     0.408 C 
ATOM     20  H   UNL A   1      32.030  27.590  20.910  1.00  0.00     0.168 HD
BRANCH  19  21
ATOM     21  O   UNL A   1      33.138  25.059  22.372  1.00  0.00    -0.449 OA
BRANCH  21  22
ATOM     22  C   UNL A   1      33.056  23.670  22.082  1.00  0.00     0.248 C 
BRANCH  22  23
ATOM     23  C   UNL A   1      33.521  22.810  23.277  1.00  0.00     0.088 C 
ATOM     24  C   UNL A   1      34.893  23.059  23.915  1.00  0.00    -0.029 A 
ATOM     25  C   UNL A   1      32.591  23.006  24.482  1.00  0.00    -0.029 A 
ATOM     26  C   UNL A   1      36.152  23.125  23.335  1.00  0.00     0.005 A 
ATOM     27  C   UNL A   1      34.750  23.205  25.317  1.00  0.00    -0.014 A 
ATOM     28  C   UNL A   1      33.342  23.280  25.641  1.00  0.00    -0.014 A 
ATOM     29  C   UNL A   1      31.205  23.084  24.483  1.00  0.00     0.005 A 
ATOM     30  C   UNL A   1      37.268  23.278  24.172  1.00  0.00     0.000 A 
ATOM     31  C   UNL A   1      35.855  23.319  26.148  1.00  0.00     0.009 A 
ATOM     32  C   UNL A   1      32.710  23.757  26.781  1.00  0.00     0.009 A 
ATOM     33  C   UNL A   1      30.576  23.582  25.620  1.00  0.00     0.000 A 
ATOM     34  C   UNL A   1      37.124  23.344  25.567  1.00  0.00     0.001 A 
ATOM     35  C   UNL A   1      31.323  23.941  26.751  1.00  0.00     0.001 A 
ENDBRANCH  22  23
ENDBRANCH  21  22
ENDBRANCH  19  21
ENDBRANCH   8  17
ENDBRANCH   6   8
ENDBRANCH   5   6
ENDBRANCH   4   5
ENDBRANCH   3   4
ENDBRANCH   2   3
ENDBRANCH   1   2
BRANCH   1  36
ATOM     36  C   UNL A   1      31.781  32.968  26.669  1.00  0.00     0.188 C 
BRANCH  36  37
ATOM     37  O   UNL A   1      32.147  33.523  27.916  1.00  0.00    -0.376 OA
BRANCH  37  38
ATOM     38  C   UNL A   1      33.441  34.100  28.046  1.00  0.00     0.202 C 
BRANCH  38  39
ATOM     39  C   UNL A   1      34.295  33.604  29.226  1.00  0.00     0.261 C 
BRANCH  39  40
ATOM     40  O   UNL A   1      34.404  32.173  29.351  1.00  0.00    -0.460 OA
BRANCH  40  41
ATOM     41  C   UNL A   1      35.059  31.508  28.363  1.00  0.00     0.338 C 
ATOM     42  O   UNL A   1      34.837  31.586  27.168  1.00  0.00    -0.246 OA
BRANCH  41  43
ATOM     43  C   UNL A   1      36.290  30.922  28.964  1.00  0.00     0.060 A 
ATOM     44  C   UNL A   1      37.515  31.582  28.758  1.00  0.00     0.016 A 
ATOM     45  C   UNL A   1      36.227  29.819  29.817  1.00  0.00     0.016 A 
ATOM     46  C   UNL A   1      38.682  31.111  29.370  1.00  0.00     0.010 A 
ATOM     47  C   UNL A   1      37.398  29.338  30.411  1.00  0.00     0.010 A 
ATOM     48  C   UNL A   1      38.637  29.956  30.161  1.00  0.00    -0.014 A 
BRANCH  48  49
ATOM     49  C   UNL A   1      39.891  29.249  30.533  1.00  0.00     0.031 A 
ATOM     50  C   UNL A   1      40.625  29.730  31.758  1.00  0.00     0.074 A 
ATOM     51  C   UNL A   1      40.395  28.235  29.807  1.00  0.00     0.049 A 
ATOM     52  N   UNL A   1      41.776  29.349  32.243  1.00  0.00    -0.248 NA
ATOM     53  C   UNL A   1      39.968  30.796  32.534  1.00  0.00     0.031 C 
ATOM     54  C   UNL A   1      39.785  27.657  28.612  1.00  0.00     0.029 A 
ATOM     55  N   UNL A   1      41.566  27.531  29.962  1.00  0.00    -0.354 N 
ATOM     56  C   UNL A   1      41.999  30.149  33.357  1.00  0.00     0.074 A 
ATOM     57  C   UNL A   1      40.870  31.045  33.469  1.00  0.00     0.031 C 
ATOM     58  C   UNL A   1      40.606  26.710  28.120  1.00  0.00     0.029 A 
ATOM     59  C   UNL A   1      41.809  26.633  28.949  1.00  0.00     0.049 A 
ATOM     60  H   UNL A   1      42.173  27.656  30.727  1.00  0.00     0.167 HD
ATOM     61  C   UNL A   1      43.040  30.133  34.221  1.00  0.00     0.034 A 
ATOM     62  C   UNL A   1      42.890  25.862  28.704  1.00  0.00     0.034 A 
ATOM     63  C   UNL A   1      44.158  29.237  34.124  1.00  0.00     0.049 A 
ATOM     64  C   UNL A   1      44.057  25.886  29.662  1.00  0.00     0.074 A 
ATOM     65  C   UNL A   1      45.240  29.119  34.978  1.00  0.00     0.029 A 
ATOM     66  N   UNL A   1      44.346  28.313  33.109  1.00  0.00    -0.354 N 
ATOM     67  N   UNL A   1      44.204  26.569  30.773  1.00  0.00    -0.248 NA
ATOM     68  C   UNL A   1      45.196  25.008  29.349  1.00  0.00     0.031 C 
ATOM     69  C   UNL A   1      46.102  28.147  34.459  1.00  0.00     0.029 A 
ATOM     70  C   UNL A   1      45.534  27.631  33.305  1.00  0.00     0.049 A 
ATOM     71  H   UNL A   1      43.726  28.164  32.359  1.00  0.00     0.167 HD
ATOM     72  C   UNL A   1      45.426  26.173  31.309  1.00  0.00     0.074 A 
ATOM     73  C   UNL A   1      45.974  25.179  30.410  1.00  0.00     0.031 C 
ATOM     74  C   UNL A   1      46.046  26.602  32.436  1.00  0.00     0.034 A 
BRANCH  61  75
ATOM     75  C   UNL A   1      43.010  31.116  35.361  1.00  0.00     0.023 A 
ATOM     76  C   UNL A   1      42.445  30.738  36.596  1.00  0.00     0.012 A 
ATOM     77  C   UNL A   1      43.578  32.397  35.224  1.00  0.00     0.148 A 
ATOM     78  C   UNL A   1      42.415  31.631  37.666  1.00  0.00     0.002 A 
ATOM     79  C   UNL A   1      43.588  33.264  36.307  1.00  0.00     0.091 A 
ATOM     80  F   UNL A   1      44.087  32.745  34.033  1.00  0.00    -0.205 F 
ATOM     81  C   UNL A   1      42.995  32.889  37.525  1.00  0.00     0.022 A 
BRANCH  79  82
ATOM     82  S   UNL A   1      44.382  34.874  36.252  1.00  0.00     0.127 S 
ATOM     83  O   UNL A   1      43.513  35.600  35.327  1.00  0.00    -0.237 OA
ATOM     84  O   UNL A   1      44.289  35.309  37.645  1.00  0.00    -0.237 OA
ATOM     85  O   UNL A   1      45.739  34.638  35.778  1.00  0.00    -0.744 OA
ENDBRANCH  79  82
ENDBRANCH  61  75
BRANCH  62  86
ATOM     86  C   UNL A   1      42.922  24.975  27.504  1.00  0.00     0.023 A 
ATOM     87  C   UNL A   1      43.526  25.432  26.315  1.00  0.00     0.012 A 
ATOM     88  C   UNL A   1      42.348  23.689  27.529  1.00  0.00     0.148 A 
ATOM     89  C   UNL A   1      43.528  24.640  25.166  1.00  0.00     0.002 A 
ATOM     90  C   UNL A   1      42.402  22.882  26.398  1.00  0.00     0.091 A 
ATOM     91  F   UNL A   1      41.758  23.280  28.662  1.00  0.00    -0.205 F 
ATOM     92  C   UNL A   1      42.975  23.363  25.210  1.00  0.00     0.022 A 
BRANCH  90  93
ATOM     93  S   UNL A   1      41.819  21.184  26.392  1.00  0.00     0.127 S 
ATOM     94  O   UNL A   1      40.401  21.353  26.084  1.00  0.00    -0.237 OA
ATOM     95  O   UNL A   1      42.617  20.597  25.314  1.00  0.00    -0.237 OA
ATOM     96  O   UNL A   1      42.118  20.658  27.717  1.00  0.00    -0.744 OA
ENDBRANCH  90  93
ENDBRANCH  62  86
BRANCH  74  97
ATOM     97  C   UNL A   1      47.367  25.972  32.807  1.00  0.00     0.023 A 
ATOM     98  C   UNL A   1      48.573  26.545  32.358  1.00  0.00     0.012 A 
ATOM     99  C   UNL A   1      47.411  24.861  33.673  1.00  0.00     0.148 A 
ATOM    100  C   UNL A   1      49.801  26.001  32.737  1.00  0.00     0.002 A 
ATOM    101  C   UNL A   1      48.639  24.356  34.088  1.00  0.00     0.091 A 
ATOM    102  F   UNL A   1      46.253  24.320  34.081  1.00  0.00    -0.205 F 
ATOM    103  C   UNL A   1      49.834  24.917  33.611  1.00  0.00     0.022 A 
BRANCH 101 104
ATOM    104  S   UNL A   1      48.781  23.025  35.288  1.00  0.00     0.127 S 
ATOM    105  O   UNL A   1      48.539  21.848  34.457  1.00  0.00    -0.237 OA
ATOM    106  O   UNL A   1      50.162  23.172  35.750  1.00  0.00    -0.237 OA
ATOM    107  O   UNL A   1      47.771  23.290  36.304  1.00  0.00    -0.744 OA
ENDBRANCH 101 104
ENDBRANCH  74  97
ENDBRANCH  48  49
ENDBRANCH  41  43
ENDBRANCH  40  41
ENDBRANCH  39  40
ENDBRANCH  38  39
ENDBRANCH  37  38
ENDBRANCH  36  37
ENDBRANCH   1  36
TORSDOF 24
ENDMDL
MODEL 2
REMARK VINA RESULT:      -9.9      2.617      3.500
REMARK SMILES O=C(NC1(C(=O)OCCOCCOCCOC(=O)c2ccc(-c3c4nc(c(-c5cccc(S(=O)(=O)[O-])c5F)c5ccc([nH]5)c(-c5cccc(S(=O)(=O)[O-])c5F)c5nc(c(-c6cccc(S(=O)(=O)[O-])c6F)c6ccc3[nH]6)C=C5)C=C4)cc2)Cc2ccccc2C1)OCC1c2ccccc2-c2ccccc21
REMARK SMILES IDX 11 1 10 2 9 3 8 4 7 5 5 6 6 7 4 8 82 9 89 10 83 11 88 12
REMARK SMILES IDX 84 13 87 14 85 15 86 16 3 17 1 18 2 19 90 21 91 22 92 23
REMARK SMILES IDX 93 24 104 25 94 26 98 27 99 28 103 29 95 30 97 31 100 32
REMARK SMILES IDX 102 33 96 34 101 35 12 36 13 37 14 38 15 39 16 40 17 41
REMARK SMILES IDX 18 42 19 43 20 44 81 45 21 46 80 47 22 48 23 49 24 50 74 51
REMARK SMILES IDX 25 52 79 53 73 54 75 55 26 56 78 57 72 58 71 59 27 61 59 62
REMARK SMILES IDX 39 63 58 64 40 65 43 66 57 67 76 68 41 69 42 70 56 72 77 73
REMARK SMILES IDX 44 74 28 75 29 76 37 77 30 78 32 79 38 80 31 81 33 82 34 83
REMARK SMILES IDX 35 84 36 85 60 86 61 87 69 88 62 89 64 90 70 91 63 92 65 93
REMARK SMILES IDX 66 94 67 95 68 96 45 97 46 98 54 99 47 100 49 101 55 102
REMARK SMILES IDX 48 103 50 104 51 105 52 106 53 107
REMARK H PARENT 3 20 75 60 43 71
REMARK Flexibility Score: inf
ROOT
ATOM      1  C   UNL A   1      33.118  32.037  27.652  1.00  0.00     0.188 C 
ENDROOT
BRANCH   1   2
ATOM      2  O   UNL A   1      34.046  31.020  27.307  1.00  0.00    -0.376 OA
BRANCH   2   3
ATOM      3  C   UNL A   1      33.584  29.833  26.666  1.00  0.00     0.202 C 
BRANCH   3   4
ATOM      4  C   UNL A   1      32.180  29.309  26.991  1.00  0.00     0.261 C 
BRANCH   4   5
ATOM      5  O   UNL A   1      32.174  27.942  27.440  1.00  0.00    -0.461 OA
BRANCH   5   6
ATOM      6  C   UNL A   1      32.754  27.035  26.622  1.00  0.00     0.332 C 
ATOM      7  O   UNL A   1      33.931  27.081  26.264  1.00  0.00    -0.249 OA
BRANCH   6   8
ATOM      8  C   UNL A   1      31.792  25.953  26.077  1.00  0.00     0.149 C 
ATOM      9  C   UNL A   1      32.385  25.667  24.676  1.00  0.00     0.076 C 
ATOM     10  C   UNL A   1      30.305  26.313  25.806  1.00  0.00     0.076 C 
ATOM     11  C   UNL A   1      31.574  26.615  23.825  1.00  0.00    -0.042 A 
ATOM     12  C   UNL A   1      30.375  26.944  24.461  1.00  0.00    -0.042 A 
ATOM     13  C   UNL A   1      31.867  27.164  22.592  1.00  0.00     0.004 A 
ATOM     14  C   UNL A   1      29.416  27.750  23.880  1.00  0.00     0.004 A 
ATOM     15  C   UNL A   1      30.921  28.013  22.002  1.00  0.00     0.000 A 
ATOM     16  C   UNL A   1      29.697  28.292  22.633  1.00  0.00     0.000 A 
BRANCH   8  17
ATOM     17  N   UNL A   1      31.917  24.891  27.096  1.00  0.00    -0.305 N 
ATOM     18  O   UNL A   1      31.906  22.775  27.881  1.00  0.00    -0.225 OA
ATOM     19  C   UNL A   1      31.787  23.546  26.959  1.00  0.00     0.408 C 
ATOM     20  H   UNL A   1      32.122  25.203  28.007  1.00  0.00     0.168 HD
BRANCH  19  21
ATOM     21  O   UNL A   1      31.630  23.197  25.661  1.00  0.00    -0.449 OA
BRANCH  21  22
ATOM     22  C   UNL A   1      31.875  21.813  25.448  1.00  0.00     0.248 C 
BRANCH  22  23
ATOM     23  C   UNL A   1      33.103  21.585  24.540  1.00  0.00     0.088 C 
ATOM     24  C   UNL A   1      34.497  22.014  25.012  1.00  0.00    -0.029 A 
ATOM     25  C   UNL A   1      33.320  20.087  24.288  1.00  0.00    -0.029 A 
ATOM     26  C   UNL A   1      34.944  23.237  25.489  1.00  0.00     0.005 A 
ATOM     27  C   UNL A   1      35.403  20.933  24.875  1.00  0.00    -0.014 A 
ATOM     28  C   UNL A   1      34.661  19.737  24.538  1.00  0.00    -0.014 A 
ATOM     29  C   UNL A   1      32.359  19.122  24.015  1.00  0.00     0.005 A 
ATOM     30  C   UNL A   1      36.311  23.388  25.771  1.00  0.00     0.000 A 
ATOM     31  C   UNL A   1      36.760  21.091  25.117  1.00  0.00     0.009 A 
ATOM     32  C   UNL A   1      35.022  18.401  24.639  1.00  0.00     0.009 A 
ATOM     33  C   UNL A   1      32.720  17.783  24.137  1.00  0.00     0.000 A 
ATOM     34  C   UNL A   1      37.215  22.334  25.558  1.00  0.00     0.001 A 
ATOM     35  C   UNL A   1      34.034  17.425  24.472  1.00  0.00     0.001 A 
ENDBRANCH  22  23
ENDBRANCH  21  22
ENDBRANCH  19  21
ENDBRANCH   8  17
ENDBRANCH   6   8
ENDBRANCH   5   6
ENDBRANCH   4   5
ENDBRANCH   3   4
ENDBRANCH   2   3
ENDBRANCH   1   2
BRANCH   1  36
ATOM     36  C   UNL A   1      33.659  33.428  27.969  1.00  0.00     0.188 C 
BRANCH  36  37
ATOM     37  O   UNL A   1      32.903  34.165  28.908  1.00  0.00    -0.376 OA
BRANCH  37  38
ATOM     38  C   UNL A   1      33.520  35.270  29.557  1.00  0.00     0.202 C 
BRANCH  38  39
ATOM     39  C   UNL A   1      34.247  34.967  30.879  1.00  0.00     0.261 C 
BRANCH  39  40
ATOM     40  O   UNL A   1      35.285  33.971  30.800  1.00  0.00    -0.460 OA
BRANCH  40  41
ATOM     41  C   UNL A   1      35.084  32.805  31.466  1.00  0.00     0.338 C 
ATOM     42  O   UNL A   1      34.013  32.361  31.839  1.00  0.00    -0.246 OA
BRANCH  41  43
ATOM     43  C   UNL A   1      36.347  32.019  31.376  1.00  0.00     0.060 A 
ATOM     44  C   UNL A   1      36.418  30.785  32.047  1.00  0.00     0.016 A 
ATOM     45  C   UNL A   1      37.395  32.423  30.547  1.00  0.00     0.016 A 
ATOM     46  C   UNL A   1      37.554  29.979  31.923  1.00  0.00     0.010 A 
ATOM     47  C   UNL A   1      38.538  31.626  30.441  1.00  0.00     0.010 A 
ATOM     48  C   UNL A   1      38.642  30.419  31.158  1.00  0.00    -0.014 A 
BRANCH  48  49
ATOM     49  C   UNL A   1      39.968  29.760  31.285  1.00  0.00     0.031 A 
ATOM     50  C   UNL A   1      40.912  30.289  32.333  1.00  0.00     0.074 A 
ATOM     51  C   UNL A   1      40.354  28.746  30.489  1.00  0.00     0.049 A 
ATOM     52  N   UNL A   1      42.149  29.955  32.586  1.00  0.00    -0.248 NA
ATOM     53  C   UNL A   1      40.385  31.351  33.208  1.00  0.00     0.031 C 
ATOM     54  C   UNL A   1      39.541  28.125  29.446  1.00  0.00     0.029 A 
ATOM     55  N   UNL A   1      41.557  28.083  30.419  1.00  0.00    -0.354 N 
ATOM     56  C   UNL A   1      42.559  30.785  33.622  1.00  0.00     0.074 A 
ATOM     57  C   UNL A   1      41.444  31.648  33.943  1.00  0.00     0.031 C 
ATOM     58  C   UNL A   1      40.281  27.194  28.816  1.00  0.00     0.029 A 
ATOM     59  C   UNL A   1      41.626  27.172  29.391  1.00  0.00     0.049 A 
ATOM     60  H   UNL A   1      42.298  28.243  31.047  1.00  0.00     0.167 HD
ATOM     61  C   UNL A   1      43.750  30.820  34.263  1.00  0.00     0.034 A 
ATOM     62  C   UNL A   1      42.663  26.430  28.948  1.00  0.00     0.034 A 
ATOM     63  C   UNL A   1      44.858  29.957  33.960  1.00  0.00     0.049 A 
ATOM     64  C   UNL A   1      43.995  26.511  29.656  1.00  0.00     0.074 A 
ATOM     65  C   UNL A   1      46.091  29.892  34.584  1.00  0.00     0.029 A 
ATOM     66  N   UNL A   1      44.874  29.019  32.941  1.00  0.00    -0.354 N 
ATOM     67  N   UNL A   1      44.335  27.221  30.705  1.00  0.00    -0.248 NA
ATOM     68  C   UNL A   1      45.080  25.663  29.137  1.00  0.00     0.031 C 
ATOM     69  C   UNL A   1      46.866  28.936  33.919  1.00  0.00     0.029 A 
ATOM     70  C   UNL A   1      46.100  28.378  32.908  1.00  0.00     0.049 A 
ATOM     71  H   UNL A   1      44.124  28.834  32.331  1.00  0.00     0.167 HD
ATOM     72  C   UNL A   1      45.652  26.876  30.994  1.00  0.00     0.074 A 
ATOM     73  C   UNL A   1      46.045  25.880  30.020  1.00  0.00     0.031 C 
ATOM     74  C   UNL A   1      46.466  27.348  31.971  1.00  0.00     0.034 A 
BRANCH  61  75
ATOM     75  C   UNL A   1      43.912  31.825  35.372  1.00  0.00     0.023 A 
ATOM     76  C   UNL A   1      44.432  33.104  35.087  1.00  0.00     0.012 A 
ATOM     77  C   UNL A   1      43.511  31.519  36.686  1.00  0.00     0.148 A 
ATOM     78  C   UNL A   1      44.582  34.051  36.099  1.00  0.00     0.002 A 
ATOM     79  C   UNL A   1      43.618  32.482  37.680  1.00  0.00     0.091 A 
ATOM     80  F   UNL A   1      43.043  30.288  36.941  1.00  0.00    -0.205 F 
ATOM     81  C   UNL A   1      44.165  33.744  37.392  1.00  0.00     0.022 A 
BRANCH  79  82
ATOM     82  S   UNL A   1      43.034  32.213  39.357  1.00  0.00     0.127 S 
ATOM     83  O   UNL A   1      43.868  31.089  39.782  1.00  0.00    -0.237 OA
ATOM     84  O   UNL A   1      43.355  33.486  40.001  1.00  0.00    -0.237 OA
ATOM     85  O   UNL A   1      41.611  31.928  39.248  1.00  0.00    -0.744 OA
ENDBRANCH  79  82
ENDBRANCH  61  75
BRANCH  62  86
ATOM     86  C   UNL A   1      42.489  25.519  27.778  1.00  0.00     0.023 A 
ATOM     87  C   UNL A   1      42.729  26.002  26.477  1.00  0.00     0.012 A 
ATOM     88  C   UNL A   1      42.075  24.183  27.947  1.00  0.00     0.148 A 
ATOM     89  C   UNL A   1      42.529  25.184  25.364  1.00  0.00     0.002 A 
ATOM     90  C   UNL A   1      41.930  23.356  26.839  1.00  0.00     0.091 A 
ATOM     91  F   UNL A   1      41.830  23.748  29.191  1.00  0.00    -0.205 F 
ATOM     92  C   UNL A   1      42.138  23.860  25.545  1.00  0.00     0.022 A 
BRANCH  90  93
ATOM     93  S   UNL A   1      41.542  21.608  26.980  1.00  0.00     0.127 S 
ATOM     94  O   UNL A   1      42.547  21.154  27.937  1.00  0.00    -0.237 OA
ATOM     95  O   UNL A   1      40.173  21.646  27.495  1.00  0.00    -0.237 OA
ATOM     96  O   UNL A   1      41.665  21.067  25.633  1.00  0.00    -0.744 OA
ENDBRANCH  90  93
ENDBRANCH  62  86
BRANCH  74  97
ATOM     97  C   UNL A   1      47.855  26.768  32.081  1.00  0.00     0.023 A 
ATOM     98  C   UNL A   1      48.095  25.668  32.928  1.00  0.00     0.012 A 
ATOM     99  C   UNL A   1      48.904  27.262  31.279  1.00  0.00     0.148 A 
ATOM    100  C   UNL A   1      49.364  25.090  32.999  1.00  0.00     0.002 A 
ATOM    101  C   UNL A   1      50.151  26.650  31.316  1.00  0.00     0.091 A 
ATOM    102  F   UNL A   1      48.661  28.319  30.489  1.00  0.00    -0.205 F 
ATOM    103  C   UNL A   1      50.387  25.573  32.185  1.00  0.00     0.022 A 
BRANCH 101 104
ATOM    104  S   UNL A   1      51.501  27.139  30.234  1.00  0.00     0.127 S 
ATOM    105  O   UNL A   1      52.548  26.196  30.619  1.00  0.00    -0.237 OA
ATOM    106  O   UNL A   1      50.931  26.908  28.906  1.00  0.00    -0.237 OA
ATOM    107  O   UNL A   1      51.776  28.537  30.539  1.00  0.00    -0.744 OA
ENDBRANCH 101 104
ENDBRANCH  74  97
ENDBRANCH  48  49
ENDBRANCH  41  43
ENDBRANCH  40  41
ENDBRANCH  39  40
ENDBRANCH  38  39
ENDBRANCH  37  38
ENDBRANCH  36  37
ENDBRANCH   1  36
TORSDOF 24
ENDMDL
MODEL 3
REMARK VINA RESULT:      -9.6      2.972      4.160
REMARK SMILES O=C(NC1(C(=O)OCCOCCOCCOC(=O)c2ccc(-c3c4nc(c(-c5cccc(S(=O)(=O)[O-])c5F)c5ccc([nH]5)c(-c5cccc(S(=O)(=O)[O-])c5F)c5nc(c(-c6cccc(S(=O)(=O)[O-])c6F)c6ccc3[nH]6)C=C5)C=C4)cc2)Cc2ccccc2C1)OCC1c2ccccc2-c2ccccc21
REMARK SMILES IDX 11 1 10 2 9 3 8 4 7 5 5 6 6 7 4 8 82 9 89 10 83 11 88 12
REMARK SMILES IDX 84 13 87 14 85 15 86 16 3 17 1 18 2 19 90 21 91 22 92 23
REMARK SMILES IDX 93 24 104 25 94 26 98 27 99 28 103 29 95 30 97 31 100 32
REMARK SMILES IDX 102 33 96 34 101 35 12 36 13 37 14 38 15 39 16 40 17 41
REMARK SMILES IDX 18 42 19 43 20 44 81 45 21 46 80 47 22 48 23 49 24 50 74 51
REMARK SMILES IDX 25 52 79 53 73 54 75 55 26 56 78 57 72 58 71 59 27 61 59 62
REMARK SMILES IDX 39 63 58 64 40 65 43 66 57 67 76 68 41 69 42 70 56 72 77 73
REMARK SMILES IDX 44 74 28 75 29 76 37 77 30 78 32 79 38 80 31 81 33 82 34 83
REMARK SMILES IDX 35 84 36 85 60 86 61 87 69 88 62 89 64 90 70 91 63 92 65 93
REMARK SMILES IDX 66 94 67 95 68 96 45 97 46 98 54 99 47 100 49 101 55 102
REMARK SMILES IDX 48 103 50 104 51 105 52 106 53 107
REMARK H PARENT 3 20 75 60 43 71
REMARK Flexibility Score: inf
ROOT
ATOM      1  C   UNL A   1      33.677  31.157  27.618  1.00  0.00     0.188 C 
ENDROOT
BRANCH   1   2
ATOM      2  O   UNL A   1      33.644  30.386  26.428  1.00  0.00    -0.376 OA
BRANCH   2   3
ATOM      3  C   UNL A   1      32.488  29.608  26.124  1.00  0.00     0.202 C 
BRANCH   3   4
ATOM      4  C   UNL A   1      31.579  29.147  27.270  1.00  0.00     0.261 C 
BRANCH   4   5
ATOM      5  O   UNL A   1      31.820  27.786  27.672  1.00  0.00    -0.461 OA
BRANCH   5   6
ATOM      6  C   UNL A   1      32.537  27.021  26.818  1.00  0.00     0.332 C 
ATOM      7  O   UNL A   1      33.714  27.233  26.525  1.00  0.00    -0.249 OA
BRANCH   6   8
ATOM      8  C   UNL A   1      31.735  25.883  26.145  1.00  0.00     0.149 C 
ATOM      9  C   UNL A   1      32.474  25.719  24.796  1.00  0.00     0.076 C 
ATOM     10  C   UNL A   1      30.251  26.117  25.753  1.00  0.00     0.076 C 
ATOM     11  C   UNL A   1      31.654  26.628  23.910  1.00  0.00    -0.042 A 
ATOM     12  C   UNL A   1      30.378  26.814  24.446  1.00  0.00    -0.042 A 
ATOM     13  C   UNL A   1      32.001  27.259  22.732  1.00  0.00     0.004 A 
ATOM     14  C   UNL A   1      29.400  27.556  23.811  1.00  0.00     0.004 A 
ATOM     15  C   UNL A   1      31.033  28.045  22.091  1.00  0.00     0.000 A 
ATOM     16  C   UNL A   1      29.737  28.180  22.617  1.00  0.00     0.000 A 
BRANCH   8  17
ATOM     17  N   UNL A   1      31.871  24.789  27.130  1.00  0.00    -0.305 N 
ATOM     18  O   UNL A   1      31.899  22.648  27.842  1.00  0.00    -0.225 OA
ATOM     19  C   UNL A   1      31.774  23.447  26.945  1.00  0.00     0.408 C 
ATOM     20  H   UNL A   1      32.057  25.075  28.054  1.00  0.00     0.168 HD
BRANCH  19  21
ATOM     21  O   UNL A   1      31.642  23.139  25.634  1.00  0.00    -0.449 OA
BRANCH  21  22
ATOM     22  C   UNL A   1      31.863  21.757  25.387  1.00  0.00     0.248 C 
BRANCH  22  23
ATOM     23  C   UNL A   1      33.109  21.528  24.505  1.00  0.00     0.088 C 
ATOM     24  C   UNL A   1      34.494  21.950  25.008  1.00  0.00    -0.029 A 
ATOM     25  C   UNL A   1      33.326  20.030  24.252  1.00  0.00    -0.029 A 
ATOM     26  C   UNL A   1      34.935  23.170  25.499  1.00  0.00     0.005 A 
ATOM     27  C   UNL A   1      35.399  20.866  24.886  1.00  0.00    -0.014 A 
ATOM     28  C   UNL A   1      34.660  19.674  24.529  1.00  0.00    -0.014 A 
ATOM     29  C   UNL A   1      32.368  19.070  23.954  1.00  0.00     0.005 A 
ATOM     30  C   UNL A   1      36.296  23.315  25.811  1.00  0.00     0.000 A 
ATOM     31  C   UNL A   1      36.751  21.019  25.158  1.00  0.00     0.009 A 
ATOM     32  C   UNL A   1      35.015  18.337  24.632  1.00  0.00     0.009 A 
ATOM     33  C   UNL A   1      32.722  17.729  24.079  1.00  0.00     0.000 A 
ATOM     34  C   UNL A   1      37.200  22.259  25.613  1.00  0.00     0.001 A 
ATOM     35  C   UNL A   1      34.027  17.365  24.440  1.00  0.00     0.001 A 
ENDBRANCH  22  23
ENDBRANCH  21  22
ENDBRANCH  19  21
ENDBRANCH   8  17
ENDBRANCH   6   8
ENDBRANCH   5   6
ENDBRANCH   4   5
ENDBRANCH   3   4
ENDBRANCH   2   3
ENDBRANCH   1   2
BRANCH   1  36
ATOM     36  C   UNL A   1      34.992  31.237  28.389  1.00  0.00     0.188 C 
BRANCH  36  37
ATOM     37  O   UNL A   1      35.197  32.439  29.101  1.00  0.00    -0.376 OA
BRANCH  37  38
ATOM     38  C   UNL A   1      36.344  32.546  29.936  1.00  0.00     0.202 C 
BRANCH  38  39
ATOM     39  C   UNL A   1      36.167  32.102  31.399  1.00  0.00     0.261 C 
BRANCH  39  40
ATOM     40  O   UNL A   1      37.250  31.323  31.943  1.00  0.00    -0.460 OA
BRANCH  40  41
ATOM     41  C   UNL A   1      37.214  29.980  31.743  1.00  0.00     0.338 C 
ATOM     42  O   UNL A   1      36.306  29.348  31.233  1.00  0.00    -0.246 OA
BRANCH  41  43
ATOM     43  C   UNL A   1      38.595  29.463  31.957  1.00  0.00     0.060 A 
ATOM     44  C   UNL A   1      39.679  30.333  31.737  1.00  0.00     0.016 A 
ATOM     45  C   UNL A   1      38.820  28.190  32.485  1.00  0.00     0.016 A 
ATOM     46  C   UNL A   1      40.986  29.913  32.003  1.00  0.00     0.010 A 
ATOM     47  C   UNL A   1      40.129  27.765  32.731  1.00  0.00     0.010 A 
ATOM     48  C   UNL A   1      41.222  28.608  32.455  1.00  0.00    -0.014 A 
BRANCH  48  49
ATOM     49  C   UNL A   1      42.592  28.034  32.417  1.00  0.00     0.031 A 
ATOM     50  C   UNL A   1      43.395  28.060  33.691  1.00  0.00     0.074 A 
ATOM     51  C   UNL A   1      43.137  27.530  31.294  1.00  0.00     0.049 A 
ATOM     52  N   UNL A   1      44.635  27.709  33.903  1.00  0.00    -0.248 NA
ATOM     53  C   UNL A   1      42.699  28.562  34.889  1.00  0.00     0.031 C 
ATOM     54  C   UNL A   1      42.472  27.427  29.997  1.00  0.00     0.029 A 
ATOM     55  N   UNL A   1      44.400  27.037  31.066  1.00  0.00    -0.354 N 
ATOM     56  C   UNL A   1      44.880  27.979  35.243  1.00  0.00     0.074 A 
ATOM     57  C   UNL A   1      43.664  28.535  35.794  1.00  0.00     0.031 C 
ATOM     58  C   UNL A   1      43.347  26.937  29.099  1.00  0.00     0.029 A 
ATOM     59  C   UNL A   1      44.638  26.717  29.750  1.00  0.00     0.049 A 
ATOM     60  H   UNL A   1      45.071  26.924  31.778  1.00  0.00     0.167 HD
ATOM     61  C   UNL A   1      46.008  27.770  35.961  1.00  0.00     0.034 A 
ATOM     62  C   UNL A   1      45.775  26.320  29.139  1.00  0.00     0.034 A 
ATOM     63  C   UNL A   1      47.214  27.206  35.425  1.00  0.00     0.049 A 
ATOM     64  C   UNL A   1      47.033  26.129  29.952  1.00  0.00     0.074 A 
ATOM     65  C   UNL A   1      48.395  26.919  36.087  1.00  0.00     0.029 A 
ATOM     66  N   UNL A   1      47.402  26.854  34.099  1.00  0.00    -0.354 N 
ATOM     67  N   UNL A   1      47.218  26.283  31.242  1.00  0.00    -0.248 NA
ATOM     68  C   UNL A   1      48.233  25.677  29.230  1.00  0.00     0.031 C 
ATOM     69  C   UNL A   1      49.310  26.424  35.151  1.00  0.00     0.029 A 
ATOM     70  C   UNL A   1      48.684  26.365  33.916  1.00  0.00     0.049 A 
ATOM     71  H   UNL A   1      46.724  26.938  33.390  1.00  0.00     0.167 HD
ATOM     72  C   UNL A   1      48.536  25.909  31.489  1.00  0.00     0.074 A 
ATOM     73  C   UNL A   1      49.100  25.505  30.218  1.00  0.00     0.031 C 
ATOM     74  C   UNL A   1      49.221  25.912  32.659  1.00  0.00     0.034 A 
BRANCH  61  75
ATOM     75  C   UNL A   1      45.983  28.148  37.418  1.00  0.00     0.023 A 
ATOM     76  C   UNL A   1      45.599  27.194  38.382  1.00  0.00     0.012 A 
ATOM     77  C   UNL A   1      46.378  29.433  37.836  1.00  0.00     0.148 A 
ATOM     78  C   UNL A   1      45.577  27.522  39.737  1.00  0.00     0.002 A 
ATOM     79  C   UNL A   1      46.400  29.740  39.190  1.00  0.00     0.091 A 
ATOM     80  F   UNL A   1      46.714  30.334  36.901  1.00  0.00    -0.205 F 
ATOM     81  C   UNL A   1      45.987  28.791  40.141  1.00  0.00     0.022 A 
BRANCH  79  82
ATOM     82  S   UNL A   1      46.989  31.316  39.818  1.00  0.00     0.127 S 
ATOM     83  O   UNL A   1      46.003  32.242  39.260  1.00  0.00    -0.237 OA
ATOM     84  O   UNL A   1      46.894  31.124  41.264  1.00  0.00    -0.237 OA
ATOM     85  O   UNL A   1      48.345  31.470  39.311  1.00  0.00    -0.744 OA
ENDBRANCH  79  82
ENDBRANCH  61  75
BRANCH  62  86
ATOM     86  C   UNL A   1      45.783  26.053  27.670  1.00  0.00     0.023 A 
ATOM     87  C   UNL A   1      46.077  27.099  26.773  1.00  0.00     0.012 A 
ATOM     88  C   UNL A   1      45.488  24.775  27.157  1.00  0.00     0.148 A 
ATOM     89  C   UNL A   1      46.046  26.886  25.393  1.00  0.00     0.002 A 
ATOM     90  C   UNL A   1      45.512  24.555  25.785  1.00  0.00     0.091 A 
ATOM     91  F   UNL A   1      45.189  23.798  28.025  1.00  0.00    -0.205 F 
ATOM     92  C   UNL A   1      45.773  25.614  24.901  1.00  0.00     0.022 A 
BRANCH  90  93
ATOM     93  S   UNL A   1      45.286  22.927  25.062  1.00  0.00     0.127 S 
ATOM     94  O   UNL A   1      43.885  22.652  25.371  1.00  0.00    -0.237 OA
ATOM     95  O   UNL A   1      45.565  23.185  23.648  1.00  0.00    -0.237 OA
ATOM     96  O   UNL A   1      46.257  22.063  25.719  1.00  0.00    -0.744 OA
ENDBRANCH  90  93
ENDBRANCH  62  86
BRANCH  74  97
ATOM     97  C   UNL A   1      50.648  25.417  32.650  1.00  0.00     0.023 A 
ATOM     98  C   UNL A   1      51.712  26.335  32.555  1.00  0.00     0.012 A 
ATOM     99  C   UNL A   1      50.932  24.047  32.824  1.00  0.00     0.148 A 
ATOM    100  C   UNL A   1      53.036  25.893  32.598  1.00  0.00     0.002 A 
ATOM    101  C   UNL A   1      52.252  23.621  32.917  1.00  0.00     0.091 A 
ATOM    102  F   UNL A   1      49.906  23.186  32.899  1.00  0.00    -0.205 F 
ATOM    103  C   UNL A   1      53.304  24.540  32.791  1.00  0.00     0.022 A 
BRANCH 101 104
ATOM    104  S   UNL A   1      52.693  21.913  33.263  1.00  0.00     0.127 S 
ATOM    105  O   UNL A   1      52.114  21.217  32.117  1.00  0.00    -0.237 OA
ATOM    106  O   UNL A   1      54.156  21.967  33.268  1.00  0.00    -0.237 OA
ATOM    107  O   UNL A   1      52.096  21.597  34.554  1.00  0.00    -0.744 OA
ENDBRANCH 101 104
ENDBRANCH  74  97
ENDBRANCH  48  49
ENDBRANCH  41  43
ENDBRANCH  40  41
ENDBRANCH  39  40
ENDBRANCH  38  39
ENDBRANCH  37  38
ENDBRANCH  36  37
ENDBRANCH   1  36
TORSDOF 24
ENDMDL
