MODEL 1
REMARK VINA RESULT:      -9.6      0.000      0.000
REMARK SMILES CC[C@H](C)[C@H](NC(=O)N1CCCCC1)C(=O)OCCOCCOCCOC(=O)c1ccc(-c2c3nc(c(-c4cccc(S(=O)(=O)[O-])c4F)c4ccc([nH]4)c(-c4cccc(S(=O)(=O)[O-])c4F)c4nc(c(-c5cccc(S(=O)(=O)[O-])c5F)c5ccc2[nH]5)C=C4)C=C3)cc1
REMARK SMILES IDX 22 1 21 2 20 3 19 4 18 5 17 6 15 7 16 8 5 9 3 10 4 11 2 12
REMARK SMILES IDX 1 13 6 14 7 15 8 17 9 18 10 19 14 20 11 21 13 22 12 23 23 24
REMARK SMILES IDX 24 25 25 26 26 27 27 28 28 29 29 30 30 31 91 32 31 33 90 34
REMARK SMILES IDX 32 35 33 36 34 37 84 38 35 39 89 40 83 41 85 42 36 43 88 44
REMARK SMILES IDX 82 45 81 46 37 48 69 49 49 50 68 51 50 52 53 53 67 54 86 55
REMARK SMILES IDX 51 56 52 57 66 59 87 60 54 61 38 62 39 63 47 64 40 65 42 66
REMARK SMILES IDX 48 67 41 68 43 69 44 70 45 71 46 72 70 73 71 74 79 75 72 76
REMARK SMILES IDX 74 77 80 78 73 79 75 80 76 81 77 82 78 83 55 84 56 85 64 86
REMARK SMILES IDX 57 87 59 88 65 89 58 90 60 91 61 92 62 93 63 94
REMARK H PARENT 6 16 85 47 53 58
REMARK Flexibility Score: inf
ROOT
ATOM      1  C   UNL A   1      34.707  33.841  28.819  1.00  0.00     0.188 C 
ENDROOT
BRANCH   1   2
ATOM      2  C   UNL A   1      34.644  32.572  27.995  1.00  0.00     0.188 C 
BRANCH   2   3
ATOM      3  O   UNL A   1      33.556  31.697  28.030  1.00  0.00    -0.376 OA
BRANCH   3   4
ATOM      4  C   UNL A   1      33.727  30.649  27.093  1.00  0.00     0.202 C 
BRANCH   4   5
ATOM      5  C   UNL A   1      32.461  29.915  26.529  1.00  0.00     0.261 C 
BRANCH   5   6
ATOM      6  O   UNL A   1      32.390  29.746  25.075  1.00  0.00    -0.462 OA
BRANCH   6   7
ATOM      7  C   UNL A   1      32.996  28.634  24.514  1.00  0.00     0.329 C 
ATOM      8  O   UNL A   1      34.143  28.296  24.785  1.00  0.00    -0.250 OA
BRANCH   7   9
ATOM      9  C   UNL A   1      32.123  27.905  23.387  1.00  0.00     0.196 C 
BRANCH   9  10
ATOM     10  C   UNL A   1      30.638  28.088  23.945  1.00  0.00     0.019 C 
ATOM     11  C   UNL A   1      29.591  28.456  22.891  1.00  0.00     0.010 C 
BRANCH  10  12
ATOM     12  C   UNL A   1      30.103  26.889  24.788  1.00  0.00     0.002 C 
ATOM     13  C   UNL A   1      29.632  25.703  23.937  1.00  0.00     0.004 C 
ENDBRANCH  10  12
ENDBRANCH   9  10
BRANCH   9  14
ATOM     14  N   UNL A   1      32.438  26.471  22.933  1.00  0.00    -0.324 N 
ATOM     15  C   UNL A   1      33.524  25.632  22.994  1.00  0.00     0.318 C 
ATOM     16  H   UNL A   1      31.669  26.048  22.486  1.00  0.00     0.166 HD
ATOM     17  O   UNL A   1      34.091  25.483  21.901  1.00  0.00    -0.249 OA
ATOM     18  N   UNL A   1      33.826  24.721  24.038  1.00  0.00    -0.325 N 
ATOM     19  C   UNL A   1      34.972  23.346  23.356  1.00  0.00     0.121 C 
ATOM     20  C   UNL A   1      33.394  24.755  25.886  1.00  0.00     0.121 C 
ATOM     21  C   UNL A   1      35.158  21.667  24.396  1.00  0.00     0.022 C 
ATOM     22  C   UNL A   1      33.451  23.078  26.905  1.00  0.00     0.022 C 
ATOM     23  C   UNL A   1      34.098  21.452  26.026  1.00  0.00     0.004 C 
ENDBRANCH   9  14
ENDBRANCH   7   9
ENDBRANCH   6   7
ENDBRANCH   5   6
ENDBRANCH   4   5
ENDBRANCH   3   4
ENDBRANCH   2   3
ENDBRANCH   1   2
BRANCH   1  24
ATOM     24  O   UNL A   1      34.584  35.033  28.078  1.00  0.00    -0.376 OA
BRANCH  24  25
ATOM     25  C   UNL A   1      34.012  36.133  28.782  1.00  0.00     0.202 C 
BRANCH  25  26
ATOM     26  C   UNL A   1      32.566  36.058  29.316  1.00  0.00     0.261 C 
BRANCH  26  27
ATOM     27  O   UNL A   1      32.244  36.719  30.595  1.00  0.00    -0.460 OA
BRANCH  27  28
ATOM     28  C   UNL A   1      32.587  36.048  31.838  1.00  0.00     0.338 C 
ATOM     29  O   UNL A   1      31.633  36.398  32.588  1.00  0.00    -0.246 OA
BRANCH  28  30
ATOM     30  C   UNL A   1      34.258  34.936  32.282  1.00  0.00     0.060 A 
ATOM     31  C   UNL A   1      34.328  33.492  32.722  1.00  0.00     0.016 A 
ATOM     32  C   UNL A   1      35.694  35.319  32.260  1.00  0.00     0.016 A 
ATOM     33  C   UNL A   1      35.433  32.689  32.997  1.00  0.00     0.010 A 
ATOM     34  C   UNL A   1      36.824  34.510  32.410  1.00  0.00     0.010 A 
ATOM     35  C   UNL A   1      36.683  33.206  32.809  1.00  0.00    -0.014 A 
BRANCH  35  36
ATOM     36  C   UNL A   1      37.860  32.426  33.133  1.00  0.00     0.031 A 
ATOM     37  C   UNL A   1      38.463  32.645  34.479  1.00  0.00     0.074 A 
ATOM     38  C   UNL A   1      38.334  31.616  32.176  1.00  0.00     0.049 A 
ATOM     39  N   UNL A   1      39.569  32.170  34.961  1.00  0.00    -0.248 NA
ATOM     40  C   UNL A   1      37.752  33.566  35.393  1.00  0.00     0.031 C 
ATOM     41  C   UNL A   1      37.744  31.449  30.839  1.00  0.00     0.029 A 
ATOM     42  N   UNL A   1      39.418  30.798  32.166  1.00  0.00    -0.354 N 
ATOM     43  C   UNL A   1      39.724  32.780  36.198  1.00  0.00     0.074 A 
ATOM     44  C   UNL A   1      38.617  33.682  36.388  1.00  0.00     0.031 C 
ATOM     45  C   UNL A   1      38.473  30.565  30.145  1.00  0.00     0.029 A 
ATOM     46  C   UNL A   1      39.601  30.157  30.966  1.00  0.00     0.049 A 
ATOM     47  H   UNL A   1      40.013  30.676  32.941  1.00  0.00     0.167 HD
ATOM     48  C   UNL A   1      40.718  32.576  37.085  1.00  0.00     0.034 A 
ATOM     49  C   UNL A   1      40.604  29.348  30.591  1.00  0.00     0.034 A 
ATOM     50  C   UNL A   1      41.767  31.633  36.821  1.00  0.00     0.049 A 
ATOM     51  C   UNL A   1      41.657  29.086  31.628  1.00  0.00     0.074 A 
ATOM     52  C   UNL A   1      42.816  31.250  37.629  1.00  0.00     0.029 A 
ATOM     53  N   UNL A   1      41.887  30.921  35.629  1.00  0.00    -0.354 N 
ATOM     54  N   UNL A   1      41.760  29.597  32.837  1.00  0.00    -0.248 NA
ATOM     55  C   UNL A   1      42.702  28.125  31.282  1.00  0.00     0.031 C 
ATOM     56  C   UNL A   1      43.591  30.335  36.908  1.00  0.00     0.029 A 
ATOM     57  C   UNL A   1      42.998  30.107  35.671  1.00  0.00     0.049 A 
ATOM     58  H   UNL A   1      41.268  30.991  34.867  1.00  0.00     0.167 HD
ATOM     59  C   UNL A   1      42.867  29.000  33.412  1.00  0.00     0.074 A 
ATOM     60  C   UNL A   1      43.384  28.071  32.419  1.00  0.00     0.031 C 
ATOM     61  C   UNL A   1      43.424  29.196  34.635  1.00  0.00     0.034 A 
BRANCH  48  62
ATOM     62  C   UNL A   1      40.703  33.378  38.360  1.00  0.00     0.023 A 
ATOM     63  C   UNL A   1      39.979  32.925  39.485  1.00  0.00     0.012 A 
ATOM     64  C   UNL A   1      41.396  34.600  38.440  1.00  0.00     0.148 A 
ATOM     65  C   UNL A   1      39.912  33.694  40.649  1.00  0.00     0.002 A 
ATOM     66  C   UNL A   1      41.370  35.335  39.620  1.00  0.00     0.091 A 
ATOM     67  F   UNL A   1      42.046  35.037  37.352  1.00  0.00    -0.205 F 
ATOM     68  C   UNL A   1      40.616  34.892  40.719  1.00  0.00     0.022 A 
BRANCH  66  69
ATOM     69  S   UNL A   1      42.301  36.854  39.839  1.00  0.00     0.127 S 
ATOM     70  O   UNL A   1      41.680  37.728  38.843  1.00  0.00    -0.237 OA
ATOM     71  O   UNL A   1      41.995  37.198  41.227  1.00  0.00    -0.237 OA
ATOM     72  O   UNL A   1      43.694  36.517  39.583  1.00  0.00    -0.744 OA
ENDBRANCH  66  69
ENDBRANCH  48  62
BRANCH  49  73
ATOM     73  C   UNL A   1      40.595  28.724  29.242  1.00  0.00     0.023 A 
ATOM     74  C   UNL A   1      41.048  29.461  28.132  1.00  0.00     0.012 A 
ATOM     75  C   UNL A   1      40.242  27.370  29.065  1.00  0.00     0.148 A 
ATOM     76  C   UNL A   1      41.125  28.872  26.868  1.00  0.00     0.002 A 
ATOM     77  C   UNL A   1      40.371  26.775  27.816  1.00  0.00     0.091 A 
ATOM     78  F   UNL A   1      39.819  26.681  30.134  1.00  0.00    -0.205 F 
ATOM     79  C   UNL A   1      40.799  27.528  26.712  1.00  0.00     0.022 A 
BRANCH  77  80
ATOM     80  S   UNL A   1      40.105  25.016  27.556  1.00  0.00     0.127 S 
ATOM     81  O   UNL A   1      38.720  24.856  27.990  1.00  0.00    -0.237 OA
ATOM     82  O   UNL A   1      40.319  24.885  26.114  1.00  0.00    -0.237 OA
ATOM     83  O   UNL A   1      41.107  24.343  28.373  1.00  0.00    -0.744 OA
ENDBRANCH  77  80
ENDBRANCH  49  73
BRANCH  61  84
ATOM     84  C   UNL A   1      44.622  28.355  34.949  1.00  0.00     0.023 A 
ATOM     85  C   UNL A   1      45.915  28.857  34.713  1.00  0.00     0.012 A 
ATOM     86  C   UNL A   1      44.451  27.095  35.549  1.00  0.00     0.148 A 
ATOM     87  C   UNL A   1      47.030  28.090  35.033  1.00  0.00     0.002 A 
ATOM     88  C   UNL A   1      45.567  26.366  35.925  1.00  0.00     0.091 A 
ATOM     89  F   UNL A   1      43.205  26.642  35.745  1.00  0.00    -0.205 F 
ATOM     90  C   UNL A   1      46.856  26.853  35.651  1.00  0.00     0.022 A 
BRANCH  88  91
ATOM     91  S   UNL A   1      45.436  24.826  36.832  1.00  0.00     0.127 S 
ATOM     92  O   UNL A   1      44.951  23.914  35.798  1.00  0.00    -0.237 OA
ATOM     93  O   UNL A   1      46.819  24.599  37.252  1.00  0.00    -0.237 OA
ATOM     94  O   UNL A   1      44.506  25.078  37.925  1.00  0.00    -0.744 OA
ENDBRANCH  88  91
ENDBRANCH  61  84
ENDBRANCH  35  36
ENDBRANCH  28  30
ENDBRANCH  27  28
ENDBRANCH  26  27
ENDBRANCH  25  26
ENDBRANCH  24  25
ENDBRANCH   1  24
TORSDOF 23
ENDMDL
MODEL 2
REMARK VINA RESULT:      -9.3      2.042      2.530
REMARK SMILES CC[C@H](C)[C@H](NC(=O)N1CCCCC1)C(=O)OCCOCCOCCOC(=O)c1ccc(-c2c3nc(c(-c4cccc(S(=O)(=O)[O-])c4F)c4ccc([nH]4)c(-c4cccc(S(=O)(=O)[O-])c4F)c4nc(c(-c5cccc(S(=O)(=O)[O-])c5F)c5ccc2[nH]5)C=C4)C=C3)cc1
REMARK SMILES IDX 22 1 21 2 20 3 19 4 18 5 17 6 15 7 16 8 5 9 3 10 4 11 2 12
REMARK SMILES IDX 1 13 6 14 7 15 8 17 9 18 10 19 14 20 11 21 13 22 12 23 23 24
REMARK SMILES IDX 24 25 25 26 26 27 27 28 28 29 29 30 30 31 91 32 31 33 90 34
REMARK SMILES IDX 32 35 33 36 34 37 84 38 35 39 89 40 83 41 85 42 36 43 88 44
REMARK SMILES IDX 82 45 81 46 37 48 69 49 49 50 68 51 50 52 53 53 67 54 86 55
REMARK SMILES IDX 51 56 52 57 66 59 87 60 54 61 38 62 39 63 47 64 40 65 42 66
REMARK SMILES IDX 48 67 41 68 43 69 44 70 45 71 46 72 70 73 71 74 79 75 72 76
REMARK SMILES IDX 74 77 80 78 73 79 75 80 76 81 77 82 78 83 55 84 56 85 64 86
REMARK SMILES IDX 57 87 59 88 65 89 58 90 60 91 61 92 62 93 63 94
REMARK H PARENT 6 16 85 47 53 58
REMARK Flexibility Score: inf
ROOT
ATOM      1  C   UNL A   1      33.468  32.905  27.611  1.00  0.00     0.188 C 
ENDROOT
BRANCH   1   2
ATOM      2  C   UNL A   1      34.194  31.692  28.153  1.00  0.00     0.188 C 
BRANCH   2   3
ATOM      3  O   UNL A   1      34.763  30.717  27.331  1.00  0.00    -0.376 OA
BRANCH   3   4
ATOM      4  C   UNL A   1      33.888  29.613  27.185  1.00  0.00     0.202 C 
BRANCH   4   5
ATOM      5  C   UNL A   1      32.667  29.732  26.207  1.00  0.00     0.261 C 
BRANCH   5   6
ATOM      6  O   UNL A   1      32.239  28.501  25.537  1.00  0.00    -0.462 OA
BRANCH   6   7
ATOM      7  C   UNL A   1      32.732  28.240  24.268  1.00  0.00     0.329 C 
ATOM      8  O   UNL A   1      33.401  29.050  23.637  1.00  0.00    -0.250 OA
BRANCH   7   9
ATOM      9  C   UNL A   1      32.246  26.847  23.646  1.00  0.00     0.196 C 
BRANCH   9  10
ATOM     10  C   UNL A   1      30.837  27.240  23.005  1.00  0.00     0.019 C 
ATOM     11  C   UNL A   1      29.620  26.950  23.887  1.00  0.00     0.010 C 
BRANCH  10  12
ATOM     12  C   UNL A   1      30.742  28.710  22.487  1.00  0.00     0.002 C 
ATOM     13  C   UNL A   1      29.459  29.430  22.917  1.00  0.00     0.004 C 
ENDBRANCH  10  12
ENDBRANCH   9  10
BRANCH   9  14
ATOM     14  N   UNL A   1      32.202  25.565  24.491  1.00  0.00    -0.324 N 
ATOM     15  C   UNL A   1      32.166  24.215  24.237  1.00  0.00     0.318 C 
ATOM     16  H   UNL A   1      32.199  25.759  25.456  1.00  0.00     0.166 HD
ATOM     17  O   UNL A   1      31.058  23.703  24.455  1.00  0.00    -0.249 OA
ATOM     18  N   UNL A   1      33.286  23.358  24.088  1.00  0.00    -0.325 N 
ATOM     19  C   UNL A   1      32.746  21.556  24.454  1.00  0.00     0.121 C 
ATOM     20  C   UNL A   1      35.055  23.707  23.498  1.00  0.00     0.121 C 
ATOM     21  C   UNL A   1      34.148  20.206  24.837  1.00  0.00     0.022 C 
ATOM     22  C   UNL A   1      36.482  22.445  23.974  1.00  0.00     0.022 C 
ATOM     23  C   UNL A   1      36.015  20.789  24.909  1.00  0.00     0.004 C 
ENDBRANCH   9  14
ENDBRANCH   7   9
ENDBRANCH   6   7
ENDBRANCH   5   6
ENDBRANCH   4   5
ENDBRANCH   3   4
ENDBRANCH   2   3
ENDBRANCH   1   2
BRANCH   1  24
ATOM     24  O   UNL A   1      33.954  34.143  28.077  1.00  0.00    -0.376 OA
BRANCH  24  25
ATOM     25  C   UNL A   1      33.259  34.689  29.197  1.00  0.00     0.202 C 
BRANCH  25  26
ATOM     26  C   UNL A   1      32.903  36.189  29.244  1.00  0.00     0.261 C 
BRANCH  26  27
ATOM     27  O   UNL A   1      32.385  36.759  30.503  1.00  0.00    -0.460 OA
BRANCH  27  28
ATOM     28  C   UNL A   1      32.586  36.025  31.740  1.00  0.00     0.338 C 
ATOM     29  O   UNL A   1      31.531  36.304  32.376  1.00  0.00    -0.246 OA
BRANCH  28  30
ATOM     30  C   UNL A   1      34.222  34.932  32.340  1.00  0.00     0.060 A 
ATOM     31  C   UNL A   1      34.243  33.599  33.051  1.00  0.00     0.016 A 
ATOM     32  C   UNL A   1      35.671  35.226  32.196  1.00  0.00     0.016 A 
ATOM     33  C   UNL A   1      35.321  32.807  33.442  1.00  0.00     0.010 A 
ATOM     34  C   UNL A   1      36.768  34.402  32.465  1.00  0.00     0.010 A 
ATOM     35  C   UNL A   1      36.584  33.210  33.116  1.00  0.00    -0.014 A 
BRANCH  35  36
ATOM     36  C   UNL A   1      37.736  32.446  33.548  1.00  0.00     0.031 A 
ATOM     37  C   UNL A   1      38.380  32.863  34.826  1.00  0.00     0.074 A 
ATOM     38  C   UNL A   1      38.155  31.465  32.735  1.00  0.00     0.049 A 
ATOM     39  N   UNL A   1      39.478  32.430  35.363  1.00  0.00    -0.248 NA
ATOM     40  C   UNL A   1      37.729  33.956  35.582  1.00  0.00     0.031 C 
ATOM     41  C   UNL A   1      37.526  31.099  31.457  1.00  0.00     0.029 A 
ATOM     42  N   UNL A   1      39.204  30.611  32.847  1.00  0.00    -0.354 N 
ATOM     43  C   UNL A   1      39.688  33.234  36.474  1.00  0.00     0.074 A 
ATOM     44  C   UNL A   1      38.622  34.202  36.527  1.00  0.00     0.031 C 
ATOM     45  C   UNL A   1      38.202  30.079  30.912  1.00  0.00     0.029 A 
ATOM     46  C   UNL A   1      39.332  29.767  31.770  1.00  0.00     0.049 A 
ATOM     47  H   UNL A   1      39.812  30.596  33.621  1.00  0.00     0.167 HD
ATOM     48  C   UNL A   1      40.694  33.140  37.367  1.00  0.00     0.034 A 
ATOM     49  C   UNL A   1      40.292  28.864  31.522  1.00  0.00     0.034 A 
ATOM     50  C   UNL A   1      41.698  32.121  37.250  1.00  0.00     0.049 A 
ATOM     51  C   UNL A   1      41.359  28.736  32.570  1.00  0.00     0.074 A 
ATOM     52  C   UNL A   1      42.750  31.835  38.093  1.00  0.00     0.029 A 
ATOM     53  N   UNL A   1      41.760  31.213  36.194  1.00  0.00    -0.354 N 
ATOM     54  N   UNL A   1      41.512  29.440  33.672  1.00  0.00    -0.248 NA
ATOM     55  C   UNL A   1      42.356  27.686  32.375  1.00  0.00     0.031 C 
ATOM     56  C   UNL A   1      43.470  30.779  37.525  1.00  0.00     0.029 A 
ATOM     57  C   UNL A   1      42.838  30.370  36.355  1.00  0.00     0.049 A 
ATOM     58  H   UNL A   1      41.126  31.179  35.442  1.00  0.00     0.167 HD
ATOM     59  C   UNL A   1      42.608  28.902  34.322  1.00  0.00     0.074 A 
ATOM     60  C   UNL A   1      43.063  27.796  33.493  1.00  0.00     0.031 C 
ATOM     61  C   UNL A   1      43.202  29.278  35.483  1.00  0.00     0.034 A 
BRANCH  48  62
ATOM     62  C   UNL A   1      40.742  34.147  38.486  1.00  0.00     0.023 A 
ATOM     63  C   UNL A   1      41.620  35.251  38.422  1.00  0.00     0.012 A 
ATOM     64  C   UNL A   1      39.923  33.989  39.620  1.00  0.00     0.148 A 
ATOM     65  C   UNL A   1      41.711  36.154  39.483  1.00  0.00     0.002 A 
ATOM     66  C   UNL A   1      39.980  34.922  40.650  1.00  0.00     0.091 A 
ATOM     67  F   UNL A   1      39.124  32.915  39.686  1.00  0.00    -0.205 F 
ATOM     68  C   UNL A   1      40.885  35.995  40.590  1.00  0.00     0.022 A 
BRANCH  66  69
ATOM     69  S   UNL A   1      38.907  34.849  42.087  1.00  0.00     0.127 S 
ATOM     70  O   UNL A   1      39.110  36.172  42.677  1.00  0.00    -0.237 OA
ATOM     71  O   UNL A   1      37.594  34.648  41.473  1.00  0.00    -0.237 OA
ATOM     72  O   UNL A   1      39.383  33.734  42.893  1.00  0.00    -0.744 OA
ENDBRANCH  66  69
ENDBRANCH  48  62
BRANCH  49  73
ATOM     73  C   UNL A   1      40.225  28.021  30.300  1.00  0.00     0.023 A 
ATOM     74  C   UNL A   1      39.238  27.023  30.197  1.00  0.00     0.012 A 
ATOM     75  C   UNL A   1      41.063  28.270  29.193  1.00  0.00     0.148 A 
ATOM     76  C   UNL A   1      39.102  26.272  29.027  1.00  0.00     0.002 A 
ATOM     77  C   UNL A   1      40.889  27.556  28.014  1.00  0.00     0.091 A 
ATOM     78  F   UNL A   1      41.994  29.228  29.306  1.00  0.00    -0.205 F 
ATOM     79  C   UNL A   1      39.918  26.546  27.932  1.00  0.00     0.022 A 
BRANCH  77  80
ATOM     80  S   UNL A   1      41.802  27.939  26.513  1.00  0.00     0.127 S 
ATOM     81  O   UNL A   1      41.307  26.918  25.594  1.00  0.00    -0.237 OA
ATOM     82  O   UNL A   1      41.351  29.301  26.222  1.00  0.00    -0.237 OA
ATOM     83  O   UNL A   1      43.210  27.839  26.874  1.00  0.00    -0.744 OA
ENDBRANCH  77  80
ENDBRANCH  49  73
BRANCH  61  84
ATOM     84  C   UNL A   1      44.373  28.452  35.915  1.00  0.00     0.023 A 
ATOM     85  C   UNL A   1      44.173  27.317  36.723  1.00  0.00     0.012 A 
ATOM     86  C   UNL A   1      45.661  28.771  35.450  1.00  0.00     0.148 A 
ATOM     87  C   UNL A   1      45.256  26.531  37.101  1.00  0.00     0.002 A 
ATOM     88  C   UNL A   1      46.723  27.945  35.776  1.00  0.00     0.091 A 
ATOM     89  F   UNL A   1      45.816  29.868  34.695  1.00  0.00    -0.205 F 
ATOM     90  C   UNL A   1      46.527  26.836  36.616  1.00  0.00     0.022 A 
BRANCH  88  91
ATOM     91  S   UNL A   1      48.364  28.194  35.099  1.00  0.00     0.127 S 
ATOM     92  O   UNL A   1      48.730  29.486  35.677  1.00  0.00    -0.237 OA
ATOM     93  O   UNL A   1      49.096  27.050  35.642  1.00  0.00    -0.237 OA
ATOM     94  O   UNL A   1      48.210  28.181  33.650  1.00  0.00    -0.744 OA
ENDBRANCH  88  91
ENDBRANCH  61  84
ENDBRANCH  35  36
ENDBRANCH  28  30
ENDBRANCH  27  28
ENDBRANCH  26  27
ENDBRANCH  25  26
ENDBRANCH  24  25
ENDBRANCH   1  24
TORSDOF 23
ENDMDL
MODEL 3
REMARK VINA RESULT:      -9.1      2.159      2.742
REMARK SMILES CC[C@H](C)[C@H](NC(=O)N1CCCCC1)C(=O)OCCOCCOCCOC(=O)c1ccc(-c2c3nc(c(-c4cccc(S(=O)(=O)[O-])c4F)c4ccc([nH]4)c(-c4cccc(S(=O)(=O)[O-])c4F)c4nc(c(-c5cccc(S(=O)(=O)[O-])c5F)c5ccc2[nH]5)C=C4)C=C3)cc1
REMARK SMILES IDX 22 1 21 2 20 3 19 4 18 5 17 6 15 7 16 8 5 9 3 10 4 11 2 12
REMARK SMILES IDX 1 13 6 14 7 15 8 17 9 18 10 19 14 20 11 21 13 22 12 23 23 24
REMARK SMILES IDX 24 25 25 26 26 27 27 28 28 29 29 30 30 31 91 32 31 33 90 34
REMARK SMILES IDX 32 35 33 36 34 37 84 38 35 39 89 40 83 41 85 42 36 43 88 44
REMARK SMILES IDX 82 45 81 46 37 48 69 49 49 50 68 51 50 52 53 53 67 54 86 55
REMARK SMILES IDX 51 56 52 57 66 59 87 60 54 61 38 62 39 63 47 64 40 65 42 66
REMARK SMILES IDX 48 67 41 68 43 69 44 70 45 71 46 72 70 73 71 74 79 75 72 76
REMARK SMILES IDX 74 77 80 78 73 79 75 80 76 81 77 82 78 83 55 84 56 85 64 86
REMARK SMILES IDX 57 87 59 88 65 89 58 90 60 91 61 92 62 93 63 94
REMARK H PARENT 6 16 85 47 53 58
REMARK Flexibility Score: inf
ROOT
ATOM      1  C   UNL A   1      32.065  31.655  27.061  1.00  0.00     0.188 C 
ENDROOT
BRANCH   1   2
ATOM      2  C   UNL A   1      32.000  30.451  26.144  1.00  0.00     0.188 C 
BRANCH   2   3
ATOM      3  O   UNL A   1      31.455  29.226  26.535  1.00  0.00    -0.376 OA
BRANCH   3   4
ATOM      4  C   UNL A   1      32.377  28.499  27.327  1.00  0.00     0.202 C 
BRANCH   4   5
ATOM      5  C   UNL A   1      33.834  28.277  26.790  1.00  0.00     0.261 C 
BRANCH   5   6
ATOM      6  O   UNL A   1      34.056  27.091  25.959  1.00  0.00    -0.462 OA
BRANCH   6   7
ATOM      7  C   UNL A   1      33.888  27.209  24.588  1.00  0.00     0.329 C 
ATOM      8  O   UNL A   1      33.800  28.293  24.022  1.00  0.00    -0.250 OA
BRANCH   7   9
ATOM      9  C   UNL A   1      33.688  25.815  23.826  1.00  0.00     0.196 C 
BRANCH   9  10
ATOM     10  C   UNL A   1      32.118  25.813  23.539  1.00  0.00     0.019 C 
ATOM     11  C   UNL A   1      31.236  26.108  24.755  1.00  0.00     0.010 C 
BRANCH  10  12
ATOM     12  C   UNL A   1      31.667  26.729  22.358  1.00  0.00     0.002 C 
ATOM     13  C   UNL A   1      30.394  27.530  22.655  1.00  0.00     0.004 C 
ENDBRANCH  10  12
ENDBRANCH   9  10
BRANCH   9  14
ATOM     14  N   UNL A   1      34.209  24.497  24.419  1.00  0.00    -0.324 N 
ATOM     15  C   UNL A   1      33.673  23.460  25.144  1.00  0.00     0.318 C 
ATOM     16  H   UNL A   1      35.167  24.362  24.235  1.00  0.00     0.166 HD
ATOM     17  O   UNL A   1      34.022  23.459  26.334  1.00  0.00    -0.249 OA
ATOM     18  N   UNL A   1      33.078  22.286  24.616  1.00  0.00    -0.325 N 
ATOM     19  C   UNL A   1      33.143  20.903  25.941  1.00  0.00     0.121 C 
ATOM     20  C   UNL A   1      32.186  21.969  22.971  1.00  0.00     0.121 C 
ATOM     21  C   UNL A   1      32.874  19.024  25.363  1.00  0.00     0.022 C 
ATOM     22  C   UNL A   1      32.020  20.125  22.320  1.00  0.00     0.022 C 
ATOM     23  C   UNL A   1      32.639  18.655  23.456  1.00  0.00     0.004 C 
ENDBRANCH   9  14
ENDBRANCH   7   9
ENDBRANCH   6   7
ENDBRANCH   5   6
ENDBRANCH   4   5
ENDBRANCH   3   4
ENDBRANCH   2   3
ENDBRANCH   1   2
BRANCH   1  24
ATOM     24  O   UNL A   1      33.331  31.896  27.629  1.00  0.00    -0.376 OA
BRANCH  24  25
ATOM     25  C   UNL A   1      33.588  33.251  27.995  1.00  0.00     0.202 C 
BRANCH  25  26
ATOM     26  C   UNL A   1      32.520  34.341  27.771  1.00  0.00     0.261 C 
BRANCH  26  27
ATOM     27  O   UNL A   1      32.534  35.540  28.630  1.00  0.00    -0.460 OA
BRANCH  27  28
ATOM     28  C   UNL A   1      32.887  35.395  30.032  1.00  0.00     0.338 C 
ATOM     29  O   UNL A   1      32.001  36.100  30.592  1.00  0.00    -0.246 OA
BRANCH  28  30
ATOM     30  C   UNL A   1      34.489  34.408  30.862  1.00  0.00     0.060 A 
ATOM     31  C   UNL A   1      34.473  33.321  31.912  1.00  0.00     0.016 A 
ATOM     32  C   UNL A   1      35.944  34.559  30.601  1.00  0.00     0.016 A 
ATOM     33  C   UNL A   1      35.524  32.601  32.475  1.00  0.00     0.010 A 
ATOM     34  C   UNL A   1      37.008  33.774  31.055  1.00  0.00     0.010 A 
ATOM     35  C   UNL A   1      36.791  32.819  32.014  1.00  0.00    -0.014 A 
BRANCH  35  36
ATOM     36  C   UNL A   1      37.920  32.133  32.607  1.00  0.00     0.031 A 
ATOM     37  C   UNL A   1      38.348  32.585  33.961  1.00  0.00     0.074 A 
ATOM     38  C   UNL A   1      38.514  31.186  31.864  1.00  0.00     0.049 A 
ATOM     39  N   UNL A   1      39.387  32.223  34.649  1.00  0.00    -0.248 NA
ATOM     40  C   UNL A   1      37.526  33.627  34.614  1.00  0.00     0.031 C 
ATOM     41  C   UNL A   1      38.097  30.787  30.512  1.00  0.00     0.029 A 
ATOM     42  N   UNL A   1      39.593  30.405  32.125  1.00  0.00    -0.354 N 
ATOM     43  C   UNL A   1      39.384  33.033  35.775  1.00  0.00     0.074 A 
ATOM     44  C   UNL A   1      38.258  33.927  35.674  1.00  0.00     0.031 C 
ATOM     45  C   UNL A   1      38.910  29.818  30.070  1.00  0.00     0.029 A 
ATOM     46  C   UNL A   1      39.927  29.578  31.080  1.00  0.00     0.049 A 
ATOM     47  H   UNL A   1      40.086  30.427  32.977  1.00  0.00     0.167 HD
ATOM     48  C   UNL A   1      40.259  33.002  36.800  1.00  0.00     0.034 A 
ATOM     49  C   UNL A   1      40.972  28.743  30.972  1.00  0.00     0.034 A 
ATOM     50  C   UNL A   1      41.336  32.053  36.829  1.00  0.00     0.049 A 
ATOM     51  C   UNL A   1      41.887  28.681  32.160  1.00  0.00     0.074 A 
ATOM     52  C   UNL A   1      42.276  31.834  37.812  1.00  0.00     0.029 A 
ATOM     53  N   UNL A   1      41.607  31.157  35.796  1.00  0.00    -0.354 N 
ATOM     54  N   UNL A   1      41.836  29.387  33.270  1.00  0.00    -0.248 NA
ATOM     55  C   UNL A   1      42.970  27.702  32.111  1.00  0.00     0.031 C 
ATOM     56  C   UNL A   1      43.138  30.832  37.355  1.00  0.00     0.029 A 
ATOM     57  C   UNL A   1      42.706  30.388  36.110  1.00  0.00     0.049 A 
ATOM     58  H   UNL A   1      41.089  31.085  34.963  1.00  0.00     0.167 HD
ATOM     59  C   UNL A   1      42.863  28.921  34.069  1.00  0.00     0.074 A 
ATOM     60  C   UNL A   1      43.504  27.853  33.316  1.00  0.00     0.031 C 
ATOM     61  C   UNL A   1      43.262  29.329  35.301  1.00  0.00     0.034 A 
BRANCH  48  62
ATOM     62  C   UNL A   1      40.081  34.003  37.912  1.00  0.00     0.023 A 
ATOM     63  C   UNL A   1      40.697  35.271  37.840  1.00  0.00     0.012 A 
ATOM     64  C   UNL A   1      39.313  33.678  39.045  1.00  0.00     0.148 A 
ATOM     65  C   UNL A   1      40.584  36.180  38.894  1.00  0.00     0.002 A 
ATOM     66  C   UNL A   1      39.160  34.608  40.068  1.00  0.00     0.091 A 
ATOM     67  F   UNL A   1      38.767  32.455  39.118  1.00  0.00    -0.205 F 
ATOM     68  C   UNL A   1      39.808  35.853  40.001  1.00  0.00     0.022 A 
BRANCH  66  69
ATOM     69  S   UNL A   1      38.123  34.313  41.503  1.00  0.00     0.127 S 
ATOM     70  O   UNL A   1      38.052  35.647  42.097  1.00  0.00    -0.237 OA
ATOM     71  O   UNL A   1      36.879  33.851  40.886  1.00  0.00    -0.237 OA
ATOM     72  O   UNL A   1      38.816  33.315  42.305  1.00  0.00    -0.744 OA
ENDBRANCH  66  69
ENDBRANCH  48  62
BRANCH  49  73
ATOM     73  C   UNL A   1      41.134  27.904  29.756  1.00  0.00     0.023 A 
ATOM     74  C   UNL A   1      40.342  26.752  29.595  1.00  0.00     0.012 A 
ATOM     75  C   UNL A   1      41.990  28.297  28.707  1.00  0.00     0.148 A 
ATOM     76  C   UNL A   1      40.417  25.993  28.425  1.00  0.00     0.002 A 
ATOM     77  C   UNL A   1      42.022  27.567  27.524  1.00  0.00     0.091 A 
ATOM     78  F   UNL A   1      42.733  29.400  28.874  1.00  0.00    -0.205 F 
ATOM     79  C   UNL A   1      41.247  26.406  27.386  1.00  0.00     0.022 A 
BRANCH  77  80
ATOM     80  S   UNL A   1      42.956  28.106  26.086  1.00  0.00     0.127 S 
ATOM     81  O   UNL A   1      42.355  27.306  25.022  1.00  0.00    -0.237 OA
ATOM     82  O   UNL A   1      42.641  29.535  26.036  1.00  0.00    -0.237 OA
ATOM     83  O   UNL A   1      44.350  27.811  26.390  1.00  0.00    -0.744 OA
ENDBRANCH  77  80
ENDBRANCH  49  73
BRANCH  61  84
ATOM     84  C   UNL A   1      44.414  28.581  35.896  1.00  0.00     0.023 A 
ATOM     85  C   UNL A   1      45.733  28.945  35.570  1.00  0.00     0.012 A 
ATOM     86  C   UNL A   1      44.173  27.564  36.838  1.00  0.00     0.148 A 
ATOM     87  C   UNL A   1      46.805  28.272  36.146  1.00  0.00     0.002 A 
ATOM     88  C   UNL A   1      45.245  26.945  37.456  1.00  0.00     0.091 A 
ATOM     89  F   UNL A   1      42.903  27.234  37.113  1.00  0.00    -0.205 F 
ATOM     90  C   UNL A   1      46.561  27.283  37.098  1.00  0.00     0.022 A 
BRANCH  88  91
ATOM     91  S   UNL A   1      45.024  25.753  38.776  1.00  0.00     0.127 S 
ATOM     92  O   UNL A   1      44.368  24.652  38.072  1.00  0.00    -0.237 OA
ATOM     93  O   UNL A   1      46.403  25.486  39.182  1.00  0.00    -0.237 OA
ATOM     94  O   UNL A   1      44.213  26.415  39.788  1.00  0.00    -0.744 OA
ENDBRANCH  88  91
ENDBRANCH  61  84
ENDBRANCH  35  36
ENDBRANCH  28  30
ENDBRANCH  27  28
ENDBRANCH  26  27
ENDBRANCH  25  26
ENDBRANCH  24  25
ENDBRANCH   1  24
TORSDOF 23
ENDMDL
