MODEL 1
REMARK VINA RESULT:     -10.1      0.000      0.000
REMARK SMILES O=C(OCCOCCOCCOC(=O)[C@@H]1[C@@H](C(=O)NCCCn2ccnc2)[C@@H]2C=C[C@H]1C2)c1ccc(-c2c3nc(c(-c4cccc(S(=O)(=O)[O-])c4F)c4ccc([nH]4)c(-c4cccc(S(=O)(=O)[O-])c4F)c4nc(c(-c5cccc(S(=O)(=O)[O-])c5F)c5ccc2[nH]5)C=C4)C=C3)cc1
REMARK SMILES IDX 8 1 7 2 6 3 5 4 4 5 3 6 2 7 1 8 33 9 34 10 95 11 35 12 94 13
REMARK SMILES IDX 36 14 37 15 38 16 88 17 39 18 93 19 87 20 89 21 40 22 92 23
REMARK SMILES IDX 86 24 85 25 41 27 73 28 53 29 72 30 54 31 57 32 71 33 90 34
REMARK SMILES IDX 55 35 56 36 70 38 91 39 58 40 42 41 43 42 51 43 44 44 46 45
REMARK SMILES IDX 52 46 45 47 47 48 48 49 49 50 50 51 74 52 75 53 83 54 76 55
REMARK SMILES IDX 78 56 84 57 77 58 79 59 80 60 81 61 82 62 59 63 60 64 68 65
REMARK SMILES IDX 61 66 63 67 69 68 62 69 64 70 65 71 66 72 67 73 9 74 10 75
REMARK SMILES IDX 11 76 12 77 13 78 14 79 15 80 16 81 31 82 28 83 30 84 32 85
REMARK SMILES IDX 29 86 17 87 18 88 19 89 20 91 21 92 22 93 23 94 24 95 27 96
REMARK SMILES IDX 25 97 26 98
REMARK H PARENT 89 26 57 37 19 90
REMARK Flexibility Score: inf
ROOT
ATOM      1  C   UNL A   1      31.462  29.680  25.121  1.00  0.00     0.188 C 
ENDROOT
BRANCH   1   2
ATOM      2  C   UNL A   1      31.737  30.875  26.072  1.00  0.00     0.188 C 
BRANCH   2   3
ATOM      3  O   UNL A   1      32.403  30.480  27.255  1.00  0.00    -0.376 OA
BRANCH   3   4
ATOM      4  C   UNL A   1      33.801  30.620  27.364  1.00  0.00     0.202 C 
BRANCH   4   5
ATOM      5  C   UNL A   1      34.397  31.921  27.916  1.00  0.00     0.261 C 
BRANCH   5   6
ATOM      6  O   UNL A   1      34.509  32.030  29.338  1.00  0.00    -0.460 OA
BRANCH   6   7
ATOM      7  C   UNL A   1      35.436  31.613  30.223  1.00  0.00     0.338 C 
ATOM      8  O   UNL A   1      35.350  32.022  31.379  1.00  0.00    -0.246 OA
BRANCH   7   9
ATOM      9  C   UNL A   1      36.626  30.791  29.866  1.00  0.00     0.060 A 
ATOM     10  C   UNL A   1      36.738  29.405  29.979  1.00  0.00     0.016 A 
ATOM     11  C   UNL A   1      37.744  31.522  29.424  1.00  0.00     0.016 A 
ATOM     12  C   UNL A   1      37.980  28.789  29.858  1.00  0.00     0.010 A 
ATOM     13  C   UNL A   1      38.970  30.905  29.246  1.00  0.00     0.010 A 
ATOM     14  C   UNL A   1      39.105  29.553  29.557  1.00  0.00    -0.014 A 
BRANCH  14  15
ATOM     15  C   UNL A   1      40.434  28.946  29.641  1.00  0.00     0.031 A 
ATOM     16  C   UNL A   1      41.092  28.790  30.990  1.00  0.00     0.074 A 
ATOM     17  C   UNL A   1      40.969  28.434  28.509  1.00  0.00     0.049 A 
ATOM     18  N   UNL A   1      42.287  28.353  31.250  1.00  0.00    -0.248 NA
ATOM     19  C   UNL A   1      40.327  29.121  32.207  1.00  0.00     0.031 C 
ATOM     20  C   UNL A   1      40.360  28.310  27.175  1.00  0.00     0.029 A 
ATOM     21  N   UNL A   1      42.149  27.775  28.360  1.00  0.00    -0.354 N 
ATOM     22  C   UNL A   1      42.403  28.277  32.638  1.00  0.00     0.074 A 
ATOM     23  C   UNL A   1      41.151  28.746  33.186  1.00  0.00     0.031 C 
ATOM     24  C   UNL A   1      41.049  27.401  26.452  1.00  0.00     0.029 A 
ATOM     25  C   UNL A   1      42.222  27.003  27.207  1.00  0.00     0.049 A 
ATOM     26  H   UNL A   1      42.886  27.840  29.011  1.00  0.00     0.167 HD
ATOM     27  C   UNL A   1      43.559  28.436  33.340  1.00  0.00     0.034 A 
ATOM     28  C   UNL A   1      43.146  26.054  26.929  1.00  0.00     0.034 A 
ATOM     29  C   UNL A   1      44.453  29.331  32.665  1.00  0.00     0.049 A 
ATOM     30  C   UNL A   1      44.313  26.314  27.804  1.00  0.00     0.074 A 
ATOM     31  C   UNL A   1      44.471  30.692  32.444  1.00  0.00     0.029 A 
ATOM     32  N   UNL A   1      45.371  28.791  31.798  1.00  0.00    -0.354 N 
ATOM     33  N   UNL A   1      45.077  27.364  27.690  1.00  0.00    -0.248 NA
ATOM     34  C   UNL A   1      44.374  25.622  29.081  1.00  0.00     0.031 C 
ATOM     35  C   UNL A   1      45.034  30.841  31.147  1.00  0.00     0.029 A 
ATOM     36  C   UNL A   1      45.355  29.567  30.674  1.00  0.00     0.049 A 
ATOM     37  H   UNL A   1      45.933  27.998  31.956  1.00  0.00     0.167 HD
ATOM     38  C   UNL A   1      45.349  27.730  29.002  1.00  0.00     0.074 A 
ATOM     39  C   UNL A   1      44.990  26.561  29.805  1.00  0.00     0.031 C 
ATOM     40  C   UNL A   1      45.555  29.036  29.345  1.00  0.00     0.034 A 
BRANCH  27  41
ATOM     41  C   UNL A   1      44.083  27.245  34.108  1.00  0.00     0.023 A 
ATOM     42  C   UNL A   1      43.881  25.962  33.547  1.00  0.00     0.012 A 
ATOM     43  C   UNL A   1      44.562  27.318  35.431  1.00  0.00     0.148 A 
ATOM     44  C   UNL A   1      44.005  24.804  34.316  1.00  0.00     0.002 A 
ATOM     45  C   UNL A   1      44.667  26.160  36.197  1.00  0.00     0.091 A 
ATOM     46  F   UNL A   1      44.886  28.512  35.947  1.00  0.00    -0.205 F 
ATOM     47  C   UNL A   1      44.367  24.906  35.651  1.00  0.00     0.022 A 
BRANCH  45  48
ATOM     48  S   UNL A   1      45.027  26.254  37.955  1.00  0.00     0.127 S 
ATOM     49  O   UNL A   1      46.469  26.504  37.967  1.00  0.00    -0.237 OA
ATOM     50  O   UNL A   1      44.209  27.392  38.361  1.00  0.00    -0.237 OA
ATOM     51  O   UNL A   1      44.647  24.943  38.465  1.00  0.00    -0.744 OA
ENDBRANCH  45  48
ENDBRANCH  27  41
BRANCH  28  52
ATOM     52  C   UNL A   1      43.028  24.821  26.122  1.00  0.00     0.023 A 
ATOM     53  C   UNL A   1      43.874  24.639  25.010  1.00  0.00     0.012 A 
ATOM     54  C   UNL A   1      42.287  23.711  26.588  1.00  0.00     0.148 A 
ATOM     55  C   UNL A   1      44.007  23.385  24.404  1.00  0.00     0.002 A 
ATOM     56  C   UNL A   1      42.419  22.467  25.977  1.00  0.00     0.091 A 
ATOM     57  F   UNL A   1      41.526  23.856  27.680  1.00  0.00    -0.205 F 
ATOM     58  C   UNL A   1      43.288  22.297  24.892  1.00  0.00     0.022 A 
BRANCH  56  59
ATOM     59  S   UNL A   1      41.540  21.011  26.563  1.00  0.00     0.127 S 
ATOM     60  O   UNL A   1      40.143  21.419  26.411  1.00  0.00    -0.237 OA
ATOM     61  O   UNL A   1      41.984  19.989  25.619  1.00  0.00    -0.237 OA
ATOM     62  O   UNL A   1      41.961  20.819  27.944  1.00  0.00    -0.744 OA
ENDBRANCH  56  59
ENDBRANCH  28  52
BRANCH  40  63
ATOM     63  C   UNL A   1      45.707  30.063  28.256  1.00  0.00     0.023 A 
ATOM     64  C   UNL A   1      44.592  30.689  27.660  1.00  0.00     0.012 A 
ATOM     65  C   UNL A   1      46.990  30.577  28.004  1.00  0.00     0.148 A 
ATOM     66  C   UNL A   1      44.755  31.793  26.823  1.00  0.00     0.002 A 
ATOM     67  C   UNL A   1      47.143  31.711  27.218  1.00  0.00     0.091 A 
ATOM     68  F   UNL A   1      48.041  29.974  28.582  1.00  0.00    -0.205 F 
ATOM     69  C   UNL A   1      46.029  32.316  26.615  1.00  0.00     0.022 A 
BRANCH  67  70
ATOM     70  S   UNL A   1      48.735  32.523  27.058  1.00  0.00     0.127 S 
ATOM     71  O   UNL A   1      49.562  31.468  26.484  1.00  0.00    -0.237 OA
ATOM     72  O   UNL A   1      48.436  33.633  26.155  1.00  0.00    -0.237 OA
ATOM     73  O   UNL A   1      49.097  32.946  28.412  1.00  0.00    -0.744 OA
ENDBRANCH  67  70
ENDBRANCH  40  63
ENDBRANCH  14  15
ENDBRANCH   7   9
ENDBRANCH   6   7
ENDBRANCH   5   6
ENDBRANCH   4   5
ENDBRANCH   3   4
ENDBRANCH   2   3
ENDBRANCH   1   2
BRANCH   1  74
ATOM     74  O   UNL A   1      30.382  29.690  24.187  1.00  0.00    -0.376 OA
BRANCH  74  75
ATOM     75  C   UNL A   1      30.551  29.084  22.923  1.00  0.00     0.202 C 
BRANCH  75  76
ATOM     76  C   UNL A   1      29.916  27.700  22.740  1.00  0.00     0.261 C 
BRANCH  76  77
ATOM     77  O   UNL A   1      30.348  26.690  23.677  1.00  0.00    -0.463 OA
BRANCH  77  78
ATOM     78  C   UNL A   1      31.300  25.832  23.232  1.00  0.00     0.310 C 
ATOM     79  O   UNL A   1      31.536  25.673  22.038  1.00  0.00    -0.252 OA
BRANCH  78  80
ATOM     80  C   UNL A   1      31.909  24.961  24.344  1.00  0.00     0.119 C 
ATOM     81  C   UNL A   1      31.507  25.110  25.890  1.00  0.00     0.100 C 
ATOM     82  C   UNL A   1      33.435  25.279  24.394  1.00  0.00     0.027 C 
ATOM     83  C   UNL A   1      32.867  25.457  26.536  1.00  0.00     0.025 C 
ATOM     84  C   UNL A   1      33.620  26.732  24.792  1.00  0.00    -0.027 C 
ATOM     85  C   UNL A   1      33.840  24.624  25.706  1.00  0.00     0.017 C 
ATOM     86  C   UNL A   1      33.246  26.843  26.071  1.00  0.00    -0.027 C 
BRANCH  81  87
ATOM     87  C   UNL A   1      30.794  23.850  26.400  1.00  0.00     0.224 C 
ATOM     88  O   UNL A   1      29.810  23.973  27.142  1.00  0.00    -0.275 OA
ATOM     89  N   UNL A   1      31.234  22.572  26.239  1.00  0.00    -0.356 N 
ATOM     90  H   UNL A   1      30.861  21.950  26.904  1.00  0.00     0.163 HD
BRANCH  89  91
ATOM     91  C   UNL A   1      32.139  21.923  25.294  1.00  0.00     0.117 C 
BRANCH  91  92
ATOM     92  C   UNL A   1      33.290  21.111  25.905  1.00  0.00     0.043 C 
BRANCH  92  93
ATOM     93  C   UNL A   1      34.376  20.614  24.960  1.00  0.00     0.125 C 
BRANCH  93  94
ATOM     94  N   UNL A   1      35.476  21.516  24.732  1.00  0.00    -0.337 N 
ATOM     95  C   UNL A   1      36.504  21.766  25.601  1.00  0.00     0.107 A 
ATOM     96  C   UNL A   1      35.590  22.393  23.694  1.00  0.00     0.199 A 
ATOM     97  C   UNL A   1      37.233  22.764  25.002  1.00  0.00     0.130 A 
ATOM     98  N   UNL A   1      36.701  23.090  23.791  1.00  0.00    -0.245 NA
ENDBRANCH  93  94
ENDBRANCH  92  93
ENDBRANCH  91  92
ENDBRANCH  89  91
ENDBRANCH  81  87
ENDBRANCH  78  80
ENDBRANCH  77  78
ENDBRANCH  76  77
ENDBRANCH  75  76
ENDBRANCH  74  75
ENDBRANCH   1  74
TORSDOF 25
ENDMDL
MODEL 2
REMARK VINA RESULT:     -10.0      2.733      8.284
REMARK SMILES O=C(OCCOCCOCCOC(=O)[C@@H]1[C@@H](C(=O)NCCCn2ccnc2)[C@@H]2C=C[C@H]1C2)c1ccc(-c2c3nc(c(-c4cccc(S(=O)(=O)[O-])c4F)c4ccc([nH]4)c(-c4cccc(S(=O)(=O)[O-])c4F)c4nc(c(-c5cccc(S(=O)(=O)[O-])c5F)c5ccc2[nH]5)C=C4)C=C3)cc1
REMARK SMILES IDX 8 1 7 2 6 3 5 4 4 5 3 6 2 7 1 8 33 9 34 10 95 11 35 12 94 13
REMARK SMILES IDX 36 14 37 15 38 16 88 17 39 18 93 19 87 20 89 21 40 22 92 23
REMARK SMILES IDX 86 24 85 25 41 27 73 28 53 29 72 30 54 31 57 32 71 33 90 34
REMARK SMILES IDX 55 35 56 36 70 38 91 39 58 40 42 41 43 42 51 43 44 44 46 45
REMARK SMILES IDX 52 46 45 47 47 48 48 49 49 50 50 51 74 52 75 53 83 54 76 55
REMARK SMILES IDX 78 56 84 57 77 58 79 59 80 60 81 61 82 62 59 63 60 64 68 65
REMARK SMILES IDX 61 66 63 67 69 68 62 69 64 70 65 71 66 72 67 73 9 74 10 75
REMARK SMILES IDX 11 76 12 77 13 78 14 79 15 80 16 81 31 82 28 83 30 84 32 85
REMARK SMILES IDX 29 86 17 87 18 88 19 89 20 91 21 92 22 93 23 94 24 95 27 96
REMARK SMILES IDX 25 97 26 98
REMARK H PARENT 89 26 57 37 19 90
REMARK Flexibility Score: inf
ROOT
ATOM      1  C   UNL A   1      38.215  22.121  25.164  1.00  0.00     0.188 C 
ENDROOT
BRANCH   1   2
ATOM      2  C   UNL A   1      39.305  21.702  26.187  1.00  0.00     0.188 C 
BRANCH   2   3
ATOM      3  O   UNL A   1      39.253  20.323  26.494  1.00  0.00    -0.376 OA
BRANCH   3   4
ATOM      4  C   UNL A   1      39.953  19.392  25.701  1.00  0.00     0.202 C 
BRANCH   4   5
ATOM      5  C   UNL A   1      41.199  18.695  26.261  1.00  0.00     0.261 C 
BRANCH   5   6
ATOM      6  O   UNL A   1      42.429  18.904  25.559  1.00  0.00    -0.460 OA
BRANCH   6   7
ATOM      7  C   UNL A   1      43.262  19.958  25.456  1.00  0.00     0.338 C 
ATOM      8  O   UNL A   1      44.097  19.942  24.553  1.00  0.00    -0.246 OA
BRANCH   7   9
ATOM      9  C   UNL A   1      43.321  21.080  26.434  1.00  0.00     0.060 A 
ATOM     10  C   UNL A   1      42.687  21.129  27.676  1.00  0.00     0.016 A 
ATOM     11  C   UNL A   1      44.056  22.202  26.009  1.00  0.00     0.016 A 
ATOM     12  C   UNL A   1      42.611  22.327  28.378  1.00  0.00     0.010 A 
ATOM     13  C   UNL A   1      44.031  23.381  26.733  1.00  0.00     0.010 A 
ATOM     14  C   UNL A   1      43.229  23.469  27.870  1.00  0.00    -0.014 A 
BRANCH  14  15
ATOM     15  C   UNL A   1      42.971  24.768  28.491  1.00  0.00     0.031 A 
ATOM     16  C   UNL A   1      41.684  25.493  28.183  1.00  0.00     0.074 A 
ATOM     17  C   UNL A   1      43.849  25.211  29.420  1.00  0.00     0.049 A 
ATOM     18  N   UNL A   1      41.321  26.677  28.573  1.00  0.00    -0.248 NA
ATOM     19  C   UNL A   1      40.652  24.816  27.375  1.00  0.00     0.031 C 
ATOM     20  C   UNL A   1      45.019  24.521  29.986  1.00  0.00     0.029 A 
ATOM     21  N   UNL A   1      43.783  26.346  30.166  1.00  0.00    -0.354 N 
ATOM     22  C   UNL A   1      40.009  26.868  28.139  1.00  0.00     0.074 A 
ATOM     23  C   UNL A   1      39.632  25.675  27.417  1.00  0.00     0.031 C 
ATOM     24  C   UNL A   1      45.375  25.122  31.142  1.00  0.00     0.029 A 
ATOM     25  C   UNL A   1      44.568  26.313  31.312  1.00  0.00     0.049 A 
ATOM     26  H   UNL A   1      43.228  27.121  29.916  1.00  0.00     0.167 HD
ATOM     27  C   UNL A   1      39.457  28.069  27.811  1.00  0.00     0.034 A 
ATOM     28  C   UNL A   1      44.504  27.171  32.357  1.00  0.00     0.034 A 
ATOM     29  C   UNL A   1      40.447  28.967  27.291  1.00  0.00     0.049 A 
ATOM     30  C   UNL A   1      43.829  28.398  31.873  1.00  0.00     0.074 A 
ATOM     31  C   UNL A   1      41.158  29.040  26.112  1.00  0.00     0.029 A 
ATOM     32  N   UNL A   1      41.082  29.806  28.174  1.00  0.00    -0.354 N 
ATOM     33  N   UNL A   1      44.352  29.206  30.993  1.00  0.00    -0.248 NA
ATOM     34  C   UNL A   1      42.390  28.497  32.046  1.00  0.00     0.031 C 
ATOM     35  C   UNL A   1      42.436  29.535  26.491  1.00  0.00     0.029 A 
ATOM     36  C   UNL A   1      42.412  29.764  27.869  1.00  0.00     0.049 A 
ATOM     37  H   UNL A   1      40.660  30.335  28.889  1.00  0.00     0.167 HD
ATOM     38  C   UNL A   1      43.280  29.571  30.188  1.00  0.00     0.074 A 
ATOM     39  C   UNL A   1      42.088  29.200  30.951  1.00  0.00     0.031 C 
ATOM     40  C   UNL A   1      43.454  29.862  28.865  1.00  0.00     0.034 A 
BRANCH  27  41
ATOM     41  C   UNL A   1      38.320  28.575  28.668  1.00  0.00     0.023 A 
ATOM     42  C   UNL A   1      37.309  29.337  28.035  1.00  0.00     0.012 A 
ATOM     43  C   UNL A   1      38.316  28.516  30.075  1.00  0.00     0.148 A 
ATOM     44  C   UNL A   1      36.426  30.129  28.770  1.00  0.00     0.002 A 
ATOM     45  C   UNL A   1      37.442  29.321  30.802  1.00  0.00     0.091 A 
ATOM     46  F   UNL A   1      39.177  27.700  30.701  1.00  0.00    -0.205 F 
ATOM     47  C   UNL A   1      36.515  30.145  30.154  1.00  0.00     0.022 A 
BRANCH  45  48
ATOM     48  S   UNL A   1      37.592  29.455  32.588  1.00  0.00     0.127 S 
ATOM     49  O   UNL A   1      38.900  30.092  32.747  1.00  0.00    -0.237 OA
ATOM     50  O   UNL A   1      36.456  30.311  32.914  1.00  0.00    -0.237 OA
ATOM     51  O   UNL A   1      37.544  28.074  33.052  1.00  0.00    -0.744 OA
ENDBRANCH  45  48
ENDBRANCH  27  41
BRANCH  28  52
ATOM     52  C   UNL A   1      44.791  26.946  33.790  1.00  0.00     0.023 A 
ATOM     53  C   UNL A   1      46.026  27.364  34.322  1.00  0.00     0.012 A 
ATOM     54  C   UNL A   1      43.766  26.574  34.689  1.00  0.00     0.148 A 
ATOM     55  C   UNL A   1      46.224  27.445  35.704  1.00  0.00     0.002 A 
ATOM     56  C   UNL A   1      43.971  26.650  36.064  1.00  0.00     0.091 A 
ATOM     57  F   UNL A   1      42.568  26.232  34.197  1.00  0.00    -0.205 F 
ATOM     58  C   UNL A   1      45.195  27.097  36.576  1.00  0.00     0.022 A 
BRANCH  56  59
ATOM     59  S   UNL A   1      42.684  26.238  37.252  1.00  0.00     0.127 S 
ATOM     60  O   UNL A   1      41.655  27.230  36.939  1.00  0.00    -0.237 OA
ATOM     61  O   UNL A   1      42.348  24.868  36.872  1.00  0.00    -0.237 OA
ATOM     62  O   UNL A   1      43.289  26.397  38.567  1.00  0.00    -0.744 OA
ENDBRANCH  56  59
ENDBRANCH  28  52
BRANCH  40  63
ATOM     63  C   UNL A   1      44.852  30.003  28.325  1.00  0.00     0.023 A 
ATOM     64  C   UNL A   1      45.598  28.888  27.887  1.00  0.00     0.012 A 
ATOM     65  C   UNL A   1      45.321  31.294  28.030  1.00  0.00     0.148 A 
ATOM     66  C   UNL A   1      46.791  29.059  27.183  1.00  0.00     0.002 A 
ATOM     67  C   UNL A   1      46.477  31.458  27.280  1.00  0.00     0.091 A 
ATOM     68  F   UNL A   1      44.598  32.344  28.449  1.00  0.00    -0.205 F 
ATOM     69  C   UNL A   1      47.223  30.345  26.863  1.00  0.00     0.022 A 
BRANCH  67  70
ATOM     70  S   UNL A   1      46.982  33.079  26.697  1.00  0.00     0.127 S 
ATOM     71  O   UNL A   1      45.917  33.415  25.760  1.00  0.00    -0.237 OA
ATOM     72  O   UNL A   1      46.994  33.869  27.927  1.00  0.00    -0.237 OA
ATOM     73  O   UNL A   1      48.309  32.887  26.108  1.00  0.00    -0.744 OA
ENDBRANCH  67  70
ENDBRANCH  40  63
ENDBRANCH  14  15
ENDBRANCH   7   9
ENDBRANCH   6   7
ENDBRANCH   5   6
ENDBRANCH   4   5
ENDBRANCH   3   4
ENDBRANCH   2   3
ENDBRANCH   1   2
BRANCH   1  74
ATOM     74  O   UNL A   1      36.858  21.697  25.289  1.00  0.00    -0.376 OA
BRANCH  74  75
ATOM     75  C   UNL A   1      35.886  22.610  25.755  1.00  0.00     0.202 C 
BRANCH  75  76
ATOM     76  C   UNL A   1      34.707  22.890  24.813  1.00  0.00     0.261 C 
BRANCH  76  77
ATOM     77  O   UNL A   1      33.708  23.798  25.324  1.00  0.00    -0.463 OA
BRANCH  77  78
ATOM     78  C   UNL A   1      32.417  23.404  25.186  1.00  0.00     0.310 C 
ATOM     79  O   UNL A   1      32.050  22.256  25.421  1.00  0.00    -0.252 OA
BRANCH  78  80
ATOM     80  C   UNL A   1      31.516  24.470  24.539  1.00  0.00     0.119 C 
ATOM     81  C   UNL A   1      32.023  25.955  24.201  1.00  0.00     0.100 C 
ATOM     82  C   UNL A   1      30.358  24.764  25.542  1.00  0.00     0.027 C 
ATOM     83  C   UNL A   1      31.056  26.816  25.044  1.00  0.00     0.025 C 
ATOM     84  C   UNL A   1      30.946  25.362  26.807  1.00  0.00    -0.027 C 
ATOM     85  C   UNL A   1      29.753  26.026  24.947  1.00  0.00     0.017 C 
ATOM     86  C   UNL A   1      31.395  26.583  26.497  1.00  0.00    -0.027 C 
BRANCH  81  87
ATOM     87  C   UNL A   1      32.038  26.203  22.687  1.00  0.00     0.224 C 
ATOM     88  O   UNL A   1      31.688  25.293  21.923  1.00  0.00    -0.275 OA
ATOM     89  N   UNL A   1      32.556  27.300  22.070  1.00  0.00    -0.356 N 
ATOM     90  H   UNL A   1      32.792  27.137  21.129  1.00  0.00     0.163 HD
BRANCH  89  91
ATOM     91  C   UNL A   1      32.837  28.668  22.501  1.00  0.00     0.117 C 
BRANCH  91  92
ATOM     92  C   UNL A   1      31.619  29.530  22.860  1.00  0.00     0.043 C 
BRANCH  92  93
ATOM     93  C   UNL A   1      30.352  29.330  22.039  1.00  0.00     0.125 C 
BRANCH  93  94
ATOM     94  N   UNL A   1      29.147  29.898  22.588  1.00  0.00    -0.337 N 
ATOM     95  C   UNL A   1      29.053  31.089  23.258  1.00  0.00     0.107 A 
ATOM     96  C   UNL A   1      27.938  29.274  22.680  1.00  0.00     0.199 A 
ATOM     97  C   UNL A   1      27.748  31.148  23.682  1.00  0.00     0.130 A 
ATOM     98  N   UNL A   1      27.051  30.058  23.255  1.00  0.00    -0.245 NA
ENDBRANCH  93  94
ENDBRANCH  92  93
ENDBRANCH  91  92
ENDBRANCH  89  91
ENDBRANCH  81  87
ENDBRANCH  78  80
ENDBRANCH  77  78
ENDBRANCH  76  77
ENDBRANCH  75  76
ENDBRANCH  74  75
ENDBRANCH   1  74
TORSDOF 25
ENDMDL
MODEL 3
REMARK VINA RESULT:     -10.0      1.962      2.544
REMARK SMILES O=C(OCCOCCOCCOC(=O)[C@@H]1[C@@H](C(=O)NCCCn2ccnc2)[C@@H]2C=C[C@H]1C2)c1ccc(-c2c3nc(c(-c4cccc(S(=O)(=O)[O-])c4F)c4ccc([nH]4)c(-c4cccc(S(=O)(=O)[O-])c4F)c4nc(c(-c5cccc(S(=O)(=O)[O-])c5F)c5ccc2[nH]5)C=C4)C=C3)cc1
REMARK SMILES IDX 8 1 7 2 6 3 5 4 4 5 3 6 2 7 1 8 33 9 34 10 95 11 35 12 94 13
REMARK SMILES IDX 36 14 37 15 38 16 88 17 39 18 93 19 87 20 89 21 40 22 92 23
REMARK SMILES IDX 86 24 85 25 41 27 73 28 53 29 72 30 54 31 57 32 71 33 90 34
REMARK SMILES IDX 55 35 56 36 70 38 91 39 58 40 42 41 43 42 51 43 44 44 46 45
REMARK SMILES IDX 52 46 45 47 47 48 48 49 49 50 50 51 74 52 75 53 83 54 76 55
REMARK SMILES IDX 78 56 84 57 77 58 79 59 80 60 81 61 82 62 59 63 60 64 68 65
REMARK SMILES IDX 61 66 63 67 69 68 62 69 64 70 65 71 66 72 67 73 9 74 10 75
REMARK SMILES IDX 11 76 12 77 13 78 14 79 15 80 16 81 31 82 28 83 30 84 32 85
REMARK SMILES IDX 29 86 17 87 18 88 19 89 20 91 21 92 22 93 23 94 24 95 27 96
REMARK SMILES IDX 25 97 26 98
REMARK H PARENT 89 26 57 37 19 90
REMARK Flexibility Score: inf
ROOT
ATOM      1  C   UNL A   1      31.933  29.374  25.134  1.00  0.00     0.188 C 
ENDROOT
BRANCH   1   2
ATOM      2  C   UNL A   1      31.915  29.860  26.608  1.00  0.00     0.188 C 
BRANCH   2   3
ATOM      3  O   UNL A   1      32.960  29.293  27.375  1.00  0.00    -0.376 OA
BRANCH   3   4
ATOM      4  C   UNL A   1      34.259  29.836  27.316  1.00  0.00     0.202 C 
BRANCH   4   5
ATOM      5  C   UNL A   1      34.525  31.241  27.871  1.00  0.00     0.261 C 
BRANCH   5   6
ATOM      6  O   UNL A   1      34.973  31.327  29.227  1.00  0.00    -0.460 OA
BRANCH   6   7
ATOM      7  C   UNL A   1      36.187  31.501  29.786  1.00  0.00     0.338 C 
ATOM      8  O   UNL A   1      36.415  32.576  30.338  1.00  0.00    -0.246 OA
BRANCH   7   9
ATOM      9  C   UNL A   1      37.310  30.529  29.672  1.00  0.00     0.060 A 
ATOM     10  C   UNL A   1      37.245  29.156  29.914  1.00  0.00     0.016 A 
ATOM     11  C   UNL A   1      38.554  31.094  29.336  1.00  0.00     0.016 A 
ATOM     12  C   UNL A   1      38.411  28.407  30.023  1.00  0.00     0.010 A 
ATOM     13  C   UNL A   1      39.713  30.339  29.386  1.00  0.00     0.010 A 
ATOM     14  C   UNL A   1      39.648  29.017  29.823  1.00  0.00    -0.014 A 
BRANCH  14  15
ATOM     15  C   UNL A   1      40.875  28.287  30.146  1.00  0.00     0.031 A 
ATOM     16  C   UNL A   1      41.429  28.356  31.548  1.00  0.00     0.074 A 
ATOM     17  C   UNL A   1      41.397  27.475  29.199  1.00  0.00     0.049 A 
ATOM     18  N   UNL A   1      42.537  27.845  31.995  1.00  0.00    -0.248 NA
ATOM     19  C   UNL A   1      40.650  29.040  32.598  1.00  0.00     0.031 C 
ATOM     20  C   UNL A   1      40.850  27.132  27.876  1.00  0.00     0.029 A 
ATOM     21  N   UNL A   1      42.482  26.661  29.293  1.00  0.00    -0.354 N 
ATOM     22  C   UNL A   1      42.564  28.066  33.372  1.00  0.00     0.074 A 
ATOM     23  C   UNL A   1      41.360  28.794  33.700  1.00  0.00     0.031 C 
ATOM     24  C   UNL A   1      41.448  26.008  27.424  1.00  0.00     0.029 A 
ATOM     25  C   UNL A   1      42.511  25.649  28.341  1.00  0.00     0.049 A 
ATOM     26  H   UNL A   1      43.183  26.779  29.975  1.00  0.00     0.167 HD
ATOM     27  C   UNL A   1      43.691  28.236  34.118  1.00  0.00     0.034 A 
ATOM     28  C   UNL A   1      43.310  24.557  28.351  1.00  0.00     0.034 A 
ATOM     29  C   UNL A   1      44.734  28.843  33.346  1.00  0.00     0.049 A 
ATOM     30  C   UNL A   1      44.451  24.860  29.245  1.00  0.00     0.074 A 
ATOM     31  C   UNL A   1      44.951  30.108  32.843  1.00  0.00     0.029 A 
ATOM     32  N   UNL A   1      45.617  28.016  32.694  1.00  0.00    -0.354 N 
ATOM     33  N   UNL A   1      45.358  25.758  28.974  1.00  0.00    -0.248 NA
ATOM     34  C   UNL A   1      44.347  24.468  30.641  1.00  0.00     0.031 C 
ATOM     35  C   UNL A   1      45.600  29.895  31.595  1.00  0.00     0.029 A 
ATOM     36  C   UNL A   1      45.769  28.519  31.433  1.00  0.00     0.049 A 
ATOM     37  H   UNL A   1      46.055  27.216  33.064  1.00  0.00     0.167 HD
ATOM     38  C   UNL A   1      45.605  26.371  30.197  1.00  0.00     0.074 A 
ATOM     39  C   UNL A   1      45.045  25.461  31.197  1.00  0.00     0.031 C 
ATOM     40  C   UNL A   1      45.968  27.685  30.270  1.00  0.00     0.034 A 
BRANCH  27  41
ATOM     41  C   UNL A   1      44.002  27.191  35.164  1.00  0.00     0.023 A 
ATOM     42  C   UNL A   1      44.528  27.634  36.400  1.00  0.00     0.012 A 
ATOM     43  C   UNL A   1      44.002  25.805  34.908  1.00  0.00     0.148 A 
ATOM     44  C   UNL A   1      45.164  26.756  37.278  1.00  0.00     0.002 A 
ATOM     45  C   UNL A   1      44.653  24.937  35.780  1.00  0.00     0.091 A 
ATOM     46  F   UNL A   1      43.395  25.341  33.806  1.00  0.00    -0.205 F 
ATOM     47  C   UNL A   1      45.254  25.411  36.952  1.00  0.00     0.022 A 
BRANCH  45  48
ATOM     48  S   UNL A   1      44.887  23.208  35.347  1.00  0.00     0.127 S 
ATOM     49  O   UNL A   1      43.578  22.841  34.802  1.00  0.00    -0.237 OA
ATOM     50  O   UNL A   1      45.954  23.296  34.357  1.00  0.00    -0.237 OA
ATOM     51  O   UNL A   1      45.203  22.566  36.616  1.00  0.00    -0.744 OA
ENDBRANCH  45  48
ENDBRANCH  27  41
BRANCH  28  52
ATOM     52  C   UNL A   1      43.070  23.199  27.818  1.00  0.00     0.023 A 
ATOM     53  C   UNL A   1      41.849  22.553  28.095  1.00  0.00     0.012 A 
ATOM     54  C   UNL A   1      43.909  22.645  26.824  1.00  0.00     0.148 A 
ATOM     55  C   UNL A   1      41.458  21.415  27.383  1.00  0.00     0.002 A 
ATOM     56  C   UNL A   1      43.518  21.509  26.122  1.00  0.00     0.091 A 
ATOM     57  F   UNL A   1      45.044  23.283  26.509  1.00  0.00    -0.205 F 
ATOM     58  C   UNL A   1      42.286  20.898  26.390  1.00  0.00     0.022 A 
BRANCH  56  59
ATOM     59  S   UNL A   1      44.523  20.795  24.812  1.00  0.00     0.127 S 
ATOM     60  O   UNL A   1      44.440  21.821  23.773  1.00  0.00    -0.237 OA
ATOM     61  O   UNL A   1      45.828  20.683  25.458  1.00  0.00    -0.237 OA
ATOM     62  O   UNL A   1      43.885  19.533  24.461  1.00  0.00    -0.744 OA
ENDBRANCH  56  59
ENDBRANCH  28  52
BRANCH  40  63
ATOM     63  C   UNL A   1      46.320  28.418  29.003  1.00  0.00     0.023 A 
ATOM     64  C   UNL A   1      45.337  29.041  28.205  1.00  0.00     0.012 A 
ATOM     65  C   UNL A   1      47.675  28.688  28.749  1.00  0.00     0.148 A 
ATOM     66  C   UNL A   1      45.699  29.903  27.169  1.00  0.00     0.002 A 
ATOM     67  C   UNL A   1      48.028  29.591  27.755  1.00  0.00     0.091 A 
ATOM     68  F   UNL A   1      48.597  28.092  29.520  1.00  0.00    -0.205 F 
ATOM     69  C   UNL A   1      47.045  30.192  26.954  1.00  0.00     0.022 A 
BRANCH  67  70
ATOM     70  S   UNL A   1      49.729  30.127  27.551  1.00  0.00     0.127 S 
ATOM     71  O   UNL A   1      50.398  28.890  27.167  1.00  0.00    -0.237 OA
ATOM     72  O   UNL A   1      49.621  31.125  26.488  1.00  0.00    -0.237 OA
ATOM     73  O   UNL A   1      50.121  30.687  28.845  1.00  0.00    -0.744 OA
ENDBRANCH  67  70
ENDBRANCH  40  63
ENDBRANCH  14  15
ENDBRANCH   7   9
ENDBRANCH   6   7
ENDBRANCH   5   6
ENDBRANCH   4   5
ENDBRANCH   3   4
ENDBRANCH   2   3
ENDBRANCH   1   2
BRANCH   1  74
ATOM     74  O   UNL A   1      30.769  29.421  24.309  1.00  0.00    -0.376 OA
BRANCH  74  75
ATOM     75  C   UNL A   1      30.715  28.631  23.139  1.00  0.00     0.202 C 
BRANCH  75  76
ATOM     76  C   UNL A   1      29.958  27.301  23.249  1.00  0.00     0.261 C 
BRANCH  76  77
ATOM     77  O   UNL A   1      30.568  26.310  24.105  1.00  0.00    -0.463 OA
BRANCH  77  78
ATOM     78  C   UNL A   1      31.289  25.346  23.481  1.00  0.00     0.310 C 
ATOM     79  O   UNL A   1      31.176  25.113  22.280  1.00  0.00    -0.252 OA
BRANCH  78  80
ATOM     80  C   UNL A   1      32.105  24.469  24.445  1.00  0.00     0.119 C 
ATOM     81  C   UNL A   1      32.116  24.692  26.034  1.00  0.00     0.100 C 
ATOM     82  C   UNL A   1      33.611  24.681  24.098  1.00  0.00     0.027 C 
ATOM     83  C   UNL A   1      33.612  24.964  26.303  1.00  0.00     0.025 C 
ATOM     84  C   UNL A   1      33.976  26.129  24.369  1.00  0.00    -0.027 C 
ATOM     85  C   UNL A   1      34.294  24.040  25.296  1.00  0.00     0.017 C 
ATOM     86  C   UNL A   1      33.944  26.305  25.694  1.00  0.00    -0.027 C 
BRANCH  81  87
ATOM     87  C   UNL A   1      31.480  23.501  26.764  1.00  0.00     0.224 C 
ATOM     88  O   UNL A   1      30.385  23.652  27.323  1.00  0.00    -0.275 OA
ATOM     89  N   UNL A   1      32.083  22.303  26.996  1.00  0.00    -0.356 N 
ATOM     90  H   UNL A   1      31.684  21.811  27.750  1.00  0.00     0.163 HD
BRANCH  89  91
ATOM     91  C   UNL A   1      33.192  21.587  26.370  1.00  0.00     0.117 C 
BRANCH  91  92
ATOM     92  C   UNL A   1      32.812  20.516  25.338  1.00  0.00     0.043 C 
BRANCH  92  93
ATOM     93  C   UNL A   1      33.934  19.651  24.780  1.00  0.00     0.125 C 
BRANCH  93  94
ATOM     94  N   UNL A   1      33.709  18.228  24.810  1.00  0.00    -0.337 N 
ATOM     95  C   UNL A   1      34.307  17.303  23.996  1.00  0.00     0.107 A 
ATOM     96  C   UNL A   1      32.748  17.584  25.531  1.00  0.00     0.199 A 
ATOM     97  C   UNL A   1      33.700  16.113  24.315  1.00  0.00     0.130 A 
ATOM     98  N   UNL A   1      32.793  16.287  25.317  1.00  0.00    -0.245 NA
ENDBRANCH  93  94
ENDBRANCH  92  93
ENDBRANCH  91  92
ENDBRANCH  89  91
ENDBRANCH  81  87
ENDBRANCH  78  80
ENDBRANCH  77  78
ENDBRANCH  76  77
ENDBRANCH  75  76
ENDBRANCH  74  75
ENDBRANCH   1  74
TORSDOF 25
ENDMDL
