MODEL 1
REMARK VINA RESULT:      -9.4      0.000      0.000
REMARK SMILES CCOc1cccc(-c2ccc([C@@H](C)C(=O)OCCOCCOCCOC(=O)c3ccc(-c4c5nc(c(-c6cccc(S(=O)(=O)[O-])c6F)c6ccc([nH]6)c(-c6cccc(S(=O)(=O)[O-])c6F)c6nc(c(-c7cccc(S(=O)(=O)[O-])c7F)c7ccc4[nH]7)C=C6)C=C5)cc3)cc2F)c1
REMARK SMILES IDX 21 1 20 2 19 3 18 4 17 5 15 6 16 7 13 8 14 9 12 10 9 11
REMARK SMILES IDX 10 12 93 13 11 14 92 15 94 16 8 17 4 18 5 19 95 20 6 21 7 22
REMARK SMILES IDX 3 23 2 24 1 25 22 26 23 27 24 28 25 29 26 30 27 31 28 32
REMARK SMILES IDX 29 33 30 34 91 35 31 36 90 37 32 38 33 39 34 40 84 41 35 42
REMARK SMILES IDX 89 43 83 44 85 45 36 46 88 47 82 48 81 49 37 51 69 52 49 53
REMARK SMILES IDX 68 54 50 55 53 56 67 57 86 58 51 59 52 60 66 62 87 63 54 64
REMARK SMILES IDX 38 65 39 66 47 67 40 68 42 69 48 70 41 71 43 72 44 73 45 74
REMARK SMILES IDX 46 75 70 76 71 77 79 78 72 79 74 80 80 81 73 82 75 83 76 84
REMARK SMILES IDX 77 85 78 86 55 87 56 88 64 89 57 90 59 91 65 92 58 93 60 94
REMARK SMILES IDX 61 95 62 96 63 97
REMARK H PARENT 85 50 53 61
REMARK Flexibility Score: inf
ROOT
ATOM      1  C   UNL A   1      45.728  19.270  24.564  1.00  0.00     0.188 C 
ENDROOT
BRANCH   1   2
ATOM      2  O   UNL A   1      44.511  18.551  24.717  1.00  0.00    -0.376 OA
BRANCH   2   3
ATOM      3  C   UNL A   1      43.729  18.755  25.887  1.00  0.00     0.202 C 
BRANCH   3   4
ATOM      4  C   UNL A   1      42.321  19.364  25.747  1.00  0.00     0.261 C 
BRANCH   4   5
ATOM      5  O   UNL A   1      42.206  20.764  26.099  1.00  0.00    -0.463 OA
BRANCH   5   6
ATOM      6  C   UNL A   1      41.229  21.086  26.985  1.00  0.00     0.313 C 
ATOM      7  O   UNL A   1      41.010  20.433  28.004  1.00  0.00    -0.252 OA
BRANCH   6   8
ATOM      8  C   UNL A   1      40.408  22.345  26.675  1.00  0.00     0.126 C 
ATOM      9  C   UNL A   1      40.351  23.202  27.939  1.00  0.00     0.025 C 
BRANCH   8  10
ATOM     10  C   UNL A   1      39.018  22.269  26.039  1.00  0.00    -0.031 A 
ATOM     11  C   UNL A   1      36.401  22.266  24.842  1.00  0.00     0.018 A 
ATOM     12  C   UNL A   1      37.251  21.144  24.780  1.00  0.00     0.012 A 
ATOM     13  C   UNL A   1      36.891  23.379  25.533  1.00  0.00     0.131 A 
ATOM     14  C   UNL A   1      38.532  21.138  25.371  1.00  0.00     0.005 A 
ATOM     15  C   UNL A   1      38.161  23.384  26.128  1.00  0.00     0.044 A 
ATOM     16  F   UNL A   1      36.140  24.487  25.651  1.00  0.00    -0.206 F 
BRANCH  11  17
ATOM     17  C   UNL A   1      35.059  22.247  24.214  1.00  0.00    -0.012 A 
ATOM     18  C   UNL A   1      33.460  23.040  22.541  1.00  0.00     0.119 A 
ATOM     19  C   UNL A   1      32.486  22.180  23.035  1.00  0.00     0.046 A 
ATOM     20  C   UNL A   1      34.728  23.090  23.136  1.00  0.00     0.055 A 
ATOM     21  C   UNL A   1      32.782  21.351  24.114  1.00  0.00     0.004 A 
ATOM     22  C   UNL A   1      34.056  21.385  24.694  1.00  0.00     0.009 A 
BRANCH  18  23
ATOM     23  O   UNL A   1      33.077  23.932  21.576  1.00  0.00    -0.494 OA
BRANCH  23  24
ATOM     24  C   UNL A   1      33.126  25.300  21.995  1.00  0.00     0.226 C 
ATOM     25  C   UNL A   1      31.854  25.695  22.711  1.00  0.00     0.049 C 
ENDBRANCH  23  24
ENDBRANCH  18  23
ENDBRANCH  11  17
ENDBRANCH   8  10
ENDBRANCH   6   8
ENDBRANCH   5   6
ENDBRANCH   4   5
ENDBRANCH   3   4
ENDBRANCH   2   3
ENDBRANCH   1   2
BRANCH   1  26
ATOM     26  C   UNL A   1      45.825  20.681  25.161  1.00  0.00     0.188 C 
BRANCH  26  27
ATOM     27  O   UNL A   1      45.268  21.701  24.363  1.00  0.00    -0.376 OA
BRANCH  27  28
ATOM     28  C   UNL A   1      46.072  22.831  24.094  1.00  0.00     0.202 C 
BRANCH  28  29
ATOM     29  C   UNL A   1      45.991  24.045  25.038  1.00  0.00     0.261 C 
BRANCH  29  30
ATOM     30  O   UNL A   1      44.883  24.095  25.956  1.00  0.00    -0.460 OA
BRANCH  30  31
ATOM     31  C   UNL A   1      43.762  24.701  25.511  1.00  0.00     0.338 C 
ATOM     32  O   UNL A   1      42.924  24.207  24.770  1.00  0.00    -0.246 OA
BRANCH  31  33
ATOM     33  C   UNL A   1      43.561  25.970  26.232  1.00  0.00     0.060 A 
ATOM     34  C   UNL A   1      42.933  27.039  25.572  1.00  0.00     0.016 A 
ATOM     35  C   UNL A   1      44.011  26.109  27.543  1.00  0.00     0.016 A 
ATOM     36  C   UNL A   1      42.762  28.259  26.225  1.00  0.00     0.010 A 
ATOM     37  C   UNL A   1      43.862  27.340  28.185  1.00  0.00     0.010 A 
ATOM     38  C   UNL A   1      43.259  28.425  27.523  1.00  0.00    -0.014 A 
BRANCH  38  39
ATOM     39  C   UNL A   1      43.300  29.770  28.144  1.00  0.00     0.031 A 
ATOM     40  C   UNL A   1      44.469  30.664  27.842  1.00  0.00     0.074 A 
ATOM     41  C   UNL A   1      42.339  30.170  28.996  1.00  0.00     0.049 A 
ATOM     42  N   UNL A   1      44.781  31.824  28.355  1.00  0.00    -0.248 NA
ATOM     43  C   UNL A   1      45.420  30.178  26.827  1.00  0.00     0.031 C 
ATOM     44  C   UNL A   1      41.151  29.399  29.353  1.00  0.00     0.029 A 
ATOM     45  N   UNL A   1      42.237  31.317  29.743  1.00  0.00    -0.354 N 
ATOM     46  C   UNL A   1      45.981  32.189  27.759  1.00  0.00     0.074 A 
ATOM     47  C   UNL A   1      46.346  31.125  26.850  1.00  0.00     0.031 C 
ATOM     48  C   UNL A   1      40.456  30.078  30.282  1.00  0.00     0.029 A 
ATOM     49  C   UNL A   1      41.170  31.311  30.609  1.00  0.00     0.049 A 
ATOM     50  H   UNL A   1      42.867  32.070  29.666  1.00  0.00     0.167 HD
ATOM     51  C   UNL A   1      46.712  33.313  27.948  1.00  0.00     0.034 A 
ATOM     52  C   UNL A   1      40.831  32.184  31.580  1.00  0.00     0.034 A 
ATOM     53  C   UNL A   1      46.341  34.372  28.848  1.00  0.00     0.049 A 
ATOM     54  C   UNL A   1      41.685  33.407  31.800  1.00  0.00     0.074 A 
ATOM     55  C   UNL A   1      46.991  35.571  29.078  1.00  0.00     0.029 A 
ATOM     56  N   UNL A   1      45.231  34.352  29.679  1.00  0.00    -0.354 N 
ATOM     57  N   UNL A   1      42.763  33.792  31.161  1.00  0.00    -0.248 NA
ATOM     58  C   UNL A   1      41.256  34.334  32.859  1.00  0.00     0.031 C 
ATOM     59  C   UNL A   1      46.297  36.257  30.079  1.00  0.00     0.029 A 
ATOM     60  C   UNL A   1      45.186  35.508  30.437  1.00  0.00     0.049 A 
ATOM     61  H   UNL A   1      44.572  33.621  29.723  1.00  0.00     0.167 HD
ATOM     62  C   UNL A   1      43.116  35.021  31.709  1.00  0.00     0.074 A 
ATOM     63  C   UNL A   1      42.128  35.325  32.722  1.00  0.00     0.031 C 
ATOM     64  C   UNL A   1      44.168  35.823  31.406  1.00  0.00     0.034 A 
BRANCH  51  65
ATOM     65  C   UNL A   1      47.988  33.456  27.161  1.00  0.00     0.023 A 
ATOM     66  C   UNL A   1      48.064  34.390  26.107  1.00  0.00     0.012 A 
ATOM     67  C   UNL A   1      49.128  32.699  27.496  1.00  0.00     0.148 A 
ATOM     68  C   UNL A   1      49.242  34.539  25.374  1.00  0.00     0.002 A 
ATOM     69  C   UNL A   1      50.312  32.890  26.796  1.00  0.00     0.091 A 
ATOM     70  F   UNL A   1      49.030  31.801  28.488  1.00  0.00    -0.205 F 
ATOM     71  C   UNL A   1      50.367  33.798  25.726  1.00  0.00     0.022 A 
BRANCH  69  72
ATOM     72  S   UNL A   1      51.837  32.044  27.221  1.00  0.00     0.127 S 
ATOM     73  O   UNL A   1      52.001  32.418  28.626  1.00  0.00    -0.237 OA
ATOM     74  O   UNL A   1      51.481  30.642  27.002  1.00  0.00    -0.237 OA
ATOM     75  O   UNL A   1      52.853  32.563  26.317  1.00  0.00    -0.744 OA
ENDBRANCH  69  72
ENDBRANCH  51  65
BRANCH  52  76
ATOM     76  C   UNL A   1      39.616  31.946  32.409  1.00  0.00     0.023 A 
ATOM     77  C   UNL A   1      39.708  31.134  33.556  1.00  0.00     0.012 A 
ATOM     78  C   UNL A   1      38.374  32.516  32.070  1.00  0.00     0.148 A 
ATOM     79  C   UNL A   1      38.579  30.867  34.331  1.00  0.00     0.002 A 
ATOM     80  C   UNL A   1      37.265  32.292  32.877  1.00  0.00     0.091 A 
ATOM     81  F   UNL A   1      38.304  33.274  30.966  1.00  0.00    -0.205 F 
ATOM     82  C   UNL A   1      37.361  31.452  33.997  1.00  0.00     0.022 A 
BRANCH  80  83
ATOM     83  S   UNL A   1      35.684  33.094  32.595  1.00  0.00     0.127 S 
ATOM     84  O   UNL A   1      35.019  32.907  33.882  1.00  0.00    -0.237 OA
ATOM     85  O   UNL A   1      36.093  34.469  32.308  1.00  0.00    -0.237 OA
ATOM     86  O   UNL A   1      35.081  32.395  31.468  1.00  0.00    -0.744 OA
ENDBRANCH  80  83
ENDBRANCH  52  76
BRANCH  64  87
ATOM     87  C   UNL A   1      44.283  37.139  32.135  1.00  0.00     0.023 A 
ATOM     88  C   UNL A   1      44.964  37.212  33.365  1.00  0.00     0.012 A 
ATOM     89  C   UNL A   1      43.781  38.321  31.552  1.00  0.00     0.148 A 
ATOM     90  C   UNL A   1      45.111  38.434  34.022  1.00  0.00     0.002 A 
ATOM     91  C   UNL A   1      43.979  39.541  32.186  1.00  0.00     0.091 A 
ATOM     92  F   UNL A   1      43.124  38.229  30.386  1.00  0.00    -0.205 F 
ATOM     93  C   UNL A   1      44.631  39.598  33.428  1.00  0.00     0.022 A 
BRANCH  91  94
ATOM     94  S   UNL A   1      43.486  41.103  31.449  1.00  0.00     0.127 S 
ATOM     95  O   UNL A   1      44.208  42.065  32.280  1.00  0.00    -0.237 OA
ATOM     96  O   UNL A   1      43.995  40.976  30.083  1.00  0.00    -0.237 OA
ATOM     97  O   UNL A   1      42.034  41.159  31.552  1.00  0.00    -0.744 OA
ENDBRANCH  91  94
ENDBRANCH  64  87
ENDBRANCH  38  39
ENDBRANCH  31  33
ENDBRANCH  30  31
ENDBRANCH  29  30
ENDBRANCH  28  29
ENDBRANCH  27  28
ENDBRANCH  26  27
ENDBRANCH   1  26
TORSDOF 24
ENDMDL
MODEL 2
REMARK VINA RESULT:      -9.2      1.257      7.630
REMARK SMILES CCOc1cccc(-c2ccc([C@@H](C)C(=O)OCCOCCOCCOC(=O)c3ccc(-c4c5nc(c(-c6cccc(S(=O)(=O)[O-])c6F)c6ccc([nH]6)c(-c6cccc(S(=O)(=O)[O-])c6F)c6nc(c(-c7cccc(S(=O)(=O)[O-])c7F)c7ccc4[nH]7)C=C6)C=C5)cc3)cc2F)c1
REMARK SMILES IDX 21 1 20 2 19 3 18 4 17 5 15 6 16 7 13 8 14 9 12 10 9 11
REMARK SMILES IDX 10 12 93 13 11 14 92 15 94 16 8 17 4 18 5 19 95 20 6 21 7 22
REMARK SMILES IDX 3 23 2 24 1 25 22 26 23 27 24 28 25 29 26 30 27 31 28 32
REMARK SMILES IDX 29 33 30 34 91 35 31 36 90 37 32 38 33 39 34 40 84 41 35 42
REMARK SMILES IDX 89 43 83 44 85 45 36 46 88 47 82 48 81 49 37 51 69 52 49 53
REMARK SMILES IDX 68 54 50 55 53 56 67 57 86 58 51 59 52 60 66 62 87 63 54 64
REMARK SMILES IDX 38 65 39 66 47 67 40 68 42 69 48 70 41 71 43 72 44 73 45 74
REMARK SMILES IDX 46 75 70 76 71 77 79 78 72 79 74 80 80 81 73 82 75 83 76 84
REMARK SMILES IDX 77 85 78 86 55 87 56 88 64 89 57 90 59 91 65 92 58 93 60 94
REMARK SMILES IDX 61 95 62 96 63 97
REMARK H PARENT 85 50 53 61
REMARK Flexibility Score: inf
ROOT
ATOM      1  C   UNL A   1      44.354  19.669  24.581  1.00  0.00     0.188 C 
ENDROOT
BRANCH   1   2
ATOM      2  O   UNL A   1      43.060  19.182  24.909  1.00  0.00    -0.376 OA
BRANCH   2   3
ATOM      3  C   UNL A   1      42.664  19.131  26.274  1.00  0.00     0.202 C 
BRANCH   3   4
ATOM      4  C   UNL A   1      41.459  19.973  26.733  1.00  0.00     0.261 C 
BRANCH   4   5
ATOM      5  O   UNL A   1      41.510  21.379  26.389  1.00  0.00    -0.463 OA
BRANCH   5   6
ATOM      6  C   UNL A   1      41.002  22.244  27.305  1.00  0.00     0.313 C 
ATOM      7  O   UNL A   1      41.303  22.208  28.496  1.00  0.00    -0.252 OA
BRANCH   6   8
ATOM      8  C   UNL A   1      40.036  23.314  26.776  1.00  0.00     0.126 C 
ATOM      9  C   UNL A   1      39.866  24.379  27.859  1.00  0.00     0.025 C 
BRANCH   8  10
ATOM     10  C   UNL A   1      38.672  22.953  26.187  1.00  0.00    -0.031 A 
ATOM     11  C   UNL A   1      36.137  22.137  25.095  1.00  0.00     0.018 A 
ATOM     12  C   UNL A   1      36.353  23.439  25.589  1.00  0.00     0.012 A 
ATOM     13  C   UNL A   1      37.228  21.264  25.148  1.00  0.00     0.131 A 
ATOM     14  C   UNL A   1      37.595  23.846  26.118  1.00  0.00     0.005 A 
ATOM     15  C   UNL A   1      38.469  21.658  25.668  1.00  0.00     0.044 A 
ATOM     16  F   UNL A   1      37.113  20.008  24.687  1.00  0.00    -0.206 F 
BRANCH  11  17
ATOM     17  C   UNL A   1      34.822  21.735  24.543  1.00  0.00    -0.012 A 
ATOM     18  C   UNL A   1      32.843  22.175  23.173  1.00  0.00     0.119 A 
ATOM     19  C   UNL A   1      32.315  20.931  23.500  1.00  0.00     0.046 A 
ATOM     20  C   UNL A   1      34.074  22.584  23.704  1.00  0.00     0.055 A 
ATOM     21  C   UNL A   1      33.026  20.082  24.344  1.00  0.00     0.004 A 
ATOM     22  C   UNL A   1      34.266  20.481  24.857  1.00  0.00     0.009 A 
BRANCH  18  23
ATOM     23  O   UNL A   1      32.045  23.026  22.458  1.00  0.00    -0.494 OA
BRANCH  23  24
ATOM     24  C   UNL A   1      31.871  24.310  23.066  1.00  0.00     0.226 C 
ATOM     25  C   UNL A   1      30.806  24.265  24.139  1.00  0.00     0.049 C 
ENDBRANCH  23  24
ENDBRANCH  18  23
ENDBRANCH  11  17
ENDBRANCH   8  10
ENDBRANCH   6   8
ENDBRANCH   5   6
ENDBRANCH   4   5
ENDBRANCH   3   4
ENDBRANCH   2   3
ENDBRANCH   1   2
BRANCH   1  26
ATOM     26  C   UNL A   1      44.744  21.082  25.042  1.00  0.00     0.188 C 
BRANCH  26  27
ATOM     27  O   UNL A   1      43.829  22.093  24.686  1.00  0.00    -0.376 OA
BRANCH  27  28
ATOM     28  C   UNL A   1      44.358  23.318  24.223  1.00  0.00     0.202 C 
BRANCH  28  29
ATOM     29  C   UNL A   1      44.598  24.455  25.235  1.00  0.00     0.261 C 
BRANCH  29  30
ATOM     30  O   UNL A   1      43.515  24.791  26.120  1.00  0.00    -0.460 OA
BRANCH  30  31
ATOM     31  C   UNL A   1      42.676  25.761  25.701  1.00  0.00     0.338 C 
ATOM     32  O   UNL A   1      41.778  25.630  24.881  1.00  0.00    -0.246 OA
BRANCH  31  33
ATOM     33  C   UNL A   1      42.834  26.958  26.545  1.00  0.00     0.060 A 
ATOM     34  C   UNL A   1      42.297  28.180  26.108  1.00  0.00     0.016 A 
ATOM     35  C   UNL A   1      43.529  26.877  27.750  1.00  0.00     0.016 A 
ATOM     36  C   UNL A   1      42.464  29.331  26.876  1.00  0.00     0.010 A 
ATOM     37  C   UNL A   1      43.716  28.037  28.504  1.00  0.00     0.010 A 
ATOM     38  C   UNL A   1      43.206  29.271  28.061  1.00  0.00    -0.014 A 
BRANCH  38  39
ATOM     39  C   UNL A   1      43.594  30.514  28.767  1.00  0.00     0.031 A 
ATOM     40  C   UNL A   1      42.725  31.003  29.892  1.00  0.00     0.074 A 
ATOM     41  C   UNL A   1      44.674  31.220  28.385  1.00  0.00     0.049 A 
ATOM     42  N   UNL A   1      42.796  32.115  30.571  1.00  0.00    -0.248 NA
ATOM     43  C   UNL A   1      41.622  30.115  30.298  1.00  0.00     0.031 C 
ATOM     44  C   UNL A   1      45.600  30.840  27.320  1.00  0.00     0.029 A 
ATOM     45  N   UNL A   1      45.147  32.429  28.832  1.00  0.00    -0.354 N 
ATOM     46  C   UNL A   1      41.726  32.084  31.457  1.00  0.00     0.074 A 
ATOM     47  C   UNL A   1      41.018  30.844  31.225  1.00  0.00     0.031 C 
ATOM     48  C   UNL A   1      46.511  31.817  27.169  1.00  0.00     0.029 A 
ATOM     49  C   UNL A   1      46.209  32.903  28.100  1.00  0.00     0.049 A 
ATOM     50  H   UNL A   1      44.763  32.909  29.601  1.00  0.00     0.167 HD
ATOM     51  C   UNL A   1      41.369  33.003  32.385  1.00  0.00     0.034 A 
ATOM     52  C   UNL A   1      46.840  34.094  28.151  1.00  0.00     0.034 A 
ATOM     53  C   UNL A   1      42.082  34.230  32.617  1.00  0.00     0.049 A 
ATOM     54  C   UNL A   1      46.397  35.119  29.165  1.00  0.00     0.074 A 
ATOM     55  C   UNL A   1      41.826  35.206  33.563  1.00  0.00     0.029 A 
ATOM     56  N   UNL A   1      43.178  34.659  31.885  1.00  0.00    -0.354 N 
ATOM     57  N   UNL A   1      45.447  35.036  30.065  1.00  0.00    -0.248 NA
ATOM     58  C   UNL A   1      47.134  36.391  29.189  1.00  0.00     0.031 C 
ATOM     59  C   UNL A   1      42.743  36.245  33.376  1.00  0.00     0.029 A 
ATOM     60  C   UNL A   1      43.601  35.894  32.346  1.00  0.00     0.049 A 
ATOM     61  H   UNL A   1      43.595  34.159  31.146  1.00  0.00     0.167 HD
ATOM     62  C   UNL A   1      45.500  36.224  30.788  1.00  0.00     0.074 A 
ATOM     63  C   UNL A   1      46.586  37.003  30.231  1.00  0.00     0.031 C 
ATOM     64  C   UNL A   1      44.716  36.637  31.816  1.00  0.00     0.034 A 
BRANCH  51  65
ATOM     65  C   UNL A   1      40.152  32.712  33.223  1.00  0.00     0.023 A 
ATOM     66  C   UNL A   1      40.284  31.996  34.431  1.00  0.00     0.012 A 
ATOM     67  C   UNL A   1      38.884  33.187  32.837  1.00  0.00     0.148 A 
ATOM     68  C   UNL A   1      39.167  31.726  35.222  1.00  0.00     0.002 A 
ATOM     69  C   UNL A   1      37.784  32.958  33.655  1.00  0.00     0.091 A 
ATOM     70  F   UNL A   1      38.774  33.847  31.675  1.00  0.00    -0.205 F 
ATOM     71  C   UNL A   1      37.921  32.216  34.840  1.00  0.00     0.022 A 
BRANCH  69  72
ATOM     72  S   UNL A   1      36.153  33.615  33.293  1.00  0.00     0.127 S 
ATOM     73  O   UNL A   1      35.389  33.171  34.458  1.00  0.00    -0.237 OA
ATOM     74  O   UNL A   1      36.407  35.055  33.243  1.00  0.00    -0.237 OA
ATOM     75  O   UNL A   1      35.752  33.024  32.024  1.00  0.00    -0.744 OA
ENDBRANCH  69  72
ENDBRANCH  51  65
BRANCH  52  76
ATOM     76  C   UNL A   1      47.973  34.382  27.226  1.00  0.00     0.023 A 
ATOM     77  C   UNL A   1      47.712  34.956  25.967  1.00  0.00     0.012 A 
ATOM     78  C   UNL A   1      49.303  34.089  27.585  1.00  0.00     0.148 A 
ATOM     79  C   UNL A   1      48.750  35.204  25.069  1.00  0.00     0.002 A 
ATOM     80  C   UNL A   1      50.338  34.390  26.708  1.00  0.00     0.091 A 
ATOM     81  F   UNL A   1      49.529  33.529  28.782  1.00  0.00    -0.205 F 
ATOM     82  C   UNL A   1      50.062  34.929  25.442  1.00  0.00     0.022 A 
BRANCH  80  83
ATOM     83  S   UNL A   1      52.068  34.181  27.144  1.00  0.00     0.127 S 
ATOM     84  O   UNL A   1      52.177  35.011  28.342  1.00  0.00    -0.237 OA
ATOM     85  O   UNL A   1      52.144  32.741  27.384  1.00  0.00    -0.237 OA
ATOM     86  O   UNL A   1      52.825  34.643  25.988  1.00  0.00    -0.744 OA
ENDBRANCH  80  83
ENDBRANCH  52  76
BRANCH  64  87
ATOM     87  C   UNL A   1      45.031  37.967  32.452  1.00  0.00     0.023 A 
ATOM     88  C   UNL A   1      45.955  38.047  33.512  1.00  0.00     0.012 A 
ATOM     89  C   UNL A   1      44.466  39.153  31.939  1.00  0.00     0.148 A 
ATOM     90  C   UNL A   1      46.283  39.280  34.076  1.00  0.00     0.002 A 
ATOM     91  C   UNL A   1      44.838  40.382  32.469  1.00  0.00     0.091 A 
ATOM     92  F   UNL A   1      43.578  39.057  30.938  1.00  0.00    -0.205 F 
ATOM     93  C   UNL A   1      45.736  40.447  33.547  1.00  0.00     0.022 A 
BRANCH  91  94
ATOM     94  S   UNL A   1      44.265  41.942  31.788  1.00  0.00     0.127 S 
ATOM     95  O   UNL A   1      42.830  41.874  32.057  1.00  0.00    -0.237 OA
ATOM     96  O   UNL A   1      44.992  42.919  32.599  1.00  0.00    -0.237 OA
ATOM     97  O   UNL A   1      44.634  41.929  30.380  1.00  0.00    -0.744 OA
ENDBRANCH  91  94
ENDBRANCH  64  87
ENDBRANCH  38  39
ENDBRANCH  31  33
ENDBRANCH  30  31
ENDBRANCH  29  30
ENDBRANCH  28  29
ENDBRANCH  27  28
ENDBRANCH  26  27
ENDBRANCH   1  26
TORSDOF 24
ENDMDL
MODEL 3
REMARK VINA RESULT:      -8.8      2.182      7.722
REMARK SMILES CCOc1cccc(-c2ccc([C@@H](C)C(=O)OCCOCCOCCOC(=O)c3ccc(-c4c5nc(c(-c6cccc(S(=O)(=O)[O-])c6F)c6ccc([nH]6)c(-c6cccc(S(=O)(=O)[O-])c6F)c6nc(c(-c7cccc(S(=O)(=O)[O-])c7F)c7ccc4[nH]7)C=C6)C=C5)cc3)cc2F)c1
REMARK SMILES IDX 21 1 20 2 19 3 18 4 17 5 15 6 16 7 13 8 14 9 12 10 9 11
REMARK SMILES IDX 10 12 93 13 11 14 92 15 94 16 8 17 4 18 5 19 95 20 6 21 7 22
REMARK SMILES IDX 3 23 2 24 1 25 22 26 23 27 24 28 25 29 26 30 27 31 28 32
REMARK SMILES IDX 29 33 30 34 91 35 31 36 90 37 32 38 33 39 34 40 84 41 35 42
REMARK SMILES IDX 89 43 83 44 85 45 36 46 88 47 82 48 81 49 37 51 69 52 49 53
REMARK SMILES IDX 68 54 50 55 53 56 67 57 86 58 51 59 52 60 66 62 87 63 54 64
REMARK SMILES IDX 38 65 39 66 47 67 40 68 42 69 48 70 41 71 43 72 44 73 45 74
REMARK SMILES IDX 46 75 70 76 71 77 79 78 72 79 74 80 80 81 73 82 75 83 76 84
REMARK SMILES IDX 77 85 78 86 55 87 56 88 64 89 57 90 59 91 65 92 58 93 60 94
REMARK SMILES IDX 61 95 62 96 63 97
REMARK H PARENT 85 50 53 61
REMARK Flexibility Score: inf
ROOT
ATOM      1  C   UNL A   1      44.205  19.267  24.663  1.00  0.00     0.188 C 
ENDROOT
BRANCH   1   2
ATOM      2  O   UNL A   1      42.882  18.981  25.098  1.00  0.00    -0.376 OA
BRANCH   2   3
ATOM      3  C   UNL A   1      42.636  18.789  26.486  1.00  0.00     0.202 C 
BRANCH   3   4
ATOM      4  C   UNL A   1      41.662  19.739  27.209  1.00  0.00     0.261 C 
BRANCH   4   5
ATOM      5  O   UNL A   1      41.420  21.007  26.552  1.00  0.00    -0.463 OA
BRANCH   5   6
ATOM      6  C   UNL A   1      41.101  22.053  27.356  1.00  0.00     0.313 C 
ATOM      7  O   UNL A   1      41.529  22.168  28.504  1.00  0.00    -0.252 OA
BRANCH   6   8
ATOM      8  C   UNL A   1      40.187  23.129  26.754  1.00  0.00     0.126 C 
ATOM      9  C   UNL A   1      40.043  24.258  27.774  1.00  0.00     0.025 C 
BRANCH   8  10
ATOM     10  C   UNL A   1      38.819  22.790  26.161  1.00  0.00    -0.031 A 
ATOM     11  C   UNL A   1      36.221  22.289  25.028  1.00  0.00     0.018 A 
ATOM     12  C   UNL A   1      37.216  21.293  25.081  1.00  0.00     0.012 A 
ATOM     13  C   UNL A   1      36.557  23.533  25.572  1.00  0.00     0.131 A 
ATOM     14  C   UNL A   1      38.488  21.532  25.642  1.00  0.00     0.005 A 
ATOM     15  C   UNL A   1      37.817  23.781  26.135  1.00  0.00     0.044 A 
ATOM     16  F   UNL A   1      35.663  24.535  25.573  1.00  0.00    -0.206 F 
BRANCH  11  17
ATOM     17  C   UNL A   1      34.892  22.013  24.435  1.00  0.00    -0.012 A 
ATOM     18  C   UNL A   1      32.993  20.527  24.017  1.00  0.00     0.119 A 
ATOM     19  C   UNL A   1      32.347  21.523  23.293  1.00  0.00     0.046 A 
ATOM     20  C   UNL A   1      34.261  20.760  24.566  1.00  0.00     0.055 A 
ATOM     21  C   UNL A   1      32.958  22.763  23.132  1.00  0.00     0.004 A 
ATOM     22  C   UNL A   1      34.216  23.004  23.699  1.00  0.00     0.009 A 
BRANCH  18  23
ATOM     23  O   UNL A   1      32.418  19.285  24.027  1.00  0.00    -0.494 OA
BRANCH  23  24
ATOM     24  C   UNL A   1      33.243  18.265  24.599  1.00  0.00     0.226 C 
ATOM     25  C   UNL A   1      33.757  17.321  23.535  1.00  0.00     0.049 C 
ENDBRANCH  23  24
ENDBRANCH  18  23
ENDBRANCH  11  17
ENDBRANCH   8  10
ENDBRANCH   6   8
ENDBRANCH   5   6
ENDBRANCH   4   5
ENDBRANCH   3   4
ENDBRANCH   2   3
ENDBRANCH   1   2
BRANCH   1  26
ATOM     26  C   UNL A   1      44.783  20.662  24.944  1.00  0.00     0.188 C 
BRANCH  26  27
ATOM     27  O   UNL A   1      43.933  21.734  24.605  1.00  0.00    -0.376 OA
BRANCH  27  28
ATOM     28  C   UNL A   1      44.517  22.855  23.975  1.00  0.00     0.202 C 
BRANCH  28  29
ATOM     29  C   UNL A   1      45.385  23.812  24.814  1.00  0.00     0.261 C 
BRANCH  29  30
ATOM     30  O   UNL A   1      44.740  24.521  25.887  1.00  0.00    -0.460 OA
BRANCH  30  31
ATOM     31  C   UNL A   1      43.695  25.304  25.546  1.00  0.00     0.338 C 
ATOM     32  O   UNL A   1      42.820  25.023  24.739  1.00  0.00    -0.246 OA
BRANCH  31  33
ATOM     33  C   UNL A   1      43.617  26.459  26.457  1.00  0.00     0.060 A 
ATOM     34  C   UNL A   1      43.348  27.732  25.928  1.00  0.00     0.016 A 
ATOM     35  C   UNL A   1      43.833  26.288  27.823  1.00  0.00     0.016 A 
ATOM     36  C   UNL A   1      43.303  28.843  26.769  1.00  0.00     0.010 A 
ATOM     37  C   UNL A   1      43.813  27.406  28.658  1.00  0.00     0.010 A 
ATOM     38  C   UNL A   1      43.571  28.689  28.133  1.00  0.00    -0.014 A 
BRANCH  38  39
ATOM     39  C   UNL A   1      43.761  29.877  28.998  1.00  0.00     0.031 A 
ATOM     40  C   UNL A   1      42.595  30.366  29.812  1.00  0.00     0.074 A 
ATOM     41  C   UNL A   1      44.934  30.535  29.026  1.00  0.00     0.049 A 
ATOM     42  N   UNL A   1      42.488  31.443  30.542  1.00  0.00    -0.248 NA
ATOM     43  C   UNL A   1      41.384  29.527  29.789  1.00  0.00     0.031 C 
ATOM     44  C   UNL A   1      46.138  30.148  28.295  1.00  0.00     0.029 A 
ATOM     45  N   UNL A   1      45.286  31.694  29.672  1.00  0.00    -0.354 N 
ATOM     46  C   UNL A   1      41.189  31.435  31.034  1.00  0.00     0.074 A 
ATOM     47  C   UNL A   1      40.544  30.250  30.514  1.00  0.00     0.031 C 
ATOM     48  C   UNL A   1      47.089  31.075  28.503  1.00  0.00     0.029 A 
ATOM     49  C   UNL A   1      46.546  32.137  29.349  1.00  0.00     0.049 A 
ATOM     50  H   UNL A   1      44.694  32.162  30.304  1.00  0.00     0.167 HD
ATOM     51  C   UNL A   1      40.588  32.333  31.851  1.00  0.00     0.034 A 
ATOM     52  C   UNL A   1      47.175  33.286  29.671  1.00  0.00     0.034 A 
ATOM     53  C   UNL A   1      41.237  33.506  32.372  1.00  0.00     0.049 A 
ATOM     54  C   UNL A   1      46.470  34.290  30.547  1.00  0.00     0.074 A 
ATOM     55  C   UNL A   1      40.729  34.454  33.242  1.00  0.00     0.029 A 
ATOM     56  N   UNL A   1      42.528  33.901  32.058  1.00  0.00    -0.354 N 
ATOM     57  N   UNL A   1      45.277  34.224  31.088  1.00  0.00    -0.248 NA
ATOM     58  C   UNL A   1      47.211  35.515  30.882  1.00  0.00     0.031 C 
ATOM     59  C   UNL A   1      41.698  35.445  33.421  1.00  0.00     0.029 A 
ATOM     60  C   UNL A   1      42.829  35.089  32.702  1.00  0.00     0.049 A 
ATOM     61  H   UNL A   1      43.140  33.410  31.464  1.00  0.00     0.167 HD
ATOM     62  C   UNL A   1      45.142  35.375  31.859  1.00  0.00     0.074 A 
ATOM     63  C   UNL A   1      46.380  36.113  31.727  1.00  0.00     0.031 C 
ATOM     64  C   UNL A   1      44.085  35.788  32.603  1.00  0.00     0.034 A 
BRANCH  51  65
ATOM     65  C   UNL A   1      39.154  32.077  32.235  1.00  0.00     0.023 A 
ATOM     66  C   UNL A   1      38.857  31.221  33.316  1.00  0.00     0.012 A 
ATOM     67  C   UNL A   1      38.103  32.721  31.555  1.00  0.00     0.148 A 
ATOM     68  C   UNL A   1      37.535  30.981  33.688  1.00  0.00     0.002 A 
ATOM     69  C   UNL A   1      36.791  32.517  31.964  1.00  0.00     0.091 A 
ATOM     70  F   UNL A   1      38.404  33.515  30.516  1.00  0.00    -0.205 F 
ATOM     71  C   UNL A   1      36.504  31.637  33.020  1.00  0.00     0.022 A 
BRANCH  69  72
ATOM     72  S   UNL A   1      35.399  33.375  31.222  1.00  0.00     0.127 S 
ATOM     73  O   UNL A   1      35.442  34.663  31.914  1.00  0.00    -0.237 OA
ATOM     74  O   UNL A   1      35.788  33.428  29.813  1.00  0.00    -0.237 OA
ATOM     75  O   UNL A   1      34.226  32.559  31.499  1.00  0.00    -0.744 OA
ENDBRANCH  69  72
ENDBRANCH  51  65
BRANCH  52  76
ATOM     76  C   UNL A   1      48.557  33.546  29.178  1.00  0.00     0.023 A 
ATOM     77  C   UNL A   1      49.658  33.067  29.913  1.00  0.00     0.012 A 
ATOM     78  C   UNL A   1      48.787  34.265  27.988  1.00  0.00     0.148 A 
ATOM     79  C   UNL A   1      50.962  33.325  29.492  1.00  0.00     0.002 A 
ATOM     80  C   UNL A   1      50.087  34.471  27.544  1.00  0.00     0.091 A 
ATOM     81  F   UNL A   1      47.725  34.725  27.311  1.00  0.00    -0.205 F 
ATOM     82  C   UNL A   1      51.177  34.019  28.305  1.00  0.00     0.022 A 
BRANCH  80  83
ATOM     83  S   UNL A   1      50.461  35.250  25.970  1.00  0.00     0.127 S 
ATOM     84  O   UNL A   1      49.984  36.614  26.190  1.00  0.00    -0.237 OA
ATOM     85  O   UNL A   1      51.915  35.108  25.904  1.00  0.00    -0.237 OA
ATOM     86  O   UNL A   1      49.732  34.483  24.967  1.00  0.00    -0.744 OA
ENDBRANCH  80  83
ENDBRANCH  52  76
BRANCH  64  87
ATOM     87  C   UNL A   1      44.231  37.070  33.384  1.00  0.00     0.023 A 
ATOM     88  C   UNL A   1      43.844  38.298  32.814  1.00  0.00     0.012 A 
ATOM     89  C   UNL A   1      44.681  37.041  34.721  1.00  0.00     0.148 A 
ATOM     90  C   UNL A   1      43.936  39.481  33.546  1.00  0.00     0.002 A 
ATOM     91  C   UNL A   1      44.719  38.216  35.462  1.00  0.00     0.091 A 
ATOM     92  F   UNL A   1      45.059  35.865  35.243  1.00  0.00    -0.205 F 
ATOM     93  C   UNL A   1      44.361  39.439  34.873  1.00  0.00     0.022 A 
BRANCH  91  94
ATOM     94  S   UNL A   1      45.155  38.244  37.204  1.00  0.00     0.127 S 
ATOM     95  O   UNL A   1      44.735  39.589  37.594  1.00  0.00    -0.237 OA
ATOM     96  O   UNL A   1      44.329  37.166  37.748  1.00  0.00    -0.237 OA
ATOM     97  O   UNL A   1      46.589  37.999  37.267  1.00  0.00    -0.744 OA
ENDBRANCH  91  94
ENDBRANCH  64  87
ENDBRANCH  38  39
ENDBRANCH  31  33
ENDBRANCH  30  31
ENDBRANCH  29  30
ENDBRANCH  28  29
ENDBRANCH  27  28
ENDBRANCH  26  27
ENDBRANCH   1  26
TORSDOF 24
ENDMDL
