MODEL 1
REMARK VINA RESULT:     -10.8      0.000      0.000
REMARK SMILES COc1cccc(N2C(=O)/C(=C/c3ccccc3C(=O)OCCOCCOCCOC(=O)c3ccc(-c4c5nc(c(-c6cccc(S(=O)(=O)[O-])c6F)c6ccc([nH]6)c(-c6cccc(S(=O)(=O)[O-])c6F)c6nc(c(-c7cccc(S(=O)(=O)[O-])c7F)c7ccc4[nH]7)C=C6)C=C5)cc3)SC2=S)c1
REMARK SMILES IDX 25 1 24 2 23 3 22 4 21 5 19 6 20 7 18 8 13 9 14 10 15 11
REMARK SMILES IDX 17 12 16 13 12 14 8 15 9 16 97 17 10 18 11 19 96 20 98 21
REMARK SMILES IDX 7 22 3 23 4 24 99 25 5 26 6 27 2 28 1 29 26 30 27 31 28 32
REMARK SMILES IDX 29 33 30 34 31 35 32 36 33 37 34 38 95 39 35 40 94 41 36 42
REMARK SMILES IDX 37 43 38 44 88 45 39 46 93 47 87 48 89 49 40 50 92 51 86 52
REMARK SMILES IDX 85 53 41 55 73 56 53 57 72 58 54 59 57 60 71 61 90 62 55 63
REMARK SMILES IDX 56 64 70 66 91 67 58 68 42 69 43 70 51 71 44 72 46 73 52 74
REMARK SMILES IDX 45 75 47 76 48 77 49 78 50 79 74 80 75 81 83 82 76 83 78 84
REMARK SMILES IDX 84 85 77 86 79 87 80 88 81 89 82 90 59 91 60 92 68 93 61 94
REMARK SMILES IDX 63 95 69 96 62 97 64 98 65 99 66 100 67 101
REMARK H PARENT 89 54 57 65
REMARK Flexibility Score: inf
ROOT
ATOM      1  C   UNL A   1      36.616  22.423  25.689  1.00  0.00     0.188 C 
ENDROOT
BRANCH   1   2
ATOM      2  O   UNL A   1      35.649  22.960  24.803  1.00  0.00    -0.376 OA
BRANCH   2   3
ATOM      3  C   UNL A   1      34.810  24.015  25.256  1.00  0.00     0.202 C 
BRANCH   3   4
ATOM      4  C   UNL A   1      34.202  23.910  26.652  1.00  0.00     0.261 C 
BRANCH   4   5
ATOM      5  O   UNL A   1      33.601  22.620  26.844  1.00  0.00    -0.460 OA
BRANCH   5   6
ATOM      6  C   UNL A   1      32.316  22.503  26.428  1.00  0.00     0.338 C 
ATOM      7  O   UNL A   1      31.331  22.911  27.022  1.00  0.00    -0.246 OA
BRANCH   6   8
ATOM      8  C   UNL A   1      32.243  21.902  25.069  1.00  0.00     0.067 A 
ATOM      9  C   UNL A   1      31.590  22.483  23.958  1.00  0.00    -0.010 A 
ATOM     10  C   UNL A   1      31.592  21.787  22.737  1.00  0.00     0.009 A 
ATOM     11  C   UNL A   1      32.220  20.544  22.620  1.00  0.00     0.001 A 
ATOM     12  C   UNL A   1      32.866  20.650  24.939  1.00  0.00     0.016 A 
ATOM     13  C   UNL A   1      32.848  19.971  23.722  1.00  0.00     0.001 A 
BRANCH   9  14
ATOM     14  C   UNL A   1      30.803  23.727  24.012  1.00  0.00     0.030 C 
ATOM     15  N   UNL A   1      31.209  27.252  23.496  1.00  0.00    -0.261 N 
ATOM     16  C   UNL A   1      30.419  26.155  23.830  1.00  0.00     0.270 C 
ATOM     17  C   UNL A   1      32.427  26.965  22.893  1.00  0.00     0.152 C 
ATOM     18  O   UNL A   1      29.293  26.156  24.313  1.00  0.00    -0.268 OA
ATOM     19  C   UNL A   1      31.139  24.905  23.471  1.00  0.00     0.081 C 
ATOM     20  S   UNL A   1      32.480  25.261  22.465  1.00  0.00    -0.054 SA
ATOM     21  S   UNL A   1      33.758  27.951  22.646  1.00  0.00    -0.051 S 
BRANCH  15  22
ATOM     22  C   UNL A   1      30.729  28.574  23.733  1.00  0.00     0.054 A 
ATOM     23  C   UNL A   1      29.157  30.348  23.192  1.00  0.00     0.120 A 
ATOM     24  C   UNL A   1      29.720  31.149  24.181  1.00  0.00     0.046 A 
ATOM     25  C   UNL A   1      29.683  29.080  22.951  1.00  0.00     0.073 A 
ATOM     26  C   UNL A   1      30.754  30.655  24.978  1.00  0.00     0.006 A 
ATOM     27  C   UNL A   1      31.240  29.362  24.773  1.00  0.00     0.027 A 
BRANCH  23  28
ATOM     28  O   UNL A   1      28.107  30.886  22.498  1.00  0.00    -0.497 OA
ATOM     29  C   UNL A   1      28.258  30.845  21.080  1.00  0.00     0.278 C 
ENDBRANCH  23  28
ENDBRANCH  15  22
ENDBRANCH   9  14
ENDBRANCH   6   8
ENDBRANCH   5   6
ENDBRANCH   4   5
ENDBRANCH   3   4
ENDBRANCH   2   3
ENDBRANCH   1   2
BRANCH   1  30
ATOM     30  C   UNL A   1      37.816  21.639  25.117  1.00  0.00     0.188 C 
BRANCH  30  31
ATOM     31  O   UNL A   1      37.690  20.298  24.688  1.00  0.00    -0.376 OA
BRANCH  31  32
ATOM     32  C   UNL A   1      38.556  19.296  25.199  1.00  0.00     0.202 C 
BRANCH  32  33
ATOM     33  C   UNL A   1      39.757  19.624  26.094  1.00  0.00     0.261 C 
BRANCH  33  34
ATOM     34  O   UNL A   1      41.040  19.329  25.538  1.00  0.00    -0.460 OA
BRANCH  34  35
ATOM     35  C   UNL A   1      42.091  19.596  26.354  1.00  0.00     0.338 C 
ATOM     36  O   UNL A   1      42.994  18.838  26.668  1.00  0.00    -0.246 OA
BRANCH  35  37
ATOM     37  C   UNL A   1      42.102  21.035  26.671  1.00  0.00     0.060 A 
ATOM     38  C   UNL A   1      41.958  21.945  25.614  1.00  0.00     0.016 A 
ATOM     39  C   UNL A   1      42.274  21.484  27.981  1.00  0.00     0.016 A 
ATOM     40  C   UNL A   1      42.020  23.314  25.863  1.00  0.00     0.010 A 
ATOM     41  C   UNL A   1      42.356  22.857  28.225  1.00  0.00     0.010 A 
ATOM     42  C   UNL A   1      42.259  23.774  27.163  1.00  0.00    -0.014 A 
BRANCH  42  43
ATOM     43  C   UNL A   1      42.581  25.201  27.391  1.00  0.00     0.031 A 
ATOM     44  C   UNL A   1      43.911  25.721  26.918  1.00  0.00     0.074 A 
ATOM     45  C   UNL A   1      41.719  26.015  28.025  1.00  0.00     0.049 A 
ATOM     46  N   UNL A   1      44.418  26.919  27.032  1.00  0.00    -0.248 NA
ATOM     47  C   UNL A   1      44.784  24.758  26.224  1.00  0.00     0.031 C 
ATOM     48  C   UNL A   1      40.406  25.626  28.534  1.00  0.00     0.029 A 
ATOM     49  N   UNL A   1      41.840  27.337  28.374  1.00  0.00    -0.354 N 
ATOM     50  C   UNL A   1      45.677  26.851  26.447  1.00  0.00     0.074 A 
ATOM     51  C   UNL A   1      45.860  25.492  25.987  1.00  0.00     0.031 C 
ATOM     52  C   UNL A   1      39.854  26.679  29.163  1.00  0.00     0.029 A 
ATOM     53  C   UNL A   1      40.783  27.808  29.115  1.00  0.00     0.049 A 
ATOM     54  H   UNL A   1      42.611  27.894  28.118  1.00  0.00     0.167 HD
ATOM     55  C   UNL A   1      46.593  27.835  26.292  1.00  0.00     0.034 A 
ATOM     56  C   UNL A   1      40.599  29.007  29.703  1.00  0.00     0.034 A 
ATOM     57  C   UNL A   1      46.408  29.187  26.741  1.00  0.00     0.049 A 
ATOM     58  C   UNL A   1      41.647  30.079  29.539  1.00  0.00     0.074 A 
ATOM     59  C   UNL A   1      47.259  30.267  26.589  1.00  0.00     0.029 A 
ATOM     60  N   UNL A   1      45.304  29.643  27.444  1.00  0.00    -0.354 N 
ATOM     61  N   UNL A   1      42.769  30.041  28.862  1.00  0.00    -0.248 NA
ATOM     62  C   UNL A   1      41.387  31.370  30.194  1.00  0.00     0.031 C 
ATOM     63  C   UNL A   1      46.676  31.373  27.218  1.00  0.00     0.029 A 
ATOM     64  C   UNL A   1      45.454  30.985  27.744  1.00  0.00     0.049 A 
ATOM     65  H   UNL A   1      44.526  29.092  27.693  1.00  0.00     0.167 HD
ATOM     66  C   UNL A   1      43.331  31.309  28.980  1.00  0.00     0.074 A 
ATOM     67  C   UNL A   1      42.415  32.098  29.778  1.00  0.00     0.031 C 
ATOM     68  C   UNL A   1      44.506  31.774  28.487  1.00  0.00     0.034 A 
BRANCH  55  69
ATOM     69  C   UNL A   1      47.868  27.489  25.576  1.00  0.00     0.023 A 
ATOM     70  C   UNL A   1      48.935  26.919  26.300  1.00  0.00     0.012 A 
ATOM     71  C   UNL A   1      47.997  27.682  24.188  1.00  0.00     0.148 A 
ATOM     72  C   UNL A   1      50.122  26.571  25.657  1.00  0.00     0.002 A 
ATOM     73  C   UNL A   1      49.169  27.297  23.547  1.00  0.00     0.091 A 
ATOM     74  F   UNL A   1      46.981  28.251  23.524  1.00  0.00    -0.205 F 
ATOM     75  C   UNL A   1      50.235  26.751  24.281  1.00  0.00     0.022 A 
BRANCH  73  76
ATOM     76  S   UNL A   1      49.382  27.424  21.768  1.00  0.00     0.127 S 
ATOM     77  O   UNL A   1      49.755  28.831  21.617  1.00  0.00    -0.237 OA
ATOM     78  O   UNL A   1      50.468  26.476  21.518  1.00  0.00    -0.237 OA
ATOM     79  O   UNL A   1      48.103  27.048  21.185  1.00  0.00    -0.744 OA
ENDBRANCH  73  76
ENDBRANCH  55  69
BRANCH  56  80
ATOM     80  C   UNL A   1      39.352  29.277  30.471  1.00  0.00     0.023 A 
ATOM     81  C   UNL A   1      39.155  28.650  31.717  1.00  0.00     0.012 A 
ATOM     82  C   UNL A   1      38.365  30.153  29.980  1.00  0.00     0.148 A 
ATOM     83  C   UNL A   1      37.987  28.869  32.447  1.00  0.00     0.002 A 
ATOM     84  C   UNL A   1      37.225  30.405  30.736  1.00  0.00     0.091 A 
ATOM     85  F   UNL A   1      38.559  30.723  28.781  1.00  0.00    -0.205 F 
ATOM     86  C   UNL A   1      37.027  29.753  31.962  1.00  0.00     0.022 A 
BRANCH  84  87
ATOM     87  S   UNL A   1      35.992  31.615  30.240  1.00  0.00     0.127 S 
ATOM     88  O   UNL A   1      35.218  31.773  31.468  1.00  0.00    -0.237 OA
ATOM     89  O   UNL A   1      36.824  32.765  29.883  1.00  0.00    -0.237 OA
ATOM     90  O   UNL A   1      35.286  31.015  29.116  1.00  0.00    -0.744 OA
ENDBRANCH  84  87
ENDBRANCH  56  80
BRANCH  68  91
ATOM     91  C   UNL A   1      44.865  33.212  28.761  1.00  0.00     0.023 A 
ATOM     92  C   UNL A   1      44.376  34.226  27.915  1.00  0.00     0.012 A 
ATOM     93  C   UNL A   1      45.608  33.563  29.905  1.00  0.00     0.148 A 
ATOM     94  C   UNL A   1      44.645  35.568  28.188  1.00  0.00     0.002 A 
ATOM     95  C   UNL A   1      45.833  34.904  30.196  1.00  0.00     0.091 A 
ATOM     96  F   UNL A   1      46.080  32.582  30.689  1.00  0.00    -0.205 F 
ATOM     97  C   UNL A   1      45.361  35.906  29.335  1.00  0.00     0.022 A 
BRANCH  95  98
ATOM     98  S   UNL A   1      46.663  35.433  31.701  1.00  0.00     0.127 S 
ATOM     99  O   UNL A   1      47.112  36.775  31.338  1.00  0.00    -0.237 OA
ATOM    100  O   UNL A   1      45.579  35.398  32.684  1.00  0.00    -0.237 OA
ATOM    101  O   UNL A   1      47.719  34.458  31.936  1.00  0.00    -0.744 OA
ENDBRANCH  95  98
ENDBRANCH  68  91
ENDBRANCH  42  43
ENDBRANCH  35  37
ENDBRANCH  34  35
ENDBRANCH  33  34
ENDBRANCH  32  33
ENDBRANCH  31  32
ENDBRANCH  30  31
ENDBRANCH   1  30
TORSDOF 23
ENDMDL
MODEL 2
REMARK VINA RESULT:     -10.4      1.745      2.040
REMARK SMILES COc1cccc(N2C(=O)/C(=C/c3ccccc3C(=O)OCCOCCOCCOC(=O)c3ccc(-c4c5nc(c(-c6cccc(S(=O)(=O)[O-])c6F)c6ccc([nH]6)c(-c6cccc(S(=O)(=O)[O-])c6F)c6nc(c(-c7cccc(S(=O)(=O)[O-])c7F)c7ccc4[nH]7)C=C6)C=C5)cc3)SC2=S)c1
REMARK SMILES IDX 25 1 24 2 23 3 22 4 21 5 19 6 20 7 18 8 13 9 14 10 15 11
REMARK SMILES IDX 17 12 16 13 12 14 8 15 9 16 97 17 10 18 11 19 96 20 98 21
REMARK SMILES IDX 7 22 3 23 4 24 99 25 5 26 6 27 2 28 1 29 26 30 27 31 28 32
REMARK SMILES IDX 29 33 30 34 31 35 32 36 33 37 34 38 95 39 35 40 94 41 36 42
REMARK SMILES IDX 37 43 38 44 88 45 39 46 93 47 87 48 89 49 40 50 92 51 86 52
REMARK SMILES IDX 85 53 41 55 73 56 53 57 72 58 54 59 57 60 71 61 90 62 55 63
REMARK SMILES IDX 56 64 70 66 91 67 58 68 42 69 43 70 51 71 44 72 46 73 52 74
REMARK SMILES IDX 45 75 47 76 48 77 49 78 50 79 74 80 75 81 83 82 76 83 78 84
REMARK SMILES IDX 84 85 77 86 79 87 80 88 81 89 82 90 59 91 60 92 68 93 61 94
REMARK SMILES IDX 63 95 69 96 62 97 64 98 65 99 66 100 67 101
REMARK H PARENT 89 54 57 65
REMARK Flexibility Score: inf
ROOT
ATOM      1  C   UNL A   1      36.588  23.117  25.637  1.00  0.00     0.188 C 
ENDROOT
BRANCH   1   2
ATOM      2  O   UNL A   1      36.103  23.920  24.575  1.00  0.00    -0.376 OA
BRANCH   2   3
ATOM      3  C   UNL A   1      34.837  24.553  24.712  1.00  0.00     0.202 C 
BRANCH   3   4
ATOM      4  C   UNL A   1      34.284  24.773  26.118  1.00  0.00     0.261 C 
BRANCH   4   5
ATOM      5  O   UNL A   1      33.878  23.524  26.700  1.00  0.00    -0.460 OA
BRANCH   5   6
ATOM      6  C   UNL A   1      32.588  23.167  26.485  1.00  0.00     0.338 C 
ATOM      7  O   UNL A   1      31.622  23.560  27.118  1.00  0.00    -0.246 OA
BRANCH   6   8
ATOM      8  C   UNL A   1      32.463  22.303  25.280  1.00  0.00     0.067 A 
ATOM      9  C   UNL A   1      31.701  22.616  24.131  1.00  0.00    -0.010 A 
ATOM     10  C   UNL A   1      31.665  21.691  23.075  1.00  0.00     0.009 A 
ATOM     11  C   UNL A   1      32.361  20.481  23.157  1.00  0.00     0.001 A 
ATOM     12  C   UNL A   1      33.153  21.082  25.351  1.00  0.00     0.016 A 
ATOM     13  C   UNL A   1      33.096  20.172  24.297  1.00  0.00     0.001 A 
BRANCH   9  14
ATOM     14  C   UNL A   1      30.843  23.806  24.001  1.00  0.00     0.030 C 
ATOM     15  N   UNL A   1      31.076  27.270  23.105  1.00  0.00    -0.261 N 
ATOM     16  C   UNL A   1      30.331  26.169  23.521  1.00  0.00     0.270 C 
ATOM     17  C   UNL A   1      32.342  26.995  22.602  1.00  0.00     0.152 C 
ATOM     18  O   UNL A   1      29.181  26.153  23.942  1.00  0.00    -0.268 OA
ATOM     19  C   UNL A   1      31.142  24.935  23.346  1.00  0.00     0.081 C 
ATOM     20  S   UNL A   1      32.517  25.261  22.377  1.00  0.00    -0.054 SA
ATOM     21  S   UNL A   1      33.626  28.030  22.314  1.00  0.00    -0.051 S 
BRANCH  15  22
ATOM     22  C   UNL A   1      30.508  28.576  23.162  1.00  0.00     0.054 A 
ATOM     23  C   UNL A   1      29.092  30.280  22.159  1.00  0.00     0.120 A 
ATOM     24  C   UNL A   1      29.334  31.120  23.242  1.00  0.00     0.046 A 
ATOM     25  C   UNL A   1      29.704  29.028  22.108  1.00  0.00     0.073 A 
ATOM     26  C   UNL A   1      30.121  30.679  24.307  1.00  0.00     0.006 A 
ATOM     27  C   UNL A   1      30.686  29.402  24.281  1.00  0.00     0.027 A 
BRANCH  23  28
ATOM     28  O   UNL A   1      28.260  30.765  21.186  1.00  0.00    -0.497 OA
ATOM     29  C   UNL A   1      28.079  32.180  21.221  1.00  0.00     0.278 C 
ENDBRANCH  23  28
ENDBRANCH  15  22
ENDBRANCH   9  14
ENDBRANCH   6   8
ENDBRANCH   5   6
ENDBRANCH   4   5
ENDBRANCH   3   4
ENDBRANCH   2   3
ENDBRANCH   1   2
BRANCH   1  30
ATOM     30  C   UNL A   1      37.783  22.173  25.390  1.00  0.00     0.188 C 
BRANCH  30  31
ATOM     31  O   UNL A   1      37.613  20.894  24.813  1.00  0.00    -0.376 OA
BRANCH  31  32
ATOM     32  C   UNL A   1      38.412  19.802  25.239  1.00  0.00     0.202 C 
BRANCH  32  33
ATOM     33  C   UNL A   1      39.692  19.989  26.063  1.00  0.00     0.261 C 
BRANCH  33  34
ATOM     34  O   UNL A   1      40.873  19.404  25.512  1.00  0.00    -0.460 OA
BRANCH  34  35
ATOM     35  C   UNL A   1      41.934  19.354  26.357  1.00  0.00     0.338 C 
ATOM     36  O   UNL A   1      42.503  18.356  26.769  1.00  0.00    -0.246 OA
BRANCH  35  37
ATOM     37  C   UNL A   1      42.447  20.719  26.569  1.00  0.00     0.060 A 
ATOM     38  C   UNL A   1      42.575  21.179  27.887  1.00  0.00     0.016 A 
ATOM     39  C   UNL A   1      42.772  21.542  25.490  1.00  0.00     0.016 A 
ATOM     40  C   UNL A   1      43.002  22.483  28.129  1.00  0.00     0.010 A 
ATOM     41  C   UNL A   1      43.180  22.855  25.735  1.00  0.00     0.010 A 
ATOM     42  C   UNL A   1      43.267  23.338  27.053  1.00  0.00    -0.014 A 
BRANCH  42  43
ATOM     43  C   UNL A   1      43.468  24.785  27.296  1.00  0.00     0.031 A 
ATOM     44  C   UNL A   1      44.826  25.374  27.033  1.00  0.00     0.074 A 
ATOM     45  C   UNL A   1      42.470  25.555  27.761  1.00  0.00     0.049 A 
ATOM     46  N   UNL A   1      45.241  26.601  27.200  1.00  0.00    -0.248 NA
ATOM     47  C   UNL A   1      45.853  24.454  26.514  1.00  0.00     0.031 C 
ATOM     48  C   UNL A   1      41.115  25.097  28.059  1.00  0.00     0.029 A 
ATOM     49  N   UNL A   1      42.458  26.887  28.094  1.00  0.00    -0.354 N 
ATOM     50  C   UNL A   1      46.580  26.599  26.830  1.00  0.00     0.074 A 
ATOM     51  C   UNL A   1      46.911  25.247  26.438  1.00  0.00     0.031 C 
ATOM     52  C   UNL A   1      40.409  26.126  28.564  1.00  0.00     0.029 A 
ATOM     53  C   UNL A   1      41.270  27.306  28.641  1.00  0.00     0.049 A 
ATOM     54  H   UNL A   1      43.229  27.485  27.953  1.00  0.00     0.167 HD
ATOM     55  C   UNL A   1      47.452  27.633  26.802  1.00  0.00     0.034 A 
ATOM     56  C   UNL A   1      40.925  28.500  29.162  1.00  0.00     0.034 A 
ATOM     57  C   UNL A   1      47.122  28.979  27.182  1.00  0.00     0.049 A 
ATOM     58  C   UNL A   1      41.925  29.630  29.145  1.00  0.00     0.074 A 
ATOM     59  C   UNL A   1      47.925  30.105  27.145  1.00  0.00     0.029 A 
ATOM     60  N   UNL A   1      45.894  29.379  27.685  1.00  0.00    -0.354 N 
ATOM     61  N   UNL A   1      43.143  29.648  28.661  1.00  0.00    -0.248 NA
ATOM     62  C   UNL A   1      41.489  30.913  29.718  1.00  0.00     0.031 C 
ATOM     63  C   UNL A   1      47.186  31.183  27.643  1.00  0.00     0.029 A 
ATOM     64  C   UNL A   1      45.918  30.731  27.973  1.00  0.00     0.049 A 
ATOM     65  H   UNL A   1      45.118  28.786  27.817  1.00  0.00     0.167 HD
ATOM     66  C   UNL A   1      43.606  30.949  28.839  1.00  0.00     0.074 A 
ATOM     67  C   UNL A   1      42.530  31.694  29.458  1.00  0.00     0.031 C 
ATOM     68  C   UNL A   1      44.819  31.475  28.532  1.00  0.00     0.034 A 
BRANCH  55  69
ATOM     69  C   UNL A   1      48.845  27.352  26.311  1.00  0.00     0.023 A 
ATOM     70  C   UNL A   1      49.088  27.281  24.924  1.00  0.00     0.012 A 
ATOM     71  C   UNL A   1      49.916  27.203  27.211  1.00  0.00     0.148 A 
ATOM     72  C   UNL A   1      50.374  27.040  24.441  1.00  0.00     0.002 A 
ATOM     73  C   UNL A   1      51.202  27.001  26.721  1.00  0.00     0.091 A 
ATOM     74  F   UNL A   1      49.658  27.245  28.526  1.00  0.00    -0.205 F 
ATOM     75  C   UNL A   1      51.430  26.911  25.338  1.00  0.00     0.022 A 
BRANCH  73  76
ATOM     76  S   UNL A   1      52.637  26.891  27.796  1.00  0.00     0.127 S 
ATOM     77  O   UNL A   1      53.648  26.360  26.882  1.00  0.00    -0.237 OA
ATOM     78  O   UNL A   1      52.840  28.288  28.183  1.00  0.00    -0.237 OA
ATOM     79  O   UNL A   1      52.252  26.010  28.888  1.00  0.00    -0.744 OA
ENDBRANCH  73  76
ENDBRANCH  55  69
BRANCH  56  80
ATOM     80  C   UNL A   1      39.556  28.708  29.710  1.00  0.00     0.023 A 
ATOM     81  C   UNL A   1      39.276  28.329  31.037  1.00  0.00     0.012 A 
ATOM     82  C   UNL A   1      38.534  29.283  28.930  1.00  0.00     0.148 A 
ATOM     83  C   UNL A   1      37.996  28.493  31.569  1.00  0.00     0.002 A 
ATOM     84  C   UNL A   1      37.274  29.489  29.482  1.00  0.00     0.091 A 
ATOM     85  F   UNL A   1      38.814  29.616  27.661  1.00  0.00    -0.205 F 
ATOM     86  C   UNL A   1      36.999  29.081  30.796  1.00  0.00     0.022 A 
BRANCH  84  87
ATOM     87  S   UNL A   1      35.965  30.342  28.595  1.00  0.00     0.127 S 
ATOM     88  O   UNL A   1      36.717  31.056  27.567  1.00  0.00    -0.237 OA
ATOM     89  O   UNL A   1      35.156  29.226  28.103  1.00  0.00    -0.237 OA
ATOM     90  O   UNL A   1      35.298  31.173  29.588  1.00  0.00    -0.744 OA
ENDBRANCH  84  87
ENDBRANCH  56  80
BRANCH  68  91
ATOM     91  C   UNL A   1      45.047  32.935  28.826  1.00  0.00     0.023 A 
ATOM     92  C   UNL A   1      44.605  33.908  27.910  1.00  0.00     0.012 A 
ATOM     93  C   UNL A   1      45.616  33.343  30.049  1.00  0.00     0.148 A 
ATOM     94  C   UNL A   1      44.751  35.267  28.194  1.00  0.00     0.002 A 
ATOM     95  C   UNL A   1      45.717  34.698  30.345  1.00  0.00     0.091 A 
ATOM     96  F   UNL A   1      46.048  32.400  30.901  1.00  0.00    -0.205 F 
ATOM     97  C   UNL A   1      45.294  35.660  29.416  1.00  0.00     0.022 A 
BRANCH  95  98
ATOM     98  S   UNL A   1      46.315  35.290  31.933  1.00  0.00     0.127 S 
ATOM     99  O   UNL A   1      46.342  36.736  31.721  1.00  0.00    -0.237 OA
ATOM    100  O   UNL A   1      45.273  34.829  32.852  1.00  0.00    -0.237 OA
ATOM    101  O   UNL A   1      47.612  34.659  32.131  1.00  0.00    -0.744 OA
ENDBRANCH  95  98
ENDBRANCH  68  91
ENDBRANCH  42  43
ENDBRANCH  35  37
ENDBRANCH  34  35
ENDBRANCH  33  34
ENDBRANCH  32  33
ENDBRANCH  31  32
ENDBRANCH  30  31
ENDBRANCH   1  30
TORSDOF 23
ENDMDL
MODEL 3
REMARK VINA RESULT:     -10.3      4.387      9.656
REMARK SMILES COc1cccc(N2C(=O)/C(=C/c3ccccc3C(=O)OCCOCCOCCOC(=O)c3ccc(-c4c5nc(c(-c6cccc(S(=O)(=O)[O-])c6F)c6ccc([nH]6)c(-c6cccc(S(=O)(=O)[O-])c6F)c6nc(c(-c7cccc(S(=O)(=O)[O-])c7F)c7ccc4[nH]7)C=C6)C=C5)cc3)SC2=S)c1
REMARK SMILES IDX 25 1 24 2 23 3 22 4 21 5 19 6 20 7 18 8 13 9 14 10 15 11
REMARK SMILES IDX 17 12 16 13 12 14 8 15 9 16 97 17 10 18 11 19 96 20 98 21
REMARK SMILES IDX 7 22 3 23 4 24 99 25 5 26 6 27 2 28 1 29 26 30 27 31 28 32
REMARK SMILES IDX 29 33 30 34 31 35 32 36 33 37 34 38 95 39 35 40 94 41 36 42
REMARK SMILES IDX 37 43 38 44 88 45 39 46 93 47 87 48 89 49 40 50 92 51 86 52
REMARK SMILES IDX 85 53 41 55 73 56 53 57 72 58 54 59 57 60 71 61 90 62 55 63
REMARK SMILES IDX 56 64 70 66 91 67 58 68 42 69 43 70 51 71 44 72 46 73 52 74
REMARK SMILES IDX 45 75 47 76 48 77 49 78 50 79 74 80 75 81 83 82 76 83 78 84
REMARK SMILES IDX 84 85 77 86 79 87 80 88 81 89 82 90 59 91 60 92 68 93 61 94
REMARK SMILES IDX 63 95 69 96 62 97 64 98 65 99 66 100 67 101
REMARK H PARENT 89 54 57 65
REMARK Flexibility Score: inf
ROOT
ATOM      1  C   UNL A   1      33.383  33.197  27.900  1.00  0.00     0.188 C 
ENDROOT
BRANCH   1   2
ATOM      2  O   UNL A   1      32.140  33.153  27.220  1.00  0.00    -0.376 OA
BRANCH   2   3
ATOM      3  C   UNL A   1      31.528  31.891  26.984  1.00  0.00     0.202 C 
BRANCH   3   4
ATOM      4  C   UNL A   1      32.423  30.660  26.875  1.00  0.00     0.261 C 
BRANCH   4   5
ATOM      5  O   UNL A   1      31.751  29.610  26.161  1.00  0.00    -0.460 OA
BRANCH   5   6
ATOM      6  C   UNL A   1      31.998  29.553  24.830  1.00  0.00     0.338 C 
ATOM      7  O   UNL A   1      33.096  29.438  24.310  1.00  0.00    -0.246 OA
BRANCH   6   8
ATOM      8  C   UNL A   1      30.732  29.530  24.048  1.00  0.00     0.067 A 
ATOM      9  C   UNL A   1      30.301  28.460  23.231  1.00  0.00    -0.010 A 
ATOM     10  C   UNL A   1      29.085  28.591  22.538  1.00  0.00     0.009 A 
ATOM     11  C   UNL A   1      28.319  29.755  22.646  1.00  0.00     0.001 A 
ATOM     12  C   UNL A   1      29.955  30.696  24.143  1.00  0.00     0.016 A 
ATOM     13  C   UNL A   1      28.758  30.811  23.438  1.00  0.00     0.001 A 
BRANCH   9  14
ATOM     14  C   UNL A   1      31.091  27.247  22.962  1.00  0.00     0.030 C 
ATOM     15  N   UNL A   1      31.828  24.069  24.450  1.00  0.00    -0.261 N 
ATOM     16  C   UNL A   1      31.981  24.995  23.421  1.00  0.00     0.270 C 
ATOM     17  C   UNL A   1      30.773  24.299  25.324  1.00  0.00     0.152 C 
ATOM     18  O   UNL A   1      32.794  24.974  22.504  1.00  0.00    -0.268 OA
ATOM     19  C   UNL A   1      30.950  26.057  23.560  1.00  0.00     0.081 C 
ATOM     20  S   UNL A   1      29.749  25.575  24.682  1.00  0.00    -0.054 SA
ATOM     21  S   UNL A   1      30.462  23.626  26.826  1.00  0.00    -0.051 S 
BRANCH  15  22
ATOM     22  C   UNL A   1      32.696  22.940  24.528  1.00  0.00     0.054 A 
ATOM     23  C   UNL A   1      33.064  20.566  24.159  1.00  0.00     0.120 A 
ATOM     24  C   UNL A   1      34.370  20.695  24.622  1.00  0.00     0.046 A 
ATOM     25  C   UNL A   1      32.225  21.678  24.144  1.00  0.00     0.073 A 
ATOM     26  C   UNL A   1      34.859  21.948  24.995  1.00  0.00     0.006 A 
ATOM     27  C   UNL A   1      34.033  23.073  24.924  1.00  0.00     0.027 A 
BRANCH  23  28
ATOM     28  O   UNL A   1      32.684  19.314  23.755  1.00  0.00    -0.497 OA
ATOM     29  C   UNL A   1      33.634  18.290  24.044  1.00  0.00     0.278 C 
ENDBRANCH  23  28
ENDBRANCH  15  22
ENDBRANCH   9  14
ENDBRANCH   6   8
ENDBRANCH   5   6
ENDBRANCH   4   5
ENDBRANCH   3   4
ENDBRANCH   2   3
ENDBRANCH   1   2
BRANCH   1  30
ATOM     30  C   UNL A   1      33.909  34.546  28.433  1.00  0.00     0.188 C 
BRANCH  30  31
ATOM     31  O   UNL A   1      34.621  34.636  29.652  1.00  0.00    -0.376 OA
BRANCH  31  32
ATOM     32  C   UNL A   1      35.051  33.461  30.320  1.00  0.00     0.202 C 
BRANCH  32  33
ATOM     33  C   UNL A   1      34.455  33.009  31.659  1.00  0.00     0.261 C 
BRANCH  33  34
ATOM     34  O   UNL A   1      35.154  31.954  32.323  1.00  0.00    -0.460 OA
BRANCH  34  35
ATOM     35  C   UNL A   1      36.016  32.359  33.289  1.00  0.00     0.338 C 
ATOM     36  O   UNL A   1      35.758  33.028  34.275  1.00  0.00    -0.246 OA
BRANCH  35  37
ATOM     37  C   UNL A   1      37.317  31.698  33.081  1.00  0.00     0.060 A 
ATOM     38  C   UNL A   1      38.398  32.104  33.876  1.00  0.00     0.016 A 
ATOM     39  C   UNL A   1      37.478  30.714  32.105  1.00  0.00     0.016 A 
ATOM     40  C   UNL A   1      39.658  31.545  33.673  1.00  0.00     0.010 A 
ATOM     41  C   UNL A   1      38.746  30.170  31.890  1.00  0.00     0.010 A 
ATOM     42  C   UNL A   1      39.845  30.606  32.653  1.00  0.00    -0.014 A 
BRANCH  42  43
ATOM     43  C   UNL A   1      41.217  30.205  32.264  1.00  0.00     0.031 A 
ATOM     44  C   UNL A   1      41.924  31.003  31.204  1.00  0.00     0.074 A 
ATOM     45  C   UNL A   1      41.814  29.140  32.827  1.00  0.00     0.049 A 
ATOM     46  N   UNL A   1      43.109  30.823  30.687  1.00  0.00    -0.248 NA
ATOM     47  C   UNL A   1      41.194  32.159  30.655  1.00  0.00     0.031 C 
ATOM     48  C   UNL A   1      41.228  28.287  33.858  1.00  0.00     0.029 A 
ATOM     49  N   UNL A   1      43.042  28.580  32.580  1.00  0.00    -0.354 N 
ATOM     50  C   UNL A   1      43.260  31.825  29.735  1.00  0.00     0.074 A 
ATOM     51  C   UNL A   1      42.043  32.604  29.741  1.00  0.00     0.031 C 
ATOM     52  C   UNL A   1      42.085  27.287  34.133  1.00  0.00     0.029 A 
ATOM     53  C   UNL A   1      43.269  27.422  33.285  1.00  0.00     0.049 A 
ATOM     54  H   UNL A   1      43.699  28.970  31.958  1.00  0.00     0.167 HD
ATOM     55  C   UNL A   1      44.324  32.083  28.940  1.00  0.00     0.034 A 
ATOM     56  C   UNL A   1      44.305  26.561  33.234  1.00  0.00     0.034 A 
ATOM     57  C   UNL A   1      45.538  31.314  28.941  1.00  0.00     0.049 A 
ATOM     58  C   UNL A   1      45.466  26.856  32.318  1.00  0.00     0.074 A 
ATOM     59  C   UNL A   1      46.690  31.525  28.203  1.00  0.00     0.029 A 
ATOM     60  N   UNL A   1      45.753  30.177  29.703  1.00  0.00    -0.354 N 
ATOM     61  N   UNL A   1      45.655  27.885  31.528  1.00  0.00    -0.248 NA
ATOM     62  C   UNL A   1      46.572  25.887  32.313  1.00  0.00     0.031 C 
ATOM     63  C   UNL A   1      47.595  30.503  28.507  1.00  0.00     0.029 A 
ATOM     64  C   UNL A   1      47.013  29.667  29.448  1.00  0.00     0.049 A 
ATOM     65  H   UNL A   1      45.104  29.789  30.334  1.00  0.00     0.167 HD
ATOM     66  C   UNL A   1      46.912  27.705  30.959  1.00  0.00     0.074 A 
ATOM     67  C   UNL A   1      47.448  26.478  31.510  1.00  0.00     0.031 C 
ATOM     68  C   UNL A   1      47.558  28.478  30.050  1.00  0.00     0.034 A 
BRANCH  55  69
ATOM     69  C   UNL A   1      44.232  33.271  28.023  1.00  0.00     0.023 A 
ATOM     70  C   UNL A   1      43.913  33.072  26.664  1.00  0.00     0.012 A 
ATOM     71  C   UNL A   1      44.415  34.579  28.509  1.00  0.00     0.148 A 
ATOM     72  C   UNL A   1      43.802  34.158  25.796  1.00  0.00     0.002 A 
ATOM     73  C   UNL A   1      44.265  35.658  27.646  1.00  0.00     0.091 A 
ATOM     74  F   UNL A   1      44.746  34.743  29.797  1.00  0.00    -0.205 F 
ATOM     75  C   UNL A   1      43.968  35.449  26.289  1.00  0.00     0.022 A 
BRANCH  73  76
ATOM     76  S   UNL A   1      44.392  37.362  28.201  1.00  0.00     0.127 S 
ATOM     77  O   UNL A   1      43.289  37.442  29.159  1.00  0.00    -0.237 OA
ATOM     78  O   UNL A   1      45.726  37.392  28.804  1.00  0.00    -0.237 OA
ATOM     79  O   UNL A   1      44.248  38.183  27.008  1.00  0.00    -0.744 OA
ENDBRANCH  73  76
ENDBRANCH  55  69
BRANCH  56  80
ATOM     80  C   UNL A   1      44.314  25.353  34.106  1.00  0.00     0.023 A 
ATOM     81  C   UNL A   1      43.779  24.144  33.620  1.00  0.00     0.012 A 
ATOM     82  C   UNL A   1      44.854  25.393  35.406  1.00  0.00     0.148 A 
ATOM     83  C   UNL A   1      43.756  23.003  34.423  1.00  0.00     0.002 A 
ATOM     84  C   UNL A   1      44.873  24.239  36.183  1.00  0.00     0.091 A 
ATOM     85  F   UNL A   1      45.338  26.559  35.858  1.00  0.00    -0.205 F 
ATOM     86  C   UNL A   1      44.311  23.048  35.699  1.00  0.00     0.022 A 
BRANCH  84  87
ATOM     87  S   UNL A   1      45.669  24.179  37.792  1.00  0.00     0.127 S 
ATOM     88  O   UNL A   1      44.773  25.001  38.600  1.00  0.00    -0.237 OA
ATOM     89  O   UNL A   1      45.632  22.747  38.094  1.00  0.00    -0.237 OA
ATOM     90  O   UNL A   1      47.009  24.713  37.585  1.00  0.00    -0.744 OA
ENDBRANCH  84  87
ENDBRANCH  56  80
BRANCH  68  91
ATOM     91  C   UNL A   1      48.934  28.046  29.610  1.00  0.00     0.023 A 
ATOM     92  C   UNL A   1      50.065  28.497  30.317  1.00  0.00     0.012 A 
ATOM     93  C   UNL A   1      49.097  27.125  28.557  1.00  0.00     0.148 A 
ATOM     94  C   UNL A   1      51.342  28.058  29.964  1.00  0.00     0.002 A 
ATOM     95  C   UNL A   1      50.368  26.657  28.241  1.00  0.00     0.091 A 
ATOM     96  F   UNL A   1      48.009  26.721  27.884  1.00  0.00    -0.205 F 
ATOM     97  C   UNL A   1      51.491  27.129  28.936  1.00  0.00     0.022 A 
BRANCH  95  98
ATOM     98  S   UNL A   1      50.641  25.389  26.996  1.00  0.00     0.127 S 
ATOM     99  O   UNL A   1      52.081  25.168  27.106  1.00  0.00    -0.237 OA
ATOM    100  O   UNL A   1      49.816  24.285  27.487  1.00  0.00    -0.237 OA
ATOM    101  O   UNL A   1      50.188  25.964  25.737  1.00  0.00    -0.744 OA
ENDBRANCH  95  98
ENDBRANCH  68  91
ENDBRANCH  42  43
ENDBRANCH  35  37
ENDBRANCH  34  35
ENDBRANCH  33  34
ENDBRANCH  32  33
ENDBRANCH  31  32
ENDBRANCH  30  31
ENDBRANCH   1  30
TORSDOF 23
ENDMDL
