MODEL 1
REMARK VINA RESULT:     -11.4      0.000      0.000
REMARK SMILES Cc1ccc(C)c(-n2nc(C)c(/C=C(/C#N)C(=O)OCCOCCOCCOC(=O)c3ccc(-c4c5nc(c(-c6cccc(S(=O)(=O)[O-])c6F)c6ccc([nH]6)c(-c6cccc(S(=O)(=O)[O-])c6F)c6nc(c(-c7cccc(S(=O)(=O)[O-])c7F)c7ccc4[nH]7)C=C6)C=C5)cc3)c2Cl)c1
REMARK SMILES IDX 24 1 23 2 22 3 21 4 20 5 19 6 17 7 18 8 14 9 13 10 12 11
REMARK SMILES IDX 8 12 9 13 94 14 10 15 95 16 11 17 7 18 1 19 2 20 3 21 96 22
REMARK SMILES IDX 4 23 5 24 6 25 15 26 16 27 25 28 26 29 27 30 28 31 29 32
REMARK SMILES IDX 30 33 31 34 32 35 93 36 33 37 92 38 34 39 35 40 36 41 86 42
REMARK SMILES IDX 37 43 91 44 85 45 87 46 38 47 90 48 84 49 83 50 39 52 71 53
REMARK SMILES IDX 51 54 70 55 52 56 55 57 69 58 88 59 53 60 54 61 68 63 89 64
REMARK SMILES IDX 56 65 40 66 41 67 49 68 42 69 44 70 50 71 43 72 45 73 46 74
REMARK SMILES IDX 47 75 48 76 72 77 73 78 81 79 74 80 76 81 82 82 75 83 77 84
REMARK SMILES IDX 78 85 79 86 80 87 57 88 58 89 66 90 59 91 61 92 67 93 60 94
REMARK SMILES IDX 62 95 63 96 64 97 65 98
REMARK H PARENT 87 51 55 62
REMARK Flexibility Score: inf
ROOT
ATOM      1  C   UNL A   1      40.014  22.672  27.296  1.00  0.00     0.188 C 
ENDROOT
BRANCH   1   2
ATOM      2  C   UNL A   1      39.780  22.113  25.889  1.00  0.00     0.188 C 
BRANCH   2   3
ATOM      3  O   UNL A   1      38.739  21.144  25.748  1.00  0.00    -0.376 OA
BRANCH   3   4
ATOM      4  C   UNL A   1      37.634  21.466  24.894  1.00  0.00     0.202 C 
BRANCH   4   5
ATOM      5  C   UNL A   1      36.271  20.802  25.177  1.00  0.00     0.261 C 
BRANCH   5   6
ATOM      6  O   UNL A   1      35.308  21.696  25.782  1.00  0.00    -0.459 OA
BRANCH   6   7
ATOM      7  C   UNL A   1      34.107  21.151  26.125  1.00  0.00     0.348 C 
ATOM      8  O   UNL A   1      33.642  21.080  27.248  1.00  0.00    -0.245 OA
BRANCH   7   9
ATOM      9  C   UNL A   1      33.381  20.648  24.931  1.00  0.00     0.138 C 
ATOM     10  C   UNL A   1      32.287  21.364  24.564  1.00  0.00     0.040 C 
BRANCH  10  11
ATOM     11  C   UNL A   1      31.761  22.690  24.924  1.00  0.00     0.037 A 
ATOM     12  N   UNL A   1      31.551  24.931  24.799  1.00  0.00    -0.221 N 
ATOM     13  N   UNL A   1      31.008  24.598  25.972  1.00  0.00    -0.171 NA
ATOM     14  C   UNL A   1      32.001  23.814  24.135  1.00  0.00     0.140 A 
ATOM     15  C   UNL A   1      30.901  23.264  25.934  1.00  0.00     0.069 A 
ATOM     16  Cl  UNL A   1      32.765  23.993  22.614  1.00  0.00    -0.061 Cl
ATOM     17  C   UNL A   1      29.902  22.773  26.913  1.00  0.00     0.069 C 
BRANCH  12  18
ATOM     18  C   UNL A   1      31.422  26.280  24.398  1.00  0.00     0.069 A 
ATOM     19  C   UNL A   1      28.607  28.486  23.075  1.00  0.00     0.044 C 
ATOM     20  C   UNL A   1      29.935  28.032  23.605  1.00  0.00    -0.049 A 
ATOM     21  C   UNL A   1      30.912  28.980  23.931  1.00  0.00     0.004 A 
ATOM     22  C   UNL A   1      30.206  26.673  23.814  1.00  0.00     0.032 A 
ATOM     23  C   UNL A   1      32.116  28.586  24.520  1.00  0.00     0.006 A 
ATOM     24  C   UNL A   1      32.376  27.236  24.797  1.00  0.00    -0.025 A 
ATOM     25  C   UNL A   1      33.668  26.899  25.492  1.00  0.00     0.047 C 
ENDBRANCH  12  18
ENDBRANCH  10  11
BRANCH   9  26
ATOM     26  C   UNL A   1      33.561  19.172  24.611  1.00  0.00     0.107 C 
ATOM     27  N   UNL A   1      33.711  17.949  24.346  1.00  0.00    -0.192 NA
ENDBRANCH   9  26
ENDBRANCH   7   9
ENDBRANCH   6   7
ENDBRANCH   5   6
ENDBRANCH   4   5
ENDBRANCH   3   4
ENDBRANCH   2   3
ENDBRANCH   1   2
BRANCH   1  28
ATOM     28  O   UNL A   1      41.103  22.033  27.933  1.00  0.00    -0.376 OA
BRANCH  28  29
ATOM     29  C   UNL A   1      42.028  21.408  27.058  1.00  0.00     0.202 C 
BRANCH  29  30
ATOM     30  C   UNL A   1      43.311  22.210  26.815  1.00  0.00     0.261 C 
BRANCH  30  31
ATOM     31  O   UNL A   1      43.299  23.544  26.234  1.00  0.00    -0.460 OA
BRANCH  31  32
ATOM     32  C   UNL A   1      43.997  24.639  26.598  1.00  0.00     0.338 C 
ATOM     33  O   UNL A   1      45.196  24.747  26.363  1.00  0.00    -0.246 OA
BRANCH  32  34
ATOM     34  C   UNL A   1      43.278  25.677  27.348  1.00  0.00     0.060 A 
ATOM     35  C   UNL A   1      42.571  26.566  26.567  1.00  0.00     0.016 A 
ATOM     36  C   UNL A   1      43.402  25.887  28.731  1.00  0.00     0.016 A 
ATOM     37  C   UNL A   1      42.180  27.750  27.146  1.00  0.00     0.010 A 
ATOM     38  C   UNL A   1      43.010  27.117  29.294  1.00  0.00     0.010 A 
ATOM     39  C   UNL A   1      42.476  28.098  28.469  1.00  0.00    -0.014 A 
BRANCH  39  40
ATOM     40  C   UNL A   1      41.962  29.431  28.857  1.00  0.00     0.031 A 
ATOM     41  C   UNL A   1      43.066  30.427  28.977  1.00  0.00     0.074 A 
ATOM     42  C   UNL A   1      40.707  29.742  29.263  1.00  0.00     0.049 A 
ATOM     43  N   UNL A   1      43.335  31.157  30.015  1.00  0.00    -0.248 NA
ATOM     44  C   UNL A   1      44.124  30.420  27.946  1.00  0.00     0.031 C 
ATOM     45  C   UNL A   1      39.563  28.834  29.302  1.00  0.00     0.029 A 
ATOM     46  N   UNL A   1      40.161  30.947  29.687  1.00  0.00    -0.354 N 
ATOM     47  C   UNL A   1      44.444  31.904  29.635  1.00  0.00     0.074 A 
ATOM     48  C   UNL A   1      44.998  31.284  28.456  1.00  0.00     0.031 C 
ATOM     49  C   UNL A   1      38.437  29.550  29.495  1.00  0.00     0.029 A 
ATOM     50  C   UNL A   1      38.767  30.963  29.594  1.00  0.00     0.049 A 
ATOM     51  H   UNL A   1      40.696  31.704  30.017  1.00  0.00     0.167 HD
ATOM     52  C   UNL A   1      44.472  33.225  29.939  1.00  0.00     0.034 A 
ATOM     53  C   UNL A   1      37.929  32.028  29.467  1.00  0.00     0.034 A 
ATOM     54  C   UNL A   1      43.890  33.536  31.206  1.00  0.00     0.049 A 
ATOM     55  C   UNL A   1      38.565  33.236  30.032  1.00  0.00     0.074 A 
ATOM     56  C   UNL A   1      44.226  33.437  32.536  1.00  0.00     0.029 A 
ATOM     57  N   UNL A   1      42.556  33.801  31.145  1.00  0.00    -0.354 N 
ATOM     58  N   UNL A   1      38.601  33.511  31.306  1.00  0.00    -0.248 NA
ATOM     59  C   UNL A   1      39.378  34.094  29.175  1.00  0.00     0.031 C 
ATOM     60  C   UNL A   1      43.036  33.693  33.277  1.00  0.00     0.029 A 
ATOM     61  C   UNL A   1      42.001  33.947  32.382  1.00  0.00     0.049 A 
ATOM     62  H   UNL A   1      42.050  33.877  30.304  1.00  0.00     0.167 HD
ATOM     63  C   UNL A   1      39.754  34.261  31.443  1.00  0.00     0.074 A 
ATOM     64  C   UNL A   1      40.086  34.732  30.107  1.00  0.00     0.031 C 
ATOM     65  C   UNL A   1      40.569  34.074  32.517  1.00  0.00     0.034 A 
BRANCH  52  66
ATOM     66  C   UNL A   1      44.412  34.214  28.792  1.00  0.00     0.023 A 
ATOM     67  C   UNL A   1      43.226  34.351  28.058  1.00  0.00     0.012 A 
ATOM     68  C   UNL A   1      45.568  34.837  28.261  1.00  0.00     0.148 A 
ATOM     69  C   UNL A   1      43.187  35.138  26.898  1.00  0.00     0.002 A 
ATOM     70  C   UNL A   1      45.496  35.728  27.209  1.00  0.00     0.091 A 
ATOM     71  F   UNL A   1      46.784  34.435  28.653  1.00  0.00    -0.205 F 
ATOM     72  C   UNL A   1      44.308  35.868  26.501  1.00  0.00     0.022 A 
BRANCH  70  73
ATOM     73  S   UNL A   1      46.912  36.748  26.792  1.00  0.00     0.127 S 
ATOM     74  O   UNL A   1      47.670  35.862  25.916  1.00  0.00    -0.237 OA
ATOM     75  O   UNL A   1      46.280  37.889  26.132  1.00  0.00    -0.237 OA
ATOM     76  O   UNL A   1      47.532  37.076  28.073  1.00  0.00    -0.744 OA
ENDBRANCH  70  73
ENDBRANCH  52  66
BRANCH  53  77
ATOM     77  C   UNL A   1      36.619  32.140  28.748  1.00  0.00     0.023 A 
ATOM     78  C   UNL A   1      36.102  31.026  28.046  1.00  0.00     0.012 A 
ATOM     79  C   UNL A   1      35.742  33.225  28.960  1.00  0.00     0.148 A 
ATOM     80  C   UNL A   1      34.763  30.980  27.625  1.00  0.00     0.002 A 
ATOM     81  C   UNL A   1      34.422  33.188  28.519  1.00  0.00     0.091 A 
ATOM     82  F   UNL A   1      36.147  34.270  29.685  1.00  0.00    -0.205 F 
ATOM     83  C   UNL A   1      33.920  32.060  27.867  1.00  0.00     0.022 A 
BRANCH  81  84
ATOM     84  S   UNL A   1      33.307  34.566  28.825  1.00  0.00     0.127 S 
ATOM     85  O   UNL A   1      34.081  35.706  28.334  1.00  0.00    -0.237 OA
ATOM     86  O   UNL A   1      32.153  34.208  28.007  1.00  0.00    -0.237 OA
ATOM     87  O   UNL A   1      33.086  34.581  30.267  1.00  0.00    -0.744 OA
ENDBRANCH  81  84
ENDBRANCH  53  77
BRANCH  65  88
ATOM     88  C   UNL A   1      39.944  33.845  33.852  1.00  0.00     0.023 A 
ATOM     89  C   UNL A   1      39.508  34.879  34.697  1.00  0.00     0.012 A 
ATOM     90  C   UNL A   1      39.741  32.507  34.239  1.00  0.00     0.148 A 
ATOM     91  C   UNL A   1      38.890  34.579  35.914  1.00  0.00     0.002 A 
ATOM     92  C   UNL A   1      39.087  32.214  35.424  1.00  0.00     0.091 A 
ATOM     93  F   UNL A   1      40.199  31.535  33.433  1.00  0.00    -0.205 F 
ATOM     94  C   UNL A   1      38.667  33.249  36.271  1.00  0.00     0.022 A 
BRANCH  92  95
ATOM     95  S   UNL A   1      38.694  30.525  35.876  1.00  0.00     0.127 S 
ATOM     96  O   UNL A   1      37.781  30.714  37.001  1.00  0.00    -0.237 OA
ATOM     97  O   UNL A   1      38.067  30.012  34.657  1.00  0.00    -0.237 OA
ATOM     98  O   UNL A   1      39.967  29.891  36.199  1.00  0.00    -0.744 OA
ENDBRANCH  92  95
ENDBRANCH  65  88
ENDBRANCH  39  40
ENDBRANCH  32  34
ENDBRANCH  31  32
ENDBRANCH  30  31
ENDBRANCH  29  30
ENDBRANCH  28  29
ENDBRANCH   1  28
TORSDOF 23
ENDMDL
MODEL 2
REMARK VINA RESULT:     -11.1      1.517      2.043
REMARK SMILES Cc1ccc(C)c(-n2nc(C)c(/C=C(/C#N)C(=O)OCCOCCOCCOC(=O)c3ccc(-c4c5nc(c(-c6cccc(S(=O)(=O)[O-])c6F)c6ccc([nH]6)c(-c6cccc(S(=O)(=O)[O-])c6F)c6nc(c(-c7cccc(S(=O)(=O)[O-])c7F)c7ccc4[nH]7)C=C6)C=C5)cc3)c2Cl)c1
REMARK SMILES IDX 24 1 23 2 22 3 21 4 20 5 19 6 17 7 18 8 14 9 13 10 12 11
REMARK SMILES IDX 8 12 9 13 94 14 10 15 95 16 11 17 7 18 1 19 2 20 3 21 96 22
REMARK SMILES IDX 4 23 5 24 6 25 15 26 16 27 25 28 26 29 27 30 28 31 29 32
REMARK SMILES IDX 30 33 31 34 32 35 93 36 33 37 92 38 34 39 35 40 36 41 86 42
REMARK SMILES IDX 37 43 91 44 85 45 87 46 38 47 90 48 84 49 83 50 39 52 71 53
REMARK SMILES IDX 51 54 70 55 52 56 55 57 69 58 88 59 53 60 54 61 68 63 89 64
REMARK SMILES IDX 56 65 40 66 41 67 49 68 42 69 44 70 50 71 43 72 45 73 46 74
REMARK SMILES IDX 47 75 48 76 72 77 73 78 81 79 74 80 76 81 82 82 75 83 77 84
REMARK SMILES IDX 78 85 79 86 80 87 57 88 58 89 66 90 59 91 61 92 67 93 60 94
REMARK SMILES IDX 62 95 63 96 64 97 65 98
REMARK H PARENT 87 51 55 62
REMARK Flexibility Score: inf
ROOT
ATOM      1  C   UNL A   1      39.899  23.594  26.886  1.00  0.00     0.188 C 
ENDROOT
BRANCH   1   2
ATOM      2  C   UNL A   1      38.450  24.089  26.917  1.00  0.00     0.188 C 
BRANCH   2   3
ATOM      3  O   UNL A   1      37.689  23.923  25.719  1.00  0.00    -0.376 OA
BRANCH   3   4
ATOM      4  C   UNL A   1      36.474  23.166  25.796  1.00  0.00     0.202 C 
BRANCH   4   5
ATOM      5  C   UNL A   1      36.572  21.627  25.838  1.00  0.00     0.261 C 
BRANCH   5   6
ATOM      6  O   UNL A   1      35.536  20.962  25.077  1.00  0.00    -0.459 OA
BRANCH   6   7
ATOM      7  C   UNL A   1      34.318  20.853  25.678  1.00  0.00     0.348 C 
ATOM      8  O   UNL A   1      34.056  21.137  26.832  1.00  0.00    -0.245 OA
BRANCH   7   9
ATOM      9  C   UNL A   1      33.291  20.351  24.730  1.00  0.00     0.138 C 
ATOM     10  C   UNL A   1      32.665  21.297  23.984  1.00  0.00     0.040 C 
BRANCH  10  11
ATOM     11  C   UNL A   1      32.926  22.718  23.703  1.00  0.00     0.037 A 
ATOM     12  N   UNL A   1      32.475  24.926  23.639  1.00  0.00    -0.221 N 
ATOM     13  N   UNL A   1      33.508  24.760  22.810  1.00  0.00    -0.171 NA
ATOM     14  C   UNL A   1      32.106  23.728  24.205  1.00  0.00     0.140 A 
ATOM     15  C   UNL A   1      33.935  23.512  23.040  1.00  0.00     0.069 A 
ATOM     16  Cl  UNL A   1      30.781  23.684  25.286  1.00  0.00    -0.061 Cl
ATOM     17  C   UNL A   1      35.332  23.325  22.581  1.00  0.00     0.069 C 
BRANCH  12  18
ATOM     18  C   UNL A   1      32.077  26.256  23.902  1.00  0.00     0.069 A 
ATOM     19  C   UNL A   1      29.095  28.453  22.996  1.00  0.00     0.044 C 
ATOM     20  C   UNL A   1      30.366  27.960  23.621  1.00  0.00    -0.049 A 
ATOM     21  C   UNL A   1      30.978  28.711  24.632  1.00  0.00     0.004 A 
ATOM     22  C   UNL A   1      30.938  26.740  23.237  1.00  0.00     0.032 A 
ATOM     23  C   UNL A   1      32.105  28.223  25.297  1.00  0.00     0.006 A 
ATOM     24  C   UNL A   1      32.651  26.973  24.971  1.00  0.00    -0.025 A 
ATOM     25  C   UNL A   1      33.826  26.488  25.776  1.00  0.00     0.047 C 
ENDBRANCH  12  18
ENDBRANCH  10  11
BRANCH   9  26
ATOM     26  C   UNL A   1      32.665  19.008  25.073  1.00  0.00     0.107 C 
ATOM     27  N   UNL A   1      32.145  17.895  25.358  1.00  0.00    -0.192 NA
ENDBRANCH   9  26
ENDBRANCH   7   9
ENDBRANCH   6   7
ENDBRANCH   5   6
ENDBRANCH   4   5
ENDBRANCH   3   4
ENDBRANCH   2   3
ENDBRANCH   1   2
BRANCH   1  28
ATOM     28  O   UNL A   1      39.962  22.188  26.743  1.00  0.00    -0.376 OA
BRANCH  28  29
ATOM     29  C   UNL A   1      41.197  21.688  26.255  1.00  0.00     0.202 C 
BRANCH  29  30
ATOM     30  C   UNL A   1      42.400  21.984  27.155  1.00  0.00     0.261 C 
BRANCH  30  31
ATOM     31  O   UNL A   1      43.410  22.973  26.810  1.00  0.00    -0.460 OA
BRANCH  31  32
ATOM     32  C   UNL A   1      43.408  23.881  25.813  1.00  0.00     0.338 C 
ATOM     33  O   UNL A   1      43.629  23.562  24.650  1.00  0.00    -0.246 OA
BRANCH  32  34
ATOM     34  C   UNL A   1      43.193  25.287  26.183  1.00  0.00     0.060 A 
ATOM     35  C   UNL A   1      43.330  25.555  27.528  1.00  0.00     0.016 A 
ATOM     36  C   UNL A   1      42.725  26.276  25.304  1.00  0.00     0.016 A 
ATOM     37  C   UNL A   1      42.803  26.735  27.998  1.00  0.00     0.010 A 
ATOM     38  C   UNL A   1      42.173  27.467  25.814  1.00  0.00     0.010 A 
ATOM     39  C   UNL A   1      42.128  27.656  27.189  1.00  0.00    -0.014 A 
BRANCH  39  40
ATOM     40  C   UNL A   1      41.638  28.842  27.927  1.00  0.00     0.031 A 
ATOM     41  C   UNL A   1      42.764  29.728  28.344  1.00  0.00     0.074 A 
ATOM     42  C   UNL A   1      40.381  29.067  28.381  1.00  0.00     0.049 A 
ATOM     43  N   UNL A   1      43.024  30.128  29.551  1.00  0.00    -0.248 NA
ATOM     44  C   UNL A   1      43.849  29.977  27.373  1.00  0.00     0.031 C 
ATOM     45  C   UNL A   1      39.214  28.222  28.141  1.00  0.00     0.029 A 
ATOM     46  N   UNL A   1      39.855  30.120  29.117  1.00  0.00    -0.354 N 
ATOM     47  C   UNL A   1      44.161  30.916  29.417  1.00  0.00     0.074 A 
ATOM     48  C   UNL A   1      44.730  30.634  28.122  1.00  0.00     0.031 C 
ATOM     49  C   UNL A   1      38.102  28.890  28.507  1.00  0.00     0.029 A 
ATOM     50  C   UNL A   1      38.465  30.206  29.006  1.00  0.00     0.049 A 
ATOM     51  H   UNL A   1      40.400  30.737  29.658  1.00  0.00     0.167 HD
ATOM     52  C   UNL A   1      44.215  32.096  30.082  1.00  0.00     0.034 A 
ATOM     53  C   UNL A   1      37.658  31.291  29.169  1.00  0.00     0.034 A 
ATOM     54  C   UNL A   1      43.607  32.056  31.374  1.00  0.00     0.049 A 
ATOM     55  C   UNL A   1      38.310  32.269  30.064  1.00  0.00     0.074 A 
ATOM     56  C   UNL A   1      43.904  31.576  32.628  1.00  0.00     0.029 A 
ATOM     57  N   UNL A   1      42.282  32.370  31.365  1.00  0.00    -0.354 N 
ATOM     58  N   UNL A   1      38.318  32.175  31.363  1.00  0.00    -0.248 NA
ATOM     59  C   UNL A   1      39.167  33.308  29.498  1.00  0.00     0.031 C 
ATOM     60  C   UNL A   1      42.701  31.653  33.389  1.00  0.00     0.029 A 
ATOM     61  C   UNL A   1      41.698  32.181  32.582  1.00  0.00     0.049 A 
ATOM     62  H   UNL A   1      41.801  32.697  30.571  1.00  0.00     0.167 HD
ATOM     63  C   UNL A   1      39.485  32.818  31.729  1.00  0.00     0.074 A 
ATOM     64  C   UNL A   1      39.865  33.635  30.586  1.00  0.00     0.031 C 
ATOM     65  C   UNL A   1      40.266  32.310  32.721  1.00  0.00     0.034 A 
BRANCH  52  66
ATOM     66  C   UNL A   1      44.211  33.369  29.259  1.00  0.00     0.023 A 
ATOM     67  C   UNL A   1      43.268  33.527  28.234  1.00  0.00     0.012 A 
ATOM     68  C   UNL A   1      45.267  34.311  29.308  1.00  0.00     0.148 A 
ATOM     69  C   UNL A   1      43.339  34.619  27.357  1.00  0.00     0.002 A 
ATOM     70  C   UNL A   1      45.252  35.462  28.544  1.00  0.00     0.091 A 
ATOM     71  F   UNL A   1      46.396  34.017  29.965  1.00  0.00    -0.205 F 
ATOM     72  C   UNL A   1      44.300  35.614  27.542  1.00  0.00     0.022 A 
BRANCH  70  73
ATOM     73  S   UNL A   1      46.419  36.783  28.879  1.00  0.00     0.127 S 
ATOM     74  O   UNL A   1      46.215  37.006  30.306  1.00  0.00    -0.237 OA
ATOM     75  O   UNL A   1      47.692  36.161  28.518  1.00  0.00    -0.237 OA
ATOM     76  O   UNL A   1      46.022  37.872  27.991  1.00  0.00    -0.744 OA
ENDBRANCH  70  73
ENDBRANCH  52  66
BRANCH  53  77
ATOM     77  C   UNL A   1      36.372  31.642  28.486  1.00  0.00     0.023 A 
ATOM     78  C   UNL A   1      35.672  30.658  27.749  1.00  0.00     0.012 A 
ATOM     79  C   UNL A   1      35.682  32.843  28.765  1.00  0.00     0.148 A 
ATOM     80  C   UNL A   1      34.336  30.845  27.358  1.00  0.00     0.002 A 
ATOM     81  C   UNL A   1      34.367  33.036  28.354  1.00  0.00     0.091 A 
ATOM     82  F   UNL A   1      36.261  33.775  29.524  1.00  0.00    -0.205 F 
ATOM     83  C   UNL A   1      33.681  32.033  27.666  1.00  0.00     0.022 A 
BRANCH  81  84
ATOM     84  S   UNL A   1      33.492  34.558  28.744  1.00  0.00     0.127 S 
ATOM     85  O   UNL A   1      34.405  35.581  28.234  1.00  0.00    -0.237 OA
ATOM     86  O   UNL A   1      32.258  34.401  27.981  1.00  0.00    -0.237 OA
ATOM     87  O   UNL A   1      33.347  34.567  30.196  1.00  0.00    -0.744 OA
ENDBRANCH  81  84
ENDBRANCH  53  77
BRANCH  65  88
ATOM     88  C   UNL A   1      39.600  31.735  33.926  1.00  0.00     0.023 A 
ATOM     89  C   UNL A   1      39.737  30.396  34.328  1.00  0.00     0.012 A 
ATOM     90  C   UNL A   1      38.843  32.619  34.717  1.00  0.00     0.148 A 
ATOM     91  C   UNL A   1      39.117  29.946  35.496  1.00  0.00     0.002 A 
ATOM     92  C   UNL A   1      38.269  32.180  35.899  1.00  0.00     0.091 A 
ATOM     93  F   UNL A   1      38.696  33.885  34.294  1.00  0.00    -0.205 F 
ATOM     94  C   UNL A   1      38.395  30.840  36.289  1.00  0.00     0.022 A 
BRANCH  92  95
ATOM     95  S   UNL A   1      37.416  33.314  36.995  1.00  0.00     0.127 S 
ATOM     96  O   UNL A   1      36.324  33.793  36.150  1.00  0.00    -0.237 OA
ATOM     97  O   UNL A   1      37.003  32.438  38.092  1.00  0.00    -0.237 OA
ATOM     98  O   UNL A   1      38.402  34.318  37.377  1.00  0.00    -0.744 OA
ENDBRANCH  92  95
ENDBRANCH  65  88
ENDBRANCH  39  40
ENDBRANCH  32  34
ENDBRANCH  31  32
ENDBRANCH  30  31
ENDBRANCH  29  30
ENDBRANCH  28  29
ENDBRANCH   1  28
TORSDOF 23
ENDMDL
MODEL 3
REMARK VINA RESULT:     -10.8      2.288      3.077
REMARK SMILES Cc1ccc(C)c(-n2nc(C)c(/C=C(/C#N)C(=O)OCCOCCOCCOC(=O)c3ccc(-c4c5nc(c(-c6cccc(S(=O)(=O)[O-])c6F)c6ccc([nH]6)c(-c6cccc(S(=O)(=O)[O-])c6F)c6nc(c(-c7cccc(S(=O)(=O)[O-])c7F)c7ccc4[nH]7)C=C6)C=C5)cc3)c2Cl)c1
REMARK SMILES IDX 24 1 23 2 22 3 21 4 20 5 19 6 17 7 18 8 14 9 13 10 12 11
REMARK SMILES IDX 8 12 9 13 94 14 10 15 95 16 11 17 7 18 1 19 2 20 3 21 96 22
REMARK SMILES IDX 4 23 5 24 6 25 15 26 16 27 25 28 26 29 27 30 28 31 29 32
REMARK SMILES IDX 30 33 31 34 32 35 93 36 33 37 92 38 34 39 35 40 36 41 86 42
REMARK SMILES IDX 37 43 91 44 85 45 87 46 38 47 90 48 84 49 83 50 39 52 71 53
REMARK SMILES IDX 51 54 70 55 52 56 55 57 69 58 88 59 53 60 54 61 68 63 89 64
REMARK SMILES IDX 56 65 40 66 41 67 49 68 42 69 44 70 50 71 43 72 45 73 46 74
REMARK SMILES IDX 47 75 48 76 72 77 73 78 81 79 74 80 76 81 82 82 75 83 77 84
REMARK SMILES IDX 78 85 79 86 80 87 57 88 58 89 66 90 59 91 61 92 67 93 60 94
REMARK SMILES IDX 62 95 63 96 64 97 65 98
REMARK H PARENT 87 51 55 62
REMARK Flexibility Score: inf
ROOT
ATOM      1  C   UNL A   1      39.423  23.833  27.699  1.00  0.00     0.188 C 
ENDROOT
BRANCH   1   2
ATOM      2  C   UNL A   1      38.683  23.655  26.369  1.00  0.00     0.188 C 
BRANCH   2   3
ATOM      3  O   UNL A   1      38.459  22.312  25.935  1.00  0.00    -0.376 OA
BRANCH   3   4
ATOM      4  C   UNL A   1      37.398  22.077  24.999  1.00  0.00     0.202 C 
BRANCH   4   5
ATOM      5  C   UNL A   1      36.217  21.190  25.439  1.00  0.00     0.261 C 
BRANCH   5   6
ATOM      6  O   UNL A   1      34.986  21.924  25.639  1.00  0.00    -0.459 OA
BRANCH   6   7
ATOM      7  C   UNL A   1      33.975  21.254  26.259  1.00  0.00     0.348 C 
ATOM      8  O   UNL A   1      33.823  21.127  27.459  1.00  0.00    -0.245 OA
BRANCH   7   9
ATOM      9  C   UNL A   1      33.019  20.688  25.273  1.00  0.00     0.138 C 
ATOM     10  C   UNL A   1      31.842  21.353  25.145  1.00  0.00     0.040 C 
BRANCH  10  11
ATOM     11  C   UNL A   1      31.358  22.672  25.581  1.00  0.00     0.037 A 
ATOM     12  N   UNL A   1      31.293  24.924  25.660  1.00  0.00    -0.221 N 
ATOM     13  N   UNL A   1      30.608  24.520  26.733  1.00  0.00    -0.171 NA
ATOM     14  C   UNL A   1      31.745  23.846  24.937  1.00  0.00     0.140 A 
ATOM     15  C   UNL A   1      30.428  23.206  26.550  1.00  0.00     0.069 A 
ATOM     16  Cl  UNL A   1      32.678  24.114  23.527  1.00  0.00    -0.061 Cl
ATOM     17  C   UNL A   1      29.303  22.695  27.369  1.00  0.00     0.069 C 
BRANCH  12  18
ATOM     18  C   UNL A   1      31.285  26.310  25.385  1.00  0.00     0.069 A 
ATOM     19  C   UNL A   1      33.755  29.191  25.755  1.00  0.00     0.044 C 
ATOM     20  C   UNL A   1      32.541  28.391  25.385  1.00  0.00    -0.049 A 
ATOM     21  C   UNL A   1      31.562  28.958  24.560  1.00  0.00     0.004 A 
ATOM     22  C   UNL A   1      32.384  27.069  25.820  1.00  0.00     0.032 A 
ATOM     23  C   UNL A   1      30.475  28.198  24.121  1.00  0.00     0.006 A 
ATOM     24  C   UNL A   1      30.337  26.853  24.494  1.00  0.00    -0.025 A 
ATOM     25  C   UNL A   1      29.175  26.084  23.928  1.00  0.00     0.047 C 
ENDBRANCH  12  18
ENDBRANCH  10  11
BRANCH   9  26
ATOM     26  C   UNL A   1      33.182  19.208  24.958  1.00  0.00     0.107 C 
ATOM     27  N   UNL A   1      33.317  17.982  24.697  1.00  0.00    -0.192 NA
ENDBRANCH   9  26
ENDBRANCH   7   9
ENDBRANCH   6   7
ENDBRANCH   5   6
ENDBRANCH   4   5
ENDBRANCH   3   4
ENDBRANCH   2   3
ENDBRANCH   1   2
BRANCH   1  28
ATOM     28  O   UNL A   1      40.812  23.614  27.551  1.00  0.00    -0.376 OA
BRANCH  28  29
ATOM     29  C   UNL A   1      41.247  22.296  27.849  1.00  0.00     0.202 C 
BRANCH  29  30
ATOM     30  C   UNL A   1      41.944  21.582  26.687  1.00  0.00     0.261 C 
BRANCH  30  31
ATOM     31  O   UNL A   1      43.162  22.092  26.075  1.00  0.00    -0.460 OA
BRANCH  31  32
ATOM     32  C   UNL A   1      43.311  23.067  25.156  1.00  0.00     0.338 C 
ATOM     33  O   UNL A   1      43.552  22.815  23.981  1.00  0.00    -0.246 OA
BRANCH  32  34
ATOM     34  C   UNL A   1      43.236  24.456  25.631  1.00  0.00     0.060 A 
ATOM     35  C   UNL A   1      44.047  24.740  26.709  1.00  0.00     0.016 A 
ATOM     36  C   UNL A   1      42.314  25.406  25.164  1.00  0.00     0.016 A 
ATOM     37  C   UNL A   1      43.775  25.882  27.425  1.00  0.00     0.010 A 
ATOM     38  C   UNL A   1      42.042  26.558  25.928  1.00  0.00     0.010 A 
ATOM     39  C   UNL A   1      42.719  26.749  27.125  1.00  0.00    -0.014 A 
BRANCH  39  40
ATOM     40  C   UNL A   1      42.621  27.900  28.050  1.00  0.00     0.031 A 
ATOM     41  C   UNL A   1      43.816  28.787  27.946  1.00  0.00     0.074 A 
ATOM     42  C   UNL A   1      41.705  28.091  29.032  1.00  0.00     0.049 A 
ATOM     43  N   UNL A   1      44.595  29.147  28.919  1.00  0.00    -0.248 NA
ATOM     44  C   UNL A   1      44.344  29.086  26.600  1.00  0.00     0.031 C 
ATOM     45  C   UNL A   1      40.553  27.238  29.314  1.00  0.00     0.029 A 
ATOM     46  N   UNL A   1      41.573  29.110  29.966  1.00  0.00    -0.354 N 
ATOM     47  C   UNL A   1      45.551  29.956  28.315  1.00  0.00     0.074 A 
ATOM     48  C   UNL A   1      45.472  29.729  26.893  1.00  0.00     0.031 C 
ATOM     49  C   UNL A   1      39.730  27.878  30.169  1.00  0.00     0.029 A 
ATOM     50  C   UNL A   1      40.284  29.180  30.500  1.00  0.00     0.049 A 
ATOM     51  H   UNL A   1      42.306  29.715  30.225  1.00  0.00     0.167 HD
ATOM     52  C   UNL A   1      45.905  31.112  28.929  1.00  0.00     0.034 A 
ATOM     53  C   UNL A   1      39.642  30.247  31.051  1.00  0.00     0.034 A 
ATOM     54  C   UNL A   1      45.947  31.018  30.353  1.00  0.00     0.049 A 
ATOM     55  C   UNL A   1      40.631  31.202  31.591  1.00  0.00     0.074 A 
ATOM     56  C   UNL A   1      46.778  30.498  31.319  1.00  0.00     0.029 A 
ATOM     57  N   UNL A   1      44.763  31.313  30.957  1.00  0.00    -0.354 N 
ATOM     58  N   UNL A   1      41.227  31.061  32.742  1.00  0.00    -0.248 NA
ATOM     59  C   UNL A   1      41.143  32.272  30.739  1.00  0.00     0.031 C 
ATOM     60  C   UNL A   1      46.050  30.529  32.543  1.00  0.00     0.029 A 
ATOM     61  C   UNL A   1      44.792  31.072  32.299  1.00  0.00     0.049 A 
ATOM     62  H   UNL A   1      43.976  31.660  30.480  1.00  0.00     0.167 HD
ATOM     63  C   UNL A   1      42.435  31.707  32.564  1.00  0.00     0.074 A 
ATOM     64  C   UNL A   1      42.259  32.570  31.405  1.00  0.00     0.031 C 
ATOM     65  C   UNL A   1      43.578  31.176  33.075  1.00  0.00     0.034 A 
BRANCH  52  66
ATOM     66  C   UNL A   1      45.533  32.413  28.246  1.00  0.00     0.023 A 
ATOM     67  C   UNL A   1      44.184  32.780  28.144  1.00  0.00     0.012 A 
ATOM     68  C   UNL A   1      46.460  33.168  27.487  1.00  0.00     0.148 A 
ATOM     69  C   UNL A   1      43.800  33.894  27.384  1.00  0.00     0.002 A 
ATOM     70  C   UNL A   1      46.102  34.347  26.863  1.00  0.00     0.091 A 
ATOM     71  F   UNL A   1      47.666  32.658  27.206  1.00  0.00    -0.205 F 
ATOM     72  C   UNL A   1      44.761  34.708  26.785  1.00  0.00     0.022 A 
BRANCH  70  73
ATOM     73  S   UNL A   1      47.364  35.440  26.208  1.00  0.00     0.127 S 
ATOM     74  O   UNL A   1      47.822  34.700  25.037  1.00  0.00    -0.237 OA
ATOM     75  O   UNL A   1      46.597  36.652  25.922  1.00  0.00    -0.237 OA
ATOM     76  O   UNL A   1      48.330  35.596  27.292  1.00  0.00    -0.744 OA
ENDBRANCH  70  73
ENDBRANCH  52  66
BRANCH  53  77
ATOM     77  C   UNL A   1      38.187  30.603  31.039  1.00  0.00     0.023 A 
ATOM     78  C   UNL A   1      37.453  30.621  32.248  1.00  0.00     0.012 A 
ATOM     79  C   UNL A   1      37.571  31.186  29.909  1.00  0.00     0.148 A 
ATOM     80  C   UNL A   1      36.193  31.236  32.335  1.00  0.00     0.002 A 
ATOM     81  C   UNL A   1      36.312  31.771  29.991  1.00  0.00     0.091 A 
ATOM     82  F   UNL A   1      38.246  31.271  28.761  1.00  0.00    -0.205 F 
ATOM     83  C   UNL A   1      35.624  31.817  31.206  1.00  0.00     0.022 A 
BRANCH  81  84
ATOM     84  S   UNL A   1      35.554  32.537  28.551  1.00  0.00     0.127 S 
ATOM     85  O   UNL A   1      36.574  33.501  28.138  1.00  0.00    -0.237 OA
ATOM     86  O   UNL A   1      35.386  31.399  27.655  1.00  0.00    -0.237 OA
ATOM     87  O   UNL A   1      34.323  33.154  29.036  1.00  0.00    -0.744 OA
ENDBRANCH  81  84
ENDBRANCH  53  77
BRANCH  65  88
ATOM     88  C   UNL A   1      43.528  30.548  34.428  1.00  0.00     0.023 A 
ATOM     89  C   UNL A   1      43.744  31.254  35.623  1.00  0.00     0.012 A 
ATOM     90  C   UNL A   1      43.188  29.184  34.484  1.00  0.00     0.148 A 
ATOM     91  C   UNL A   1      43.633  30.602  36.854  1.00  0.00     0.002 A 
ATOM     92  C   UNL A   1      43.034  28.553  35.707  1.00  0.00     0.091 A 
ATOM     93  F   UNL A   1      43.022  28.521  33.328  1.00  0.00    -0.205 F 
ATOM     94  C   UNL A   1      43.265  29.257  36.898  1.00  0.00     0.022 A 
BRANCH  92  95
ATOM     95  S   UNL A   1      42.470  26.855  35.813  1.00  0.00     0.127 S 
ATOM     96  O   UNL A   1      43.546  26.132  35.139  1.00  0.00    -0.237 OA
ATOM     97  O   UNL A   1      42.396  26.638  37.258  1.00  0.00    -0.237 OA
ATOM     98  O   UNL A   1      41.175  26.822  35.142  1.00  0.00    -0.744 OA
ENDBRANCH  92  95
ENDBRANCH  65  88
ENDBRANCH  39  40
ENDBRANCH  32  34
ENDBRANCH  31  32
ENDBRANCH  30  31
ENDBRANCH  29  30
ENDBRANCH  28  29
ENDBRANCH   1  28
TORSDOF 23
ENDMDL
