MODEL 1
REMARK VINA RESULT:     -10.1      0.000      0.000
REMARK SMILES C[C@H]1[C@@H](C(=O)OCCOCCOCCOC(=O)c2ccc(-c3c4nc(c(-c5cccc(S(=O)(=O)[O-])c5F)c5ccc([nH]5)c(-c5cccc(S(=O)(=O)[O-])c5F)c5nc(c(-c6cccc(S(=O)(=O)[O-])c6F)c6ccc3[nH]6)C=C5)C=C4)cc2)CCN1C(=O)NC1CCCCC1
REMARK SMILES IDX 11 1 10 2 9 3 8 4 7 5 6 6 4 7 5 8 3 9 1 10 2 11 83 12 81 13
REMARK SMILES IDX 82 14 84 15 85 16 86 17 87 19 88 20 92 21 89 22 91 23 90 24
REMARK SMILES IDX 12 25 13 26 14 27 15 28 16 29 17 30 18 31 19 32 80 33 20 34
REMARK SMILES IDX 79 35 21 36 22 37 23 38 73 39 24 40 78 41 72 42 74 43 25 44
REMARK SMILES IDX 77 45 71 46 70 47 26 49 58 50 38 51 57 52 39 53 42 54 56 55
REMARK SMILES IDX 75 56 40 57 41 58 55 60 76 61 43 62 27 63 28 64 36 65 29 66
REMARK SMILES IDX 31 67 37 68 30 69 32 70 33 71 34 72 35 73 59 74 60 75 68 76
REMARK SMILES IDX 61 77 63 78 69 79 62 80 64 81 65 82 66 83 67 84 44 85 45 86
REMARK SMILES IDX 53 87 46 88 48 89 54 90 47 91 49 92 50 93 51 94 52 95
REMARK H PARENT 86 18 74 48 42 59
REMARK Flexibility Score: inf
ROOT
ATOM      1  C   UNL A   1      30.607  30.567  24.504  1.00  0.00     0.188 C 
ENDROOT
BRANCH   1   2
ATOM      2  C   UNL A   1      29.477  30.118  23.565  1.00  0.00     0.188 C 
BRANCH   2   3
ATOM      3  O   UNL A   1      29.707  29.067  22.643  1.00  0.00    -0.376 OA
BRANCH   3   4
ATOM      4  C   UNL A   1      31.032  28.617  22.401  1.00  0.00     0.202 C 
BRANCH   4   5
ATOM      5  C   UNL A   1      31.380  27.186  22.809  1.00  0.00     0.261 C 
BRANCH   5   6
ATOM      6  O   UNL A   1      31.195  27.012  24.223  1.00  0.00    -0.463 OA
BRANCH   6   7
ATOM      7  C   UNL A   1      32.285  26.987  25.018  1.00  0.00     0.311 C 
ATOM      8  O   UNL A   1      33.209  27.787  24.949  1.00  0.00    -0.252 OA
BRANCH   7   9
ATOM      9  C   UNL A   1      32.252  25.877  26.048  1.00  0.00     0.123 C 
ATOM     10  C   UNL A   1      34.330  24.587  24.946  1.00  0.00     0.032 C 
ATOM     11  C   UNL A   1      33.352  24.808  26.110  1.00  0.00     0.098 C 
ATOM     12  N   UNL A   1      32.728  23.568  26.536  1.00  0.00    -0.321 N 
ATOM     13  C   UNL A   1      30.930  25.120  26.140  1.00  0.00     0.039 C 
ATOM     14  C   UNL A   1      31.284  23.657  26.393  1.00  0.00     0.122 C 
BRANCH  12  15
ATOM     15  C   UNL A   1      33.257  22.409  27.015  1.00  0.00     0.317 C 
ATOM     16  O   UNL A   1      33.982  22.426  28.020  1.00  0.00    -0.249 OA
ATOM     17  N   UNL A   1      33.103  21.185  26.473  1.00  0.00    -0.335 N 
ATOM     18  H   UNL A   1      33.652  20.548  26.984  1.00  0.00     0.165 HD
BRANCH  17  19
ATOM     19  C   UNL A   1      32.409  20.440  25.388  1.00  0.00     0.083 C 
ATOM     20  C   UNL A   1      32.657  20.957  23.981  1.00  0.00     0.025 C 
ATOM     21  C   UNL A   1      32.814  18.950  25.445  1.00  0.00     0.025 C 
ATOM     22  C   UNL A   1      32.190  20.130  22.810  1.00  0.00     0.002 C 
ATOM     23  C   UNL A   1      32.261  18.137  24.268  1.00  0.00     0.002 C 
ATOM     24  C   UNL A   1      32.683  18.716  22.921  1.00  0.00     0.000 C 
ENDBRANCH  17  19
ENDBRANCH  12  15
ENDBRANCH   7   9
ENDBRANCH   6   7
ENDBRANCH   5   6
ENDBRANCH   4   5
ENDBRANCH   3   4
ENDBRANCH   2   3
ENDBRANCH   1   2
BRANCH   1  25
ATOM     25  O   UNL A   1      30.458  31.676  25.370  1.00  0.00    -0.376 OA
BRANCH  25  26
ATOM     26  C   UNL A   1      31.281  31.739  26.522  1.00  0.00     0.202 C 
BRANCH  26  27
ATOM     27  C   UNL A   1      31.774  33.111  26.993  1.00  0.00     0.261 C 
BRANCH  27  28
ATOM     28  O   UNL A   1      33.198  33.276  26.918  1.00  0.00    -0.460 OA
BRANCH  28  29
ATOM     29  C   UNL A   1      33.790  33.814  28.015  1.00  0.00     0.338 C 
ATOM     30  O   UNL A   1      33.391  34.757  28.681  1.00  0.00    -0.246 OA
BRANCH  29  31
ATOM     31  C   UNL A   1      34.898  32.933  28.434  1.00  0.00     0.060 A 
ATOM     32  C   UNL A   1      34.633  31.577  28.692  1.00  0.00     0.016 A 
ATOM     33  C   UNL A   1      36.187  33.441  28.577  1.00  0.00     0.016 A 
ATOM     34  C   UNL A   1      35.657  30.723  29.096  1.00  0.00     0.010 A 
ATOM     35  C   UNL A   1      37.202  32.597  29.022  1.00  0.00     0.010 A 
ATOM     36  C   UNL A   1      36.937  31.244  29.306  1.00  0.00    -0.014 A 
BRANCH  36  37
ATOM     37  C   UNL A   1      37.963  30.468  30.037  1.00  0.00     0.031 A 
ATOM     38  C   UNL A   1      38.273  30.887  31.444  1.00  0.00     0.074 A 
ATOM     39  C   UNL A   1      38.661  29.486  29.441  1.00  0.00     0.049 A 
ATOM     40  N   UNL A   1      39.284  30.564  32.202  1.00  0.00    -0.248 NA
ATOM     41  C   UNL A   1      37.315  31.814  32.073  1.00  0.00     0.031 C 
ATOM     42  C   UNL A   1      38.411  28.959  28.102  1.00  0.00     0.029 A 
ATOM     43  N   UNL A   1      39.766  28.797  29.878  1.00  0.00    -0.354 N 
ATOM     44  C   UNL A   1      39.120  31.293  33.374  1.00  0.00     0.074 A 
ATOM     45  C   UNL A   1      37.902  32.061  33.234  1.00  0.00     0.031 C 
ATOM     46  C   UNL A   1      39.371  28.067  27.801  1.00  0.00     0.029 A 
ATOM     47  C   UNL A   1      40.329  28.005  28.904  1.00  0.00     0.049 A 
ATOM     48  H   UNL A   1      40.119  28.863  30.794  1.00  0.00     0.167 HD
ATOM     49  C   UNL A   1      39.921  31.326  34.462  1.00  0.00     0.034 A 
ATOM     50  C   UNL A   1      41.511  27.356  28.888  1.00  0.00     0.034 A 
ATOM     51  C   UNL A   1      41.122  30.552  34.590  1.00  0.00     0.049 A 
ATOM     52  C   UNL A   1      42.414  27.445  30.095  1.00  0.00     0.074 A 
ATOM     53  C   UNL A   1      41.994  30.489  35.661  1.00  0.00     0.029 A 
ATOM     54  N   UNL A   1      41.629  29.717  33.607  1.00  0.00    -0.354 N 
ATOM     55  N   UNL A   1      42.224  28.086  31.224  1.00  0.00    -0.248 NA
ATOM     56  C   UNL A   1      43.687  26.710  30.034  1.00  0.00     0.031 C 
ATOM     57  C   UNL A   1      43.048  29.641  35.311  1.00  0.00     0.029 A 
ATOM     58  C   UNL A   1      42.807  29.139  34.041  1.00  0.00     0.049 A 
ATOM     59  H   UNL A   1      41.211  29.558  32.729  1.00  0.00     0.167 HD
ATOM     60  C   UNL A   1      43.324  27.790  32.024  1.00  0.00     0.074 A 
ATOM     61  C   UNL A   1      44.177  26.914  31.251  1.00  0.00     0.031 C 
ATOM     62  C   UNL A   1      43.604  28.210  33.282  1.00  0.00     0.034 A 
BRANCH  49  63
ATOM     63  C   UNL A   1      39.529  32.240  35.592  1.00  0.00     0.023 A 
ATOM     64  C   UNL A   1      38.777  31.742  36.674  1.00  0.00     0.012 A 
ATOM     65  C   UNL A   1      39.946  33.585  35.599  1.00  0.00     0.148 A 
ATOM     66  C   UNL A   1      38.416  32.577  37.730  1.00  0.00     0.002 A 
ATOM     67  C   UNL A   1      39.626  34.399  36.677  1.00  0.00     0.091 A 
ATOM     68  F   UNL A   1      40.639  34.045  34.547  1.00  0.00    -0.205 F 
ATOM     69  C   UNL A   1      38.850  33.901  37.737  1.00  0.00     0.022 A 
BRANCH  67  70
ATOM     70  S   UNL A   1      40.205  36.092  36.818  1.00  0.00     0.127 S 
ATOM     71  O   UNL A   1      41.643  35.900  37.000  1.00  0.00    -0.237 OA
ATOM     72  O   UNL A   1      39.824  36.656  35.523  1.00  0.00    -0.237 OA
ATOM     73  O   UNL A   1      39.504  36.665  37.960  1.00  0.00    -0.744 OA
ENDBRANCH  67  70
ENDBRANCH  49  63
BRANCH  50  74
ATOM     74  C   UNL A   1      41.919  26.566  27.690  1.00  0.00     0.023 A 
ATOM     75  C   UNL A   1      42.594  27.209  26.635  1.00  0.00     0.012 A 
ATOM     76  C   UNL A   1      41.649  25.187  27.593  1.00  0.00     0.148 A 
ATOM     77  C   UNL A   1      42.963  26.501  25.490  1.00  0.00     0.002 A 
ATOM     78  C   UNL A   1      42.068  24.476  26.474  1.00  0.00     0.091 A 
ATOM     79  F   UNL A   1      40.992  24.595  28.600  1.00  0.00    -0.205 F 
ATOM     80  C   UNL A   1      42.710  25.134  25.414  1.00  0.00     0.022 A 
BRANCH  78  81
ATOM     81  S   UNL A   1      41.891  22.693  26.337  1.00  0.00     0.127 S 
ATOM     82  O   UNL A   1      42.481  22.236  27.592  1.00  0.00    -0.237 OA
ATOM     83  O   UNL A   1      40.439  22.541  26.248  1.00  0.00    -0.237 OA
ATOM     84  O   UNL A   1      42.612  22.317  25.128  1.00  0.00    -0.744 OA
ENDBRANCH  78  81
ENDBRANCH  50  74
BRANCH  62  85
ATOM     85  C   UNL A   1      44.839  27.673  33.956  1.00  0.00     0.023 A 
ATOM     86  C   UNL A   1      46.058  28.369  33.865  1.00  0.00     0.012 A 
ATOM     87  C   UNL A   1      44.742  26.546  34.798  1.00  0.00     0.148 A 
ATOM     88  C   UNL A   1      47.169  27.942  34.592  1.00  0.00     0.002 A 
ATOM     89  C   UNL A   1      45.837  26.159  35.560  1.00  0.00     0.091 A 
ATOM     90  F   UNL A   1      43.573  25.893  34.858  1.00  0.00    -0.205 F 
ATOM     91  C   UNL A   1      47.055  26.849  35.450  1.00  0.00     0.022 A 
BRANCH  89  92
ATOM     92  S   UNL A   1      45.752  24.835  36.770  1.00  0.00     0.127 S 
ATOM     93  O   UNL A   1      46.069  23.664  35.953  1.00  0.00    -0.237 OA
ATOM     94  O   UNL A   1      46.797  25.218  37.719  1.00  0.00    -0.237 OA
ATOM     95  O   UNL A   1      44.399  24.864  37.310  1.00  0.00    -0.744 OA
ENDBRANCH  89  92
ENDBRANCH  62  85
ENDBRANCH  36  37
ENDBRANCH  29  31
ENDBRANCH  28  29
ENDBRANCH  27  28
ENDBRANCH  26  27
ENDBRANCH  25  26
ENDBRANCH   1  25
TORSDOF 22
ENDMDL
MODEL 2
REMARK VINA RESULT:     -10.0      6.196     11.753
REMARK SMILES C[C@H]1[C@@H](C(=O)OCCOCCOCCOC(=O)c2ccc(-c3c4nc(c(-c5cccc(S(=O)(=O)[O-])c5F)c5ccc([nH]5)c(-c5cccc(S(=O)(=O)[O-])c5F)c5nc(c(-c6cccc(S(=O)(=O)[O-])c6F)c6ccc3[nH]6)C=C5)C=C4)cc2)CCN1C(=O)NC1CCCCC1
REMARK SMILES IDX 11 1 10 2 9 3 8 4 7 5 6 6 4 7 5 8 3 9 1 10 2 11 83 12 81 13
REMARK SMILES IDX 82 14 84 15 85 16 86 17 87 19 88 20 92 21 89 22 91 23 90 24
REMARK SMILES IDX 12 25 13 26 14 27 15 28 16 29 17 30 18 31 19 32 80 33 20 34
REMARK SMILES IDX 79 35 21 36 22 37 23 38 73 39 24 40 78 41 72 42 74 43 25 44
REMARK SMILES IDX 77 45 71 46 70 47 26 49 58 50 38 51 57 52 39 53 42 54 56 55
REMARK SMILES IDX 75 56 40 57 41 58 55 60 76 61 43 62 27 63 28 64 36 65 29 66
REMARK SMILES IDX 31 67 37 68 30 69 32 70 33 71 34 72 35 73 59 74 60 75 68 76
REMARK SMILES IDX 61 77 63 78 69 79 62 80 64 81 65 82 66 83 67 84 44 85 45 86
REMARK SMILES IDX 53 87 46 88 48 89 54 90 47 91 49 92 50 93 51 94 52 95
REMARK H PARENT 86 18 74 48 42 59
REMARK Flexibility Score: inf
ROOT
ATOM      1  C   UNL A   1      41.089  21.384  27.624  1.00  0.00     0.188 C 
ENDROOT
BRANCH   1   2
ATOM      2  C   UNL A   1      40.687  22.235  26.410  1.00  0.00     0.188 C 
BRANCH   2   3
ATOM      3  O   UNL A   1      39.436  22.900  26.402  1.00  0.00    -0.376 OA
BRANCH   3   4
ATOM      4  C   UNL A   1      38.319  22.294  25.767  1.00  0.00     0.202 C 
BRANCH   4   5
ATOM      5  C   UNL A   1      37.113  23.181  25.461  1.00  0.00     0.261 C 
BRANCH   5   6
ATOM      6  O   UNL A   1      36.313  22.593  24.422  1.00  0.00    -0.463 OA
BRANCH   6   7
ATOM      7  C   UNL A   1      34.992  22.428  24.640  1.00  0.00     0.311 C 
ATOM      8  O   UNL A   1      34.516  21.926  25.650  1.00  0.00    -0.252 OA
BRANCH   7   9
ATOM      9  C   UNL A   1      34.126  22.958  23.516  1.00  0.00     0.123 C 
ATOM     10  C   UNL A   1      34.337  25.499  24.350  1.00  0.00     0.032 C 
ATOM     11  C   UNL A   1      33.952  24.465  23.281  1.00  0.00     0.098 C 
ATOM     12  N   UNL A   1      32.603  24.673  22.785  1.00  0.00    -0.321 N 
ATOM     13  C   UNL A   1      32.723  22.361  23.445  1.00  0.00     0.039 C 
ATOM     14  C   UNL A   1      31.789  23.496  23.035  1.00  0.00     0.122 C 
BRANCH  12  15
ATOM     15  C   UNL A   1      32.023  25.738  22.167  1.00  0.00     0.317 C 
ATOM     16  O   UNL A   1      31.990  25.795  20.929  1.00  0.00    -0.249 OA
ATOM     17  N   UNL A   1      31.483  26.810  22.777  1.00  0.00    -0.335 N 
ATOM     18  H   UNL A   1      31.204  27.453  22.086  1.00  0.00     0.165 HD
BRANCH  17  19
ATOM     19  C   UNL A   1      31.150  27.383  24.110  1.00  0.00     0.083 C 
ATOM     20  C   UNL A   1      31.119  26.386  25.257  1.00  0.00     0.025 C 
ATOM     21  C   UNL A   1      32.156  28.502  24.457  1.00  0.00     0.025 C 
ATOM     22  C   UNL A   1      31.024  26.906  26.669  1.00  0.00     0.002 C 
ATOM     23  C   UNL A   1      31.977  29.044  25.881  1.00  0.00     0.002 C 
ATOM     24  C   UNL A   1      32.078  27.943  26.931  1.00  0.00     0.000 C 
ENDBRANCH  17  19
ENDBRANCH  12  15
ENDBRANCH   7   9
ENDBRANCH   6   7
ENDBRANCH   5   6
ENDBRANCH   4   5
ENDBRANCH   3   4
ENDBRANCH   2   3
ENDBRANCH   1   2
BRANCH   1  25
ATOM     25  O   UNL A   1      40.895  19.982  27.647  1.00  0.00    -0.376 OA
BRANCH  25  26
ATOM     26  C   UNL A   1      42.031  19.149  27.496  1.00  0.00     0.202 C 
BRANCH  26  27
ATOM     27  C   UNL A   1      42.302  18.527  26.122  1.00  0.00     0.261 C 
BRANCH  27  28
ATOM     28  O   UNL A   1      42.654  19.481  25.109  1.00  0.00    -0.460 OA
BRANCH  28  29
ATOM     29  C   UNL A   1      43.974  19.559  24.803  1.00  0.00     0.338 C 
ATOM     30  O   UNL A   1      44.666  18.692  24.290  1.00  0.00    -0.246 OA
BRANCH  29  31
ATOM     31  C   UNL A   1      44.417  20.957  24.975  1.00  0.00     0.060 A 
ATOM     32  C   UNL A   1      44.759  21.412  26.260  1.00  0.00     0.016 A 
ATOM     33  C   UNL A   1      44.489  21.813  23.879  1.00  0.00     0.016 A 
ATOM     34  C   UNL A   1      45.173  22.728  26.455  1.00  0.00     0.010 A 
ATOM     35  C   UNL A   1      44.862  23.141  24.081  1.00  0.00     0.010 A 
ATOM     36  C   UNL A   1      45.182  23.608  25.370  1.00  0.00    -0.014 A 
BRANCH  36  37
ATOM     37  C   UNL A   1      45.293  25.069  25.576  1.00  0.00     0.031 A 
ATOM     38  C   UNL A   1      46.667  25.671  25.525  1.00  0.00     0.074 A 
ATOM     39  C   UNL A   1      44.223  25.819  25.892  1.00  0.00     0.049 A 
ATOM     40  N   UNL A   1      47.074  26.845  25.924  1.00  0.00    -0.248 NA
ATOM     41  C   UNL A   1      47.730  24.820  24.964  1.00  0.00     0.031 C 
ATOM     42  C   UNL A   1      42.839  25.356  25.916  1.00  0.00     0.029 A 
ATOM     43  N   UNL A   1      44.153  27.127  26.307  1.00  0.00    -0.354 N 
ATOM     44  C   UNL A   1      48.448  26.853  25.719  1.00  0.00     0.074 A 
ATOM     45  C   UNL A   1      48.803  25.575  25.143  1.00  0.00     0.031 C 
ATOM     46  C   UNL A   1      42.058  26.347  26.380  1.00  0.00     0.029 A 
ATOM     47  C   UNL A   1      42.897  27.491  26.735  1.00  0.00     0.049 A 
ATOM     48  H   UNL A   1      44.922  27.740  26.299  1.00  0.00     0.167 HD
ATOM     49  C   UNL A   1      49.333  27.836  25.997  1.00  0.00     0.034 A 
ATOM     50  C   UNL A   1      42.489  28.596  27.393  1.00  0.00     0.034 A 
ATOM     51  C   UNL A   1      48.964  29.103  26.560  1.00  0.00     0.049 A 
ATOM     52  C   UNL A   1      43.503  29.660  27.738  1.00  0.00     0.074 A 
ATOM     53  C   UNL A   1      49.777  30.181  26.856  1.00  0.00     0.029 A 
ATOM     54  N   UNL A   1      47.675  29.457  26.925  1.00  0.00    -0.354 N 
ATOM     55  N   UNL A   1      44.790  29.688  27.485  1.00  0.00    -0.248 NA
ATOM     56  C   UNL A   1      43.007  30.852  28.444  1.00  0.00     0.031 C 
ATOM     57  C   UNL A   1      48.984  31.175  27.435  1.00  0.00     0.029 A 
ATOM     58  C   UNL A   1      47.669  30.734  27.453  1.00  0.00     0.049 A 
ATOM     59  H   UNL A   1      46.881  28.884  26.824  1.00  0.00     0.167 HD
ATOM     60  C   UNL A   1      45.246  30.918  27.953  1.00  0.00     0.074 A 
ATOM     61  C   UNL A   1      44.098  31.605  28.505  1.00  0.00     0.031 C 
ATOM     62  C   UNL A   1      46.501  31.429  27.931  1.00  0.00     0.034 A 
BRANCH  49  63
ATOM     63  C   UNL A   1      50.786  27.572  25.709  1.00  0.00     0.023 A 
ATOM     64  C   UNL A   1      51.654  27.187  26.750  1.00  0.00     0.012 A 
ATOM     65  C   UNL A   1      51.281  27.665  24.393  1.00  0.00     0.148 A 
ATOM     66  C   UNL A   1      52.999  26.931  26.492  1.00  0.00     0.002 A 
ATOM     67  C   UNL A   1      52.611  27.361  24.136  1.00  0.00     0.091 A 
ATOM     68  F   UNL A   1      50.445  28.058  23.422  1.00  0.00    -0.205 F 
ATOM     69  C   UNL A   1      53.475  27.007  25.185  1.00  0.00     0.022 A 
BRANCH  67  70
ATOM     70  S   UNL A   1      53.298  27.350  22.477  1.00  0.00     0.127 S 
ATOM     71  O   UNL A   1      54.596  26.714  22.698  1.00  0.00    -0.237 OA
ATOM     72  O   UNL A   1      52.332  26.528  21.749  1.00  0.00    -0.237 OA
ATOM     73  O   UNL A   1      53.352  28.743  22.054  1.00  0.00    -0.744 OA
ENDBRANCH  67  70
ENDBRANCH  49  63
BRANCH  50  74
ATOM     74  C   UNL A   1      41.057  28.757  27.776  1.00  0.00     0.023 A 
ATOM     75  C   UNL A   1      40.117  29.132  26.796  1.00  0.00     0.012 A 
ATOM     76  C   UNL A   1      40.620  28.537  29.097  1.00  0.00     0.148 A 
ATOM     77  C   UNL A   1      38.775  29.317  27.132  1.00  0.00     0.002 A 
ATOM     78  C   UNL A   1      39.273  28.669  29.413  1.00  0.00     0.091 A 
ATOM     79  F   UNL A   1      41.531  28.196  30.019  1.00  0.00    -0.205 F 
ATOM     80  C   UNL A   1      38.351  29.076  28.435  1.00  0.00     0.022 A 
BRANCH  78  81
ATOM     81  S   UNL A   1      38.614  28.268  31.036  1.00  0.00     0.127 S 
ATOM     82  O   UNL A   1      39.455  29.082  31.909  1.00  0.00    -0.237 OA
ATOM     83  O   UNL A   1      37.228  28.722  30.918  1.00  0.00    -0.237 OA
ATOM     84  O   UNL A   1      38.766  26.827  31.179  1.00  0.00    -0.744 OA
ENDBRANCH  78  81
ENDBRANCH  50  74
BRANCH  62  85
ATOM     85  C   UNL A   1      46.711  32.831  28.439  1.00  0.00     0.023 A 
ATOM     86  C   UNL A   1      47.115  33.052  29.768  1.00  0.00     0.012 A 
ATOM     87  C   UNL A   1      46.641  33.918  27.543  1.00  0.00     0.148 A 
ATOM     88  C   UNL A   1      47.433  34.339  30.204  1.00  0.00     0.002 A 
ATOM     89  C   UNL A   1      47.009  35.187  27.969  1.00  0.00     0.091 A 
ATOM     90  F   UNL A   1      46.241  33.682  26.285  1.00  0.00    -0.205 F 
ATOM     91  C   UNL A   1      47.396  35.402  29.302  1.00  0.00     0.022 A 
BRANCH  89  92
ATOM     92  S   UNL A   1      47.098  36.592  26.855  1.00  0.00     0.127 S 
ATOM     93  O   UNL A   1      45.690  36.787  26.509  1.00  0.00    -0.237 OA
ATOM     94  O   UNL A   1      47.665  37.631  27.714  1.00  0.00    -0.237 OA
ATOM     95  O   UNL A   1      47.955  36.182  25.750  1.00  0.00    -0.744 OA
ENDBRANCH  89  92
ENDBRANCH  62  85
ENDBRANCH  36  37
ENDBRANCH  29  31
ENDBRANCH  28  29
ENDBRANCH  27  28
ENDBRANCH  26  27
ENDBRANCH  25  26
ENDBRANCH   1  25
TORSDOF 22
ENDMDL
MODEL 3
REMARK VINA RESULT:     -10.0      1.786      2.254
REMARK SMILES C[C@H]1[C@@H](C(=O)OCCOCCOCCOC(=O)c2ccc(-c3c4nc(c(-c5cccc(S(=O)(=O)[O-])c5F)c5ccc([nH]5)c(-c5cccc(S(=O)(=O)[O-])c5F)c5nc(c(-c6cccc(S(=O)(=O)[O-])c6F)c6ccc3[nH]6)C=C5)C=C4)cc2)CCN1C(=O)NC1CCCCC1
REMARK SMILES IDX 11 1 10 2 9 3 8 4 7 5 6 6 4 7 5 8 3 9 1 10 2 11 83 12 81 13
REMARK SMILES IDX 82 14 84 15 85 16 86 17 87 19 88 20 92 21 89 22 91 23 90 24
REMARK SMILES IDX 12 25 13 26 14 27 15 28 16 29 17 30 18 31 19 32 80 33 20 34
REMARK SMILES IDX 79 35 21 36 22 37 23 38 73 39 24 40 78 41 72 42 74 43 25 44
REMARK SMILES IDX 77 45 71 46 70 47 26 49 58 50 38 51 57 52 39 53 42 54 56 55
REMARK SMILES IDX 75 56 40 57 41 58 55 60 76 61 43 62 27 63 28 64 36 65 29 66
REMARK SMILES IDX 31 67 37 68 30 69 32 70 33 71 34 72 35 73 59 74 60 75 68 76
REMARK SMILES IDX 61 77 63 78 69 79 62 80 64 81 65 82 66 83 67 84 44 85 45 86
REMARK SMILES IDX 53 87 46 88 48 89 54 90 47 91 49 92 50 93 51 94 52 95
REMARK H PARENT 86 18 74 48 42 59
REMARK Flexibility Score: inf
ROOT
ATOM      1  C   UNL A   1      30.543  30.988  24.860  1.00  0.00     0.188 C 
ENDROOT
BRANCH   1   2
ATOM      2  C   UNL A   1      29.414  30.790  23.837  1.00  0.00     0.188 C 
BRANCH   2   3
ATOM      3  O   UNL A   1      29.589  29.878  22.767  1.00  0.00    -0.376 OA
BRANCH   3   4
ATOM      4  C   UNL A   1      30.862  29.288  22.543  1.00  0.00     0.202 C 
BRANCH   4   5
ATOM      5  C   UNL A   1      30.923  27.768  22.408  1.00  0.00     0.261 C 
BRANCH   5   6
ATOM      6  O   UNL A   1      30.001  27.148  23.318  1.00  0.00    -0.463 OA
BRANCH   6   7
ATOM      7  C   UNL A   1      30.483  26.599  24.452  1.00  0.00     0.311 C 
ATOM      8  O   UNL A   1      30.881  27.241  25.415  1.00  0.00    -0.252 OA
BRANCH   7   9
ATOM      9  C   UNL A   1      30.462  25.085  24.444  1.00  0.00     0.123 C 
ATOM     10  C   UNL A   1      32.491  24.897  26.189  1.00  0.00     0.032 C 
ATOM     11  C   UNL A   1      31.322  24.266  25.417  1.00  0.00     0.098 C 
ATOM     12  N   UNL A   1      31.720  23.052  24.726  1.00  0.00    -0.321 N 
ATOM     13  C   UNL A   1      30.659  24.443  23.073  1.00  0.00     0.039 C 
ATOM     14  C   UNL A   1      31.506  23.195  23.296  1.00  0.00     0.122 C 
BRANCH  12  15
ATOM     15  C   UNL A   1      32.234  21.879  25.187  1.00  0.00     0.317 C 
ATOM     16  O   UNL A   1      31.487  21.030  25.693  1.00  0.00    -0.249 OA
ATOM     17  N   UNL A   1      33.535  21.530  25.186  1.00  0.00    -0.335 N 
ATOM     18  H   UNL A   1      33.624  20.663  25.643  1.00  0.00     0.165 HD
BRANCH  17  19
ATOM     19  C   UNL A   1      34.888  21.970  24.750  1.00  0.00     0.083 C 
ATOM     20  C   UNL A   1      35.412  23.227  25.424  1.00  0.00     0.025 C 
ATOM     21  C   UNL A   1      35.902  20.828  24.980  1.00  0.00     0.025 C 
ATOM     22  C   UNL A   1      36.856  23.613  25.222  1.00  0.00     0.002 C 
ATOM     23  C   UNL A   1      37.349  21.250  24.699  1.00  0.00     0.002 C 
ATOM     24  C   UNL A   1      37.767  22.459  25.528  1.00  0.00     0.000 C 
ENDBRANCH  17  19
ENDBRANCH  12  15
ENDBRANCH   7   9
ENDBRANCH   6   7
ENDBRANCH   5   6
ENDBRANCH   4   5
ENDBRANCH   3   4
ENDBRANCH   2   3
ENDBRANCH   1   2
BRANCH   1  25
ATOM     25  O   UNL A   1      30.595  32.127  25.699  1.00  0.00    -0.376 OA
BRANCH  25  26
ATOM     26  C   UNL A   1      31.495  32.109  26.793  1.00  0.00     0.202 C 
BRANCH  26  27
ATOM     27  C   UNL A   1      32.147  33.428  27.224  1.00  0.00     0.261 C 
BRANCH  27  28
ATOM     28  O   UNL A   1      33.569  33.465  27.035  1.00  0.00    -0.460 OA
BRANCH  28  29
ATOM     29  C   UNL A   1      34.284  34.040  28.035  1.00  0.00     0.338 C 
ATOM     30  O   UNL A   1      34.013  35.066  28.641  1.00  0.00    -0.246 OA
BRANCH  29  31
ATOM     31  C   UNL A   1      35.348  33.105  28.454  1.00  0.00     0.060 A 
ATOM     32  C   UNL A   1      35.023  31.757  28.680  1.00  0.00     0.016 A 
ATOM     33  C   UNL A   1      36.654  33.557  28.627  1.00  0.00     0.016 A 
ATOM     34  C   UNL A   1      36.004  30.853  29.083  1.00  0.00     0.010 A 
ATOM     35  C   UNL A   1      37.626  32.662  29.071  1.00  0.00     0.010 A 
ATOM     36  C   UNL A   1      37.301  31.316  29.322  1.00  0.00    -0.014 A 
BRANCH  36  37
ATOM     37  C   UNL A   1      38.282  30.484  30.053  1.00  0.00     0.031 A 
ATOM     38  C   UNL A   1      38.541  30.825  31.492  1.00  0.00     0.074 A 
ATOM     39  C   UNL A   1      38.986  29.520  29.436  1.00  0.00     0.049 A 
ATOM     40  N   UNL A   1      39.515  30.445  32.272  1.00  0.00    -0.248 NA
ATOM     41  C   UNL A   1      37.576  31.739  32.128  1.00  0.00     0.031 C 
ATOM     42  C   UNL A   1      38.782  29.066  28.064  1.00  0.00     0.029 A 
ATOM     43  N   UNL A   1      40.060  28.788  29.882  1.00  0.00    -0.354 N 
ATOM     44  C   UNL A   1      39.316  31.118  33.471  1.00  0.00     0.074 A 
ATOM     45  C   UNL A   1      38.120  31.915  33.323  1.00  0.00     0.031 C 
ATOM     46  C   UNL A   1      39.737  28.171  27.756  1.00  0.00     0.029 A 
ATOM     47  C   UNL A   1      40.648  28.033  28.892  1.00  0.00     0.049 A 
ATOM     48  H   UNL A   1      40.376  28.801  30.813  1.00  0.00     0.167 HD
ATOM     49  C   UNL A   1      40.073  31.080  34.591  1.00  0.00     0.034 A 
ATOM     50  C   UNL A   1      41.818  27.363  28.890  1.00  0.00     0.034 A 
ATOM     51  C   UNL A   1      41.254  30.276  34.727  1.00  0.00     0.049 A 
ATOM     52  C   UNL A   1      42.672  27.374  30.135  1.00  0.00     0.074 A 
ATOM     53  C   UNL A   1      42.079  30.142  35.828  1.00  0.00     0.029 A 
ATOM     54  N   UNL A   1      41.785  29.481  33.724  1.00  0.00    -0.354 N 
ATOM     55  N   UNL A   1      42.447  27.961  31.287  1.00  0.00    -0.248 NA
ATOM     56  C   UNL A   1      43.933  26.617  30.088  1.00  0.00     0.031 C 
ATOM     57  C   UNL A   1      43.132  29.292  35.477  1.00  0.00     0.029 A 
ATOM     58  C   UNL A   1      42.933  28.859  34.174  1.00  0.00     0.049 A 
ATOM     59  H   UNL A   1      41.401  29.375  32.824  1.00  0.00     0.167 HD
ATOM     60  C   UNL A   1      43.508  27.603  32.114  1.00  0.00     0.074 A 
ATOM     61  C   UNL A   1      44.376  26.749  31.332  1.00  0.00     0.031 C 
ATOM     62  C   UNL A   1      43.744  27.954  33.402  1.00  0.00     0.034 A 
BRANCH  49  63
ATOM     63  C   UNL A   1      39.652  31.943  35.750  1.00  0.00     0.023 A 
ATOM     64  C   UNL A   1      40.179  33.242  35.890  1.00  0.00     0.012 A 
ATOM     65  C   UNL A   1      38.700  31.477  36.678  1.00  0.00     0.148 A 
ATOM     66  C   UNL A   1      39.789  34.053  36.955  1.00  0.00     0.002 A 
ATOM     67  C   UNL A   1      38.279  32.309  37.707  1.00  0.00     0.091 A 
ATOM     68  F   UNL A   1      38.231  30.229  36.541  1.00  0.00    -0.205 F 
ATOM     69  C   UNL A   1      38.832  33.591  37.856  1.00  0.00     0.022 A 
BRANCH  67  70
ATOM     70  S   UNL A   1      36.994  31.837  38.868  1.00  0.00     0.127 S 
ATOM     71  O   UNL A   1      37.583  32.241  40.143  1.00  0.00    -0.237 OA
ATOM     72  O   UNL A   1      35.866  32.659  38.430  1.00  0.00    -0.237 OA
ATOM     73  O   UNL A   1      36.803  30.403  38.698  1.00  0.00    -0.744 OA
ENDBRANCH  67  70
ENDBRANCH  49  63
BRANCH  50  74
ATOM     74  C   UNL A   1      42.260  26.626  27.671  1.00  0.00     0.023 A 
ATOM     75  C   UNL A   1      42.885  27.331  26.625  1.00  0.00     0.012 A 
ATOM     76  C   UNL A   1      42.070  25.236  27.543  1.00  0.00     0.148 A 
ATOM     77  C   UNL A   1      43.284  26.672  25.461  1.00  0.00     0.002 A 
ATOM     78  C   UNL A   1      42.520  24.576  26.405  1.00  0.00     0.091 A 
ATOM     79  F   UNL A   1      41.459  24.584  28.542  1.00  0.00    -0.205 F 
ATOM     80  C   UNL A   1      43.112  25.296  25.355  1.00  0.00     0.022 A 
BRANCH  78  81
ATOM     81  S   UNL A   1      42.446  22.790  26.227  1.00  0.00     0.127 S 
ATOM     82  O   UNL A   1      43.462  22.352  27.181  1.00  0.00    -0.237 OA
ATOM     83  O   UNL A   1      41.067  22.505  26.623  1.00  0.00    -0.237 OA
ATOM     84  O   UNL A   1      42.739  22.520  24.826  1.00  0.00    -0.744 OA
ENDBRANCH  78  81
ENDBRANCH  50  74
BRANCH  62  85
ATOM     85  C   UNL A   1      44.941  27.359  34.097  1.00  0.00     0.023 A 
ATOM     86  C   UNL A   1      46.151  28.072  34.163  1.00  0.00     0.012 A 
ATOM     87  C   UNL A   1      44.807  26.147  34.805  1.00  0.00     0.148 A 
ATOM     88  C   UNL A   1      47.219  27.579  34.913  1.00  0.00     0.002 A 
ATOM     89  C   UNL A   1      45.856  25.690  35.593  1.00  0.00     0.091 A 
ATOM     90  F   UNL A   1      43.647  25.480  34.716  1.00  0.00    -0.205 F 
ATOM     91  C   UNL A   1      47.067  26.399  35.640  1.00  0.00     0.022 A 
BRANCH  89  92
ATOM     92  S   UNL A   1      45.713  24.243  36.646  1.00  0.00     0.127 S 
ATOM     93  O   UNL A   1      47.041  24.186  37.256  1.00  0.00    -0.237 OA
ATOM     94  O   UNL A   1      44.639  24.631  37.559  1.00  0.00    -0.237 OA
ATOM     95  O   UNL A   1      45.390  23.129  35.765  1.00  0.00    -0.744 OA
ENDBRANCH  89  92
ENDBRANCH  62  85
ENDBRANCH  36  37
ENDBRANCH  29  31
ENDBRANCH  28  29
ENDBRANCH  27  28
ENDBRANCH  26  27
ENDBRANCH  25  26
ENDBRANCH   1  25
TORSDOF 22
ENDMDL
