MODEL 1
REMARK VINA RESULT:     -10.2      0.000      0.000
REMARK SMILES O=C(Cc1ccc(-c2ccn(C(F)F)c(=O)c2)cc1)OCCOCCOCCOC(=O)c1ccc(-c2c3nc(c(-c4cccc(S(=O)(=O)[O-])c4F)c4ccc([nH]4)c(-c4cccc(S(=O)(=O)[O-])c4F)c4nc(c(-c5cccc(S(=O)(=O)[O-])c5F)c5ccc2[nH]5)C=C4)C=C3)cc1
REMARK SMILES IDX 24 1 23 2 22 3 21 4 20 5 2 6 1 7 3 8 4 9 5 10 19 11 6 12
REMARK SMILES IDX 18 13 7 14 8 15 9 16 17 17 10 18 15 19 11 20 16 21 12 22
REMARK SMILES IDX 13 23 14 24 25 25 26 26 27 27 28 28 29 29 30 30 31 31 32 32
REMARK SMILES IDX 33 33 94 34 34 35 93 36 35 37 36 38 37 39 87 40 38 41 92 42
REMARK SMILES IDX 86 43 88 44 39 45 91 46 85 47 84 48 40 50 72 51 52 52 71 53
REMARK SMILES IDX 53 54 56 55 70 56 89 57 54 58 55 59 69 61 90 62 57 63 41 64
REMARK SMILES IDX 42 65 50 66 43 67 45 68 51 69 44 70 46 71 47 72 48 73 49 74
REMARK SMILES IDX 73 75 74 76 82 77 75 78 77 79 83 80 76 81 78 82 79 83 80 84
REMARK SMILES IDX 81 85 58 86 59 87 67 88 60 89 62 90 68 91 61 92 63 93 64 94
REMARK SMILES IDX 65 95 66 96
REMARK H PARENT 88 49 56 60
REMARK Flexibility Score: inf
ROOT
ATOM      1  C   UNL A   1      33.133  27.008  22.740  1.00  0.00     0.188 C 
ENDROOT
BRANCH   1   2
ATOM      2  O   UNL A   1      31.805  27.152  22.257  1.00  0.00    -0.376 OA
BRANCH   2   3
ATOM      3  C   UNL A   1      30.882  26.212  22.770  1.00  0.00     0.202 C 
BRANCH   3   4
ATOM      4  C   UNL A   1      29.842  26.942  23.609  1.00  0.00     0.261 C 
BRANCH   4   5
ATOM      5  O   UNL A   1      29.769  26.527  24.996  1.00  0.00    -0.463 OA
BRANCH   5   6
ATOM      6  C   UNL A   1      30.732  26.001  25.783  1.00  0.00     0.310 C 
ATOM      7  O   UNL A   1      31.456  26.763  26.423  1.00  0.00    -0.252 OA
BRANCH   6   8
ATOM      8  C   UNL A   1      30.992  24.512  25.799  1.00  0.00     0.158 C 
BRANCH   8   9
ATOM      9  C   UNL A   1      32.434  24.092  25.779  1.00  0.00    -0.037 A 
ATOM     10  C   UNL A   1      33.444  25.047  25.612  1.00  0.00     0.005 A 
ATOM     11  C   UNL A   1      32.779  22.738  25.910  1.00  0.00     0.005 A 
ATOM     12  C   UNL A   1      34.778  24.661  25.655  1.00  0.00     0.009 A 
ATOM     13  C   UNL A   1      34.117  22.352  25.956  1.00  0.00     0.009 A 
ATOM     14  C   UNL A   1      35.121  23.316  25.842  1.00  0.00    -0.018 A 
BRANCH  14  15
ATOM     15  C   UNL A   1      36.537  22.928  25.826  1.00  0.00    -0.011 A 
ATOM     16  C   UNL A   1      37.581  23.828  26.265  1.00  0.00     0.027 A 
ATOM     17  C   UNL A   1      36.852  21.673  25.463  1.00  0.00     0.080 A 
ATOM     18  C   UNL A   1      38.839  23.395  26.380  1.00  0.00     0.095 A 
ATOM     19  C   UNL A   1      38.252  21.183  25.567  1.00  0.00     0.255 A 
ATOM     20  N   UNL A   1      39.175  22.093  26.057  1.00  0.00    -0.258 N 
ATOM     21  O   UNL A   1      38.490  20.022  25.247  1.00  0.00    -0.269 OA
BRANCH  20  22
ATOM     22  C   UNL A   1      40.520  21.623  26.245  1.00  0.00     0.451 C 
ATOM     23  F   UNL A   1      41.403  22.397  25.567  1.00  0.00    -0.185 F 
ATOM     24  F   UNL A   1      40.869  21.642  27.555  1.00  0.00    -0.185 F 
ENDBRANCH  20  22
ENDBRANCH  14  15
ENDBRANCH   8   9
ENDBRANCH   6   8
ENDBRANCH   5   6
ENDBRANCH   4   5
ENDBRANCH   3   4
ENDBRANCH   2   3
ENDBRANCH   1   2
BRANCH   1  25
ATOM     25  C   UNL A   1      33.564  28.228  23.562  1.00  0.00     0.188 C 
BRANCH  25  26
ATOM     26  O   UNL A   1      32.645  29.285  23.821  1.00  0.00    -0.376 OA
BRANCH  26  27
ATOM     27  C   UNL A   1      32.304  29.617  25.158  1.00  0.00     0.202 C 
BRANCH  27  28
ATOM     28  C   UNL A   1      33.461  30.013  26.080  1.00  0.00     0.261 C 
BRANCH  28  29
ATOM     29  O   UNL A   1      33.055  30.635  27.313  1.00  0.00    -0.460 OA
BRANCH  29  30
ATOM     30  C   UNL A   1      33.832  31.670  27.718  1.00  0.00     0.338 C 
ATOM     31  O   UNL A   1      33.477  32.823  27.894  1.00  0.00    -0.246 OA
BRANCH  30  32
ATOM     32  C   UNL A   1      35.196  31.208  28.064  1.00  0.00     0.060 A 
ATOM     33  C   UNL A   1      35.337  29.895  28.531  1.00  0.00     0.016 A 
ATOM     34  C   UNL A   1      36.296  32.070  28.059  1.00  0.00     0.016 A 
ATOM     35  C   UNL A   1      36.554  29.461  29.059  1.00  0.00     0.010 A 
ATOM     36  C   UNL A   1      37.517  31.635  28.601  1.00  0.00     0.010 A 
ATOM     37  C   UNL A   1      37.638  30.345  29.149  1.00  0.00    -0.014 A 
BRANCH  37  38
ATOM     38  C   UNL A   1      38.811  29.968  29.985  1.00  0.00     0.031 A 
ATOM     39  C   UNL A   1      38.964  30.586  31.353  1.00  0.00     0.074 A 
ATOM     40  C   UNL A   1      39.710  29.058  29.566  1.00  0.00     0.049 A 
ATOM     41  N   UNL A   1      39.874  30.365  32.266  1.00  0.00    -0.248 NA
ATOM     42  C   UNL A   1      37.953  31.583  31.742  1.00  0.00     0.031 C 
ATOM     43  C   UNL A   1      39.694  28.386  28.270  1.00  0.00     0.029 A 
ATOM     44  N   UNL A   1      40.828  28.559  30.191  1.00  0.00    -0.354 N 
ATOM     45  C   UNL A   1      39.552  31.195  33.334  1.00  0.00     0.074 A 
ATOM     46  C   UNL A   1      38.379  31.946  32.944  1.00  0.00     0.031 C 
ATOM     47  C   UNL A   1      40.768  27.583  28.182  1.00  0.00     0.029 A 
ATOM     48  C   UNL A   1      41.554  27.688  29.413  1.00  0.00     0.049 A 
ATOM     49  H   UNL A   1      41.086  28.802  31.109  1.00  0.00     0.167 HD
ATOM     50  C   UNL A   1      40.154  31.305  34.542  1.00  0.00     0.034 A 
ATOM     51  C   UNL A   1      42.718  27.053  29.659  1.00  0.00     0.034 A 
ATOM     52  C   UNL A   1      41.314  30.558  34.948  1.00  0.00     0.049 A 
ATOM     53  C   UNL A   1      43.379  27.203  31.007  1.00  0.00     0.074 A 
ATOM     54  C   UNL A   1      41.980  30.593  36.161  1.00  0.00     0.029 A 
ATOM     55  N   UNL A   1      41.986  29.646  34.152  1.00  0.00    -0.354 N 
ATOM     56  N   UNL A   1      42.986  27.895  32.050  1.00  0.00    -0.248 NA
ATOM     57  C   UNL A   1      44.625  26.450  31.228  1.00  0.00     0.031 C 
ATOM     58  C   UNL A   1      43.063  29.709  36.094  1.00  0.00     0.029 A 
ATOM     59  C   UNL A   1      43.060  29.111  34.845  1.00  0.00     0.049 A 
ATOM     60  H   UNL A   1      41.737  29.411  33.228  1.00  0.00     0.167 HD
ATOM     61  C   UNL A   1      43.913  27.633  33.055  1.00  0.00     0.074 A 
ATOM     62  C   UNL A   1      44.872  26.697  32.507  1.00  0.00     0.031 C 
ATOM     63  C   UNL A   1      43.977  28.136  34.314  1.00  0.00     0.034 A 
BRANCH  50  64
ATOM     64  C   UNL A   1      39.531  32.242  35.543  1.00  0.00     0.023 A 
ATOM     65  C   UNL A   1      38.468  31.782  36.348  1.00  0.00     0.012 A 
ATOM     66  C   UNL A   1      40.028  33.546  35.733  1.00  0.00     0.148 A 
ATOM     67  C   UNL A   1      37.890  32.613  37.305  1.00  0.00     0.002 A 
ATOM     68  C   UNL A   1      39.472  34.357  36.717  1.00  0.00     0.091 A 
ATOM     69  F   UNL A   1      41.025  33.973  34.944  1.00  0.00    -0.205 F 
ATOM     70  C   UNL A   1      38.398  33.895  37.497  1.00  0.00     0.022 A 
BRANCH  68  71
ATOM     71  S   UNL A   1      40.101  35.997  37.090  1.00  0.00     0.127 S 
ATOM     72  O   UNL A   1      41.527  35.731  37.274  1.00  0.00    -0.237 OA
ATOM     73  O   UNL A   1      39.772  36.738  35.872  1.00  0.00    -0.237 OA
ATOM     74  O   UNL A   1      39.389  36.439  38.281  1.00  0.00    -0.744 OA
ENDBRANCH  68  71
ENDBRANCH  50  64
BRANCH  51  75
ATOM     75  C   UNL A   1      43.324  26.176  28.616  1.00  0.00     0.023 A 
ATOM     76  C   UNL A   1      42.906  24.836  28.498  1.00  0.00     0.012 A 
ATOM     77  C   UNL A   1      44.315  26.665  27.741  1.00  0.00     0.148 A 
ATOM     78  C   UNL A   1      43.490  23.990  27.553  1.00  0.00     0.002 A 
ATOM     79  C   UNL A   1      44.848  25.834  26.763  1.00  0.00     0.091 A 
ATOM     80  F   UNL A   1      44.718  27.936  27.883  1.00  0.00    -0.205 F 
ATOM     81  C   UNL A   1      44.452  24.491  26.679  1.00  0.00     0.022 A 
BRANCH  79  82
ATOM     82  S   UNL A   1      45.985  26.442  25.513  1.00  0.00     0.127 S 
ATOM     83  O   UNL A   1      46.197  25.254  24.693  1.00  0.00    -0.237 OA
ATOM     84  O   UNL A   1      45.201  27.501  24.874  1.00  0.00    -0.237 OA
ATOM     85  O   UNL A   1      47.147  26.927  26.247  1.00  0.00    -0.744 OA
ENDBRANCH  79  82
ENDBRANCH  51  75
BRANCH  63  86
ATOM     86  C   UNL A   1      45.103  27.670  35.203  1.00  0.00     0.023 A 
ATOM     87  C   UNL A   1      46.314  28.391  35.230  1.00  0.00     0.012 A 
ATOM     88  C   UNL A   1      44.943  26.560  36.056  1.00  0.00     0.148 A 
ATOM     89  C   UNL A   1      47.360  27.992  36.062  1.00  0.00     0.002 A 
ATOM     90  C   UNL A   1      45.974  26.195  36.916  1.00  0.00     0.091 A 
ATOM     91  F   UNL A   1      43.793  25.872  36.006  1.00  0.00    -0.205 F 
ATOM     92  C   UNL A   1      47.187  26.902  36.912  1.00  0.00     0.022 A 
BRANCH  90  93
ATOM     93  S   UNL A   1      45.801  24.859  38.106  1.00  0.00     0.127 S 
ATOM     94  O   UNL A   1      47.098  24.889  38.779  1.00  0.00    -0.237 OA
ATOM     95  O   UNL A   1      44.678  25.313  38.928  1.00  0.00    -0.237 OA
ATOM     96  O   UNL A   1      45.524  23.664  37.320  1.00  0.00    -0.744 OA
ENDBRANCH  90  93
ENDBRANCH  63  86
ENDBRANCH  37  38
ENDBRANCH  30  32
ENDBRANCH  29  30
ENDBRANCH  28  29
ENDBRANCH  27  28
ENDBRANCH  26  27
ENDBRANCH  25  26
ENDBRANCH   1  25
TORSDOF 23
ENDMDL
MODEL 2
REMARK VINA RESULT:     -10.1      5.420      9.329
REMARK SMILES O=C(Cc1ccc(-c2ccn(C(F)F)c(=O)c2)cc1)OCCOCCOCCOC(=O)c1ccc(-c2c3nc(c(-c4cccc(S(=O)(=O)[O-])c4F)c4ccc([nH]4)c(-c4cccc(S(=O)(=O)[O-])c4F)c4nc(c(-c5cccc(S(=O)(=O)[O-])c5F)c5ccc2[nH]5)C=C4)C=C3)cc1
REMARK SMILES IDX 24 1 23 2 22 3 21 4 20 5 2 6 1 7 3 8 4 9 5 10 19 11 6 12
REMARK SMILES IDX 18 13 7 14 8 15 9 16 17 17 10 18 15 19 11 20 16 21 12 22
REMARK SMILES IDX 13 23 14 24 25 25 26 26 27 27 28 28 29 29 30 30 31 31 32 32
REMARK SMILES IDX 33 33 94 34 34 35 93 36 35 37 36 38 37 39 87 40 38 41 92 42
REMARK SMILES IDX 86 43 88 44 39 45 91 46 85 47 84 48 40 50 72 51 52 52 71 53
REMARK SMILES IDX 53 54 56 55 70 56 89 57 54 58 55 59 69 61 90 62 57 63 41 64
REMARK SMILES IDX 42 65 50 66 43 67 45 68 51 69 44 70 46 71 47 72 48 73 49 74
REMARK SMILES IDX 73 75 74 76 82 77 75 78 77 79 83 80 76 81 78 82 79 83 80 84
REMARK SMILES IDX 81 85 58 86 59 87 67 88 60 89 62 90 68 91 61 92 63 93 64 94
REMARK SMILES IDX 65 95 66 96
REMARK H PARENT 88 49 56 60
REMARK Flexibility Score: inf
ROOT
ATOM      1  C   UNL A   1      36.073  23.520  24.911  1.00  0.00     0.188 C 
ENDROOT
BRANCH   1   2
ATOM      2  O   UNL A   1      35.148  23.987  25.882  1.00  0.00    -0.376 OA
BRANCH   2   3
ATOM      3  C   UNL A   1      34.633  22.989  26.741  1.00  0.00     0.202 C 
BRANCH   3   4
ATOM      4  C   UNL A   1      34.812  21.627  26.084  1.00  0.00     0.261 C 
BRANCH   4   5
ATOM      5  O   UNL A   1      33.582  20.945  25.736  1.00  0.00    -0.463 OA
BRANCH   5   6
ATOM      6  C   UNL A   1      32.600  21.330  24.894  1.00  0.00     0.310 C 
ATOM      7  O   UNL A   1      31.441  20.994  25.140  1.00  0.00    -0.252 OA
BRANCH   6   8
ATOM      8  C   UNL A   1      32.921  22.068  23.614  1.00  0.00     0.158 C 
BRANCH   8   9
ATOM      9  C   UNL A   1      32.253  23.401  23.433  1.00  0.00    -0.037 A 
ATOM     10  C   UNL A   1      30.869  23.524  23.601  1.00  0.00     0.005 A 
ATOM     11  C   UNL A   1      33.009  24.530  23.079  1.00  0.00     0.005 A 
ATOM     12  C   UNL A   1      30.264  24.771  23.493  1.00  0.00     0.009 A 
ATOM     13  C   UNL A   1      32.402  25.779  22.974  1.00  0.00     0.009 A 
ATOM     14  C   UNL A   1      31.029  25.906  23.194  1.00  0.00    -0.018 A 
BRANCH  14  15
ATOM     15  C   UNL A   1      30.356  27.200  23.030  1.00  0.00    -0.011 A 
ATOM     16  C   UNL A   1      31.029  28.342  22.451  1.00  0.00     0.027 A 
ATOM     17  C   UNL A   1      29.056  27.291  23.359  1.00  0.00     0.080 A 
ATOM     18  C   UNL A   1      30.347  29.459  22.178  1.00  0.00     0.095 A 
ATOM     19  C   UNL A   1      28.289  28.533  23.078  1.00  0.00     0.255 A 
ATOM     20  N   UNL A   1      28.998  29.555  22.465  1.00  0.00    -0.258 N 
ATOM     21  O   UNL A   1      27.098  28.565  23.374  1.00  0.00    -0.269 OA
BRANCH  20  22
ATOM     22  C   UNL A   1      28.264  30.737  22.108  1.00  0.00     0.451 C 
ATOM     23  F   UNL A   1      27.754  30.631  20.856  1.00  0.00    -0.185 F 
ATOM     24  F   UNL A   1      27.233  30.952  22.961  1.00  0.00    -0.185 F 
ENDBRANCH  20  22
ENDBRANCH  14  15
ENDBRANCH   8   9
ENDBRANCH   6   8
ENDBRANCH   5   6
ENDBRANCH   4   5
ENDBRANCH   3   4
ENDBRANCH   2   3
ENDBRANCH   1   2
BRANCH   1  25
ATOM     25  C   UNL A   1      37.520  23.731  25.369  1.00  0.00     0.188 C 
BRANCH  25  26
ATOM     26  O   UNL A   1      38.073  22.924  26.404  1.00  0.00    -0.376 OA
BRANCH  26  27
ATOM     27  C   UNL A   1      39.342  22.314  26.227  1.00  0.00     0.202 C 
BRANCH  27  28
ATOM     28  C   UNL A   1      39.342  20.818  25.904  1.00  0.00     0.261 C 
BRANCH  28  29
ATOM     29  O   UNL A   1      40.141  20.016  26.794  1.00  0.00    -0.460 OA
BRANCH  29  30
ATOM     30  C   UNL A   1      41.384  19.717  26.340  1.00  0.00     0.338 C 
ATOM     31  O   UNL A   1      41.723  18.701  25.759  1.00  0.00    -0.246 OA
BRANCH  30  32
ATOM     32  C   UNL A   1      42.306  20.863  26.519  1.00  0.00     0.060 A 
ATOM     33  C   UNL A   1      42.450  21.383  27.811  1.00  0.00     0.016 A 
ATOM     34  C   UNL A   1      42.919  21.499  25.436  1.00  0.00     0.016 A 
ATOM     35  C   UNL A   1      43.144  22.577  28.017  1.00  0.00     0.010 A 
ATOM     36  C   UNL A   1      43.607  22.706  25.644  1.00  0.00     0.010 A 
ATOM     37  C   UNL A   1      43.681  23.277  26.928  1.00  0.00    -0.014 A 
BRANCH  37  38
ATOM     38  C   UNL A   1      44.138  24.680  27.124  1.00  0.00     0.031 A 
ATOM     39  C   UNL A   1      43.145  25.714  27.594  1.00  0.00     0.074 A 
ATOM     40  C   UNL A   1      45.422  25.035  26.935  1.00  0.00     0.049 A 
ATOM     41  N   UNL A   1      43.335  26.977  27.879  1.00  0.00    -0.248 NA
ATOM     42  C   UNL A   1      41.755  25.262  27.769  1.00  0.00     0.031 C 
ATOM     43  C   UNL A   1      46.487  24.146  26.477  1.00  0.00     0.029 A 
ATOM     44  N   UNL A   1      46.042  26.251  27.089  1.00  0.00    -0.354 N 
ATOM     45  C   UNL A   1      42.093  27.472  28.261  1.00  0.00     0.074 A 
ATOM     46  C   UNL A   1      41.151  26.381  28.143  1.00  0.00     0.031 C 
ATOM     47  C   UNL A   1      47.624  24.854  26.358  1.00  0.00     0.029 A 
ATOM     48  C   UNL A   1      47.368  26.247  26.726  1.00  0.00     0.049 A 
ATOM     49  H   UNL A   1      45.580  27.052  27.429  1.00  0.00     0.167 HD
ATOM     50  C   UNL A   1      41.766  28.711  28.700  1.00  0.00     0.034 A 
ATOM     51  C   UNL A   1      48.270  27.250  26.687  1.00  0.00     0.034 A 
ATOM     52  C   UNL A   1      42.693  29.803  28.833  1.00  0.00     0.049 A 
ATOM     53  C   UNL A   1      47.878  28.626  27.166  1.00  0.00     0.074 A 
ATOM     54  C   UNL A   1      42.451  31.087  29.287  1.00  0.00     0.029 A 
ATOM     55  N   UNL A   1      44.037  29.742  28.507  1.00  0.00    -0.354 N 
ATOM     56  N   UNL A   1      46.730  29.040  27.645  1.00  0.00    -0.248 NA
ATOM     57  C   UNL A   1      48.921  29.665  27.139  1.00  0.00     0.031 C 
ATOM     58  C   UNL A   1      43.649  31.808  29.225  1.00  0.00     0.029 A 
ATOM     59  C   UNL A   1      44.640  30.966  28.748  1.00  0.00     0.049 A 
ATOM     60  H   UNL A   1      44.498  28.946  28.155  1.00  0.00     0.167 HD
ATOM     61  C   UNL A   1      46.922  30.370  28.007  1.00  0.00     0.074 A 
ATOM     62  C   UNL A   1      48.305  30.686  27.718  1.00  0.00     0.031 C 
ATOM     63  C   UNL A   1      46.030  31.258  28.514  1.00  0.00     0.034 A 
BRANCH  50  64
ATOM     64  C   UNL A   1      40.338  28.941  29.122  1.00  0.00     0.023 A 
ATOM     65  C   UNL A   1      39.358  29.174  28.135  1.00  0.00     0.012 A 
ATOM     66  C   UNL A   1      39.954  28.868  30.475  1.00  0.00     0.148 A 
ATOM     67  C   UNL A   1      38.023  29.360  28.490  1.00  0.00     0.002 A 
ATOM     68  C   UNL A   1      38.614  29.015  30.818  1.00  0.00     0.091 A 
ATOM     69  F   UNL A   1      40.903  28.666  31.400  1.00  0.00    -0.205 F 
ATOM     70  C   UNL A   1      37.649  29.270  29.828  1.00  0.00     0.022 A 
BRANCH  68  71
ATOM     71  S   UNL A   1      38.021  28.846  32.505  1.00  0.00     0.127 S 
ATOM     72  O   UNL A   1      38.174  27.409  32.728  1.00  0.00    -0.237 OA
ATOM     73  O   UNL A   1      38.966  29.681  33.248  1.00  0.00    -0.237 OA
ATOM     74  O   UNL A   1      36.651  29.337  32.500  1.00  0.00    -0.744 OA
ENDBRANCH  68  71
ENDBRANCH  50  64
BRANCH  51  75
ATOM     75  C   UNL A   1      49.658  26.984  26.210  1.00  0.00     0.023 A 
ATOM     76  C   UNL A   1      50.604  26.419  27.088  1.00  0.00     0.012 A 
ATOM     77  C   UNL A   1      50.045  27.293  24.891  1.00  0.00     0.148 A 
ATOM     78  C   UNL A   1      51.918  26.200  26.671  1.00  0.00     0.002 A 
ATOM     79  C   UNL A   1      51.339  27.016  24.465  1.00  0.00     0.091 A 
ATOM     80  F   UNL A   1      49.139  27.852  24.076  1.00  0.00    -0.205 F 
ATOM     81  C   UNL A   1      52.283  26.487  25.357  1.00  0.00     0.022 A 
BRANCH  79  82
ATOM     82  S   UNL A   1      51.844  27.226  22.754  1.00  0.00     0.127 S 
ATOM     83  O   UNL A   1      50.681  26.720  22.031  1.00  0.00    -0.237 OA
ATOM     84  O   UNL A   1      52.040  28.674  22.668  1.00  0.00    -0.237 OA
ATOM     85  O   UNL A   1      53.071  26.453  22.613  1.00  0.00    -0.744 OA
ENDBRANCH  79  82
ENDBRANCH  51  75
BRANCH  63  86
ATOM     86  C   UNL A   1      46.518  32.652  28.820  1.00  0.00     0.023 A 
ATOM     87  C   UNL A   1      47.041  32.943  30.095  1.00  0.00     0.012 A 
ATOM     88  C   UNL A   1      46.518  33.655  27.830  1.00  0.00     0.148 A 
ATOM     89  C   UNL A   1      47.522  34.219  30.393  1.00  0.00     0.002 A 
ATOM     90  C   UNL A   1      47.039  34.912  28.121  1.00  0.00     0.091 A 
ATOM     91  F   UNL A   1      45.999  33.370  26.627  1.00  0.00    -0.205 F 
ATOM     92  C   UNL A   1      47.530  35.200  29.404  1.00  0.00     0.022 A 
BRANCH  90  93
ATOM     93  S   UNL A   1      47.170  36.205  26.878  1.00  0.00     0.127 S 
ATOM     94  O   UNL A   1      45.787  36.316  26.417  1.00  0.00    -0.237 OA
ATOM     95  O   UNL A   1      47.645  37.347  27.660  1.00  0.00    -0.237 OA
ATOM     96  O   UNL A   1      48.126  35.712  25.895  1.00  0.00    -0.744 OA
ENDBRANCH  90  93
ENDBRANCH  63  86
ENDBRANCH  37  38
ENDBRANCH  30  32
ENDBRANCH  29  30
ENDBRANCH  28  29
ENDBRANCH  27  28
ENDBRANCH  26  27
ENDBRANCH  25  26
ENDBRANCH   1  25
TORSDOF 23
ENDMDL
MODEL 3
REMARK VINA RESULT:      -9.9      3.146      8.115
REMARK SMILES O=C(Cc1ccc(-c2ccn(C(F)F)c(=O)c2)cc1)OCCOCCOCCOC(=O)c1ccc(-c2c3nc(c(-c4cccc(S(=O)(=O)[O-])c4F)c4ccc([nH]4)c(-c4cccc(S(=O)(=O)[O-])c4F)c4nc(c(-c5cccc(S(=O)(=O)[O-])c5F)c5ccc2[nH]5)C=C4)C=C3)cc1
REMARK SMILES IDX 24 1 23 2 22 3 21 4 20 5 2 6 1 7 3 8 4 9 5 10 19 11 6 12
REMARK SMILES IDX 18 13 7 14 8 15 9 16 17 17 10 18 15 19 11 20 16 21 12 22
REMARK SMILES IDX 13 23 14 24 25 25 26 26 27 27 28 28 29 29 30 30 31 31 32 32
REMARK SMILES IDX 33 33 94 34 34 35 93 36 35 37 36 38 37 39 87 40 38 41 92 42
REMARK SMILES IDX 86 43 88 44 39 45 91 46 85 47 84 48 40 50 72 51 52 52 71 53
REMARK SMILES IDX 53 54 56 55 70 56 89 57 54 58 55 59 69 61 90 62 57 63 41 64
REMARK SMILES IDX 42 65 50 66 43 67 45 68 51 69 44 70 46 71 47 72 48 73 49 74
REMARK SMILES IDX 73 75 74 76 82 77 75 78 77 79 83 80 76 81 78 82 79 83 80 84
REMARK SMILES IDX 81 85 58 86 59 87 67 88 60 89 62 90 68 91 61 92 63 93 64 94
REMARK SMILES IDX 65 95 66 96
REMARK H PARENT 88 49 56 60
REMARK Flexibility Score: inf
ROOT
ATOM      1  C   UNL A   1      32.206  26.427  22.440  1.00  0.00     0.188 C 
ENDROOT
BRANCH   1   2
ATOM      2  O   UNL A   1      30.801  26.248  22.553  1.00  0.00    -0.376 OA
BRANCH   2   3
ATOM      3  C   UNL A   1      30.398  25.313  23.533  1.00  0.00     0.202 C 
BRANCH   3   4
ATOM      4  C   UNL A   1      29.802  26.060  24.719  1.00  0.00     0.261 C 
BRANCH   4   5
ATOM      5  O   UNL A   1      30.420  25.775  25.998  1.00  0.00    -0.463 OA
BRANCH   5   6
ATOM      6  C   UNL A   1      31.455  26.395  26.604  1.00  0.00     0.310 C 
ATOM      7  O   UNL A   1      31.218  27.280  27.427  1.00  0.00    -0.252 OA
BRANCH   6   8
ATOM      8  C   UNL A   1      32.882  26.089  26.206  1.00  0.00     0.158 C 
BRANCH   8   9
ATOM      9  C   UNL A   1      33.168  24.669  25.808  1.00  0.00    -0.037 A 
ATOM     10  C   UNL A   1      32.710  23.610  26.599  1.00  0.00     0.005 A 
ATOM     11  C   UNL A   1      33.910  24.395  24.649  1.00  0.00     0.005 A 
ATOM     12  C   UNL A   1      32.924  22.297  26.194  1.00  0.00     0.009 A 
ATOM     13  C   UNL A   1      34.122  23.080  24.242  1.00  0.00     0.009 A 
ATOM     14  C   UNL A   1      33.617  22.026  25.007  1.00  0.00    -0.018 A 
BRANCH  14  15
ATOM     15  C   UNL A   1      33.879  20.631  24.633  1.00  0.00    -0.011 A 
ATOM     16  C   UNL A   1      35.132  19.979  24.946  1.00  0.00     0.027 A 
ATOM     17  C   UNL A   1      32.892  19.930  24.050  1.00  0.00     0.080 A 
ATOM     18  C   UNL A   1      35.281  18.669  24.726  1.00  0.00     0.095 A 
ATOM     19  C   UNL A   1      33.052  18.477  23.782  1.00  0.00     0.255 A 
ATOM     20  N   UNL A   1      34.260  17.920  24.173  1.00  0.00    -0.258 N 
ATOM     21  O   UNL A   1      32.116  17.870  23.270  1.00  0.00    -0.269 OA
BRANCH  20  22
ATOM     22  C   UNL A   1      34.412  16.502  24.000  1.00  0.00     0.451 C 
ATOM     23  F   UNL A   1      33.463  15.825  24.693  1.00  0.00    -0.185 F 
ATOM     24  F   UNL A   1      34.306  16.151  22.695  1.00  0.00    -0.185 F 
ENDBRANCH  20  22
ENDBRANCH  14  15
ENDBRANCH   8   9
ENDBRANCH   6   8
ENDBRANCH   5   6
ENDBRANCH   4   5
ENDBRANCH   3   4
ENDBRANCH   2   3
ENDBRANCH   1   2
BRANCH   1  25
ATOM     25  C   UNL A   1      32.606  27.884  22.696  1.00  0.00     0.188 C 
BRANCH  25  26
ATOM     26  O   UNL A   1      31.632  28.838  23.111  1.00  0.00    -0.376 OA
BRANCH  26  27
ATOM     27  C   UNL A   1      31.552  29.221  24.474  1.00  0.00     0.202 C 
BRANCH  27  28
ATOM     28  C   UNL A   1      32.862  29.640  25.146  1.00  0.00     0.261 C 
BRANCH  28  29
ATOM     29  O   UNL A   1      32.793  29.739  26.580  1.00  0.00    -0.460 OA
BRANCH  29  30
ATOM     30  C   UNL A   1      33.180  30.933  27.094  1.00  0.00     0.338 C 
ATOM     31  O   UNL A   1      32.480  31.917  27.261  1.00  0.00    -0.246 OA
BRANCH  30  32
ATOM     32  C   UNL A   1      34.581  30.878  27.572  1.00  0.00     0.060 A 
ATOM     33  C   UNL A   1      35.299  29.699  27.339  1.00  0.00     0.016 A 
ATOM     34  C   UNL A   1      35.144  31.899  28.342  1.00  0.00     0.016 A 
ATOM     35  C   UNL A   1      36.549  29.505  27.932  1.00  0.00     0.010 A 
ATOM     36  C   UNL A   1      36.396  31.698  28.946  1.00  0.00     0.010 A 
ATOM     37  C   UNL A   1      37.082  30.481  28.785  1.00  0.00    -0.014 A 
BRANCH  37  38
ATOM     38  C   UNL A   1      38.249  30.133  29.641  1.00  0.00     0.031 A 
ATOM     39  C   UNL A   1      39.267  29.145  29.124  1.00  0.00     0.074 A 
ATOM     40  C   UNL A   1      38.439  30.711  30.841  1.00  0.00     0.049 A 
ATOM     41  N   UNL A   1      40.381  28.738  29.676  1.00  0.00    -0.248 NA
ATOM     42  C   UNL A   1      38.991  28.541  27.811  1.00  0.00     0.031 C 
ATOM     43  C   UNL A   1      37.539  31.674  31.469  1.00  0.00     0.029 A 
ATOM     44  N   UNL A   1      39.453  30.551  31.756  1.00  0.00    -0.354 N 
ATOM     45  C   UNL A   1      40.937  27.828  28.783  1.00  0.00     0.074 A 
ATOM     46  C   UNL A   1      40.022  27.721  27.667  1.00  0.00     0.031 C 
ATOM     47  C   UNL A   1      38.024  31.999  32.680  1.00  0.00     0.029 A 
ATOM     48  C   UNL A   1      39.267  31.262  32.917  1.00  0.00     0.049 A 
ATOM     49  H   UNL A   1      40.239  29.981  31.594  1.00  0.00     0.167 HD
ATOM     50  C   UNL A   1      42.114  27.163  28.863  1.00  0.00     0.034 A 
ATOM     51  C   UNL A   1      40.006  31.310  34.045  1.00  0.00     0.034 A 
ATOM     52  C   UNL A   1      43.039  27.267  29.960  1.00  0.00     0.049 A 
ATOM     53  C   UNL A   1      41.306  30.548  34.118  1.00  0.00     0.074 A 
ATOM     54  C   UNL A   1      44.264  26.642  30.116  1.00  0.00     0.029 A 
ATOM     55  N   UNL A   1      42.839  28.040  31.092  1.00  0.00    -0.354 N 
ATOM     56  N   UNL A   1      41.877  29.795  33.208  1.00  0.00    -0.248 NA
ATOM     57  C   UNL A   1      42.088  30.677  35.359  1.00  0.00     0.031 C 
ATOM     58  C   UNL A   1      44.801  27.029  31.350  1.00  0.00     0.029 A 
ATOM     59  C   UNL A   1      43.917  27.909  31.953  1.00  0.00     0.049 A 
ATOM     60  H   UNL A   1      42.047  28.601  31.261  1.00  0.00     0.167 HD
ATOM     61  C   UNL A   1      43.093  29.391  33.752  1.00  0.00     0.074 A 
ATOM     62  C   UNL A   1      43.191  30.006  35.059  1.00  0.00     0.031 C 
ATOM     63  C   UNL A   1      44.036  28.569  33.226  1.00  0.00     0.034 A 
BRANCH  50  64
ATOM     64  C   UNL A   1      42.498  26.291  27.696  1.00  0.00     0.023 A 
ATOM     65  C   UNL A   1      43.331  26.820  26.688  1.00  0.00     0.012 A 
ATOM     66  C   UNL A   1      42.093  24.945  27.623  1.00  0.00     0.148 A 
ATOM     67  C   UNL A   1      43.731  26.031  25.611  1.00  0.00     0.002 A 
ATOM     68  C   UNL A   1      42.527  24.153  26.565  1.00  0.00     0.091 A 
ATOM     69  F   UNL A   1      41.284  24.467  28.580  1.00  0.00    -0.205 F 
ATOM     70  C   UNL A   1      43.338  24.697  25.555  1.00  0.00     0.022 A 
BRANCH  68  71
ATOM     71  S   UNL A   1      42.135  22.405  26.440  1.00  0.00     0.127 S 
ATOM     72  O   UNL A   1      42.831  22.034  25.208  1.00  0.00    -0.237 OA
ATOM     73  O   UNL A   1      42.731  21.866  27.662  1.00  0.00    -0.237 OA
ATOM     74  O   UNL A   1      40.682  22.322  26.386  1.00  0.00    -0.744 OA
ENDBRANCH  68  71
ENDBRANCH  50  64
BRANCH  51  75
ATOM     75  C   UNL A   1      39.557  32.147  35.195  1.00  0.00     0.023 A 
ATOM     76  C   UNL A   1      39.887  33.515  35.237  1.00  0.00     0.012 A 
ATOM     77  C   UNL A   1      38.805  31.590  36.249  1.00  0.00     0.148 A 
ATOM     78  C   UNL A   1      39.509  34.305  36.325  1.00  0.00     0.002 A 
ATOM     79  C   UNL A   1      38.380  32.396  37.299  1.00  0.00     0.091 A 
ATOM     80  F   UNL A   1      38.520  30.281  36.205  1.00  0.00    -0.205 F 
ATOM     81  C   UNL A   1      38.747  33.749  37.350  1.00  0.00     0.022 A 
BRANCH  79  82
ATOM     82  S   UNL A   1      37.280  31.787  38.581  1.00  0.00     0.127 S 
ATOM     83  O   UNL A   1      37.001  30.430  38.122  1.00  0.00    -0.237 OA
ATOM     84  O   UNL A   1      38.122  31.873  39.775  1.00  0.00    -0.237 OA
ATOM     85  O   UNL A   1      36.147  32.704  38.588  1.00  0.00    -0.744 OA
ENDBRANCH  79  82
ENDBRANCH  51  75
BRANCH  63  86
ATOM     86  C   UNL A   1      45.274  28.303  34.045  1.00  0.00     0.023 A 
ATOM     87  C   UNL A   1      45.300  27.210  34.935  1.00  0.00     0.012 A 
ATOM     88  C   UNL A   1      46.431  29.092  33.890  1.00  0.00     0.148 A 
ATOM     89  C   UNL A   1      46.443  26.930  35.685  1.00  0.00     0.002 A 
ATOM     90  C   UNL A   1      47.582  28.780  34.608  1.00  0.00     0.091 A 
ATOM     91  F   UNL A   1      46.386  30.140  33.055  1.00  0.00    -0.205 F 
ATOM     92  C   UNL A   1      47.586  27.708  35.514  1.00  0.00     0.022 A 
BRANCH  90  93
ATOM     93  S   UNL A   1      49.124  29.675  34.381  1.00  0.00     0.127 S 
ATOM     94  O   UNL A   1      49.521  29.249  33.041  1.00  0.00    -0.237 OA
ATOM     95  O   UNL A   1      48.695  31.071  34.475  1.00  0.00    -0.237 OA
ATOM     96  O   UNL A   1      49.995  29.242  35.466  1.00  0.00    -0.744 OA
ENDBRANCH  90  93
ENDBRANCH  63  86
ENDBRANCH  37  38
ENDBRANCH  30  32
ENDBRANCH  29  30
ENDBRANCH  28  29
ENDBRANCH  27  28
ENDBRANCH  26  27
ENDBRANCH  25  26
ENDBRANCH   1  25
TORSDOF 23
ENDMDL
