MODEL 1
REMARK VINA RESULT:     -10.8      0.000      0.000
REMARK SMILES O=C(OCCOCCOCCOC(=O)c1cc(-c2ccc[nH]c2=O)ccc1Cl)c1ccc(-c2c3nc(c(-c4cccc(S(=O)(=O)[O-])c4F)c4ccc([nH]4)c(-c4cccc(S(=O)(=O)[O-])c4F)c4nc(c(-c5cccc(S(=O)(=O)[O-])c5F)c5ccc2[nH]5)C=C4)C=C3)cc1
REMARK SMILES IDX 7 1 6 2 5 3 4 4 3 5 2 6 1 7 29 8 30 9 91 10 31 11 90 12
REMARK SMILES IDX 32 13 33 14 34 15 84 16 35 17 89 18 83 19 85 20 36 21 88 22
REMARK SMILES IDX 82 23 81 24 37 26 69 27 49 28 68 29 50 30 53 31 67 32 86 33
REMARK SMILES IDX 51 34 52 35 66 37 87 38 54 39 38 40 39 41 47 42 40 43 42 44
REMARK SMILES IDX 48 45 41 46 43 47 44 48 45 49 46 50 70 51 71 52 79 53 72 54
REMARK SMILES IDX 74 55 80 56 73 57 75 58 76 59 77 60 78 61 55 62 56 63 64 64
REMARK SMILES IDX 57 65 59 66 65 67 58 68 60 69 61 70 62 71 63 72 8 73 9 74
REMARK SMILES IDX 10 75 11 76 12 77 13 78 14 79 15 80 16 81 27 82 17 83 26 84
REMARK SMILES IDX 28 85 25 86 18 87 19 88 23 89 20 90 22 91 24 92 21 93
REMARK H PARENT 85 25 53 36 22 94
REMARK Flexibility Score: inf
ROOT
ATOM      1  C   UNL A   1      37.726  22.962  25.656  1.00  0.00     0.188 C 
ENDROOT
BRANCH   1   2
ATOM      2  O   UNL A   1      38.535  21.883  26.135  1.00  0.00    -0.376 OA
BRANCH   2   3
ATOM      3  C   UNL A   1      38.657  20.790  25.224  1.00  0.00     0.202 C 
BRANCH   3   4
ATOM      4  C   UNL A   1      39.156  19.481  25.849  1.00  0.00     0.261 C 
BRANCH   4   5
ATOM      5  O   UNL A   1      40.581  19.331  25.754  1.00  0.00    -0.460 OA
BRANCH   5   6
ATOM      6  C   UNL A   1      41.502  19.744  26.662  1.00  0.00     0.338 C 
ATOM      7  O   UNL A   1      42.127  18.902  27.304  1.00  0.00    -0.246 OA
BRANCH   6   8
ATOM      8  C   UNL A   1      41.815  21.186  26.896  1.00  0.00     0.060 A 
ATOM      9  C   UNL A   1      42.192  21.718  28.127  1.00  0.00     0.016 A 
ATOM     10  C   UNL A   1      41.821  22.037  25.781  1.00  0.00     0.016 A 
ATOM     11  C   UNL A   1      42.470  23.072  28.284  1.00  0.00     0.010 A 
ATOM     12  C   UNL A   1      42.185  23.382  25.915  1.00  0.00     0.010 A 
ATOM     13  C   UNL A   1      42.497  23.914  27.177  1.00  0.00    -0.014 A 
BRANCH  13  14
ATOM     14  C   UNL A   1      42.806  25.351  27.353  1.00  0.00     0.031 A 
ATOM     15  C   UNL A   1      44.131  25.871  26.881  1.00  0.00     0.074 A 
ATOM     16  C   UNL A   1      41.904  26.189  27.904  1.00  0.00     0.049 A 
ATOM     17  N   UNL A   1      44.657  27.053  27.049  1.00  0.00    -0.248 NA
ATOM     18  C   UNL A   1      44.970  24.940  26.108  1.00  0.00     0.031 C 
ATOM     19  C   UNL A   1      40.546  25.826  28.318  1.00  0.00     0.029 A 
ATOM     20  N   UNL A   1      41.998  27.521  28.224  1.00  0.00    -0.354 N 
ATOM     21  C   UNL A   1      45.907  26.994  26.451  1.00  0.00     0.074 A 
ATOM     22  C   UNL A   1      46.065  25.660  25.914  1.00  0.00     0.031 C 
ATOM     23  C   UNL A   1      39.949  26.899  28.856  1.00  0.00     0.029 A 
ATOM     24  C   UNL A   1      40.902  27.994  28.908  1.00  0.00     0.049 A 
ATOM     25  H   UNL A   1      42.772  28.081  27.988  1.00  0.00     0.167 HD
ATOM     26  C   UNL A   1      46.834  27.971  26.347  1.00  0.00     0.034 A 
ATOM     27  C   UNL A   1      40.704  29.154  29.562  1.00  0.00     0.034 A 
ATOM     28  C   UNL A   1      46.645  29.306  26.839  1.00  0.00     0.049 A 
ATOM     29  C   UNL A   1      41.791  30.184  29.525  1.00  0.00     0.074 A 
ATOM     30  C   UNL A   1      47.493  30.391  26.726  1.00  0.00     0.029 A 
ATOM     31  N   UNL A   1      45.535  29.732  27.551  1.00  0.00    -0.354 N 
ATOM     32  N   UNL A   1      42.936  30.142  28.890  1.00  0.00    -0.248 NA
ATOM     33  C   UNL A   1      41.554  31.429  30.269  1.00  0.00     0.031 C 
ATOM     34  C   UNL A   1      46.908  31.468  27.400  1.00  0.00     0.029 A 
ATOM     35  C   UNL A   1      45.688  31.057  27.914  1.00  0.00     0.049 A 
ATOM     36  H   UNL A   1      44.753  29.173  27.765  1.00  0.00     0.167 HD
ATOM     37  C   UNL A   1      43.545  31.364  29.129  1.00  0.00     0.074 A 
ATOM     38  C   UNL A   1      42.635  32.131  29.957  1.00  0.00     0.031 C 
ATOM     39  C   UNL A   1      44.751  31.810  28.705  1.00  0.00     0.034 A 
BRANCH  26  40
ATOM     40  C   UNL A   1      48.132  27.623  25.681  1.00  0.00     0.023 A 
ATOM     41  C   UNL A   1      49.237  27.216  26.454  1.00  0.00     0.012 A 
ATOM     42  C   UNL A   1      48.246  27.686  24.279  1.00  0.00     0.148 A 
ATOM     43  C   UNL A   1      50.448  26.898  25.840  1.00  0.00     0.002 A 
ATOM     44  C   UNL A   1      49.444  27.336  23.673  1.00  0.00     0.091 A 
ATOM     45  F   UNL A   1      47.186  28.102  23.571  1.00  0.00    -0.205 F 
ATOM     46  C   UNL A   1      50.549  26.950  24.452  1.00  0.00     0.022 A 
BRANCH  44  47
ATOM     47  S   UNL A   1      49.665  27.328  21.891  1.00  0.00     0.127 S 
ATOM     48  O   UNL A   1      51.076  26.962  21.773  1.00  0.00    -0.237 OA
ATOM     49  O   UNL A   1      48.726  26.289  21.474  1.00  0.00    -0.237 OA
ATOM     50  O   UNL A   1      49.338  28.672  21.438  1.00  0.00    -0.744 OA
ENDBRANCH  44  47
ENDBRANCH  26  40
BRANCH  27  51
ATOM     51  C   UNL A   1      39.459  29.380  30.349  1.00  0.00     0.023 A 
ATOM     52  C   UNL A   1      39.264  28.709  31.570  1.00  0.00     0.012 A 
ATOM     53  C   UNL A   1      38.459  30.252  29.876  1.00  0.00     0.148 A 
ATOM     54  C   UNL A   1      38.082  28.882  32.293  1.00  0.00     0.002 A 
ATOM     55  C   UNL A   1      37.299  30.444  30.617  1.00  0.00     0.091 A 
ATOM     56  F   UNL A   1      38.666  30.881  28.710  1.00  0.00    -0.205 F 
ATOM     57  C   UNL A   1      37.103  29.754  31.821  1.00  0.00     0.022 A 
BRANCH  55  58
ATOM     58  S   UNL A   1      36.030  31.621  30.136  1.00  0.00     0.127 S 
ATOM     59  O   UNL A   1      35.179  31.645  31.323  1.00  0.00    -0.237 OA
ATOM     60  O   UNL A   1      36.823  32.829  29.914  1.00  0.00    -0.237 OA
ATOM     61  O   UNL A   1      35.424  31.065  28.934  1.00  0.00    -0.744 OA
ENDBRANCH  55  58
ENDBRANCH  27  51
BRANCH  39  62
ATOM     62  C   UNL A   1      45.147  33.200  29.106  1.00  0.00     0.023 A 
ATOM     63  C   UNL A   1      45.818  33.409  30.326  1.00  0.00     0.012 A 
ATOM     64  C   UNL A   1      44.925  34.282  28.234  1.00  0.00     0.148 A 
ATOM     65  C   UNL A   1      46.249  34.685  30.680  1.00  0.00     0.002 A 
ATOM     66  C   UNL A   1      45.402  35.540  28.571  1.00  0.00     0.091 A 
ATOM     67  F   UNL A   1      44.263  34.056  27.090  1.00  0.00    -0.205 F 
ATOM     68  C   UNL A   1      46.055  35.746  29.798  1.00  0.00     0.022 A 
BRANCH  66  69
ATOM     69  S   UNL A   1      45.285  36.941  27.454  1.00  0.00     0.127 S 
ATOM     70  O   UNL A   1      43.856  36.956  27.144  1.00  0.00    -0.237 OA
ATOM     71  O   UNL A   1      45.741  38.046  28.297  1.00  0.00    -0.237 OA
ATOM     72  O   UNL A   1      46.163  36.635  26.331  1.00  0.00    -0.744 OA
ENDBRANCH  66  69
ENDBRANCH  39  62
ENDBRANCH  13  14
ENDBRANCH   6   8
ENDBRANCH   5   6
ENDBRANCH   4   5
ENDBRANCH   3   4
ENDBRANCH   2   3
ENDBRANCH   1   2
BRANCH   1  73
ATOM     73  C   UNL A   1      36.721  22.460  24.617  1.00  0.00     0.188 C 
BRANCH  73  74
ATOM     74  O   UNL A   1      35.362  22.413  25.054  1.00  0.00    -0.376 OA
BRANCH  74  75
ATOM     75  C   UNL A   1      35.122  22.609  26.443  1.00  0.00     0.202 C 
BRANCH  75  76
ATOM     76  C   UNL A   1      33.866  23.387  26.863  1.00  0.00     0.261 C 
BRANCH  76  77
ATOM     77  O   UNL A   1      32.976  23.808  25.817  1.00  0.00    -0.460 OA
BRANCH  77  78
ATOM     78  C   UNL A   1      31.823  23.099  25.775  1.00  0.00     0.339 C 
ATOM     79  O   UNL A   1      30.878  23.197  26.557  1.00  0.00    -0.246 OA
BRANCH  78  80
ATOM     80  C   UNL A   1      31.846  22.095  24.707  1.00  0.00     0.079 A 
ATOM     81  C   UNL A   1      32.265  20.778  24.974  1.00  0.00     0.026 A 
ATOM     82  C   UNL A   1      31.610  22.518  23.395  1.00  0.00     0.055 A 
ATOM     83  C   UNL A   1      32.482  19.887  23.910  1.00  0.00    -0.012 A 
ATOM     84  C   UNL A   1      31.842  21.642  22.341  1.00  0.00     0.022 A 
ATOM     85  Cl  UNL A   1      30.995  24.091  23.024  1.00  0.00    -0.083 Cl
ATOM     86  C   UNL A   1      32.270  20.337  22.598  1.00  0.00     0.010 A 
BRANCH  83  87
ATOM     87  C   UNL A   1      32.925  18.491  24.097  1.00  0.00     0.047 A 
ATOM     88  C   UNL A   1      33.404  17.772  23.065  1.00  0.00     0.016 A 
ATOM     89  C   UNL A   1      32.998  17.873  25.471  1.00  0.00     0.255 A 
ATOM     90  C   UNL A   1      34.031  16.482  23.260  1.00  0.00     0.019 A 
ATOM     91  N   UNL A   1      33.702  16.693  25.568  1.00  0.00    -0.329 N 
ATOM     92  O   UNL A   1      32.439  18.355  26.450  1.00  0.00    -0.269 OA
ATOM     93  C   UNL A   1      34.202  16.005  24.497  1.00  0.00     0.086 A 
ATOM     94  H   UNL A   1      33.854  16.320  26.467  1.00  0.00     0.169 HD
ENDBRANCH  83  87
ENDBRANCH  78  80
ENDBRANCH  77  78
ENDBRANCH  76  77
ENDBRANCH  75  76
ENDBRANCH  74  75
ENDBRANCH  73  74
ENDBRANCH   1  73
TORSDOF 21
ENDMDL
MODEL 2
REMARK VINA RESULT:     -10.5      3.377      8.741
REMARK SMILES O=C(OCCOCCOCCOC(=O)c1cc(-c2ccc[nH]c2=O)ccc1Cl)c1ccc(-c2c3nc(c(-c4cccc(S(=O)(=O)[O-])c4F)c4ccc([nH]4)c(-c4cccc(S(=O)(=O)[O-])c4F)c4nc(c(-c5cccc(S(=O)(=O)[O-])c5F)c5ccc2[nH]5)C=C4)C=C3)cc1
REMARK SMILES IDX 7 1 6 2 5 3 4 4 3 5 2 6 1 7 29 8 30 9 91 10 31 11 90 12
REMARK SMILES IDX 32 13 33 14 34 15 84 16 35 17 89 18 83 19 85 20 36 21 88 22
REMARK SMILES IDX 82 23 81 24 37 26 69 27 49 28 68 29 50 30 53 31 67 32 86 33
REMARK SMILES IDX 51 34 52 35 66 37 87 38 54 39 38 40 39 41 47 42 40 43 42 44
REMARK SMILES IDX 48 45 41 46 43 47 44 48 45 49 46 50 70 51 71 52 79 53 72 54
REMARK SMILES IDX 74 55 80 56 73 57 75 58 76 59 77 60 78 61 55 62 56 63 64 64
REMARK SMILES IDX 57 65 59 66 65 67 58 68 60 69 61 70 62 71 63 72 8 73 9 74
REMARK SMILES IDX 10 75 11 76 12 77 13 78 14 79 15 80 16 81 27 82 17 83 26 84
REMARK SMILES IDX 28 85 25 86 18 87 19 88 23 89 20 90 22 91 24 92 21 93
REMARK H PARENT 85 25 53 36 22 94
REMARK Flexibility Score: inf
ROOT
ATOM      1  C   UNL A   1      37.961  23.569  26.060  1.00  0.00     0.188 C 
ENDROOT
BRANCH   1   2
ATOM      2  O   UNL A   1      38.625  22.333  26.342  1.00  0.00    -0.376 OA
BRANCH   2   3
ATOM      3  C   UNL A   1      38.394  21.307  25.376  1.00  0.00     0.202 C 
BRANCH   3   4
ATOM      4  C   UNL A   1      38.723  19.886  25.852  1.00  0.00     0.261 C 
BRANCH   4   5
ATOM      5  O   UNL A   1      39.992  19.421  25.368  1.00  0.00    -0.460 OA
BRANCH   5   6
ATOM      6  C   UNL A   1      41.204  19.621  25.947  1.00  0.00     0.338 C 
ATOM      7  O   UNL A   1      41.926  18.652  26.170  1.00  0.00    -0.246 OA
BRANCH   6   8
ATOM      8  C   UNL A   1      41.715  20.980  26.299  1.00  0.00     0.060 A 
ATOM      9  C   UNL A   1      41.923  22.004  25.377  1.00  0.00     0.016 A 
ATOM     10  C   UNL A   1      41.905  21.269  27.658  1.00  0.00     0.016 A 
ATOM     11  C   UNL A   1      42.403  23.250  25.764  1.00  0.00     0.010 A 
ATOM     12  C   UNL A   1      42.305  22.548  28.064  1.00  0.00     0.010 A 
ATOM     13  C   UNL A   1      42.573  23.546  27.113  1.00  0.00    -0.014 A 
BRANCH  13  14
ATOM     14  C   UNL A   1      43.073  24.880  27.516  1.00  0.00     0.031 A 
ATOM     15  C   UNL A   1      42.110  25.870  28.101  1.00  0.00     0.074 A 
ATOM     16  C   UNL A   1      44.378  25.196  27.387  1.00  0.00     0.049 A 
ATOM     17  N   UNL A   1      42.301  27.125  28.399  1.00  0.00    -0.248 NA
ATOM     18  C   UNL A   1      40.754  25.378  28.398  1.00  0.00     0.031 C 
ATOM     19  C   UNL A   1      45.431  24.291  26.921  1.00  0.00     0.029 A 
ATOM     20  N   UNL A   1      45.042  26.375  27.625  1.00  0.00    -0.354 N 
ATOM     21  C   UNL A   1      41.081  27.587  28.869  1.00  0.00     0.074 A 
ATOM     22  C   UNL A   1      40.153  26.480  28.818  1.00  0.00     0.031 C 
ATOM     23  C   UNL A   1      46.596  24.954  26.885  1.00  0.00     0.029 A 
ATOM     24  C   UNL A   1      46.361  26.344  27.237  1.00  0.00     0.049 A 
ATOM     25  H   UNL A   1      44.615  27.163  28.033  1.00  0.00     0.167 HD
ATOM     26  C   UNL A   1      40.769  28.824  29.317  1.00  0.00     0.034 A 
ATOM     27  C   UNL A   1      47.267  27.331  27.113  1.00  0.00     0.034 A 
ATOM     28  C   UNL A   1      41.712  29.900  29.411  1.00  0.00     0.049 A 
ATOM     29  C   UNL A   1      46.866  28.718  27.514  1.00  0.00     0.074 A 
ATOM     30  C   UNL A   1      41.517  31.172  29.914  1.00  0.00     0.029 A 
ATOM     31  N   UNL A   1      43.027  29.834  28.979  1.00  0.00    -0.354 N 
ATOM     32  N   UNL A   1      45.731  29.123  28.028  1.00  0.00    -0.248 NA
ATOM     33  C   UNL A   1      47.869  29.777  27.344  1.00  0.00     0.031 C 
ATOM     34  C   UNL A   1      42.709  31.887  29.755  1.00  0.00     0.029 A 
ATOM     35  C   UNL A   1      43.649  31.053  29.172  1.00  0.00     0.049 A 
ATOM     36  H   UNL A   1      43.455  29.035  28.592  1.00  0.00     0.167 HD
ATOM     37  C   UNL A   1      45.892  30.478  28.276  1.00  0.00     0.074 A 
ATOM     38  C   UNL A   1      47.239  30.822  27.865  1.00  0.00     0.031 C 
ATOM     39  C   UNL A   1      45.003  31.359  28.791  1.00  0.00     0.034 A 
BRANCH  26  40
ATOM     40  C   UNL A   1      39.348  29.068  29.732  1.00  0.00     0.023 A 
ATOM     41  C   UNL A   1      38.940  28.794  31.051  1.00  0.00     0.012 A 
ATOM     42  C   UNL A   1      38.422  29.589  28.808  1.00  0.00     0.148 A 
ATOM     43  C   UNL A   1      37.619  29.012  31.441  1.00  0.00     0.002 A 
ATOM     44  C   UNL A   1      37.117  29.835  29.212  1.00  0.00     0.091 A 
ATOM     45  F   UNL A   1      38.832  29.815  27.553  1.00  0.00    -0.205 F 
ATOM     46  C   UNL A   1      36.712  29.539  30.526  1.00  0.00     0.022 A 
BRANCH  44  47
ATOM     47  S   UNL A   1      35.882  30.551  28.124  1.00  0.00     0.127 S 
ATOM     48  O   UNL A   1      34.767  30.764  29.046  1.00  0.00    -0.237 OA
ATOM     49  O   UNL A   1      36.547  31.773  27.674  1.00  0.00    -0.237 OA
ATOM     50  O   UNL A   1      35.640  29.563  27.082  1.00  0.00    -0.744 OA
ENDBRANCH  44  47
ENDBRANCH  26  40
BRANCH  27  51
ATOM     51  C   UNL A   1      48.614  27.059  26.537  1.00  0.00     0.023 A 
ATOM     52  C   UNL A   1      49.630  26.513  27.342  1.00  0.00     0.012 A 
ATOM     53  C   UNL A   1      48.893  27.359  25.189  1.00  0.00     0.148 A 
ATOM     54  C   UNL A   1      50.907  26.295  26.822  1.00  0.00     0.002 A 
ATOM     55  C   UNL A   1      50.157  27.109  24.669  1.00  0.00     0.091 A 
ATOM     56  F   UNL A   1      47.909  27.879  24.439  1.00  0.00    -0.205 F 
ATOM     57  C   UNL A   1      51.169  26.586  25.485  1.00  0.00     0.022 A 
BRANCH  55  58
ATOM     58  S   UNL A   1      50.555  27.361  22.936  1.00  0.00     0.127 S 
ATOM     59  O   UNL A   1      51.860  26.713  22.832  1.00  0.00    -0.237 OA
ATOM     60  O   UNL A   1      49.456  26.655  22.280  1.00  0.00    -0.237 OA
ATOM     61  O   UNL A   1      50.548  28.804  22.744  1.00  0.00    -0.744 OA
ENDBRANCH  55  58
ENDBRANCH  27  51
BRANCH  39  62
ATOM     62  C   UNL A   1      45.465  32.776  28.965  1.00  0.00     0.023 A 
ATOM     63  C   UNL A   1      46.160  33.142  30.133  1.00  0.00     0.012 A 
ATOM     64  C   UNL A   1      45.281  33.716  27.935  1.00  0.00     0.148 A 
ATOM     65  C   UNL A   1      46.652  34.437  30.280  1.00  0.00     0.002 A 
ATOM     66  C   UNL A   1      45.817  34.988  28.067  1.00  0.00     0.091 A 
ATOM     67  F   UNL A   1      44.595  33.343  26.845  1.00  0.00    -0.205 F 
ATOM     68  C   UNL A   1      46.494  35.354  29.243  1.00  0.00     0.022 A 
BRANCH  66  69
ATOM     69  S   UNL A   1      45.749  36.200  26.744  1.00  0.00     0.127 S 
ATOM     70  O   UNL A   1      44.310  36.438  26.633  1.00  0.00    -0.237 OA
ATOM     71  O   UNL A   1      46.513  37.314  27.307  1.00  0.00    -0.237 OA
ATOM     72  O   UNL A   1      46.367  35.567  25.586  1.00  0.00    -0.744 OA
ENDBRANCH  66  69
ENDBRANCH  39  62
ENDBRANCH  13  14
ENDBRANCH   6   8
ENDBRANCH   5   6
ENDBRANCH   4   5
ENDBRANCH   3   4
ENDBRANCH   2   3
ENDBRANCH   1   2
BRANCH   1  73
ATOM     73  C   UNL A   1      36.667  23.317  25.280  1.00  0.00     0.188 C 
BRANCH  73  74
ATOM     74  O   UNL A   1      35.606  24.237  25.543  1.00  0.00    -0.376 OA
BRANCH  74  75
ATOM     75  C   UNL A   1      34.812  24.641  24.434  1.00  0.00     0.202 C 
BRANCH  75  76
ATOM     76  C   UNL A   1      33.706  25.681  24.670  1.00  0.00     0.261 C 
BRANCH  76  77
ATOM     77  O   UNL A   1      33.645  26.790  23.759  1.00  0.00    -0.460 OA
BRANCH  77  78
ATOM     78  C   UNL A   1      32.938  26.523  22.635  1.00  0.00     0.339 C 
ATOM     79  O   UNL A   1      33.391  26.109  21.569  1.00  0.00    -0.246 OA
BRANCH  78  80
ATOM     80  C   UNL A   1      31.523  26.873  22.793  1.00  0.00     0.079 A 
ATOM     81  C   UNL A   1      31.107  28.216  22.718  1.00  0.00     0.026 A 
ATOM     82  C   UNL A   1      30.632  25.870  23.189  1.00  0.00     0.055 A 
ATOM     83  C   UNL A   1      29.792  28.559  23.077  1.00  0.00    -0.012 A 
ATOM     84  C   UNL A   1      29.338  26.212  23.562  1.00  0.00     0.022 A 
ATOM     85  Cl  UNL A   1      31.066  24.196  23.197  1.00  0.00    -0.083 Cl
ATOM     86  C   UNL A   1      28.922  27.544  23.501  1.00  0.00     0.010 A 
BRANCH  83  87
ATOM     87  C   UNL A   1      29.272  29.940  23.031  1.00  0.00     0.047 A 
ATOM     88  C   UNL A   1      29.577  30.828  23.997  1.00  0.00     0.016 A 
ATOM     89  C   UNL A   1      28.511  30.449  21.832  1.00  0.00     0.255 A 
ATOM     90  C   UNL A   1      29.253  32.232  23.871  1.00  0.00     0.019 A 
ATOM     91  N   UNL A   1      28.340  31.813  21.756  1.00  0.00    -0.329 N 
ATOM     92  O   UNL A   1      28.030  29.705  20.983  1.00  0.00    -0.269 OA
ATOM     93  C   UNL A   1      28.692  32.688  22.746  1.00  0.00     0.086 A 
ATOM     94  H   UNL A   1      27.938  32.182  20.936  1.00  0.00     0.169 HD
ENDBRANCH  83  87
ENDBRANCH  78  80
ENDBRANCH  77  78
ENDBRANCH  76  77
ENDBRANCH  75  76
ENDBRANCH  74  75
ENDBRANCH  73  74
ENDBRANCH   1  73
TORSDOF 21
ENDMDL
MODEL 3
REMARK VINA RESULT:     -10.4      3.162      4.821
REMARK SMILES O=C(OCCOCCOCCOC(=O)c1cc(-c2ccc[nH]c2=O)ccc1Cl)c1ccc(-c2c3nc(c(-c4cccc(S(=O)(=O)[O-])c4F)c4ccc([nH]4)c(-c4cccc(S(=O)(=O)[O-])c4F)c4nc(c(-c5cccc(S(=O)(=O)[O-])c5F)c5ccc2[nH]5)C=C4)C=C3)cc1
REMARK SMILES IDX 7 1 6 2 5 3 4 4 3 5 2 6 1 7 29 8 30 9 91 10 31 11 90 12
REMARK SMILES IDX 32 13 33 14 34 15 84 16 35 17 89 18 83 19 85 20 36 21 88 22
REMARK SMILES IDX 82 23 81 24 37 26 69 27 49 28 68 29 50 30 53 31 67 32 86 33
REMARK SMILES IDX 51 34 52 35 66 37 87 38 54 39 38 40 39 41 47 42 40 43 42 44
REMARK SMILES IDX 48 45 41 46 43 47 44 48 45 49 46 50 70 51 71 52 79 53 72 54
REMARK SMILES IDX 74 55 80 56 73 57 75 58 76 59 77 60 78 61 55 62 56 63 64 64
REMARK SMILES IDX 57 65 59 66 65 67 58 68 60 69 61 70 62 71 63 72 8 73 9 74
REMARK SMILES IDX 10 75 11 76 12 77 13 78 14 79 15 80 16 81 27 82 17 83 26 84
REMARK SMILES IDX 28 85 25 86 18 87 19 88 23 89 20 90 22 91 24 92 21 93
REMARK H PARENT 85 25 53 36 22 94
REMARK Flexibility Score: inf
ROOT
ATOM      1  C   UNL A   1      41.114  21.366  27.643  1.00  0.00     0.188 C 
ENDROOT
BRANCH   1   2
ATOM      2  O   UNL A   1      42.167  20.512  27.186  1.00  0.00    -0.376 OA
BRANCH   2   3
ATOM      3  C   UNL A   1      41.775  19.585  26.173  1.00  0.00     0.202 C 
BRANCH   3   4
ATOM      4  C   UNL A   1      42.851  18.562  25.783  1.00  0.00     0.261 C 
BRANCH   4   5
ATOM      5  O   UNL A   1      43.499  18.887  24.544  1.00  0.00    -0.460 OA
BRANCH   5   6
ATOM      6  C   UNL A   1      44.694  19.515  24.395  1.00  0.00     0.338 C 
ATOM      7  O   UNL A   1      45.657  18.874  23.980  1.00  0.00    -0.246 OA
BRANCH   6   8
ATOM      8  C   UNL A   1      44.883  20.968  24.685  1.00  0.00     0.060 A 
ATOM      9  C   UNL A   1      44.580  21.993  23.791  1.00  0.00     0.016 A 
ATOM     10  C   UNL A   1      45.304  21.322  25.975  1.00  0.00     0.016 A 
ATOM     11  C   UNL A   1      44.780  23.330  24.117  1.00  0.00     0.010 A 
ATOM     12  C   UNL A   1      45.423  22.669  26.339  1.00  0.00     0.010 A 
ATOM     13  C   UNL A   1      45.177  23.685  25.402  1.00  0.00    -0.014 A 
BRANCH  13  14
ATOM     14  C   UNL A   1      45.374  25.112  25.744  1.00  0.00     0.031 A 
ATOM     15  C   UNL A   1      46.763  25.677  25.730  1.00  0.00     0.074 A 
ATOM     16  C   UNL A   1      44.322  25.904  26.036  1.00  0.00     0.049 A 
ATOM     17  N   UNL A   1      47.176  26.851  26.117  1.00  0.00    -0.248 NA
ATOM     18  C   UNL A   1      47.826  24.805  25.202  1.00  0.00     0.031 C 
ATOM     19  C   UNL A   1      42.914  25.500  25.993  1.00  0.00     0.029 A 
ATOM     20  N   UNL A   1      44.273  27.215  26.443  1.00  0.00    -0.354 N 
ATOM     21  C   UNL A   1      48.551  26.844  25.929  1.00  0.00     0.074 A 
ATOM     22  C   UNL A   1      48.905  25.549  25.394  1.00  0.00     0.031 C 
ATOM     23  C   UNL A   1      42.149  26.531  26.380  1.00  0.00     0.029 A 
ATOM     24  C   UNL A   1      43.007  27.632  26.782  1.00  0.00     0.049 A 
ATOM     25  H   UNL A   1      45.065  27.797  26.487  1.00  0.00     0.167 HD
ATOM     26  C   UNL A   1      49.435  27.838  26.169  1.00  0.00     0.034 A 
ATOM     27  C   UNL A   1      42.583  28.747  27.406  1.00  0.00     0.034 A 
ATOM     28  C   UNL A   1      49.065  29.137  26.651  1.00  0.00     0.049 A 
ATOM     29  C   UNL A   1      43.598  29.791  27.761  1.00  0.00     0.074 A 
ATOM     30  C   UNL A   1      49.874  30.237  26.864  1.00  0.00     0.029 A 
ATOM     31  N   UNL A   1      47.778  29.505  27.010  1.00  0.00    -0.354 N 
ATOM     32  N   UNL A   1      44.882  29.801  27.508  1.00  0.00    -0.248 NA
ATOM     33  C   UNL A   1      43.107  30.984  28.464  1.00  0.00     0.031 C 
ATOM     34  C   UNL A   1      49.078  31.264  27.384  1.00  0.00     0.029 A 
ATOM     35  C   UNL A   1      47.773  30.807  27.475  1.00  0.00     0.049 A 
ATOM     36  H   UNL A   1      46.985  28.925  26.943  1.00  0.00     0.167 HD
ATOM     37  C   UNL A   1      45.352  31.013  27.988  1.00  0.00     0.074 A 
ATOM     38  C   UNL A   1      44.210  31.717  28.538  1.00  0.00     0.031 C 
ATOM     39  C   UNL A   1      46.616  31.498  27.981  1.00  0.00     0.034 A 
BRANCH  26  40
ATOM     40  C   UNL A   1      50.885  27.546  25.914  1.00  0.00     0.023 A 
ATOM     41  C   UNL A   1      51.734  27.199  26.983  1.00  0.00     0.012 A 
ATOM     42  C   UNL A   1      51.398  27.603  24.604  1.00  0.00     0.148 A 
ATOM     43  C   UNL A   1      53.084  26.935  26.753  1.00  0.00     0.002 A 
ATOM     44  C   UNL A   1      52.735  27.306  24.380  1.00  0.00     0.091 A 
ATOM     45  F   UNL A   1      50.573  27.962  23.611  1.00  0.00    -0.205 F 
ATOM     46  C   UNL A   1      53.581  26.980  25.454  1.00  0.00     0.022 A 
BRANCH  44  47
ATOM     47  S   UNL A   1      53.464  27.294  22.739  1.00  0.00     0.127 S 
ATOM     48  O   UNL A   1      52.723  26.209  22.097  1.00  0.00    -0.237 OA
ATOM     49  O   UNL A   1      53.133  28.633  22.251  1.00  0.00    -0.237 OA
ATOM     50  O   UNL A   1      54.885  27.042  22.930  1.00  0.00    -0.744 OA
ENDBRANCH  44  47
ENDBRANCH  26  40
BRANCH  27  51
ATOM     51  C   UNL A   1      41.151  28.909  27.785  1.00  0.00     0.023 A 
ATOM     52  C   UNL A   1      40.206  29.301  26.819  1.00  0.00     0.012 A 
ATOM     53  C   UNL A   1      40.729  28.690  29.111  1.00  0.00     0.148 A 
ATOM     54  C   UNL A   1      38.869  29.497  27.175  1.00  0.00     0.002 A 
ATOM     55  C   UNL A   1      39.392  28.855  29.449  1.00  0.00     0.091 A 
ATOM     56  F   UNL A   1      41.648  28.316  30.014  1.00  0.00    -0.205 F 
ATOM     57  C   UNL A   1      38.461  29.268  28.486  1.00  0.00     0.022 A 
BRANCH  55  58
ATOM     58  S   UNL A   1      38.760  28.488  31.090  1.00  0.00     0.127 S 
ATOM     59  O   UNL A   1      37.382  28.964  30.993  1.00  0.00    -0.237 OA
ATOM     60  O   UNL A   1      38.914  27.035  31.142  1.00  0.00    -0.237 OA
ATOM     61  O   UNL A   1      39.619  29.222  32.008  1.00  0.00    -0.744 OA
ENDBRANCH  55  58
ENDBRANCH  27  51
BRANCH  39  62
ATOM     62  C   UNL A   1      46.828  32.866  28.559  1.00  0.00     0.023 A 
ATOM     63  C   UNL A   1      47.144  33.003  29.924  1.00  0.00     0.012 A 
ATOM     64  C   UNL A   1      46.795  34.002  27.730  1.00  0.00     0.148 A 
ATOM     65  C   UNL A   1      47.408  34.261  30.460  1.00  0.00     0.002 A 
ATOM     66  C   UNL A   1      47.108  35.245  28.260  1.00  0.00     0.091 A 
ATOM     67  F   UNL A   1      46.469  33.842  26.440  1.00  0.00    -0.205 F 
ATOM     68  C   UNL A   1      47.404  35.378  29.628  1.00  0.00     0.022 A 
BRANCH  66  69
ATOM     69  S   UNL A   1      47.226  36.720  27.244  1.00  0.00     0.127 S 
ATOM     70  O   UNL A   1      47.924  37.643  28.138  1.00  0.00    -0.237 OA
ATOM     71  O   UNL A   1      48.020  36.249  26.109  1.00  0.00    -0.237 OA
ATOM     72  O   UNL A   1      45.856  37.091  26.912  1.00  0.00    -0.744 OA
ENDBRANCH  66  69
ENDBRANCH  39  62
ENDBRANCH  13  14
ENDBRANCH   6   8
ENDBRANCH   5   6
ENDBRANCH   4   5
ENDBRANCH   3   4
ENDBRANCH   2   3
ENDBRANCH   1   2
BRANCH   1  73
ATOM     73  C   UNL A   1      40.503  22.139  26.471  1.00  0.00     0.188 C 
BRANCH  73  74
ATOM     74  O   UNL A   1      39.097  21.964  26.290  1.00  0.00    -0.376 OA
BRANCH  74  75
ATOM     75  C   UNL A   1      38.316  23.140  26.117  1.00  0.00     0.202 C 
BRANCH  75  76
ATOM     76  C   UNL A   1      37.009  23.036  25.314  1.00  0.00     0.261 C 
BRANCH  76  77
ATOM     77  O   UNL A   1      36.125  24.168  25.354  1.00  0.00    -0.460 OA
BRANCH  77  78
ATOM     78  C   UNL A   1      35.136  24.109  24.430  1.00  0.00     0.339 C 
ATOM     79  O   UNL A   1      35.259  23.781  23.251  1.00  0.00    -0.246 OA
BRANCH  78  80
ATOM     80  C   UNL A   1      33.859  24.578  24.977  1.00  0.00     0.079 A 
ATOM     81  C   UNL A   1      33.589  25.957  25.074  1.00  0.00     0.026 A 
ATOM     82  C   UNL A   1      32.998  23.638  25.552  1.00  0.00     0.055 A 
ATOM     83  C   UNL A   1      32.460  26.396  25.787  1.00  0.00    -0.012 A 
ATOM     84  C   UNL A   1      31.892  24.074  26.272  1.00  0.00     0.022 A 
ATOM     85  Cl  UNL A   1      33.232  21.935  25.370  1.00  0.00    -0.083 Cl
ATOM     86  C   UNL A   1      31.624  25.440  26.383  1.00  0.00     0.010 A 
BRANCH  83  87
ATOM     87  C   UNL A   1      32.102  27.820  25.943  1.00  0.00     0.047 A 
ATOM     88  C   UNL A   1      32.413  28.493  27.066  1.00  0.00     0.016 A 
ATOM     89  C   UNL A   1      31.514  28.607  24.798  1.00  0.00     0.255 A 
ATOM     90  C   UNL A   1      32.258  29.929  27.162  1.00  0.00     0.019 A 
ATOM     91  N   UNL A   1      31.503  29.976  24.946  1.00  0.00    -0.329 N 
ATOM     92  O   UNL A   1      31.034  28.078  23.802  1.00  0.00    -0.269 OA
ATOM     93  C   UNL A   1      31.856  30.628  26.096  1.00  0.00     0.086 A 
ATOM     94  H   UNL A   1      31.220  30.521  24.176  1.00  0.00     0.169 HD
ENDBRANCH  83  87
ENDBRANCH  78  80
ENDBRANCH  77  78
ENDBRANCH  76  77
ENDBRANCH  75  76
ENDBRANCH  74  75
ENDBRANCH  73  74
ENDBRANCH   1  73
TORSDOF 21
ENDMDL
