MODEL 1
REMARK VINA RESULT:     -11.5      0.000      0.000
REMARK SMILES Cc1c(CC(=O)OCCOCCOCCOC(=O)c2ccc(-c3c4nc(c(-c5cccc(S(=O)(=O)[O-])c5F)c5ccc([nH]5)c(-c5cccc(S(=O)(=O)[O-])c5F)c5nc(c(-c6cccc(S(=O)(=O)[O-])c6F)c6ccc3[nH]6)C=C5)C=C4)cc2)c2cc(O)ccc2n1C(=O)c1ccc(Cl)cc1
REMARK SMILES IDX 11 1 10 2 9 3 8 4 7 5 5 6 6 7 4 8 3 9 1 10 2 11 89 12 82 13
REMARK SMILES IDX 88 14 83 15 87 16 84 17 86 18 90 19 91 20 92 21 93 22 98 23
REMARK SMILES IDX 94 24 97 25 95 26 96 27 85 28 12 30 13 31 14 32 15 33 16 34
REMARK SMILES IDX 17 35 18 36 19 37 20 38 81 39 21 40 80 41 22 42 23 43 24 44
REMARK SMILES IDX 74 45 25 46 79 47 73 48 75 49 26 50 78 51 72 52 71 53 27 55
REMARK SMILES IDX 59 56 39 57 58 58 40 59 43 60 57 61 76 62 41 63 42 64 56 66
REMARK SMILES IDX 77 67 44 68 28 69 29 70 37 71 30 72 32 73 38 74 31 75 33 76
REMARK SMILES IDX 34 77 35 78 36 79 60 80 61 81 69 82 62 83 64 84 70 85 63 86
REMARK SMILES IDX 65 87 66 88 67 89 68 90 45 91 46 92 54 93 47 94 49 95 55 96
REMARK SMILES IDX 48 97 50 98 51 99 52 100 53 101
REMARK H PARENT 85 29 75 54 43 65
REMARK Flexibility Score: inf
ROOT
ATOM      1  C   UNL A   1      40.358  21.281  26.774  1.00  0.00     0.188 C 
ENDROOT
BRANCH   1   2
ATOM      2  O   UNL A   1      40.208  22.417  25.951  1.00  0.00    -0.376 OA
BRANCH   2   3
ATOM      3  C   UNL A   1      39.062  23.231  26.121  1.00  0.00     0.202 C 
BRANCH   3   4
ATOM      4  C   UNL A   1      37.708  22.522  26.228  1.00  0.00     0.261 C 
BRANCH   4   5
ATOM      5  O   UNL A   1      37.067  22.286  24.942  1.00  0.00    -0.463 OA
BRANCH   5   6
ATOM      6  C   UNL A   1      36.436  21.090  24.863  1.00  0.00     0.310 C 
ATOM      7  O   UNL A   1      37.086  20.049  24.938  1.00  0.00    -0.252 OA
BRANCH   6   8
ATOM      8  C   UNL A   1      34.910  21.047  24.891  1.00  0.00     0.160 C 
BRANCH   8   9
ATOM      9  C   UNL A   1      33.971  22.236  24.897  1.00  0.00    -0.008 A 
ATOM     10  C   UNL A   1      34.355  22.851  27.380  1.00  0.00     0.065 C 
ATOM     11  C   UNL A   1      33.775  23.047  26.014  1.00  0.00     0.028 A 
ATOM     12  N   UNL A   1      33.047  24.173  25.631  1.00  0.00    -0.280 N 
ATOM     13  C   UNL A   1      33.485  23.000  23.762  1.00  0.00     0.008 A 
ATOM     14  C   UNL A   1      33.130  24.264  24.234  1.00  0.00     0.057 A 
ATOM     15  C   UNL A   1      33.422  22.829  22.354  1.00  0.00     0.056 A 
ATOM     16  C   UNL A   1      32.903  25.334  23.330  1.00  0.00     0.031 A 
ATOM     17  C   UNL A   1      33.131  23.870  21.468  1.00  0.00     0.116 A 
ATOM     18  C   UNL A   1      32.899  25.128  21.954  1.00  0.00     0.048 A 
BRANCH  12  19
ATOM     19  C   UNL A   1      32.303  25.058  26.462  1.00  0.00     0.262 C 
ATOM     20  O   UNL A   1      31.391  24.640  27.157  1.00  0.00    -0.268 OA
BRANCH  19  21
ATOM     21  C   UNL A   1      32.503  26.519  26.407  1.00  0.00     0.040 A 
ATOM     22  C   UNL A   1      33.806  26.995  26.219  1.00  0.00     0.015 A 
ATOM     23  C   UNL A   1      31.464  27.369  26.799  1.00  0.00     0.015 A 
ATOM     24  C   UNL A   1      34.095  28.326  26.517  1.00  0.00     0.021 A 
ATOM     25  C   UNL A   1      31.766  28.697  27.112  1.00  0.00     0.021 A 
ATOM     26  C   UNL A   1      33.080  29.161  26.991  1.00  0.00     0.041 A 
ATOM     27  Cl  UNL A   1      33.473  30.755  27.508  1.00  0.00    -0.084 Cl
ENDBRANCH  19  21
ENDBRANCH  12  19
BRANCH  17  28
ATOM     28  O   UNL A   1      33.106  23.723  20.111  1.00  0.00    -0.508 OA
ATOM     29  H   UNL A   1      32.794  22.925  19.732  1.00  0.00     0.293 HD
ENDBRANCH  17  28
ENDBRANCH   8   9
ENDBRANCH   6   8
ENDBRANCH   5   6
ENDBRANCH   4   5
ENDBRANCH   3   4
ENDBRANCH   2   3
ENDBRANCH   1   2
BRANCH   1  30
ATOM     30  C   UNL A   1      40.413  19.886  26.147  1.00  0.00     0.188 C 
BRANCH  30  31
ATOM     31  O   UNL A   1      41.546  19.473  25.417  1.00  0.00    -0.376 OA
BRANCH  31  32
ATOM     32  C   UNL A   1      42.578  18.860  26.169  1.00  0.00     0.202 C 
BRANCH  32  33
ATOM     33  C   UNL A   1      43.849  18.455  25.389  1.00  0.00     0.261 C 
BRANCH  33  34
ATOM     34  O   UNL A   1      44.200  19.413  24.343  1.00  0.00    -0.460 OA
BRANCH  34  35
ATOM     35  C   UNL A   1      45.255  20.236  24.625  1.00  0.00     0.338 C 
ATOM     36  O   UNL A   1      46.395  20.058  24.210  1.00  0.00    -0.246 OA
BRANCH  35  37
ATOM     37  C   UNL A   1      44.795  21.596  25.074  1.00  0.00     0.060 A 
ATOM     38  C   UNL A   1      43.847  22.425  24.473  1.00  0.00     0.016 A 
ATOM     39  C   UNL A   1      45.523  22.115  26.148  1.00  0.00     0.016 A 
ATOM     40  C   UNL A   1      43.727  23.777  24.897  1.00  0.00     0.010 A 
ATOM     41  C   UNL A   1      45.489  23.460  26.491  1.00  0.00     0.010 A 
ATOM     42  C   UNL A   1      44.601  24.324  25.862  1.00  0.00    -0.014 A 
BRANCH  42  43
ATOM     43  C   UNL A   1      44.373  25.596  26.583  1.00  0.00     0.031 A 
ATOM     44  C   UNL A   1      45.440  26.550  26.277  1.00  0.00     0.074 A 
ATOM     45  C   UNL A   1      43.318  26.071  27.286  1.00  0.00     0.049 A 
ATOM     46  N   UNL A   1      46.573  26.566  26.894  1.00  0.00    -0.248 NA
ATOM     47  C   UNL A   1      45.363  27.422  25.101  1.00  0.00     0.031 C 
ATOM     48  C   UNL A   1      42.115  25.351  27.626  1.00  0.00     0.029 A 
ATOM     49  N   UNL A   1      43.063  27.306  27.834  1.00  0.00    -0.354 N 
ATOM     50  C   UNL A   1      47.177  27.708  26.425  1.00  0.00     0.074 A 
ATOM     51  C   UNL A   1      46.570  27.996  25.147  1.00  0.00     0.031 C 
ATOM     52  C   UNL A   1      41.153  26.163  28.114  1.00  0.00     0.029 A 
ATOM     53  C   UNL A   1      41.760  27.463  28.325  1.00  0.00     0.049 A 
ATOM     54  H   UNL A   1      43.739  28.020  27.877  1.00  0.00     0.167 HD
ATOM     55  C   UNL A   1      47.791  28.545  27.300  1.00  0.00     0.034 A 
ATOM     56  C   UNL A   1      41.261  28.453  29.106  1.00  0.00     0.034 A 
ATOM     57  C   UNL A   1      47.807  28.014  28.642  1.00  0.00     0.049 A 
ATOM     58  C   UNL A   1      42.387  28.831  29.986  1.00  0.00     0.074 A 
ATOM     59  C   UNL A   1      48.415  26.966  29.300  1.00  0.00     0.029 A 
ATOM     60  N   UNL A   1      46.728  28.399  29.400  1.00  0.00    -0.354 N 
ATOM     61  N   UNL A   1      42.892  28.037  30.892  1.00  0.00    -0.248 NA
ATOM     62  C   UNL A   1      43.161  30.027  29.688  1.00  0.00     0.031 C 
ATOM     63  C   UNL A   1      47.581  26.646  30.412  1.00  0.00     0.029 A 
ATOM     64  C   UNL A   1      46.490  27.511  30.418  1.00  0.00     0.049 A 
ATOM     65  H   UNL A   1      46.193  29.209  29.235  1.00  0.00     0.167 HD
ATOM     66  C   UNL A   1      44.228  28.386  30.912  1.00  0.00     0.074 A 
ATOM     67  C   UNL A   1      44.295  29.712  30.319  1.00  0.00     0.031 C 
ATOM     68  C   UNL A   1      45.200  27.447  31.077  1.00  0.00     0.034 A 
BRANCH  55  69
ATOM     69  C   UNL A   1      47.966  30.010  27.061  1.00  0.00     0.023 A 
ATOM     70  C   UNL A   1      49.262  30.539  27.177  1.00  0.00     0.012 A 
ATOM     71  C   UNL A   1      46.894  30.916  26.924  1.00  0.00     0.148 A 
ATOM     72  C   UNL A   1      49.485  31.916  27.109  1.00  0.00     0.002 A 
ATOM     73  C   UNL A   1      47.128  32.270  26.749  1.00  0.00     0.091 A 
ATOM     74  F   UNL A   1      45.636  30.490  27.101  1.00  0.00    -0.205 F 
ATOM     75  C   UNL A   1      48.422  32.780  26.860  1.00  0.00     0.022 A 
BRANCH  73  76
ATOM     76  S   UNL A   1      45.792  33.390  26.332  1.00  0.00     0.127 S 
ATOM     77  O   UNL A   1      46.521  34.537  25.806  1.00  0.00    -0.237 OA
ATOM     78  O   UNL A   1      45.044  32.615  25.342  1.00  0.00    -0.237 OA
ATOM     79  O   UNL A   1      45.074  33.598  27.588  1.00  0.00    -0.744 OA
ENDBRANCH  73  76
ENDBRANCH  55  69
BRANCH  56  80
ATOM     80  C   UNL A   1      39.907  29.042  29.278  1.00  0.00     0.023 A 
ATOM     81  C   UNL A   1      38.991  29.001  28.200  1.00  0.00     0.012 A 
ATOM     82  C   UNL A   1      39.396  29.333  30.561  1.00  0.00     0.148 A 
ATOM     83  C   UNL A   1      37.613  29.138  28.404  1.00  0.00     0.002 A 
ATOM     84  C   UNL A   1      38.018  29.466  30.759  1.00  0.00     0.091 A 
ATOM     85  F   UNL A   1      40.246  29.382  31.596  1.00  0.00    -0.205 F 
ATOM     86  C   UNL A   1      37.123  29.347  29.687  1.00  0.00     0.022 A 
BRANCH  84  87
ATOM     87  S   UNL A   1      37.308  29.716  32.395  1.00  0.00     0.127 S 
ATOM     88  O   UNL A   1      35.941  30.138  32.086  1.00  0.00    -0.237 OA
ATOM     89  O   UNL A   1      37.414  28.382  32.979  1.00  0.00    -0.237 OA
ATOM     90  O   UNL A   1      38.126  30.752  33.013  1.00  0.00    -0.744 OA
ENDBRANCH  84  87
ENDBRANCH  56  80
BRANCH  68  91
ATOM     91  C   UNL A   1      44.856  26.191  31.821  1.00  0.00     0.023 A 
ATOM     92  C   UNL A   1      44.503  24.992  31.175  1.00  0.00     0.012 A 
ATOM     93  C   UNL A   1      45.035  26.191  33.215  1.00  0.00     0.148 A 
ATOM     94  C   UNL A   1      44.344  23.811  31.908  1.00  0.00     0.002 A 
ATOM     95  C   UNL A   1      44.914  25.010  33.936  1.00  0.00     0.091 A 
ATOM     96  F   UNL A   1      45.362  27.351  33.807  1.00  0.00    -0.205 F 
ATOM     97  C   UNL A   1      44.564  23.817  33.286  1.00  0.00     0.022 A 
BRANCH  95  98
ATOM     98  S   UNL A   1      45.290  24.924  35.689  1.00  0.00     0.127 S 
ATOM     99  O   UNL A   1      45.253  23.485  35.942  1.00  0.00    -0.237 OA
ATOM    100  O   UNL A   1      46.626  25.520  35.745  1.00  0.00    -0.237 OA
ATOM    101  O   UNL A   1      44.257  25.696  36.368  1.00  0.00    -0.744 OA
ENDBRANCH  95  98
ENDBRANCH  68  91
ENDBRANCH  42  43
ENDBRANCH  35  37
ENDBRANCH  34  35
ENDBRANCH  33  34
ENDBRANCH  32  33
ENDBRANCH  31  32
ENDBRANCH  30  31
ENDBRANCH   1  30
TORSDOF 24
ENDMDL
MODEL 2
REMARK VINA RESULT:     -11.2      3.252      9.432
REMARK SMILES Cc1c(CC(=O)OCCOCCOCCOC(=O)c2ccc(-c3c4nc(c(-c5cccc(S(=O)(=O)[O-])c5F)c5ccc([nH]5)c(-c5cccc(S(=O)(=O)[O-])c5F)c5nc(c(-c6cccc(S(=O)(=O)[O-])c6F)c6ccc3[nH]6)C=C5)C=C4)cc2)c2cc(O)ccc2n1C(=O)c1ccc(Cl)cc1
REMARK SMILES IDX 11 1 10 2 9 3 8 4 7 5 5 6 6 7 4 8 3 9 1 10 2 11 89 12 82 13
REMARK SMILES IDX 88 14 83 15 87 16 84 17 86 18 90 19 91 20 92 21 93 22 98 23
REMARK SMILES IDX 94 24 97 25 95 26 96 27 85 28 12 30 13 31 14 32 15 33 16 34
REMARK SMILES IDX 17 35 18 36 19 37 20 38 81 39 21 40 80 41 22 42 23 43 24 44
REMARK SMILES IDX 74 45 25 46 79 47 73 48 75 49 26 50 78 51 72 52 71 53 27 55
REMARK SMILES IDX 59 56 39 57 58 58 40 59 43 60 57 61 76 62 41 63 42 64 56 66
REMARK SMILES IDX 77 67 44 68 28 69 29 70 37 71 30 72 32 73 38 74 31 75 33 76
REMARK SMILES IDX 34 77 35 78 36 79 60 80 61 81 69 82 62 83 64 84 70 85 63 86
REMARK SMILES IDX 65 87 66 88 67 89 68 90 45 91 46 92 54 93 47 94 49 95 55 96
REMARK SMILES IDX 48 97 50 98 51 99 52 100 53 101
REMARK H PARENT 85 29 75 54 43 65
REMARK Flexibility Score: inf
ROOT
ATOM      1  C   UNL A   1      34.657  29.554  27.504  1.00  0.00     0.188 C 
ENDROOT
BRANCH   1   2
ATOM      2  O   UNL A   1      34.684  28.959  26.225  1.00  0.00    -0.376 OA
BRANCH   2   3
ATOM      3  C   UNL A   1      33.454  28.663  25.589  1.00  0.00     0.202 C 
BRANCH   3   4
ATOM      4  C   UNL A   1      33.304  27.274  24.962  1.00  0.00     0.261 C 
BRANCH   4   5
ATOM      5  O   UNL A   1      31.931  26.791  24.926  1.00  0.00    -0.463 OA
BRANCH   5   6
ATOM      6  C   UNL A   1      31.582  26.069  26.017  1.00  0.00     0.310 C 
ATOM      7  O   UNL A   1      30.452  26.182  26.490  1.00  0.00    -0.252 OA
BRANCH   6   8
ATOM      8  C   UNL A   1      32.520  24.975  26.520  1.00  0.00     0.160 C 
BRANCH   8   9
ATOM      9  C   UNL A   1      33.009  23.772  25.739  1.00  0.00    -0.008 A 
ATOM     10  C   UNL A   1      30.733  23.247  24.628  1.00  0.00     0.065 C 
ATOM     11  C   UNL A   1      32.197  23.045  24.871  1.00  0.00     0.028 A 
ATOM     12  N   UNL A   1      32.993  22.164  24.140  1.00  0.00    -0.280 N 
ATOM     13  C   UNL A   1      34.375  23.428  25.385  1.00  0.00     0.008 A 
ATOM     14  C   UNL A   1      34.318  22.608  24.259  1.00  0.00     0.057 A 
ATOM     15  C   UNL A   1      35.677  23.817  25.798  1.00  0.00     0.056 A 
ATOM     16  C   UNL A   1      35.486  22.348  23.495  1.00  0.00     0.031 A 
ATOM     17  C   UNL A   1      36.834  23.501  25.081  1.00  0.00     0.116 A 
ATOM     18  C   UNL A   1      36.736  22.792  23.915  1.00  0.00     0.048 A 
BRANCH  12  19
ATOM     19  C   UNL A   1      32.585  20.995  23.437  1.00  0.00     0.262 C 
ATOM     20  O   UNL A   1      31.875  21.078  22.447  1.00  0.00    -0.268 OA
BRANCH  19  21
ATOM     21  C   UNL A   1      32.874  19.643  23.956  1.00  0.00     0.040 A 
ATOM     22  C   UNL A   1      32.948  18.591  23.035  1.00  0.00     0.015 A 
ATOM     23  C   UNL A   1      32.802  19.407  25.332  1.00  0.00     0.015 A 
ATOM     24  C   UNL A   1      32.856  17.278  23.493  1.00  0.00     0.021 A 
ATOM     25  C   UNL A   1      32.694  18.087  25.780  1.00  0.00     0.021 A 
ATOM     26  C   UNL A   1      32.698  17.035  24.860  1.00  0.00     0.041 A 
ATOM     27  Cl  UNL A   1      32.426  15.424  25.404  1.00  0.00    -0.084 Cl
ENDBRANCH  19  21
ENDBRANCH  12  19
BRANCH  17  28
ATOM     28  O   UNL A   1      38.085  23.903  25.450  1.00  0.00    -0.508 OA
ATOM     29  H   UNL A   1      38.839  23.491  25.076  1.00  0.00     0.293 HD
ENDBRANCH  17  28
ENDBRANCH   8   9
ENDBRANCH   6   8
ENDBRANCH   5   6
ENDBRANCH   4   5
ENDBRANCH   3   4
ENDBRANCH   2   3
ENDBRANCH   1   2
BRANCH   1  30
ATOM     30  C   UNL A   1      34.731  31.077  27.639  1.00  0.00     0.188 C 
BRANCH  30  31
ATOM     31  O   UNL A   1      33.554  31.847  27.719  1.00  0.00    -0.376 OA
BRANCH  31  32
ATOM     32  C   UNL A   1      33.729  33.218  28.028  1.00  0.00     0.202 C 
BRANCH  32  33
ATOM     33  C   UNL A   1      35.177  33.680  28.309  1.00  0.00     0.261 C 
BRANCH  33  34
ATOM     34  O   UNL A   1      35.381  34.089  29.696  1.00  0.00    -0.460 OA
BRANCH  34  35
ATOM     35  C   UNL A   1      35.408  33.076  30.613  1.00  0.00     0.338 C 
ATOM     36  O   UNL A   1      34.417  32.651  31.197  1.00  0.00    -0.246 OA
BRANCH  35  37
ATOM     37  C   UNL A   1      36.650  32.237  30.481  1.00  0.00     0.060 A 
ATOM     38  C   UNL A   1      37.878  32.601  29.929  1.00  0.00     0.016 A 
ATOM     39  C   UNL A   1      36.472  30.899  30.843  1.00  0.00     0.016 A 
ATOM     40  C   UNL A   1      38.852  31.600  29.661  1.00  0.00     0.010 A 
ATOM     41  C   UNL A   1      37.372  29.904  30.485  1.00  0.00     0.010 A 
ATOM     42  C   UNL A   1      38.575  30.231  29.872  1.00  0.00    -0.014 A 
BRANCH  42  43
ATOM     43  C   UNL A   1      39.595  29.161  29.920  1.00  0.00     0.031 A 
ATOM     44  C   UNL A   1      39.889  28.805  31.310  1.00  0.00     0.074 A 
ATOM     45  C   UNL A   1      40.137  28.370  28.964  1.00  0.00     0.049 A 
ATOM     46  N   UNL A   1      40.732  29.450  32.042  1.00  0.00    -0.248 NA
ATOM     47  C   UNL A   1      39.084  27.808  32.023  1.00  0.00     0.031 C 
ATOM     48  C   UNL A   1      39.918  28.466  27.541  1.00  0.00     0.029 A 
ATOM     49  N   UNL A   1      40.980  27.288  29.039  1.00  0.00    -0.354 N 
ATOM     50  C   UNL A   1      40.827  28.679  33.177  1.00  0.00     0.074 A 
ATOM     51  C   UNL A   1      39.608  27.909  33.249  1.00  0.00     0.031 C 
ATOM     52  C   UNL A   1      40.397  27.393  26.876  1.00  0.00     0.029 A 
ATOM     53  C   UNL A   1      41.164  26.612  27.826  1.00  0.00     0.049 A 
ATOM     54  H   UNL A   1      41.419  27.011  29.876  1.00  0.00     0.167 HD
ATOM     55  C   UNL A   1      42.050  28.417  33.705  1.00  0.00     0.034 A 
ATOM     56  C   UNL A   1      42.081  25.663  27.514  1.00  0.00     0.034 A 
ATOM     57  C   UNL A   1      43.104  29.121  33.014  1.00  0.00     0.049 A 
ATOM     58  C   UNL A   1      43.282  26.042  28.287  1.00  0.00     0.074 A 
ATOM     59  C   UNL A   1      43.507  30.431  32.867  1.00  0.00     0.029 A 
ATOM     60  N   UNL A   1      43.660  28.405  31.981  1.00  0.00    -0.354 N 
ATOM     61  N   UNL A   1      43.971  27.129  28.064  1.00  0.00    -0.248 NA
ATOM     62  C   UNL A   1      43.592  25.338  29.524  1.00  0.00     0.031 C 
ATOM     63  C   UNL A   1      44.215  30.502  31.630  1.00  0.00     0.029 A 
ATOM     64  C   UNL A   1      44.239  29.234  31.054  1.00  0.00     0.049 A 
ATOM     65  H   UNL A   1      43.645  27.423  31.914  1.00  0.00     0.167 HD
ATOM     66  C   UNL A   1      44.429  27.480  29.318  1.00  0.00     0.074 A 
ATOM     67  C   UNL A   1      44.339  26.269  30.120  1.00  0.00     0.031 C 
ATOM     68  C   UNL A   1      44.507  28.784  29.702  1.00  0.00     0.034 A 
BRANCH  55  69
ATOM     69  C   UNL A   1      42.356  27.203  34.521  1.00  0.00     0.023 A 
ATOM     70  C   UNL A   1      41.930  27.195  35.860  1.00  0.00     0.012 A 
ATOM     71  C   UNL A   1      43.207  26.163  34.094  1.00  0.00     0.148 A 
ATOM     72  C   UNL A   1      42.300  26.164  36.726  1.00  0.00     0.002 A 
ATOM     73  C   UNL A   1      43.482  25.088  34.922  1.00  0.00     0.091 A 
ATOM     74  F   UNL A   1      43.866  26.278  32.933  1.00  0.00    -0.205 F 
ATOM     75  C   UNL A   1      43.047  25.090  36.248  1.00  0.00     0.022 A 
BRANCH  73  76
ATOM     76  S   UNL A   1      44.359  23.651  34.305  1.00  0.00     0.127 S 
ATOM     77  O   UNL A   1      45.739  23.978  34.641  1.00  0.00    -0.237 OA
ATOM     78  O   UNL A   1      43.762  22.571  35.091  1.00  0.00    -0.237 OA
ATOM     79  O   UNL A   1      44.033  23.598  32.881  1.00  0.00    -0.744 OA
ENDBRANCH  73  76
ENDBRANCH  55  69
BRANCH  56  80
ATOM     80  C   UNL A   1      42.103  24.534  26.546  1.00  0.00     0.023 A 
ATOM     81  C   UNL A   1      43.177  24.425  25.633  1.00  0.00     0.012 A 
ATOM     82  C   UNL A   1      41.281  23.401  26.729  1.00  0.00     0.148 A 
ATOM     83  C   UNL A   1      43.487  23.211  25.006  1.00  0.00     0.002 A 
ATOM     84  C   UNL A   1      41.596  22.190  26.103  1.00  0.00     0.091 A 
ATOM     85  F   UNL A   1      40.253  23.483  27.586  1.00  0.00    -0.205 F 
ATOM     86  C   UNL A   1      42.710  22.088  25.259  1.00  0.00     0.022 A 
BRANCH  84  87
ATOM     87  S   UNL A   1      40.651  20.687  26.399  1.00  0.00     0.127 S 
ATOM     88  O   UNL A   1      41.379  19.694  25.608  1.00  0.00    -0.237 OA
ATOM     89  O   UNL A   1      40.780  20.527  27.845  1.00  0.00    -0.237 OA
ATOM     90  O   UNL A   1      39.309  20.975  25.906  1.00  0.00    -0.744 OA
ENDBRANCH  84  87
ENDBRANCH  56  80
BRANCH  68  91
ATOM     91  C   UNL A   1      44.689  29.827  28.640  1.00  0.00     0.023 A 
ATOM     92  C   UNL A   1      43.618  30.562  28.099  1.00  0.00     0.012 A 
ATOM     93  C   UNL A   1      46.005  30.170  28.285  1.00  0.00     0.148 A 
ATOM     94  C   UNL A   1      43.859  31.629  27.227  1.00  0.00     0.002 A 
ATOM     95  C   UNL A   1      46.243  31.253  27.449  1.00  0.00     0.091 A 
ATOM     96  F   UNL A   1      47.006  29.446  28.809  1.00  0.00    -0.205 F 
ATOM     97  C   UNL A   1      45.172  31.984  26.914  1.00  0.00     0.022 A 
BRANCH  95  98
ATOM     98  S   UNL A   1      47.906  31.831  27.095  1.00  0.00     0.127 S 
ATOM     99  O   UNL A   1      48.388  32.216  28.420  1.00  0.00    -0.237 OA
ATOM    100  O   UNL A   1      48.535  30.633  26.538  1.00  0.00    -0.237 OA
ATOM    101  O   UNL A   1      47.763  32.931  26.148  1.00  0.00    -0.744 OA
ENDBRANCH  95  98
ENDBRANCH  68  91
ENDBRANCH  42  43
ENDBRANCH  35  37
ENDBRANCH  34  35
ENDBRANCH  33  34
ENDBRANCH  32  33
ENDBRANCH  31  32
ENDBRANCH  30  31
ENDBRANCH   1  30
TORSDOF 24
ENDMDL
MODEL 3
REMARK VINA RESULT:     -11.0      1.445      2.054
REMARK SMILES Cc1c(CC(=O)OCCOCCOCCOC(=O)c2ccc(-c3c4nc(c(-c5cccc(S(=O)(=O)[O-])c5F)c5ccc([nH]5)c(-c5cccc(S(=O)(=O)[O-])c5F)c5nc(c(-c6cccc(S(=O)(=O)[O-])c6F)c6ccc3[nH]6)C=C5)C=C4)cc2)c2cc(O)ccc2n1C(=O)c1ccc(Cl)cc1
REMARK SMILES IDX 11 1 10 2 9 3 8 4 7 5 5 6 6 7 4 8 3 9 1 10 2 11 89 12 82 13
REMARK SMILES IDX 88 14 83 15 87 16 84 17 86 18 90 19 91 20 92 21 93 22 98 23
REMARK SMILES IDX 94 24 97 25 95 26 96 27 85 28 12 30 13 31 14 32 15 33 16 34
REMARK SMILES IDX 17 35 18 36 19 37 20 38 81 39 21 40 80 41 22 42 23 43 24 44
REMARK SMILES IDX 74 45 25 46 79 47 73 48 75 49 26 50 78 51 72 52 71 53 27 55
REMARK SMILES IDX 59 56 39 57 58 58 40 59 43 60 57 61 76 62 41 63 42 64 56 66
REMARK SMILES IDX 77 67 44 68 28 69 29 70 37 71 30 72 32 73 38 74 31 75 33 76
REMARK SMILES IDX 34 77 35 78 36 79 60 80 61 81 69 82 62 83 64 84 70 85 63 86
REMARK SMILES IDX 65 87 66 88 67 89 68 90 45 91 46 92 54 93 47 94 49 95 55 96
REMARK SMILES IDX 48 97 50 98 51 99 52 100 53 101
REMARK H PARENT 85 29 75 54 43 65
REMARK Flexibility Score: inf
ROOT
ATOM      1  C   UNL A   1      40.947  20.723  27.230  1.00  0.00     0.188 C 
ENDROOT
BRANCH   1   2
ATOM      2  O   UNL A   1      41.565  21.919  26.807  1.00  0.00    -0.376 OA
BRANCH   2   3
ATOM      3  C   UNL A   1      40.754  23.058  26.582  1.00  0.00     0.202 C 
BRANCH   3   4
ATOM      4  C   UNL A   1      39.245  22.831  26.451  1.00  0.00     0.261 C 
BRANCH   4   5
ATOM      5  O   UNL A   1      38.519  23.989  25.948  1.00  0.00    -0.463 OA
BRANCH   5   6
ATOM      6  C   UNL A   1      37.290  23.691  25.465  1.00  0.00     0.310 C 
ATOM      7  O   UNL A   1      37.171  23.254  24.322  1.00  0.00    -0.252 OA
BRANCH   6   8
ATOM      8  C   UNL A   1      36.092  23.704  26.411  1.00  0.00     0.160 C 
BRANCH   8   9
ATOM      9  C   UNL A   1      34.675  23.282  26.083  1.00  0.00    -0.008 A 
ATOM     10  C   UNL A   1      33.753  25.683  25.804  1.00  0.00     0.065 C 
ATOM     11  C   UNL A   1      33.661  24.188  25.776  1.00  0.00     0.028 A 
ATOM     12  N   UNL A   1      32.557  23.485  25.297  1.00  0.00    -0.280 N 
ATOM     13  C   UNL A   1      34.211  21.992  25.601  1.00  0.00     0.008 A 
ATOM     14  C   UNL A   1      33.005  22.207  24.934  1.00  0.00     0.057 A 
ATOM     15  C   UNL A   1      34.730  20.673  25.527  1.00  0.00     0.056 A 
ATOM     16  C   UNL A   1      32.455  21.202  24.098  1.00  0.00     0.031 A 
ATOM     17  C   UNL A   1      34.146  19.663  24.756  1.00  0.00     0.116 A 
ATOM     18  C   UNL A   1      33.026  19.935  24.019  1.00  0.00     0.048 A 
BRANCH  12  19
ATOM     19  C   UNL A   1      31.204  23.925  25.224  1.00  0.00     0.262 C 
ATOM     20  O   UNL A   1      30.315  23.302  25.781  1.00  0.00    -0.268 OA
BRANCH  19  21
ATOM     21  C   UNL A   1      30.806  25.053  24.359  1.00  0.00     0.040 A 
ATOM     22  C   UNL A   1      31.349  25.112  23.069  1.00  0.00     0.015 A 
ATOM     23  C   UNL A   1      30.133  26.143  24.919  1.00  0.00     0.015 A 
ATOM     24  C   UNL A   1      31.298  26.313  22.363  1.00  0.00     0.021 A 
ATOM     25  C   UNL A   1      30.101  27.347  24.210  1.00  0.00     0.021 A 
ATOM     26  C   UNL A   1      30.701  27.432  22.950  1.00  0.00     0.041 A 
ATOM     27  Cl  UNL A   1      30.780  28.950  22.143  1.00  0.00    -0.084 Cl
ENDBRANCH  19  21
ENDBRANCH  12  19
BRANCH  17  28
ATOM     28  O   UNL A   1      34.659  18.402  24.649  1.00  0.00    -0.508 OA
ATOM     29  H   UNL A   1      35.406  18.245  24.106  1.00  0.00     0.293 HD
ENDBRANCH  17  28
ENDBRANCH   8   9
ENDBRANCH   6   8
ENDBRANCH   5   6
ENDBRANCH   4   5
ENDBRANCH   3   4
ENDBRANCH   2   3
ENDBRANCH   1   2
BRANCH   1  30
ATOM     30  C   UNL A   1      40.965  19.492  26.321  1.00  0.00     0.188 C 
BRANCH  30  31
ATOM     31  O   UNL A   1      41.959  19.346  25.333  1.00  0.00    -0.376 OA
BRANCH  31  32
ATOM     32  C   UNL A   1      43.119  18.631  25.720  1.00  0.00     0.202 C 
BRANCH  32  33
ATOM     33  C   UNL A   1      44.325  18.703  24.757  1.00  0.00     0.261 C 
BRANCH  33  34
ATOM     34  O   UNL A   1      44.527  20.040  24.204  1.00  0.00    -0.460 OA
BRANCH  34  35
ATOM     35  C   UNL A   1      45.544  20.763  24.763  1.00  0.00     0.338 C 
ATOM     36  O   UNL A   1      46.733  20.512  24.607  1.00  0.00    -0.246 OA
BRANCH  35  37
ATOM     37  C   UNL A   1      45.088  22.137  25.175  1.00  0.00     0.060 A 
ATOM     38  C   UNL A   1      44.274  23.021  24.466  1.00  0.00     0.016 A 
ATOM     39  C   UNL A   1      45.679  22.601  26.353  1.00  0.00     0.016 A 
ATOM     40  C   UNL A   1      44.158  24.371  24.900  1.00  0.00     0.010 A 
ATOM     41  C   UNL A   1      45.658  23.940  26.719  1.00  0.00     0.010 A 
ATOM     42  C   UNL A   1      44.910  24.858  25.992  1.00  0.00    -0.014 A 
BRANCH  42  43
ATOM     43  C   UNL A   1      44.641  26.127  26.703  1.00  0.00     0.031 A 
ATOM     44  C   UNL A   1      45.673  27.114  26.385  1.00  0.00     0.074 A 
ATOM     45  C   UNL A   1      43.572  26.571  27.406  1.00  0.00     0.049 A 
ATOM     46  N   UNL A   1      46.807  27.174  26.998  1.00  0.00    -0.248 NA
ATOM     47  C   UNL A   1      45.561  27.973  25.202  1.00  0.00     0.031 C 
ATOM     48  C   UNL A   1      42.396  25.813  27.757  1.00  0.00     0.029 A 
ATOM     49  N   UNL A   1      43.276  27.800  27.944  1.00  0.00    -0.354 N 
ATOM     50  C   UNL A   1      47.370  28.333  26.516  1.00  0.00     0.074 A 
ATOM     51  C   UNL A   1      46.748  28.589  25.239  1.00  0.00     0.031 C 
ATOM     52  C   UNL A   1      41.408  26.595  28.242  1.00  0.00     0.029 A 
ATOM     53  C   UNL A   1      41.971  27.916  28.439  1.00  0.00     0.049 A 
ATOM     54  H   UNL A   1      43.928  28.538  27.979  1.00  0.00     0.167 HD
ATOM     55  C   UNL A   1      47.958  29.198  27.383  1.00  0.00     0.034 A 
ATOM     56  C   UNL A   1      41.441  28.895  29.214  1.00  0.00     0.034 A 
ATOM     57  C   UNL A   1      47.996  28.679  28.729  1.00  0.00     0.049 A 
ATOM     58  C   UNL A   1      42.556  29.320  30.087  1.00  0.00     0.074 A 
ATOM     59  C   UNL A   1      48.642  27.658  29.393  1.00  0.00     0.029 A 
ATOM     60  N   UNL A   1      46.907  29.033  29.488  1.00  0.00    -0.354 N 
ATOM     61  N   UNL A   1      43.092  28.551  30.997  1.00  0.00    -0.248 NA
ATOM     62  C   UNL A   1      43.287  30.539  29.776  1.00  0.00     0.031 C 
ATOM     63  C   UNL A   1      47.824  27.319  30.511  1.00  0.00     0.029 A 
ATOM     64  C   UNL A   1      46.704  28.146  30.514  1.00  0.00     0.049 A 
ATOM     65  H   UNL A   1      46.344  29.822  29.318  1.00  0.00     0.167 HD
ATOM     66  C   UNL A   1      44.414  28.946  31.010  1.00  0.00     0.074 A 
ATOM     67  C   UNL A   1      44.433  30.269  30.405  1.00  0.00     0.031 C 
ATOM     68  C   UNL A   1      45.419  28.043  31.179  1.00  0.00     0.034 A 
BRANCH  55  69
ATOM     69  C   UNL A   1      48.080  30.666  27.131  1.00  0.00     0.023 A 
ATOM     70  C   UNL A   1      49.366  31.230  27.181  1.00  0.00     0.012 A 
ATOM     71  C   UNL A   1      46.979  31.542  27.044  1.00  0.00     0.148 A 
ATOM     72  C   UNL A   1      49.548  32.612  27.099  1.00  0.00     0.002 A 
ATOM     73  C   UNL A   1      47.167  32.901  26.853  1.00  0.00     0.091 A 
ATOM     74  F   UNL A   1      45.743  31.083  27.283  1.00  0.00    -0.205 F 
ATOM     75  C   UNL A   1      48.451  33.447  26.899  1.00  0.00     0.022 A 
BRANCH  73  76
ATOM     76  S   UNL A   1      45.783  33.983  26.498  1.00  0.00     0.127 S 
ATOM     77  O   UNL A   1      46.398  35.299  26.615  1.00  0.00    -0.237 OA
ATOM     78  O   UNL A   1      45.421  33.578  25.140  1.00  0.00    -0.237 OA
ATOM     79  O   UNL A   1      44.778  33.645  27.505  1.00  0.00    -0.744 OA
ENDBRANCH  73  76
ENDBRANCH  55  69
BRANCH  56  80
ATOM     80  C   UNL A   1      40.067  29.439  29.386  1.00  0.00     0.023 A 
ATOM     81  C   UNL A   1      39.206  29.513  28.267  1.00  0.00     0.012 A 
ATOM     82  C   UNL A   1      39.489  29.566  30.667  1.00  0.00     0.148 A 
ATOM     83  C   UNL A   1      37.817  29.604  28.415  1.00  0.00     0.002 A 
ATOM     84  C   UNL A   1      38.100  29.654  30.810  1.00  0.00     0.091 A 
ATOM     85  F   UNL A   1      40.287  29.505  31.743  1.00  0.00    -0.205 F 
ATOM     86  C   UNL A   1      37.262  29.650  29.688  1.00  0.00     0.022 A 
BRANCH  84  87
ATOM     87  S   UNL A   1      37.308  29.695  32.426  1.00  0.00     0.127 S 
ATOM     88  O   UNL A   1      38.076  30.723  33.129  1.00  0.00    -0.237 OA
ATOM     89  O   UNL A   1      35.942  30.084  32.085  1.00  0.00    -0.237 OA
ATOM     90  O   UNL A   1      37.473  28.352  32.969  1.00  0.00    -0.744 OA
ENDBRANCH  84  87
ENDBRANCH  56  80
BRANCH  68  91
ATOM     91  C   UNL A   1      45.121  26.782  31.934  1.00  0.00     0.023 A 
ATOM     92  C   UNL A   1      44.797  25.569  31.299  1.00  0.00     0.012 A 
ATOM     93  C   UNL A   1      45.316  26.797  33.326  1.00  0.00     0.148 A 
ATOM     94  C   UNL A   1      44.682  24.388  32.041  1.00  0.00     0.002 A 
ATOM     95  C   UNL A   1      45.238  25.618  34.055  1.00  0.00     0.091 A 
ATOM     96  F   UNL A   1      45.615  27.970  33.906  1.00  0.00    -0.205 F 
ATOM     97  C   UNL A   1      44.917  24.410  33.417  1.00  0.00     0.022 A 
BRANCH  95  98
ATOM     98  S   UNL A   1      45.637  25.554  35.804  1.00  0.00     0.127 S 
ATOM     99  O   UNL A   1      45.163  24.223  36.181  1.00  0.00    -0.237 OA
ATOM    100  O   UNL A   1      47.093  25.704  35.792  1.00  0.00    -0.237 OA
ATOM    101  O   UNL A   1      44.923  26.661  36.427  1.00  0.00    -0.744 OA
ENDBRANCH  95  98
ENDBRANCH  68  91
ENDBRANCH  42  43
ENDBRANCH  35  37
ENDBRANCH  34  35
ENDBRANCH  33  34
ENDBRANCH  32  33
ENDBRANCH  31  32
ENDBRANCH  30  31
ENDBRANCH   1  30
TORSDOF 24
ENDMDL
