MODEL 1
REMARK VINA RESULT:      -8.8      0.000      0.000
REMARK SMILES CC(C)c1cc(C2CC[NH+](Cc3c[nH]nc3C(=O)OCCOCCOCCOC(=O)c3ccc(-c4c5nc(c(-c6cccc(S(=O)(=O)[O-])c6F)c6ccc([nH]6)c(-c6cccc(S(=O)(=O)[O-])c6F)c6nc(c(-c7cccc(S(=O)(=O)[O-])c7F)c7ccc4[nH]7)C=C6)C=C5)cc3)CC2)n[nH]1
REMARK SMILES IDX 23 1 22 2 21 3 20 4 19 5 17 6 18 7 16 8 12 9 13 10 14 11
REMARK SMILES IDX 15 12 11 14 10 15 7 16 8 17 95 18 9 19 94 20 6 22 4 23 5 24
REMARK SMILES IDX 97 25 96 26 2 28 1 29 3 30 24 31 25 32 26 33 27 34 28 35
REMARK SMILES IDX 29 36 30 37 31 38 32 39 93 40 33 41 92 42 34 43 35 44 36 45
REMARK SMILES IDX 86 46 37 47 91 48 85 49 87 50 38 51 90 52 84 53 83 54 39 56
REMARK SMILES IDX 71 57 51 58 70 59 52 60 55 61 69 62 88 63 53 64 54 65 68 67
REMARK SMILES IDX 89 68 56 69 40 70 41 71 49 72 42 73 44 74 50 75 43 76 45 77
REMARK SMILES IDX 46 78 47 79 48 80 72 81 73 82 81 83 74 84 76 85 82 86 75 87
REMARK SMILES IDX 77 88 78 89 79 90 80 91 57 92 58 93 66 94 59 95 61 96 67 97
REMARK SMILES IDX 60 98 62 99 63 100 64 101 65 102
REMARK H PARENT 14 13 10 21 97 27 87 55 55 66
REMARK Flexibility Score: inf
ROOT
ATOM      1  C   UNL A   1      36.343  32.444  28.324  1.00  0.00     0.188 C 
ENDROOT
BRANCH   1   2
ATOM      2  O   UNL A   1      36.216  31.115  28.820  1.00  0.00    -0.376 OA
BRANCH   2   3
ATOM      3  C   UNL A   1      35.392  30.186  28.127  1.00  0.00     0.202 C 
BRANCH   3   4
ATOM      4  C   UNL A   1      34.357  30.752  27.151  1.00  0.00     0.261 C 
BRANCH   4   5
ATOM      5  O   UNL A   1      33.074  30.938  27.772  1.00  0.00    -0.458 OA
BRANCH   5   6
ATOM      6  C   UNL A   1      32.010  30.730  26.942  1.00  0.00     0.359 C 
ATOM      7  O   UNL A   1      31.386  31.634  26.394  1.00  0.00    -0.244 OA
BRANCH   6   8
ATOM      8  C   UNL A   1      31.739  29.304  26.694  1.00  0.00     0.178 A 
ATOM      9  C   UNL A   1      31.693  28.560  25.455  1.00  0.00     0.059 A 
ATOM     10  C   UNL A   1      31.589  27.248  25.889  1.00  0.00     0.115 A 
ATOM     11  N   UNL A   1      31.423  27.274  27.239  1.00  0.00    -0.284 N 
ATOM     12  N   UNL A   1      31.513  28.498  27.752  1.00  0.00    -0.168 NA
ATOM     13  H   UNL A   1      31.254  26.470  27.780  1.00  0.00     0.189 HD
BRANCH   9  14
ATOM     14  C   UNL A   1      31.905  29.089  24.057  1.00  0.00     0.303 C 
BRANCH  14  15
ATOM     15  N   UNL A   1      32.149  28.088  22.995  1.00  0.00    -0.331 N 
ATOM     16  C   UNL A   1      32.585  25.382  21.868  1.00  0.00     0.051 C 
ATOM     17  C   UNL A   1      33.702  26.430  21.925  1.00  0.00     0.071 C 
ATOM     18  C   UNL A   1      31.251  26.116  21.698  1.00  0.00     0.071 C 
ATOM     19  C   UNL A   1      33.466  27.459  23.029  1.00  0.00     0.263 C 
ATOM     20  C   UNL A   1      31.012  27.201  22.754  1.00  0.00     0.263 C 
ATOM     21  H   UNL A   1      32.207  28.627  22.130  1.00  0.00     0.348 HD
BRANCH  16  22
ATOM     22  C   UNL A   1      32.622  24.403  23.022  1.00  0.00     0.066 A 
ATOM     23  C   UNL A   1      33.226  23.048  24.691  1.00  0.00     0.038 A 
ATOM     24  C   UNL A   1      33.718  23.977  23.806  1.00  0.00     0.049 A 
ATOM     25  N   UNL A   1      31.885  22.992  24.432  1.00  0.00    -0.282 N 
ATOM     26  N   UNL A   1      31.499  23.778  23.408  1.00  0.00    -0.180 NA
ATOM     27  H   UNL A   1      31.260  22.431  24.947  1.00  0.00     0.190 HD
BRANCH  23  28
ATOM     28  C   UNL A   1      33.942  22.226  25.718  1.00  0.00     0.031 C 
ATOM     29  C   UNL A   1      34.012  22.918  27.076  1.00  0.00     0.014 C 
ATOM     30  C   UNL A   1      33.319  20.836  25.832  1.00  0.00     0.014 C 
ENDBRANCH  23  28
ENDBRANCH  16  22
ENDBRANCH  14  15
ENDBRANCH   9  14
ENDBRANCH   6   8
ENDBRANCH   5   6
ENDBRANCH   4   5
ENDBRANCH   3   4
ENDBRANCH   2   3
ENDBRANCH   1   2
BRANCH   1  31
ATOM     31  C   UNL A   1      35.684  33.595  29.104  1.00  0.00     0.188 C 
BRANCH  31  32
ATOM     32  O   UNL A   1      34.943  34.518  28.317  1.00  0.00    -0.376 OA
BRANCH  32  33
ATOM     33  C   UNL A   1      33.536  34.513  28.522  1.00  0.00     0.202 C 
BRANCH  33  34
ATOM     34  C   UNL A   1      33.062  35.507  29.589  1.00  0.00     0.261 C 
BRANCH  34  35
ATOM     35  O   UNL A   1      32.564  34.893  30.788  1.00  0.00    -0.460 OA
BRANCH  35  36
ATOM     36  C   UNL A   1      32.989  35.415  31.960  1.00  0.00     0.338 C 
ATOM     37  O   UNL A   1      32.375  36.157  32.706  1.00  0.00    -0.246 OA
BRANCH  36  38
ATOM     38  C   UNL A   1      34.278  34.782  32.285  1.00  0.00     0.060 A 
ATOM     39  C   UNL A   1      34.300  33.426  32.633  1.00  0.00     0.016 A 
ATOM     40  C   UNL A   1      35.458  35.527  32.237  1.00  0.00     0.016 A 
ATOM     41  C   UNL A   1      35.511  32.817  32.963  1.00  0.00     0.010 A 
ATOM     42  C   UNL A   1      36.664  34.921  32.582  1.00  0.00     0.010 A 
ATOM     43  C   UNL A   1      36.693  33.571  32.972  1.00  0.00    -0.014 A 
BRANCH  43  44
ATOM     44  C   UNL A   1      37.940  33.003  33.533  1.00  0.00     0.031 A 
ATOM     45  C   UNL A   1      38.285  33.301  34.966  1.00  0.00     0.074 A 
ATOM     46  C   UNL A   1      38.774  32.276  32.770  1.00  0.00     0.049 A 
ATOM     47  N   UNL A   1      39.338  32.944  35.654  1.00  0.00    -0.248 NA
ATOM     48  C   UNL A   1      37.316  34.114  35.721  1.00  0.00     0.031 C 
ATOM     49  C   UNL A   1      38.558  31.938  31.364  1.00  0.00     0.029 A 
ATOM     50  N   UNL A   1      39.991  31.718  33.069  1.00  0.00    -0.354 N 
ATOM     51  C   UNL A   1      39.172  33.505  36.914  1.00  0.00     0.074 A 
ATOM     52  C   UNL A   1      37.923  34.235  36.893  1.00  0.00     0.031 C 
ATOM     53  C   UNL A   1      39.627  31.259  30.912  1.00  0.00     0.029 A 
ATOM     54  C   UNL A   1      40.605  31.127  31.991  1.00  0.00     0.049 A 
ATOM     55  H   UNL A   1      40.387  31.739  33.970  1.00  0.00     0.167 HD
ATOM     56  C   UNL A   1      39.976  33.407  37.997  1.00  0.00     0.034 A 
ATOM     57  C   UNL A   1      41.824  30.561  31.885  1.00  0.00     0.034 A 
ATOM     58  C   UNL A   1      41.212  32.674  38.022  1.00  0.00     0.049 A 
ATOM     59  C   UNL A   1      42.710  30.480  33.103  1.00  0.00     0.074 A 
ATOM     60  C   UNL A   1      42.069  32.471  39.088  1.00  0.00     0.029 A 
ATOM     61  N   UNL A   1      41.775  32.038  36.928  1.00  0.00    -0.354 N 
ATOM     62  N   UNL A   1      42.470  30.882  34.328  1.00  0.00    -0.248 NA
ATOM     63  C   UNL A   1      44.021  29.836  32.931  1.00  0.00     0.031 C 
ATOM     64  C   UNL A   1      43.161  31.723  38.633  1.00  0.00     0.029 A 
ATOM     65  C   UNL A   1      42.974  31.449  37.288  1.00  0.00     0.049 A 
ATOM     66  H   UNL A   1      41.379  32.009  36.026  1.00  0.00     0.167 HD
ATOM     67  C   UNL A   1      43.582  30.510  35.077  1.00  0.00     0.074 A 
ATOM     68  C   UNL A   1      44.488  29.833  34.172  1.00  0.00     0.031 C 
ATOM     69  C   UNL A   1      43.837  30.724  36.392  1.00  0.00     0.034 A 
BRANCH  56  70
ATOM     70  C   UNL A   1      39.517  34.079  39.262  1.00  0.00     0.023 A 
ATOM     71  C   UNL A   1      40.024  35.353  39.588  1.00  0.00     0.012 A 
ATOM     72  C   UNL A   1      38.559  33.478  40.100  1.00  0.00     0.148 A 
ATOM     73  C   UNL A   1      39.604  36.009  40.743  1.00  0.00     0.002 A 
ATOM     74  C   UNL A   1      38.118  34.154  41.231  1.00  0.00     0.091 A 
ATOM     75  F   UNL A   1      38.113  32.253  39.788  1.00  0.00    -0.205 F 
ATOM     76  C   UNL A   1      38.646  35.415  41.559  1.00  0.00     0.022 A 
BRANCH  74  77
ATOM     77  S   UNL A   1      36.838  33.498  42.307  1.00  0.00     0.127 S 
ATOM     78  O   UNL A   1      35.712  33.374  41.383  1.00  0.00    -0.237 OA
ATOM     79  O   UNL A   1      37.417  32.225  42.736  1.00  0.00    -0.237 OA
ATOM     80  O   UNL A   1      36.674  34.477  43.372  1.00  0.00    -0.744 OA
ENDBRANCH  74  77
ENDBRANCH  56  70
BRANCH  57  81
ATOM     81  C   UNL A   1      42.264  29.976  30.587  1.00  0.00     0.023 A 
ATOM     82  C   UNL A   1      42.896  30.802  29.637  1.00  0.00     0.012 A 
ATOM     83  C   UNL A   1      42.068  28.613  30.293  1.00  0.00     0.148 A 
ATOM     84  C   UNL A   1      43.303  30.285  28.407  1.00  0.00     0.002 A 
ATOM     85  C   UNL A   1      42.520  28.095  29.084  1.00  0.00     0.091 A 
ATOM     86  F   UNL A   1      41.444  27.850  31.201  1.00  0.00    -0.205 F 
ATOM     87  C   UNL A   1      43.126  28.933  28.134  1.00  0.00     0.022 A 
BRANCH  85  88
ATOM     88  S   UNL A   1      42.429  26.344  28.694  1.00  0.00     0.127 S 
ATOM     89  O   UNL A   1      40.991  26.097  28.765  1.00  0.00    -0.237 OA
ATOM     90  O   UNL A   1      42.995  26.303  27.346  1.00  0.00    -0.237 OA
ATOM     91  O   UNL A   1      43.238  25.677  29.706  1.00  0.00    -0.744 OA
ENDBRANCH  85  88
ENDBRANCH  57  81
BRANCH  69  92
ATOM     92  C   UNL A   1      45.133  30.196  36.953  1.00  0.00     0.023 A 
ATOM     93  C   UNL A   1      45.186  28.887  37.470  1.00  0.00     0.012 A 
ATOM     94  C   UNL A   1      46.313  30.962  36.884  1.00  0.00     0.148 A 
ATOM     95  C   UNL A   1      46.391  28.358  37.933  1.00  0.00     0.002 A 
ATOM     96  C   UNL A   1      47.518  30.412  37.308  1.00  0.00     0.091 A 
ATOM     97  F   UNL A   1      46.238  32.214  36.408  1.00  0.00    -0.205 F 
ATOM     98  C   UNL A   1      47.557  29.114  37.841  1.00  0.00     0.022 A 
BRANCH  96  99
ATOM     99  S   UNL A   1      49.081  31.283  37.136  1.00  0.00     0.127 S 
ATOM    100  O   UNL A   1      49.691  30.580  36.010  1.00  0.00    -0.237 OA
ATOM    101  O   UNL A   1      48.649  32.649  36.839  1.00  0.00    -0.237 OA
ATOM    102  O   UNL A   1      49.762  31.133  38.415  1.00  0.00    -0.744 OA
ENDBRANCH  96  99
ENDBRANCH  69  92
ENDBRANCH  43  44
ENDBRANCH  36  38
ENDBRANCH  35  36
ENDBRANCH  34  35
ENDBRANCH  33  34
ENDBRANCH  32  33
ENDBRANCH  31  32
ENDBRANCH   1  31
TORSDOF 24
ENDMDL
MODEL 2
REMARK VINA RESULT:      -8.6      5.185      9.481
REMARK SMILES CC(C)c1cc(C2CC[NH+](Cc3c[nH]nc3C(=O)OCCOCCOCCOC(=O)c3ccc(-c4c5nc(c(-c6cccc(S(=O)(=O)[O-])c6F)c6ccc([nH]6)c(-c6cccc(S(=O)(=O)[O-])c6F)c6nc(c(-c7cccc(S(=O)(=O)[O-])c7F)c7ccc4[nH]7)C=C6)C=C5)cc3)CC2)n[nH]1
REMARK SMILES IDX 23 1 22 2 21 3 20 4 19 5 17 6 18 7 16 8 12 9 13 10 14 11
REMARK SMILES IDX 15 12 11 14 10 15 7 16 8 17 95 18 9 19 94 20 6 22 4 23 5 24
REMARK SMILES IDX 97 25 96 26 2 28 1 29 3 30 24 31 25 32 26 33 27 34 28 35
REMARK SMILES IDX 29 36 30 37 31 38 32 39 93 40 33 41 92 42 34 43 35 44 36 45
REMARK SMILES IDX 86 46 37 47 91 48 85 49 87 50 38 51 90 52 84 53 83 54 39 56
REMARK SMILES IDX 71 57 51 58 70 59 52 60 55 61 69 62 88 63 53 64 54 65 68 67
REMARK SMILES IDX 89 68 56 69 40 70 41 71 49 72 42 73 44 74 50 75 43 76 45 77
REMARK SMILES IDX 46 78 47 79 48 80 72 81 73 82 81 83 74 84 76 85 82 86 75 87
REMARK SMILES IDX 77 88 78 89 79 90 80 91 57 92 58 93 66 94 59 95 61 96 67 97
REMARK SMILES IDX 60 98 62 99 63 100 64 101 65 102
REMARK H PARENT 14 13 10 21 97 27 87 55 55 66
REMARK Flexibility Score: inf
ROOT
ATOM      1  C   UNL A   1      35.828  32.469  28.068  1.00  0.00     0.188 C 
ENDROOT
BRANCH   1   2
ATOM      2  O   UNL A   1      36.152  31.142  28.467  1.00  0.00    -0.376 OA
BRANCH   2   3
ATOM      3  C   UNL A   1      35.395  30.053  27.953  1.00  0.00     0.202 C 
BRANCH   3   4
ATOM      4  C   UNL A   1      34.278  30.378  26.959  1.00  0.00     0.261 C 
BRANCH   4   5
ATOM      5  O   UNL A   1      33.013  30.574  27.612  1.00  0.00    -0.458 OA
BRANCH   5   6
ATOM      6  C   UNL A   1      31.927  30.393  26.804  1.00  0.00     0.359 C 
ATOM      7  O   UNL A   1      31.374  31.302  26.191  1.00  0.00    -0.244 OA
BRANCH   6   8
ATOM      8  C   UNL A   1      31.537  28.980  26.667  1.00  0.00     0.178 A 
ATOM      9  C   UNL A   1      31.120  28.231  25.503  1.00  0.00     0.059 A 
ATOM     10  C   UNL A   1      31.082  26.929  25.974  1.00  0.00     0.115 A 
ATOM     11  N   UNL A   1      31.294  26.971  27.317  1.00  0.00    -0.284 N 
ATOM     12  N   UNL A   1      31.574  28.193  27.762  1.00  0.00    -0.168 NA
ATOM     13  H   UNL A   1      31.245  26.180  27.899  1.00  0.00     0.189 HD
BRANCH   9  14
ATOM     14  C   UNL A   1      30.963  28.740  24.090  1.00  0.00     0.303 C 
BRANCH  14  15
ATOM     15  N   UNL A   1      31.713  28.023  23.035  1.00  0.00    -0.331 N 
ATOM     16  C   UNL A   1      33.214  25.769  21.832  1.00  0.00     0.051 C 
ATOM     17  C   UNL A   1      33.893  27.088  22.212  1.00  0.00     0.071 C 
ATOM     18  C   UNL A   1      31.768  26.076  21.429  1.00  0.00     0.071 C 
ATOM     19  C   UNL A   1      33.134  27.828  23.312  1.00  0.00     0.263 C 
ATOM     20  C   UNL A   1      30.996  26.875  22.484  1.00  0.00     0.263 C 
ATOM     21  H   UNL A   1      31.750  28.671  22.248  1.00  0.00     0.348 HD
BRANCH  16  22
ATOM     22  C   UNL A   1      33.357  24.694  22.888  1.00  0.00     0.066 A 
ATOM     23  C   UNL A   1      34.086  23.311  24.483  1.00  0.00     0.038 A 
ATOM     24  C   UNL A   1      34.445  24.413  23.746  1.00  0.00     0.049 A 
ATOM     25  N   UNL A   1      32.816  23.014  24.075  1.00  0.00    -0.282 N 
ATOM     26  N   UNL A   1      32.363  23.815  23.091  1.00  0.00    -0.180 NA
ATOM     27  H   UNL A   1      32.282  22.284  24.465  1.00  0.00     0.190 HD
BRANCH  23  28
ATOM     28  C   UNL A   1      34.868  22.541  25.503  1.00  0.00     0.031 C 
ATOM     29  C   UNL A   1      35.346  21.191  24.977  1.00  0.00     0.014 C 
ATOM     30  C   UNL A   1      36.032  23.374  26.037  1.00  0.00     0.014 C 
ENDBRANCH  23  28
ENDBRANCH  16  22
ENDBRANCH  14  15
ENDBRANCH   9  14
ENDBRANCH   6   8
ENDBRANCH   5   6
ENDBRANCH   4   5
ENDBRANCH   3   4
ENDBRANCH   2   3
ENDBRANCH   1   2
BRANCH   1  31
ATOM     31  C   UNL A   1      34.949  33.330  28.993  1.00  0.00     0.188 C 
BRANCH  31  32
ATOM     32  O   UNL A   1      34.319  32.631  30.057  1.00  0.00    -0.376 OA
BRANCH  32  33
ATOM     33  C   UNL A   1      34.741  32.991  31.367  1.00  0.00     0.202 C 
BRANCH  33  34
ATOM     34  C   UNL A   1      35.484  31.875  32.109  1.00  0.00     0.261 C 
BRANCH  34  35
ATOM     35  O   UNL A   1      36.837  31.674  31.670  1.00  0.00    -0.460 OA
BRANCH  35  36
ATOM     36  C   UNL A   1      37.815  32.052  32.524  1.00  0.00     0.338 C 
ATOM     37  O   UNL A   1      37.696  32.359  33.696  1.00  0.00    -0.246 OA
BRANCH  36  38
ATOM     38  C   UNL A   1      39.103  31.853  31.837  1.00  0.00     0.060 A 
ATOM     39  C   UNL A   1      39.116  31.733  30.442  1.00  0.00     0.016 A 
ATOM     40  C   UNL A   1      40.288  31.793  32.571  1.00  0.00     0.016 A 
ATOM     41  C   UNL A   1      40.325  31.523  29.778  1.00  0.00     0.010 A 
ATOM     42  C   UNL A   1      41.493  31.569  31.908  1.00  0.00     0.010 A 
ATOM     43  C   UNL A   1      41.514  31.406  30.512  1.00  0.00    -0.014 A 
BRANCH  43  44
ATOM     44  C   UNL A   1      42.762  30.962  29.851  1.00  0.00     0.031 A 
ATOM     45  C   UNL A   1      42.987  29.489  29.653  1.00  0.00     0.074 A 
ATOM     46  C   UNL A   1      43.700  31.850  29.476  1.00  0.00     0.049 A 
ATOM     47  N   UNL A   1      44.017  28.872  29.136  1.00  0.00    -0.248 NA
ATOM     48  C   UNL A   1      41.909  28.593  30.104  1.00  0.00     0.031 C 
ATOM     49  C   UNL A   1      43.605  33.300  29.634  1.00  0.00     0.029 A 
ATOM     50  N   UNL A   1      44.935  31.650  28.912  1.00  0.00    -0.354 N 
ATOM     51  C   UNL A   1      43.724  27.517  29.217  1.00  0.00     0.074 A 
ATOM     52  C   UNL A   1      42.425  27.400  29.844  1.00  0.00     0.031 C 
ATOM     53  C   UNL A   1      44.751  33.859  29.208  1.00  0.00     0.029 A 
ATOM     54  C   UNL A   1      45.664  32.806  28.763  1.00  0.00     0.049 A 
ATOM     55  H   UNL A   1      45.267  30.764  28.642  1.00  0.00     0.167 HD
ATOM     56  C   UNL A   1      44.460  26.465  28.793  1.00  0.00     0.034 A 
ATOM     57  C   UNL A   1      46.928  32.989  28.332  1.00  0.00     0.034 A 
ATOM     58  C   UNL A   1      45.746  26.579  28.162  1.00  0.00     0.049 A 
ATOM     59  C   UNL A   1      47.735  31.796  27.881  1.00  0.00     0.074 A 
ATOM     60  C   UNL A   1      46.544  25.574  27.648  1.00  0.00     0.029 A 
ATOM     61  N   UNL A   1      46.428  27.770  27.973  1.00  0.00    -0.354 N 
ATOM     62  N   UNL A   1      47.383  30.535  27.823  1.00  0.00    -0.248 NA
ATOM     63  C   UNL A   1      49.102  32.060  27.405  1.00  0.00     0.031 C 
ATOM     64  C   UNL A   1      47.720  26.157  27.161  1.00  0.00     0.029 A 
ATOM     65  C   UNL A   1      47.644  27.526  27.358  1.00  0.00     0.049 A 
ATOM     66  H   UNL A   1      46.097  28.659  28.236  1.00  0.00     0.167 HD
ATOM     67  C   UNL A   1      48.469  29.861  27.274  1.00  0.00     0.074 A 
ATOM     68  C   UNL A   1      49.484  30.857  26.998  1.00  0.00     0.031 C 
ATOM     69  C   UNL A   1      48.619  28.534  27.033  1.00  0.00     0.034 A 
BRANCH  56  70
ATOM     70  C   UNL A   1      43.867  25.093  28.962  1.00  0.00     0.023 A 
ATOM     71  C   UNL A   1      44.238  24.315  30.078  1.00  0.00     0.012 A 
ATOM     72  C   UNL A   1      42.917  24.593  28.052  1.00  0.00     0.148 A 
ATOM     73  C   UNL A   1      43.691  23.048  30.272  1.00  0.00     0.002 A 
ATOM     74  C   UNL A   1      42.349  23.343  28.272  1.00  0.00     0.091 A 
ATOM     75  F   UNL A   1      42.601  25.336  26.983  1.00  0.00    -0.205 F 
ATOM     76  C   UNL A   1      42.741  22.566  29.376  1.00  0.00     0.022 A 
BRANCH  74  77
ATOM     77  S   UNL A   1      41.069  22.667  27.209  1.00  0.00     0.127 S 
ATOM     78  O   UNL A   1      40.075  23.739  27.227  1.00  0.00    -0.237 OA
ATOM     79  O   UNL A   1      41.774  22.510  25.937  1.00  0.00    -0.237 OA
ATOM     80  O   UNL A   1      40.657  21.416  27.830  1.00  0.00    -0.744 OA
ENDBRANCH  74  77
ENDBRANCH  56  70
BRANCH  57  81
ATOM     81  C   UNL A   1      47.497  34.363  28.255  1.00  0.00     0.023 A 
ATOM     82  C   UNL A   1      47.312  35.122  27.083  1.00  0.00     0.012 A 
ATOM     83  C   UNL A   1      48.211  34.923  29.332  1.00  0.00     0.148 A 
ATOM     84  C   UNL A   1      47.849  36.406  26.976  1.00  0.00     0.002 A 
ATOM     85  C   UNL A   1      48.702  36.220  29.236  1.00  0.00     0.091 A 
ATOM     86  F   UNL A   1      48.396  34.175  30.429  1.00  0.00    -0.205 F 
ATOM     87  C   UNL A   1      48.534  36.959  28.054  1.00  0.00     0.022 A 
BRANCH  85  88
ATOM     88  S   UNL A   1      49.503  37.050  30.614  1.00  0.00     0.127 S 
ATOM     89  O   UNL A   1      48.431  37.082  31.606  1.00  0.00    -0.237 OA
ATOM     90  O   UNL A   1      50.602  36.135  30.923  1.00  0.00    -0.237 OA
ATOM     91  O   UNL A   1      49.927  38.344  30.096  1.00  0.00    -0.744 OA
ENDBRANCH  85  88
ENDBRANCH  57  81
BRANCH  69  92
ATOM     92  C   UNL A   1      49.913  28.073  26.412  1.00  0.00     0.023 A 
ATOM     93  C   UNL A   1      50.016  27.972  25.011  1.00  0.00     0.012 A 
ATOM     94  C   UNL A   1      51.048  27.828  27.209  1.00  0.00     0.148 A 
ATOM     95  C   UNL A   1      51.224  27.610  24.414  1.00  0.00     0.002 A 
ATOM     96  C   UNL A   1      52.260  27.510  26.605  1.00  0.00     0.091 A 
ATOM     97  F   UNL A   1      50.925  27.909  28.543  1.00  0.00    -0.205 F 
ATOM     98  C   UNL A   1      52.347  27.391  25.209  1.00  0.00     0.022 A 
BRANCH  96  99
ATOM     99  S   UNL A   1      53.776  27.306  27.549  1.00  0.00     0.127 S 
ATOM    100  O   UNL A   1      53.451  26.156  28.390  1.00  0.00    -0.237 OA
ATOM    101  O   UNL A   1      54.764  27.038  26.504  1.00  0.00    -0.237 OA
ATOM    102  O   UNL A   1      53.975  28.565  28.255  1.00  0.00    -0.744 OA
ENDBRANCH  96  99
ENDBRANCH  69  92
ENDBRANCH  43  44
ENDBRANCH  36  38
ENDBRANCH  35  36
ENDBRANCH  34  35
ENDBRANCH  33  34
ENDBRANCH  32  33
ENDBRANCH  31  32
ENDBRANCH   1  31
TORSDOF 24
ENDMDL
MODEL 3
REMARK VINA RESULT:      -8.3      4.499      6.879
REMARK SMILES CC(C)c1cc(C2CC[NH+](Cc3c[nH]nc3C(=O)OCCOCCOCCOC(=O)c3ccc(-c4c5nc(c(-c6cccc(S(=O)(=O)[O-])c6F)c6ccc([nH]6)c(-c6cccc(S(=O)(=O)[O-])c6F)c6nc(c(-c7cccc(S(=O)(=O)[O-])c7F)c7ccc4[nH]7)C=C6)C=C5)cc3)CC2)n[nH]1
REMARK SMILES IDX 23 1 22 2 21 3 20 4 19 5 17 6 18 7 16 8 12 9 13 10 14 11
REMARK SMILES IDX 15 12 11 14 10 15 7 16 8 17 95 18 9 19 94 20 6 22 4 23 5 24
REMARK SMILES IDX 97 25 96 26 2 28 1 29 3 30 24 31 25 32 26 33 27 34 28 35
REMARK SMILES IDX 29 36 30 37 31 38 32 39 93 40 33 41 92 42 34 43 35 44 36 45
REMARK SMILES IDX 86 46 37 47 91 48 85 49 87 50 38 51 90 52 84 53 83 54 39 56
REMARK SMILES IDX 71 57 51 58 70 59 52 60 55 61 69 62 88 63 53 64 54 65 68 67
REMARK SMILES IDX 89 68 56 69 40 70 41 71 49 72 42 73 44 74 50 75 43 76 45 77
REMARK SMILES IDX 46 78 47 79 48 80 72 81 73 82 81 83 74 84 76 85 82 86 75 87
REMARK SMILES IDX 77 88 78 89 79 90 80 91 57 92 58 93 66 94 59 95 61 96 67 97
REMARK SMILES IDX 60 98 62 99 63 100 64 101 65 102
REMARK H PARENT 14 13 10 21 97 27 87 55 55 66
REMARK Flexibility Score: inf
ROOT
ATOM      1  C   UNL A   1      36.751  31.815  28.737  1.00  0.00     0.188 C 
ENDROOT
BRANCH   1   2
ATOM      2  O   UNL A   1      36.839  30.457  29.154  1.00  0.00    -0.376 OA
BRANCH   2   3
ATOM      3  C   UNL A   1      35.819  29.541  28.773  1.00  0.00     0.202 C 
BRANCH   3   4
ATOM      4  C   UNL A   1      35.030  29.854  27.499  1.00  0.00     0.261 C 
BRANCH   4   5
ATOM      5  O   UNL A   1      33.611  29.806  27.717  1.00  0.00    -0.458 OA
BRANCH   5   6
ATOM      6  C   UNL A   1      32.867  29.711  26.576  1.00  0.00     0.359 C 
ATOM      7  O   UNL A   1      32.968  30.486  25.629  1.00  0.00    -0.244 OA
BRANCH   6   8
ATOM      8  C   UNL A   1      31.993  28.526  26.551  1.00  0.00     0.178 A 
ATOM      9  C   UNL A   1      31.137  28.013  25.506  1.00  0.00     0.059 A 
ATOM     10  C   UNL A   1      30.736  26.787  26.011  1.00  0.00     0.115 A 
ATOM     11  N   UNL A   1      31.192  26.701  27.290  1.00  0.00    -0.284 N 
ATOM     12  N   UNL A   1      31.955  27.732  27.641  1.00  0.00    -0.168 NA
ATOM     13  H   UNL A   1      30.979  25.953  27.892  1.00  0.00     0.189 HD
BRANCH   9  14
ATOM     14  C   UNL A   1      30.910  28.600  24.133  1.00  0.00     0.303 C 
BRANCH  14  15
ATOM     15  N   UNL A   1      31.628  27.960  23.008  1.00  0.00    -0.331 N 
ATOM     16  C   UNL A   1      33.135  25.820  21.620  1.00  0.00     0.051 C 
ATOM     17  C   UNL A   1      33.791  27.141  22.031  1.00  0.00     0.071 C 
ATOM     18  C   UNL A   1      31.662  26.097  21.305  1.00  0.00     0.071 C 
ATOM     19  C   UNL A   1      33.066  27.801  23.203  1.00  0.00     0.263 C 
ATOM     20  C   UNL A   1      30.920  26.817  22.436  1.00  0.00     0.263 C 
ATOM     21  H   UNL A   1      31.604  28.647  22.253  1.00  0.00     0.348 HD
BRANCH  16  22
ATOM     22  C   UNL A   1      33.365  24.700  22.613  1.00  0.00     0.066 A 
ATOM     23  C   UNL A   1      34.174  23.334  24.183  1.00  0.00     0.038 A 
ATOM     24  C   UNL A   1      34.399  24.539  23.564  1.00  0.00     0.049 A 
ATOM     25  N   UNL A   1      33.023  22.859  23.621  1.00  0.00    -0.282 N 
ATOM     26  N   UNL A   1      32.530  23.651  22.648  1.00  0.00    -0.180 NA
ATOM     27  H   UNL A   1      32.592  22.019  23.901  1.00  0.00     0.190 HD
BRANCH  23  28
ATOM     28  C   UNL A   1      34.979  22.626  25.229  1.00  0.00     0.031 C 
ATOM     29  C   UNL A   1      35.578  21.318  24.721  1.00  0.00     0.014 C 
ATOM     30  C   UNL A   1      36.056  23.547  25.800  1.00  0.00     0.014 C 
ENDBRANCH  23  28
ENDBRANCH  16  22
ENDBRANCH  14  15
ENDBRANCH   9  14
ENDBRANCH   6   8
ENDBRANCH   5   6
ENDBRANCH   4   5
ENDBRANCH   3   4
ENDBRANCH   2   3
ENDBRANCH   1   2
BRANCH   1  31
ATOM     31  C   UNL A   1      35.539  32.653  29.184  1.00  0.00     0.188 C 
BRANCH  31  32
ATOM     32  O   UNL A   1      34.923  32.234  30.394  1.00  0.00    -0.376 OA
BRANCH  32  33
ATOM     33  C   UNL A   1      35.604  32.592  31.590  1.00  0.00     0.202 C 
BRANCH  33  34
ATOM     34  C   UNL A   1      35.938  31.401  32.495  1.00  0.00     0.261 C 
BRANCH  34  35
ATOM     35  O   UNL A   1      37.276  30.901  32.344  1.00  0.00    -0.460 OA
BRANCH  35  36
ATOM     36  C   UNL A   1      38.238  31.513  33.070  1.00  0.00     0.338 C 
ATOM     37  O   UNL A   1      38.091  32.381  33.911  1.00  0.00    -0.246 OA
BRANCH  36  38
ATOM     38  C   UNL A   1      39.507  30.815  32.799  1.00  0.00     0.060 A 
ATOM     39  C   UNL A   1      39.576  29.431  33.002  1.00  0.00     0.016 A 
ATOM     40  C   UNL A   1      40.617  31.528  32.342  1.00  0.00     0.016 A 
ATOM     41  C   UNL A   1      40.777  28.759  32.769  1.00  0.00     0.010 A 
ATOM     42  C   UNL A   1      41.819  30.856  32.126  1.00  0.00     0.010 A 
ATOM     43  C   UNL A   1      41.912  29.475  32.364  1.00  0.00    -0.014 A 
BRANCH  43  44
ATOM     44  C   UNL A   1      43.239  28.819  32.332  1.00  0.00     0.031 A 
ATOM     45  C   UNL A   1      44.111  28.901  33.554  1.00  0.00     0.074 A 
ATOM     46  C   UNL A   1      43.681  28.205  31.221  1.00  0.00     0.049 A 
ATOM     47  N   UNL A   1      45.319  28.437  33.740  1.00  0.00    -0.248 NA
ATOM     48  C   UNL A   1      43.547  29.602  34.719  1.00  0.00     0.031 C 
ATOM     49  C   UNL A   1      42.936  28.079  29.969  1.00  0.00     0.029 A 
ATOM     50  N   UNL A   1      44.884  27.598  30.962  1.00  0.00    -0.354 N 
ATOM     51  C   UNL A   1      45.670  28.808  35.031  1.00  0.00     0.074 A 
ATOM     52  C   UNL A   1      44.553  29.545  35.581  1.00  0.00     0.031 C 
ATOM     53  C   UNL A   1      43.714  27.464  29.062  1.00  0.00     0.029 A 
ATOM     54  C   UNL A   1      45.013  27.166  29.663  1.00  0.00     0.049 A 
ATOM     55  H   UNL A   1      45.587  27.483  31.641  1.00  0.00     0.167 HD
ATOM     56  C   UNL A   1      46.812  28.545  35.707  1.00  0.00     0.034 A 
ATOM     57  C   UNL A   1      46.066  26.611  29.031  1.00  0.00     0.034 A 
ATOM     58  C   UNL A   1      47.919  27.805  35.167  1.00  0.00     0.049 A 
ATOM     59  C   UNL A   1      47.335  26.344  29.802  1.00  0.00     0.074 A 
ATOM     60  C   UNL A   1      49.097  27.441  35.793  1.00  0.00     0.029 A 
ATOM     61  N   UNL A   1      47.992  27.332  33.867  1.00  0.00    -0.354 N 
ATOM     62  N   UNL A   1      47.594  26.564  31.069  1.00  0.00    -0.248 NA
ATOM     63  C   UNL A   1      48.444  25.721  29.063  1.00  0.00     0.031 C 
ATOM     64  C   UNL A   1      49.891  26.757  34.864  1.00  0.00     0.029 A 
ATOM     65  C   UNL A   1      49.199  26.685  33.666  1.00  0.00     0.049 A 
ATOM     66  H   UNL A   1      47.289  27.439  33.186  1.00  0.00     0.167 HD
ATOM     67  C   UNL A   1      48.879  26.076  31.286  1.00  0.00     0.074 A 
ATOM     68  C   UNL A   1      49.338  25.532  30.025  1.00  0.00     0.031 C 
ATOM     69  C   UNL A   1      49.618  26.092  32.423  1.00  0.00     0.034 A 
BRANCH  56  70
ATOM     70  C   UNL A   1      46.901  29.028  37.129  1.00  0.00     0.023 A 
ATOM     71  C   UNL A   1      47.278  30.362  37.381  1.00  0.00     0.012 A 
ATOM     72  C   UNL A   1      46.571  28.185  38.206  1.00  0.00     0.148 A 
ATOM     73  C   UNL A   1      47.351  30.844  38.686  1.00  0.00     0.002 A 
ATOM     74  C   UNL A   1      46.611  28.683  39.504  1.00  0.00     0.091 A 
ATOM     75  F   UNL A   1      46.244  26.911  37.947  1.00  0.00    -0.205 F 
ATOM     76  C   UNL A   1      47.010  30.009  39.745  1.00  0.00     0.022 A 
BRANCH  74  77
ATOM     77  S   UNL A   1      46.125  27.702  40.927  1.00  0.00     0.127 S 
ATOM     78  O   UNL A   1      46.227  28.682  42.008  1.00  0.00    -0.237 OA
ATOM     79  O   UNL A   1      44.756  27.315  40.583  1.00  0.00    -0.237 OA
ATOM     80  O   UNL A   1      47.068  26.596  40.989  1.00  0.00    -0.744 OA
ENDBRANCH  74  77
ENDBRANCH  56  70
BRANCH  57  81
ATOM     81  C   UNL A   1      45.953  26.219  27.598  1.00  0.00     0.023 A 
ATOM     82  C   UNL A   1      46.252  27.166  26.599  1.00  0.00     0.012 A 
ATOM     83  C   UNL A   1      45.561  24.920  27.222  1.00  0.00     0.148 A 
ATOM     84  C   UNL A   1      46.139  26.832  25.248  1.00  0.00     0.002 A 
ATOM     85  C   UNL A   1      45.496  24.581  25.875  1.00  0.00     0.091 A 
ATOM     86  F   UNL A   1      45.258  24.042  28.188  1.00  0.00    -0.205 F 
ATOM     87  C   UNL A   1      45.772  25.539  24.886  1.00  0.00     0.022 A 
BRANCH  85  88
ATOM     88  S   UNL A   1      45.137  22.911  25.320  1.00  0.00     0.127 S 
ATOM     89  O   UNL A   1      45.153  23.069  23.868  1.00  0.00    -0.237 OA
ATOM     90  O   UNL A   1      46.264  22.158  25.871  1.00  0.00    -0.237 OA
ATOM     91  O   UNL A   1      43.846  22.574  25.907  1.00  0.00    -0.744 OA
ENDBRANCH  85  88
ENDBRANCH  57  81
BRANCH  69  92
ATOM     92  C   UNL A   1      50.993  25.477  32.377  1.00  0.00     0.023 A 
ATOM     93  C   UNL A   1      52.116  26.296  32.148  1.00  0.00     0.012 A 
ATOM     94  C   UNL A   1      51.180  24.107  32.651  1.00  0.00     0.148 A 
ATOM     95  C   UNL A   1      53.402  25.756  32.168  1.00  0.00     0.002 A 
ATOM     96  C   UNL A   1      52.468  23.585  32.711  1.00  0.00     0.091 A 
ATOM     97  F   UNL A   1      50.097  23.339  32.846  1.00  0.00    -0.205 F 
ATOM     98  C   UNL A   1      53.579  24.406  32.461  1.00  0.00     0.022 A 
BRANCH  96  99
ATOM     99  S   UNL A   1      52.787  21.879  33.176  1.00  0.00     0.127 S 
ATOM    100  O   UNL A   1      52.180  21.148  32.066  1.00  0.00    -0.237 OA
ATOM    101  O   UNL A   1      54.249  21.830  33.211  1.00  0.00    -0.237 OA
ATOM    102  O   UNL A   1      52.149  21.695  34.473  1.00  0.00    -0.744 OA
ENDBRANCH  96  99
ENDBRANCH  69  92
ENDBRANCH  43  44
ENDBRANCH  36  38
ENDBRANCH  35  36
ENDBRANCH  34  35
ENDBRANCH  33  34
ENDBRANCH  32  33
ENDBRANCH  31  32
ENDBRANCH   1  31
TORSDOF 24
ENDMDL
