MODEL 1
REMARK VINA RESULT:     -11.5      0.000      0.000
REMARK SMILES O=C(OCCOCCOCCOC(=O)c1nnn(-c2cccc(C(F)(F)F)c2)c1[C@H]1COc2ccccc2O1)c1ccc(-c2c3nc(c(-c4cccc(S(=O)(=O)[O-])c4F)c4ccc([nH]4)c(-c4cccc(S(=O)(=O)[O-])c4F)c4nc(c(-c5cccc(S(=O)(=O)[O-])c5F)c5ccc2[nH]5)C=C4)C=C3)cc1
REMARK SMILES IDX 7 1 6 2 5 3 4 4 3 5 2 6 1 7 40 8 41 9 102 10 42 11 101 12
REMARK SMILES IDX 43 13 44 14 45 15 95 16 46 17 100 18 94 19 96 20 47 21 99 22
REMARK SMILES IDX 93 23 92 24 48 26 80 27 60 28 79 29 61 30 64 31 78 32 97 33
REMARK SMILES IDX 62 34 63 35 77 37 98 38 65 39 49 40 50 41 58 42 51 43 53 44
REMARK SMILES IDX 59 45 52 46 54 47 55 48 56 49 57 50 81 51 82 52 90 53 83 54
REMARK SMILES IDX 85 55 91 56 84 57 86 58 87 59 88 60 89 61 66 62 67 63 75 64
REMARK SMILES IDX 68 65 70 66 76 67 69 68 71 69 72 70 73 71 74 72 8 73 9 74
REMARK SMILES IDX 10 75 11 76 12 77 13 78 14 79 15 80 16 81 29 82 17 83 18 84
REMARK SMILES IDX 30 85 31 86 39 87 32 88 38 89 33 90 37 91 34 92 36 93 35 94
REMARK SMILES IDX 19 95 20 96 28 97 21 98 23 99 22 100 24 101 25 102 26 103
REMARK SMILES IDX 27 104
REMARK H PARENT 96 25 64 36
REMARK Flexibility Score: inf
ROOT
ATOM      1  C   UNL A   1      34.033  23.036  25.987  1.00  0.00     0.188 C 
ENDROOT
BRANCH   1   2
ATOM      2  O   UNL A   1      35.357  22.597  26.261  1.00  0.00    -0.376 OA
BRANCH   2   3
ATOM      3  C   UNL A   1      35.637  21.255  25.894  1.00  0.00     0.202 C 
BRANCH   3   4
ATOM      4  C   UNL A   1      36.738  21.103  24.839  1.00  0.00     0.261 C 
BRANCH   4   5
ATOM      5  O   UNL A   1      37.892  21.945  25.009  1.00  0.00    -0.460 OA
BRANCH   5   6
ATOM      6  C   UNL A   1      38.896  21.956  25.905  1.00  0.00     0.338 C 
ATOM      7  O   UNL A   1      39.482  20.901  26.144  1.00  0.00    -0.246 OA
BRANCH   6   8
ATOM      8  C   UNL A   1      39.257  23.146  26.719  1.00  0.00     0.060 A 
ATOM      9  C   UNL A   1      38.599  24.374  26.677  1.00  0.00     0.016 A 
ATOM     10  C   UNL A   1      40.401  23.010  27.533  1.00  0.00     0.016 A 
ATOM     11  C   UNL A   1      39.114  25.466  27.360  1.00  0.00     0.010 A 
ATOM     12  C   UNL A   1      40.929  24.103  28.204  1.00  0.00     0.010 A 
ATOM     13  C   UNL A   1      40.311  25.340  28.060  1.00  0.00    -0.014 A 
BRANCH  13  14
ATOM     14  C   UNL A   1      40.904  26.561  28.579  1.00  0.00     0.031 A 
ATOM     15  C   UNL A   1      42.266  26.887  28.093  1.00  0.00     0.074 A 
ATOM     16  C   UNL A   1      40.221  27.366  29.416  1.00  0.00     0.049 A 
ATOM     17  N   UNL A   1      43.354  27.005  28.786  1.00  0.00    -0.248 NA
ATOM     18  C   UNL A   1      42.461  26.997  26.641  1.00  0.00     0.031 C 
ATOM     19  C   UNL A   1      38.793  27.283  29.746  1.00  0.00     0.029 A 
ATOM     20  N   UNL A   1      40.619  28.518  30.033  1.00  0.00    -0.354 N 
ATOM     21  C   UNL A   1      44.317  27.453  27.884  1.00  0.00     0.074 A 
ATOM     22  C   UNL A   1      43.766  27.256  26.569  1.00  0.00     0.031 C 
ATOM     23  C   UNL A   1      38.395  28.460  30.268  1.00  0.00     0.029 A 
ATOM     24  C   UNL A   1      39.554  29.320  30.425  1.00  0.00     0.049 A 
ATOM     25  H   UNL A   1      41.562  28.754  30.183  1.00  0.00     0.167 HD
ATOM     26  C   UNL A   1      45.377  28.204  28.293  1.00  0.00     0.034 A 
ATOM     27  C   UNL A   1      39.605  30.630  30.762  1.00  0.00     0.034 A 
ATOM     28  C   UNL A   1      45.631  28.055  29.704  1.00  0.00     0.049 A 
ATOM     29  C   UNL A   1      41.002  30.954  31.118  1.00  0.00     0.074 A 
ATOM     30  C   UNL A   1      45.887  26.999  30.554  1.00  0.00     0.029 A 
ATOM     31  N   UNL A   1      45.334  29.124  30.512  1.00  0.00    -0.354 N 
ATOM     32  N   UNL A   1      41.603  30.518  32.189  1.00  0.00    -0.248 NA
ATOM     33  C   UNL A   1      41.874  31.496  30.089  1.00  0.00     0.031 C 
ATOM     34  C   UNL A   1      45.295  27.367  31.797  1.00  0.00     0.029 A 
ATOM     35  C   UNL A   1      44.739  28.638  31.642  1.00  0.00     0.049 A 
ATOM     36  H   UNL A   1      45.518  30.071  30.313  1.00  0.00     0.167 HD
ATOM     37  C   UNL A   1      42.918  30.318  31.793  1.00  0.00     0.074 A 
ATOM     38  C   UNL A   1      43.053  31.071  30.550  1.00  0.00     0.031 C 
ATOM     39  C   UNL A   1      43.677  29.325  32.345  1.00  0.00     0.034 A 
BRANCH  26  40
ATOM     40  C   UNL A   1      45.940  29.377  27.512  1.00  0.00     0.023 A 
ATOM     41  C   UNL A   1      47.348  29.485  27.428  1.00  0.00     0.012 A 
ATOM     42  C   UNL A   1      45.193  30.517  27.131  1.00  0.00     0.148 A 
ATOM     43  C   UNL A   1      47.976  30.684  27.072  1.00  0.00     0.002 A 
ATOM     44  C   UNL A   1      45.822  31.678  26.694  1.00  0.00     0.091 A 
ATOM     45  F   UNL A   1      43.871  30.551  27.312  1.00  0.00    -0.205 F 
ATOM     46  C   UNL A   1      47.212  31.782  26.701  1.00  0.00     0.022 A 
BRANCH  44  47
ATOM     47  S   UNL A   1      44.869  33.098  26.140  1.00  0.00     0.127 S 
ATOM     48  O   UNL A   1      44.076  32.513  25.064  1.00  0.00    -0.237 OA
ATOM     49  O   UNL A   1      44.118  33.446  27.348  1.00  0.00    -0.237 OA
ATOM     50  O   UNL A   1      45.859  34.094  25.751  1.00  0.00    -0.744 OA
ENDBRANCH  44  47
ENDBRANCH  26  40
BRANCH  27  51
ATOM     51  C   UNL A   1      38.571  31.676  30.595  1.00  0.00     0.023 A 
ATOM     52  C   UNL A   1      38.279  32.164  29.307  1.00  0.00     0.012 A 
ATOM     53  C   UNL A   1      37.697  32.023  31.652  1.00  0.00     0.148 A 
ATOM     54  C   UNL A   1      37.145  32.951  29.074  1.00  0.00     0.002 A 
ATOM     55  C   UNL A   1      36.584  32.823  31.420  1.00  0.00     0.091 A 
ATOM     56  F   UNL A   1      37.903  31.492  32.864  1.00  0.00    -0.205 F 
ATOM     57  C   UNL A   1      36.297  33.279  30.128  1.00  0.00     0.022 A 
BRANCH  55  58
ATOM     58  S   UNL A   1      35.457  33.287  32.742  1.00  0.00     0.127 S 
ATOM     59  O   UNL A   1      34.183  32.748  32.261  1.00  0.00    -0.237 OA
ATOM     60  O   UNL A   1      36.024  32.583  33.887  1.00  0.00    -0.237 OA
ATOM     61  O   UNL A   1      35.500  34.743  32.800  1.00  0.00    -0.744 OA
ENDBRANCH  55  58
ENDBRANCH  27  51
BRANCH  39  62
ATOM     62  C   UNL A   1      43.198  28.680  33.620  1.00  0.00     0.023 A 
ATOM     63  C   UNL A   1      42.178  27.707  33.630  1.00  0.00     0.012 A 
ATOM     64  C   UNL A   1      43.906  28.929  34.811  1.00  0.00     0.148 A 
ATOM     65  C   UNL A   1      41.847  27.025  34.803  1.00  0.00     0.002 A 
ATOM     66  C   UNL A   1      43.609  28.212  35.964  1.00  0.00     0.091 A 
ATOM     67  F   UNL A   1      44.880  29.853  34.791  1.00  0.00    -0.205 F 
ATOM     68  C   UNL A   1      42.572  27.268  35.968  1.00  0.00     0.022 A 
BRANCH  66  69
ATOM     69  S   UNL A   1      44.606  28.380  37.448  1.00  0.00     0.127 S 
ATOM     70  O   UNL A   1      45.964  28.369  36.911  1.00  0.00    -0.237 OA
ATOM     71  O   UNL A   1      44.170  29.672  37.981  1.00  0.00    -0.237 OA
ATOM     72  O   UNL A   1      44.248  27.245  38.290  1.00  0.00    -0.744 OA
ENDBRANCH  66  69
ENDBRANCH  39  62
ENDBRANCH  13  14
ENDBRANCH   6   8
ENDBRANCH   5   6
ENDBRANCH   4   5
ENDBRANCH   3   4
ENDBRANCH   2   3
ENDBRANCH   1   2
BRANCH   1  73
ATOM     73  C   UNL A   1      32.905  22.047  26.369  1.00  0.00     0.188 C 
BRANCH  73  74
ATOM     74  O   UNL A   1      31.918  21.598  25.446  1.00  0.00    -0.376 OA
BRANCH  74  75
ATOM     75  C   UNL A   1      32.211  21.467  24.070  1.00  0.00     0.202 C 
BRANCH  75  76
ATOM     76  C   UNL A   1      31.991  22.702  23.197  1.00  0.00     0.261 C 
BRANCH  76  77
ATOM     77  O   UNL A   1      33.064  22.997  22.298  1.00  0.00    -0.458 OA
BRANCH  77  78
ATOM     78  C   UNL A   1      33.057  24.243  21.747  1.00  0.00     0.361 C 
ATOM     79  O   UNL A   1      32.906  24.486  20.547  1.00  0.00    -0.244 OA
BRANCH  78  80
ATOM     80  C   UNL A   1      33.267  25.278  22.738  1.00  0.00     0.198 A 
ATOM     81  N   UNL A   1      34.456  25.492  23.393  1.00  0.00    -0.122 NA
ATOM     82  C   UNL A   1      32.338  26.199  23.187  1.00  0.00     0.123 A 
ATOM     83  N   UNL A   1      34.285  26.500  24.245  1.00  0.00    -0.061 NA
ATOM     84  N   UNL A   1      32.976  26.807  24.245  1.00  0.00    -0.213 N 
BRANCH  82  85
ATOM     85  C   UNL A   1      30.951  26.526  22.753  1.00  0.00     0.262 C 
ATOM     86  C   UNL A   1      29.943  26.290  23.884  1.00  0.00     0.281 C 
ATOM     87  O   UNL A   1      31.001  27.885  22.316  1.00  0.00    -0.477 OA
ATOM     88  O   UNL A   1      28.632  26.716  23.487  1.00  0.00    -0.485 OA
ATOM     89  C   UNL A   1      29.843  28.577  22.513  1.00  0.00     0.162 A 
ATOM     90  C   UNL A   1      28.689  28.015  23.057  1.00  0.00     0.161 A 
ATOM     91  C   UNL A   1      29.872  29.923  22.159  1.00  0.00     0.050 A 
ATOM     92  C   UNL A   1      27.539  28.786  23.192  1.00  0.00     0.050 A 
ATOM     93  C   UNL A   1      28.739  30.711  22.343  1.00  0.00     0.004 A 
ATOM     94  C   UNL A   1      27.569  30.139  22.846  1.00  0.00     0.004 A 
ENDBRANCH  82  85
BRANCH  84  95
ATOM     95  C   UNL A   1      32.345  27.401  25.349  1.00  0.00     0.067 A 
ATOM     96  C   UNL A   1      32.025  26.657  26.479  1.00  0.00     0.028 A 
ATOM     97  C   UNL A   1      32.166  28.791  25.316  1.00  0.00     0.041 A 
ATOM     98  C   UNL A   1      31.614  27.341  27.625  1.00  0.00     0.003 A 
ATOM     99  C   UNL A   1      31.749  29.479  26.455  1.00  0.00     0.058 A 
ATOM    100  C   UNL A   1      31.493  28.740  27.618  1.00  0.00     0.013 A 
BRANCH  99 101
ATOM    101  C   UNL A   1      31.646  30.982  26.429  1.00  0.00     0.416 C 
ATOM    102  F   UNL A   1      31.027  31.458  25.317  1.00  0.00    -0.166 F 
ATOM    103  F   UNL A   1      30.944  31.467  27.492  1.00  0.00    -0.166 F 
ATOM    104  F   UNL A   1      32.858  31.607  26.478  1.00  0.00    -0.166 F 
ENDBRANCH  99 101
ENDBRANCH  84  95
ENDBRANCH  78  80
ENDBRANCH  77  78
ENDBRANCH  76  77
ENDBRANCH  75  76
ENDBRANCH  74  75
ENDBRANCH  73  74
ENDBRANCH   1  73
TORSDOF 23
ENDMDL
MODEL 2
REMARK VINA RESULT:     -11.3      3.411      8.941
REMARK SMILES O=C(OCCOCCOCCOC(=O)c1nnn(-c2cccc(C(F)(F)F)c2)c1[C@H]1COc2ccccc2O1)c1ccc(-c2c3nc(c(-c4cccc(S(=O)(=O)[O-])c4F)c4ccc([nH]4)c(-c4cccc(S(=O)(=O)[O-])c4F)c4nc(c(-c5cccc(S(=O)(=O)[O-])c5F)c5ccc2[nH]5)C=C4)C=C3)cc1
REMARK SMILES IDX 7 1 6 2 5 3 4 4 3 5 2 6 1 7 40 8 41 9 102 10 42 11 101 12
REMARK SMILES IDX 43 13 44 14 45 15 95 16 46 17 100 18 94 19 96 20 47 21 99 22
REMARK SMILES IDX 93 23 92 24 48 26 80 27 60 28 79 29 61 30 64 31 78 32 97 33
REMARK SMILES IDX 62 34 63 35 77 37 98 38 65 39 49 40 50 41 58 42 51 43 53 44
REMARK SMILES IDX 59 45 52 46 54 47 55 48 56 49 57 50 81 51 82 52 90 53 83 54
REMARK SMILES IDX 85 55 91 56 84 57 86 58 87 59 88 60 89 61 66 62 67 63 75 64
REMARK SMILES IDX 68 65 70 66 76 67 69 68 71 69 72 70 73 71 74 72 8 73 9 74
REMARK SMILES IDX 10 75 11 76 12 77 13 78 14 79 15 80 16 81 29 82 17 83 18 84
REMARK SMILES IDX 30 85 31 86 39 87 32 88 38 89 33 90 37 91 34 92 36 93 35 94
REMARK SMILES IDX 19 95 20 96 28 97 21 98 23 99 22 100 24 101 25 102 26 103
REMARK SMILES IDX 27 104
REMARK H PARENT 96 25 64 36
REMARK Flexibility Score: inf
ROOT
ATOM      1  C   UNL A   1      32.375  29.973  26.734  1.00  0.00     0.188 C 
ENDROOT
BRANCH   1   2
ATOM      2  O   UNL A   1      33.489  30.853  26.811  1.00  0.00    -0.376 OA
BRANCH   2   3
ATOM      3  C   UNL A   1      34.533  30.430  27.675  1.00  0.00     0.202 C 
BRANCH   3   4
ATOM      4  C   UNL A   1      35.437  31.561  28.176  1.00  0.00     0.261 C 
BRANCH   4   5
ATOM      5  O   UNL A   1      35.411  31.806  29.593  1.00  0.00    -0.460 OA
BRANCH   5   6
ATOM      6  C   UNL A   1      36.115  31.305  30.625  1.00  0.00     0.338 C 
ATOM      7  O   UNL A   1      35.823  31.665  31.765  1.00  0.00    -0.246 OA
BRANCH   6   8
ATOM      8  C   UNL A   1      37.309  30.436  30.459  1.00  0.00     0.060 A 
ATOM      9  C   UNL A   1      37.308  29.046  30.556  1.00  0.00     0.016 A 
ATOM     10  C   UNL A   1      38.534  31.107  30.260  1.00  0.00     0.016 A 
ATOM     11  C   UNL A   1      38.503  28.343  30.541  1.00  0.00     0.010 A 
ATOM     12  C   UNL A   1      39.733  30.411  30.262  1.00  0.00     0.010 A 
ATOM     13  C   UNL A   1      39.709  29.036  30.465  1.00  0.00    -0.014 A 
BRANCH  13  14
ATOM     14  C   UNL A   1      40.927  28.266  30.662  1.00  0.00     0.031 A 
ATOM     15  C   UNL A   1      41.519  28.311  32.020  1.00  0.00     0.074 A 
ATOM     16  C   UNL A   1      41.447  27.519  29.667  1.00  0.00     0.049 A 
ATOM     17  N   UNL A   1      42.685  28.752  32.367  1.00  0.00    -0.248 NA
ATOM     18  C   UNL A   1      40.667  27.905  33.146  1.00  0.00     0.031 C 
ATOM     19  C   UNL A   1      40.808  27.193  28.387  1.00  0.00     0.029 A 
ATOM     20  N   UNL A   1      42.588  26.771  29.649  1.00  0.00    -0.354 N 
ATOM     21  C   UNL A   1      42.806  28.443  33.721  1.00  0.00     0.074 A 
ATOM     22  C   UNL A   1      41.486  28.097  34.179  1.00  0.00     0.031 C 
ATOM     23  C   UNL A   1      41.431  26.126  27.847  1.00  0.00     0.029 A 
ATOM     24  C   UNL A   1      42.575  25.783  28.671  1.00  0.00     0.049 A 
ATOM     25  H   UNL A   1      43.342  26.916  30.265  1.00  0.00     0.167 HD
ATOM     26  C   UNL A   1      44.023  28.230  34.295  1.00  0.00     0.034 A 
ATOM     27  C   UNL A   1      43.386  24.701  28.599  1.00  0.00     0.034 A 
ATOM     28  C   UNL A   1      45.092  28.813  33.524  1.00  0.00     0.049 A 
ATOM     29  C   UNL A   1      44.584  24.975  29.419  1.00  0.00     0.074 A 
ATOM     30  C   UNL A   1      45.393  30.073  33.050  1.00  0.00     0.029 A 
ATOM     31  N   UNL A   1      45.927  27.951  32.857  1.00  0.00    -0.354 N 
ATOM     32  N   UNL A   1      45.500  25.848  29.106  1.00  0.00    -0.248 NA
ATOM     33  C   UNL A   1      44.602  24.518  30.799  1.00  0.00     0.031 C 
ATOM     34  C   UNL A   1      46.068  29.857  31.813  1.00  0.00     0.029 A 
ATOM     35  C   UNL A   1      46.165  28.477  31.619  1.00  0.00     0.049 A 
ATOM     36  H   UNL A   1      46.291  27.107  33.209  1.00  0.00     0.167 HD
ATOM     37  C   UNL A   1      45.908  26.376  30.323  1.00  0.00     0.074 A 
ATOM     38  C   UNL A   1      45.435  25.423  31.322  1.00  0.00     0.031 C 
ATOM     39  C   UNL A   1      46.322  27.674  30.425  1.00  0.00     0.034 A 
BRANCH  26  40
ATOM     40  C   UNL A   1      44.297  27.160  35.336  1.00  0.00     0.023 A 
ATOM     41  C   UNL A   1      43.722  25.886  35.123  1.00  0.00     0.012 A 
ATOM     42  C   UNL A   1      44.813  27.415  36.628  1.00  0.00     0.148 A 
ATOM     43  C   UNL A   1      43.589  24.954  36.159  1.00  0.00     0.002 A 
ATOM     44  C   UNL A   1      44.756  26.453  37.631  1.00  0.00     0.091 A 
ATOM     45  F   UNL A   1      45.244  28.635  36.956  1.00  0.00    -0.205 F 
ATOM     46  C   UNL A   1      44.110  25.237  37.415  1.00  0.00     0.022 A 
BRANCH  44  47
ATOM     47  S   UNL A   1      45.478  26.753  39.249  1.00  0.00     0.127 S 
ATOM     48  O   UNL A   1      45.267  25.466  39.904  1.00  0.00    -0.237 OA
ATOM     49  O   UNL A   1      46.869  27.056  38.905  1.00  0.00    -0.237 OA
ATOM     50  O   UNL A   1      44.742  27.887  39.792  1.00  0.00    -0.744 OA
ENDBRANCH  44  47
ENDBRANCH  26  40
BRANCH  27  51
ATOM     51  C   UNL A   1      43.102  23.360  28.041  1.00  0.00     0.023 A 
ATOM     52  C   UNL A   1      41.933  22.679  28.431  1.00  0.00     0.012 A 
ATOM     53  C   UNL A   1      43.837  22.847  26.947  1.00  0.00     0.148 A 
ATOM     54  C   UNL A   1      41.498  21.541  27.741  1.00  0.00     0.002 A 
ATOM     55  C   UNL A   1      43.414  21.704  26.279  1.00  0.00     0.091 A 
ATOM     56  F   UNL A   1      44.899  23.532  26.500  1.00  0.00    -0.205 F 
ATOM     57  C   UNL A   1      42.235  21.055  26.665  1.00  0.00     0.022 A 
BRANCH  55  58
ATOM     58  S   UNL A   1      44.327  21.023  24.888  1.00  0.00     0.127 S 
ATOM     59  O   UNL A   1      43.592  19.786  24.615  1.00  0.00    -0.237 OA
ATOM     60  O   UNL A   1      44.166  22.065  23.879  1.00  0.00    -0.237 OA
ATOM     61  O   UNL A   1      45.684  20.810  25.377  1.00  0.00    -0.744 OA
ENDBRANCH  55  58
ENDBRANCH  27  51
BRANCH  39  62
ATOM     62  C   UNL A   1      46.662  28.421  29.161  1.00  0.00     0.023 A 
ATOM     63  C   UNL A   1      45.682  29.097  28.404  1.00  0.00     0.012 A 
ATOM     64  C   UNL A   1      48.017  28.593  28.822  1.00  0.00     0.148 A 
ATOM     65  C   UNL A   1      46.041  29.895  27.315  1.00  0.00     0.002 A 
ATOM     66  C   UNL A   1      48.373  29.428  27.770  1.00  0.00     0.091 A 
ATOM     67  F   UNL A   1      48.943  27.950  29.551  1.00  0.00    -0.205 F 
ATOM     68  C   UNL A   1      47.388  30.072  27.006  1.00  0.00     0.022 A 
BRANCH  66  69
ATOM     69  S   UNL A   1      50.094  29.805  27.422  1.00  0.00     0.127 S 
ATOM     70  O   UNL A   1      50.632  28.494  27.069  1.00  0.00    -0.237 OA
ATOM     71  O   UNL A   1      49.996  30.747  26.306  1.00  0.00    -0.237 OA
ATOM     72  O   UNL A   1      50.620  30.398  28.646  1.00  0.00    -0.744 OA
ENDBRANCH  66  69
ENDBRANCH  39  62
ENDBRANCH  13  14
ENDBRANCH   6   8
ENDBRANCH   5   6
ENDBRANCH   4   5
ENDBRANCH   3   4
ENDBRANCH   2   3
ENDBRANCH   1   2
BRANCH   1  73
ATOM     73  C   UNL A   1      32.082  29.382  25.333  1.00  0.00     0.188 C 
BRANCH  73  74
ATOM     74  O   UNL A   1      30.951  28.562  25.057  1.00  0.00    -0.376 OA
BRANCH  74  75
ATOM     75  C   UNL A   1      31.052  27.152  25.059  1.00  0.00     0.202 C 
BRANCH  75  76
ATOM     76  C   UNL A   1      30.857  26.449  26.402  1.00  0.00     0.261 C 
BRANCH  76  77
ATOM     77  O   UNL A   1      31.822  25.433  26.689  1.00  0.00    -0.458 OA
BRANCH  77  78
ATOM     78  C   UNL A   1      31.338  24.165  26.813  1.00  0.00     0.361 C 
ATOM     79  O   UNL A   1      30.143  23.864  26.857  1.00  0.00    -0.244 OA
BRANCH  78  80
ATOM     80  C   UNL A   1      32.400  23.185  26.906  1.00  0.00     0.198 A 
ATOM     81  N   UNL A   1      32.670  22.440  28.028  1.00  0.00    -0.122 NA
ATOM     82  C   UNL A   1      33.302  22.841  25.914  1.00  0.00     0.123 A 
ATOM     83  N   UNL A   1      33.719  21.664  27.769  1.00  0.00    -0.061 NA
ATOM     84  N   UNL A   1      34.201  22.027  26.568  1.00  0.00    -0.213 N 
BRANCH  82  85
ATOM     85  C   UNL A   1      33.411  23.214  24.476  1.00  0.00     0.262 C 
ATOM     86  C   UNL A   1      32.050  23.128  23.774  1.00  0.00     0.281 C 
ATOM     87  O   UNL A   1      33.968  24.529  24.467  1.00  0.00    -0.477 OA
ATOM     88  O   UNL A   1      32.151  23.598  22.423  1.00  0.00    -0.485 OA
ATOM     89  C   UNL A   1      33.557  25.302  23.422  1.00  0.00     0.162 A 
ATOM     90  C   UNL A   1      32.699  24.854  22.419  1.00  0.00     0.161 A 
ATOM     91  C   UNL A   1      34.028  26.612  23.414  1.00  0.00     0.050 A 
ATOM     92  C   UNL A   1      32.357  25.701  21.370  1.00  0.00     0.050 A 
ATOM     93  C   UNL A   1      33.645  27.478  22.393  1.00  0.00     0.004 A 
ATOM     94  C   UNL A   1      32.821  27.018  21.364  1.00  0.00     0.004 A 
ENDBRANCH  82  85
BRANCH  84  95
ATOM     95  C   UNL A   1      35.546  21.843  26.212  1.00  0.00     0.067 A 
ATOM     96  C   UNL A   1      35.929  20.812  25.362  1.00  0.00     0.028 A 
ATOM     97  C   UNL A   1      36.463  22.811  26.645  1.00  0.00     0.041 A 
ATOM     98  C   UNL A   1      37.234  20.819  24.863  1.00  0.00     0.003 A 
ATOM     99  C   UNL A   1      37.769  22.818  26.156  1.00  0.00     0.058 A 
ATOM    100  C   UNL A   1      38.140  21.821  25.243  1.00  0.00     0.013 A 
BRANCH  99 101
ATOM    101  C   UNL A   1      38.718  23.917  26.563  1.00  0.00     0.416 C 
ATOM    102  F   UNL A   1      38.290  25.155  26.203  1.00  0.00    -0.166 F 
ATOM    103  F   UNL A   1      38.907  23.958  27.912  1.00  0.00    -0.166 F 
ATOM    104  F   UNL A   1      39.964  23.781  26.025  1.00  0.00    -0.166 F 
ENDBRANCH  99 101
ENDBRANCH  84  95
ENDBRANCH  78  80
ENDBRANCH  77  78
ENDBRANCH  76  77
ENDBRANCH  75  76
ENDBRANCH  74  75
ENDBRANCH  73  74
ENDBRANCH   1  73
TORSDOF 23
ENDMDL
MODEL 3
REMARK VINA RESULT:     -10.5      3.666      8.933
REMARK SMILES O=C(OCCOCCOCCOC(=O)c1nnn(-c2cccc(C(F)(F)F)c2)c1[C@H]1COc2ccccc2O1)c1ccc(-c2c3nc(c(-c4cccc(S(=O)(=O)[O-])c4F)c4ccc([nH]4)c(-c4cccc(S(=O)(=O)[O-])c4F)c4nc(c(-c5cccc(S(=O)(=O)[O-])c5F)c5ccc2[nH]5)C=C4)C=C3)cc1
REMARK SMILES IDX 7 1 6 2 5 3 4 4 3 5 2 6 1 7 40 8 41 9 102 10 42 11 101 12
REMARK SMILES IDX 43 13 44 14 45 15 95 16 46 17 100 18 94 19 96 20 47 21 99 22
REMARK SMILES IDX 93 23 92 24 48 26 80 27 60 28 79 29 61 30 64 31 78 32 97 33
REMARK SMILES IDX 62 34 63 35 77 37 98 38 65 39 49 40 50 41 58 42 51 43 53 44
REMARK SMILES IDX 59 45 52 46 54 47 55 48 56 49 57 50 81 51 82 52 90 53 83 54
REMARK SMILES IDX 85 55 91 56 84 57 86 58 87 59 88 60 89 61 66 62 67 63 75 64
REMARK SMILES IDX 68 65 70 66 76 67 69 68 71 69 72 70 73 71 74 72 8 73 9 74
REMARK SMILES IDX 10 75 11 76 12 77 13 78 14 79 15 80 16 81 29 82 17 83 18 84
REMARK SMILES IDX 30 85 31 86 39 87 32 88 38 89 33 90 37 91 34 92 36 93 35 94
REMARK SMILES IDX 19 95 20 96 28 97 21 98 23 99 22 100 24 101 25 102 26 103
REMARK SMILES IDX 27 104
REMARK H PARENT 96 25 64 36
REMARK Flexibility Score: inf
ROOT
ATOM      1  C   UNL A   1      32.424  30.414  26.922  1.00  0.00     0.188 C 
ENDROOT
BRANCH   1   2
ATOM      2  O   UNL A   1      33.566  31.254  27.031  1.00  0.00    -0.376 OA
BRANCH   2   3
ATOM      3  C   UNL A   1      34.503  30.873  28.026  1.00  0.00     0.202 C 
BRANCH   3   4
ATOM      4  C   UNL A   1      35.155  32.047  28.765  1.00  0.00     0.261 C 
BRANCH   4   5
ATOM      5  O   UNL A   1      35.070  32.012  30.200  1.00  0.00    -0.460 OA
BRANCH   5   6
ATOM      6  C   UNL A   1      35.880  31.523  31.156  1.00  0.00     0.338 C 
ATOM      7  O   UNL A   1      35.634  31.794  32.331  1.00  0.00    -0.246 OA
BRANCH   6   8
ATOM      8  C   UNL A   1      37.132  30.775  30.868  1.00  0.00     0.060 A 
ATOM      9  C   UNL A   1      37.210  29.404  30.631  1.00  0.00     0.016 A 
ATOM     10  C   UNL A   1      38.323  31.530  30.916  1.00  0.00     0.016 A 
ATOM     11  C   UNL A   1      38.444  28.781  30.529  1.00  0.00     0.010 A 
ATOM     12  C   UNL A   1      39.560  30.909  30.832  1.00  0.00     0.010 A 
ATOM     13  C   UNL A   1      39.609  29.526  30.700  1.00  0.00    -0.014 A 
BRANCH  13  14
ATOM     14  C   UNL A   1      40.858  28.788  30.788  1.00  0.00     0.031 A 
ATOM     15  C   UNL A   1      41.448  28.657  32.141  1.00  0.00     0.074 A 
ATOM     16  C   UNL A   1      41.409  28.219  29.697  1.00  0.00     0.049 A 
ATOM     17  N   UNL A   1      42.595  29.092  32.556  1.00  0.00    -0.248 NA
ATOM     18  C   UNL A   1      40.615  28.054  33.190  1.00  0.00     0.031 C 
ATOM     19  C   UNL A   1      40.784  28.058  28.380  1.00  0.00     0.029 A 
ATOM     20  N   UNL A   1      42.582  27.531  29.575  1.00  0.00    -0.354 N 
ATOM     21  C   UNL A   1      42.730  28.592  33.851  1.00  0.00     0.074 A 
ATOM     22  C   UNL A   1      41.426  28.126  34.245  1.00  0.00     0.031 C 
ATOM     23  C   UNL A   1      41.452  27.110  27.691  1.00  0.00     0.029 A 
ATOM     24  C   UNL A   1      42.610  26.698  28.463  1.00  0.00     0.049 A 
ATOM     25  H   UNL A   1      43.329  27.616  30.210  1.00  0.00     0.167 HD
ATOM     26  C   UNL A   1      43.955  28.348  34.394  1.00  0.00     0.034 A 
ATOM     27  C   UNL A   1      43.466  25.674  28.236  1.00  0.00     0.034 A 
ATOM     28  C   UNL A   1      44.998  29.083  33.723  1.00  0.00     0.049 A 
ATOM     29  C   UNL A   1      44.653  25.875  29.095  1.00  0.00     0.074 A 
ATOM     30  C   UNL A   1      45.244  30.411  33.442  1.00  0.00     0.029 A 
ATOM     31  N   UNL A   1      45.869  28.366  32.941  1.00  0.00    -0.354 N 
ATOM     32  N   UNL A   1      45.530  26.823  28.918  1.00  0.00    -0.248 NA
ATOM     33  C   UNL A   1      44.691  25.221  30.392  1.00  0.00     0.031 C 
ATOM     34  C   UNL A   1      45.927  30.409  32.190  1.00  0.00     0.029 A 
ATOM     35  C   UNL A   1      46.083  29.078  31.796  1.00  0.00     0.049 A 
ATOM     36  H   UNL A   1      46.269  27.495  33.167  1.00  0.00     0.167 HD
ATOM     37  C   UNL A   1      45.915  27.182  30.203  1.00  0.00     0.074 A 
ATOM     38  C   UNL A   1      45.484  26.073  31.047  1.00  0.00     0.031 C 
ATOM     39  C   UNL A   1      46.273  28.468  30.498  1.00  0.00     0.034 A 
BRANCH  26  40
ATOM     40  C   UNL A   1      44.275  27.149  35.267  1.00  0.00     0.023 A 
ATOM     41  C   UNL A   1      44.960  27.395  36.481  1.00  0.00     0.012 A 
ATOM     42  C   UNL A   1      44.220  25.805  34.832  1.00  0.00     0.148 A 
ATOM     43  C   UNL A   1      45.624  26.376  37.172  1.00  0.00     0.002 A 
ATOM     44  C   UNL A   1      44.809  24.783  35.568  1.00  0.00     0.091 A 
ATOM     45  F   UNL A   1      43.718  25.502  33.632  1.00  0.00    -0.205 F 
ATOM     46  C   UNL A   1      45.547  25.067  36.717  1.00  0.00     0.022 A 
BRANCH  44  47
ATOM     47  S   UNL A   1      44.673  23.067  35.051  1.00  0.00     0.127 S 
ATOM     48  O   UNL A   1      45.537  23.048  33.876  1.00  0.00    -0.237 OA
ATOM     49  O   UNL A   1      45.197  22.359  36.220  1.00  0.00    -0.237 OA
ATOM     50  O   UNL A   1      43.251  22.850  34.817  1.00  0.00    -0.744 OA
ENDBRANCH  44  47
ENDBRANCH  26  40
BRANCH  27  51
ATOM     51  C   UNL A   1      43.240  24.419  27.484  1.00  0.00     0.023 A 
ATOM     52  C   UNL A   1      41.998  23.763  27.588  1.00  0.00     0.012 A 
ATOM     53  C   UNL A   1      44.137  23.992  26.479  1.00  0.00     0.148 A 
ATOM     54  C   UNL A   1      41.653  22.732  26.706  1.00  0.00     0.002 A 
ATOM     55  C   UNL A   1      43.799  22.953  25.619  1.00  0.00     0.091 A 
ATOM     56  F   UNL A   1      45.283  24.664  26.302  1.00  0.00    -0.205 F 
ATOM     57  C   UNL A   1      42.550  22.328  25.721  1.00  0.00     0.022 A 
BRANCH  55  58
ATOM     58  S   UNL A   1      44.919  22.380  24.334  1.00  0.00     0.127 S 
ATOM     59  O   UNL A   1      45.218  21.015  24.774  1.00  0.00    -0.237 OA
ATOM     60  O   UNL A   1      44.082  22.467  23.141  1.00  0.00    -0.237 OA
ATOM     61  O   UNL A   1      46.063  23.282  24.381  1.00  0.00    -0.744 OA
ENDBRANCH  55  58
ENDBRANCH  27  51
BRANCH  39  62
ATOM     62  C   UNL A   1      46.580  29.407  29.359  1.00  0.00     0.023 A 
ATOM     63  C   UNL A   1      47.792  29.342  28.641  1.00  0.00     0.012 A 
ATOM     64  C   UNL A   1      45.561  30.257  28.892  1.00  0.00     0.148 A 
ATOM     65  C   UNL A   1      47.996  30.129  27.505  1.00  0.00     0.002 A 
ATOM     66  C   UNL A   1      45.748  31.000  27.733  1.00  0.00     0.091 A 
ATOM     67  F   UNL A   1      44.409  30.308  29.579  1.00  0.00    -0.205 F 
ATOM     68  C   UNL A   1      46.968  30.949  27.042  1.00  0.00     0.022 A 
BRANCH  66  69
ATOM     69  S   UNL A   1      44.410  31.958  27.014  1.00  0.00     0.127 S 
ATOM     70  O   UNL A   1      43.806  31.000  26.090  1.00  0.00    -0.237 OA
ATOM     71  O   UNL A   1      43.588  32.284  28.180  1.00  0.00    -0.237 OA
ATOM     72  O   UNL A   1      45.045  33.117  26.399  1.00  0.00    -0.744 OA
ENDBRANCH  66  69
ENDBRANCH  39  62
ENDBRANCH  13  14
ENDBRANCH   6   8
ENDBRANCH   5   6
ENDBRANCH   4   5
ENDBRANCH   3   4
ENDBRANCH   2   3
ENDBRANCH   1   2
BRANCH   1  73
ATOM     73  C   UNL A   1      32.129  29.861  25.507  1.00  0.00     0.188 C 
BRANCH  73  74
ATOM     74  O   UNL A   1      30.971  29.091  25.200  1.00  0.00    -0.376 OA
BRANCH  74  75
ATOM     75  C   UNL A   1      31.015  27.678  25.185  1.00  0.00     0.202 C 
BRANCH  75  76
ATOM     76  C   UNL A   1      30.963  26.972  26.539  1.00  0.00     0.261 C 
BRANCH  76  77
ATOM     77  O   UNL A   1      31.937  25.939  26.711  1.00  0.00    -0.458 OA
BRANCH  77  78
ATOM     78  C   UNL A   1      31.457  24.664  26.746  1.00  0.00     0.361 C 
ATOM     79  O   UNL A   1      30.263  24.357  26.784  1.00  0.00    -0.244 OA
BRANCH  78  80
ATOM     80  C   UNL A   1      32.521  23.682  26.751  1.00  0.00     0.198 A 
ATOM     81  N   UNL A   1      32.763  22.808  27.783  1.00  0.00    -0.122 NA
ATOM     82  C   UNL A   1      33.453  23.461  25.752  1.00  0.00     0.123 A 
ATOM     83  N   UNL A   1      33.824  22.071  27.464  1.00  0.00    -0.061 NA
ATOM     84  N   UNL A   1      34.338  22.578  26.329  1.00  0.00    -0.213 N 
BRANCH  82  85
ATOM     85  C   UNL A   1      33.600  24.005  24.373  1.00  0.00     0.262 C 
ATOM     86  C   UNL A   1      32.256  24.023  23.635  1.00  0.00     0.281 C 
ATOM     87  O   UNL A   1      34.172  25.304  24.537  1.00  0.00    -0.477 OA
ATOM     88  O   UNL A   1      32.395  24.653  22.353  1.00  0.00    -0.485 OA
ATOM     89  C   UNL A   1      33.795  26.203  23.584  1.00  0.00     0.162 A 
ATOM     90  C   UNL A   1      32.956  25.892  22.515  1.00  0.00     0.161 A 
ATOM     91  C   UNL A   1      34.280  27.498  23.746  1.00  0.00     0.050 A 
ATOM     92  C   UNL A   1      32.648  26.864  21.569  1.00  0.00     0.050 A 
ATOM     93  C   UNL A   1      33.931  28.486  22.830  1.00  0.00     0.004 A 
ATOM     94  C   UNL A   1      33.126  28.166  21.734  1.00  0.00     0.004 A 
ENDBRANCH  82  85
BRANCH  84  95
ATOM     95  C   UNL A   1      35.694  22.441  25.993  1.00  0.00     0.067 A 
ATOM     96  C   UNL A   1      36.599  23.470  26.226  1.00  0.00     0.028 A 
ATOM     97  C   UNL A   1      36.117  21.187  25.530  1.00  0.00     0.041 A 
ATOM     98  C   UNL A   1      37.961  23.193  26.087  1.00  0.00     0.003 A 
ATOM     99  C   UNL A   1      37.475  20.908  25.383  1.00  0.00     0.058 A 
ATOM    100  C   UNL A   1      38.396  21.921  25.686  1.00  0.00     0.013 A 
BRANCH  99 101
ATOM    101  C   UNL A   1      37.918  19.527  24.970  1.00  0.00     0.416 C 
ATOM    102  F   UNL A   1      39.005  19.086  25.656  1.00  0.00    -0.166 F 
ATOM    103  F   UNL A   1      36.943  18.596  25.164  1.00  0.00    -0.166 F 
ATOM    104  F   UNL A   1      38.249  19.439  23.649  1.00  0.00    -0.166 F 
ENDBRANCH  99 101
ENDBRANCH  84  95
ENDBRANCH  78  80
ENDBRANCH  77  78
ENDBRANCH  76  77
ENDBRANCH  75  76
ENDBRANCH  74  75
ENDBRANCH  73  74
ENDBRANCH   1  73
TORSDOF 23
ENDMDL
