MODEL 1
REMARK VINA RESULT:      -9.8      0.000      0.000
REMARK SMILES Cc1nc(CNC(=O)[C@H]2CCO[C@H]2C)sc1C(=O)OCCOCCOCCOC(=O)c1ccc(-c2c3nc(c(-c4cccc(S(=O)(=O)[O-])c4F)c4ccc([nH]4)c(-c4cccc(S(=O)(=O)[O-])c4F)c4nc(c(-c5cccc(S(=O)(=O)[O-])c5F)c5ccc2[nH]5)C=C4)C=C3)cc1
REMARK SMILES IDX 23 1 22 2 21 3 20 4 19 5 17 6 18 7 16 8 1 9 2 10 3 11 4 12
REMARK SMILES IDX 15 13 5 14 6 15 7 16 8 18 9 19 10 20 13 21 11 22 12 23 14 24
REMARK SMILES IDX 24 25 25 26 26 27 27 28 28 29 29 30 30 31 31 32 32 33 93 34
REMARK SMILES IDX 33 35 92 36 34 37 35 38 36 39 86 40 37 41 91 42 85 43 87 44
REMARK SMILES IDX 38 45 90 46 84 47 83 48 39 50 71 51 51 52 70 53 52 54 55 55
REMARK SMILES IDX 69 56 88 57 53 58 54 59 68 61 89 62 56 63 40 64 41 65 49 66
REMARK SMILES IDX 42 67 44 68 50 69 43 70 45 71 46 72 47 73 48 74 72 75 73 76
REMARK SMILES IDX 81 77 74 78 76 79 82 80 75 81 77 82 78 83 79 84 80 85 57 86
REMARK SMILES IDX 58 87 66 88 59 89 61 90 67 91 60 92 62 93 63 94 64 95 65 96
REMARK H PARENT 6 17 87 49 55 60
REMARK Flexibility Score: inf
ROOT
ATOM      1  C   UNL A   1      31.400  29.276  25.308  1.00  0.00     0.188 C 
ENDROOT
BRANCH   1   2
ATOM      2  O   UNL A   1      30.518  28.618  24.405  1.00  0.00    -0.376 OA
BRANCH   2   3
ATOM      3  C   UNL A   1      30.807  28.643  23.011  1.00  0.00     0.202 C 
BRANCH   3   4
ATOM      4  C   UNL A   1      31.013  27.289  22.327  1.00  0.00     0.261 C 
BRANCH   4   5
ATOM      5  O   UNL A   1      31.532  26.302  23.236  1.00  0.00    -0.459 OA
BRANCH   5   6
ATOM      6  C   UNL A   1      32.818  25.910  23.006  1.00  0.00     0.350 C 
ATOM      7  O   UNL A   1      33.725  26.674  22.694  1.00  0.00    -0.245 OA
BRANCH   6   8
ATOM      8  C   UNL A   1      32.972  24.501  23.288  1.00  0.00     0.135 A 
ATOM      9  C   UNL A   1      33.182  23.346  20.982  1.00  0.00     0.068 C 
ATOM     10  C   UNL A   1      33.091  23.389  22.467  1.00  0.00     0.063 A 
ATOM     11  N   UNL A   1      33.161  22.174  23.144  1.00  0.00    -0.244 NA
ATOM     12  C   UNL A   1      33.103  22.360  24.446  1.00  0.00     0.113 A 
ATOM     13  S   UNL A   1      32.998  24.003  24.933  1.00  0.00    -0.110 S 
BRANCH  12  14
ATOM     14  C   UNL A   1      33.158  21.293  25.504  1.00  0.00     0.183 C 
BRANCH  14  15
ATOM     15  N   UNL A   1      34.471  20.669  25.560  1.00  0.00    -0.349 N 
ATOM     16  C   UNL A   1      34.926  19.546  24.938  1.00  0.00     0.226 C 
ATOM     17  H   UNL A   1      35.128  21.126  26.133  1.00  0.00     0.163 HD
ATOM     18  O   UNL A   1      36.111  19.239  25.066  1.00  0.00    -0.275 OA
BRANCH  16  19
ATOM     19  C   UNL A   1      33.963  18.715  24.117  1.00  0.00     0.109 C 
ATOM     20  C   UNL A   1      34.501  17.358  23.704  1.00  0.00     0.044 C 
ATOM     21  C   UNL A   1      32.687  18.329  24.860  1.00  0.00     0.127 C 
ATOM     22  C   UNL A   1      33.231  16.610  23.366  1.00  0.00     0.161 C 
ATOM     23  O   UNL A   1      32.188  17.148  24.191  1.00  0.00    -0.378 OA
ATOM     24  C   UNL A   1      32.864  17.966  26.333  1.00  0.00     0.039 C 
ENDBRANCH  16  19
ENDBRANCH  14  15
ENDBRANCH  12  14
ENDBRANCH   6   8
ENDBRANCH   5   6
ENDBRANCH   4   5
ENDBRANCH   3   4
ENDBRANCH   2   3
ENDBRANCH   1   2
BRANCH   1  25
ATOM     25  C   UNL A   1      31.315  30.809  25.440  1.00  0.00     0.188 C 
BRANCH  25  26
ATOM     26  O   UNL A   1      31.979  31.337  26.579  1.00  0.00    -0.376 OA
BRANCH  26  27
ATOM     27  C   UNL A   1      31.662  32.683  26.910  1.00  0.00     0.202 C 
BRANCH  27  28
ATOM     28  C   UNL A   1      32.798  33.459  27.586  1.00  0.00     0.261 C 
BRANCH  28  29
ATOM     29  O   UNL A   1      32.379  34.440  28.547  1.00  0.00    -0.460 OA
BRANCH  29  30
ATOM     30  C   UNL A   1      33.309  35.329  28.965  1.00  0.00     0.338 C 
ATOM     31  O   UNL A   1      33.206  36.541  28.989  1.00  0.00    -0.246 OA
BRANCH  30  32
ATOM     32  C   UNL A   1      34.423  34.563  29.561  1.00  0.00     0.060 A 
ATOM     33  C   UNL A   1      34.180  33.778  30.695  1.00  0.00     0.016 A 
ATOM     34  C   UNL A   1      35.700  34.617  28.996  1.00  0.00     0.016 A 
ATOM     35  C   UNL A   1      35.227  33.061  31.280  1.00  0.00     0.010 A 
ATOM     36  C   UNL A   1      36.747  33.911  29.592  1.00  0.00     0.010 A 
ATOM     37  C   UNL A   1      36.522  33.148  30.751  1.00  0.00    -0.014 A 
BRANCH  37  38
ATOM     38  C   UNL A   1      37.674  32.571  31.485  1.00  0.00     0.031 A 
ATOM     39  C   UNL A   1      38.401  31.400  30.881  1.00  0.00     0.074 A 
ATOM     40  C   UNL A   1      38.048  33.050  32.685  1.00  0.00     0.049 A 
ATOM     41  N   UNL A   1      39.412  30.720  31.353  1.00  0.00    -0.248 NA
ATOM     42  C   UNL A   1      37.921  30.934  29.569  1.00  0.00     0.031 C 
ATOM     43  C   UNL A   1      37.414  34.164  33.387  1.00  0.00     0.029 A 
ATOM     44  N   UNL A   1      39.039  32.633  33.540  1.00  0.00    -0.354 N 
ATOM     45  C   UNL A   1      39.681  29.738  30.409  1.00  0.00     0.074 A 
ATOM     46  C   UNL A   1      38.718  29.900  29.341  1.00  0.00     0.031 C 
ATOM     47  C   UNL A   1      38.010  34.321  34.583  1.00  0.00     0.029 A 
ATOM     48  C   UNL A   1      39.057  33.311  34.737  1.00  0.00     0.049 A 
ATOM     49  H   UNL A   1      39.677  31.916  33.317  1.00  0.00     0.167 HD
ATOM     50  C   UNL A   1      40.653  28.796  30.416  1.00  0.00     0.034 A 
ATOM     51  C   UNL A   1      39.820  33.126  35.833  1.00  0.00     0.034 A 
ATOM     52  C   UNL A   1      41.616  28.634  31.469  1.00  0.00     0.049 A 
ATOM     53  C   UNL A   1      40.881  32.055  35.826  1.00  0.00     0.074 A 
ATOM     54  C   UNL A   1      42.665  27.734  31.546  1.00  0.00     0.029 A 
ATOM     55  N   UNL A   1      41.640  29.377  32.639  1.00  0.00    -0.354 N 
ATOM     56  N   UNL A   1      41.218  31.231  34.863  1.00  0.00    -0.248 NA
ATOM     57  C   UNL A   1      41.693  31.912  37.045  1.00  0.00     0.031 C 
ATOM     58  C   UNL A   1      43.317  27.926  32.768  1.00  0.00     0.029 A 
ATOM     59  C   UNL A   1      42.682  28.955  33.447  1.00  0.00     0.049 A 
ATOM     60  H   UNL A   1      41.011  30.101  32.861  1.00  0.00     0.167 HD
ATOM     61  C   UNL A   1      42.297  30.497  35.346  1.00  0.00     0.074 A 
ATOM     62  C   UNL A   1      42.573  30.988  36.679  1.00  0.00     0.031 C 
ATOM     63  C   UNL A   1      42.986  29.494  34.746  1.00  0.00     0.034 A 
BRANCH  50  64
ATOM     64  C   UNL A   1      40.749  27.891  29.219  1.00  0.00     0.023 A 
ATOM     65  C   UNL A   1      39.938  26.740  29.161  1.00  0.00     0.012 A 
ATOM     66  C   UNL A   1      41.596  28.199  28.138  1.00  0.00     0.148 A 
ATOM     67  C   UNL A   1      39.986  25.894  28.054  1.00  0.00     0.002 A 
ATOM     68  C   UNL A   1      41.612  27.370  27.022  1.00  0.00     0.091 A 
ATOM     69  F   UNL A   1      42.380  29.283  28.226  1.00  0.00    -0.205 F 
ATOM     70  C   UNL A   1      40.814  26.214  26.981  1.00  0.00     0.022 A 
BRANCH  68  71
ATOM     71  S   UNL A   1      42.598  27.733  25.565  1.00  0.00     0.127 S 
ATOM     72  O   UNL A   1      42.355  26.550  24.742  1.00  0.00    -0.237 OA
ATOM     73  O   UNL A   1      41.975  28.960  25.067  1.00  0.00    -0.237 OA
ATOM     74  O   UNL A   1      43.965  27.898  26.040  1.00  0.00    -0.744 OA
ENDBRANCH  68  71
ENDBRANCH  50  64
BRANCH  51  75
ATOM     75  C   UNL A   1      39.638  34.003  37.024  1.00  0.00     0.023 A 
ATOM     76  C   UNL A   1      40.112  35.329  36.987  1.00  0.00     0.012 A 
ATOM     77  C   UNL A   1      38.997  33.536  38.188  1.00  0.00     0.148 A 
ATOM     78  C   UNL A   1      39.974  36.166  38.095  1.00  0.00     0.002 A 
ATOM     79  C   UNL A   1      38.817  34.391  39.270  1.00  0.00     0.091 A 
ATOM     80  F   UNL A   1      38.577  32.264  38.215  1.00  0.00    -0.205 F 
ATOM     81  C   UNL A   1      39.317  35.701  39.231  1.00  0.00     0.022 A 
BRANCH  79  82
ATOM     82  S   UNL A   1      37.879  33.909  40.725  1.00  0.00     0.127 S 
ATOM     83  O   UNL A   1      38.852  33.101  41.454  1.00  0.00    -0.237 OA
ATOM     84  O   UNL A   1      37.574  35.205  41.333  1.00  0.00    -0.237 OA
ATOM     85  O   UNL A   1      36.713  33.199  40.216  1.00  0.00    -0.744 OA
ENDBRANCH  79  82
ENDBRANCH  51  75
BRANCH  63  86
ATOM     86  C   UNL A   1      44.129  28.872  35.505  1.00  0.00     0.023 A 
ATOM     87  C   UNL A   1      45.407  29.464  35.448  1.00  0.00     0.012 A 
ATOM     88  C   UNL A   1      43.919  27.761  36.346  1.00  0.00     0.148 A 
ATOM     89  C   UNL A   1      46.463  28.944  36.196  1.00  0.00     0.002 A 
ATOM     90  C   UNL A   1      44.966  27.275  37.120  1.00  0.00     0.091 A 
ATOM     91  F   UNL A   1      42.702  27.199  36.372  1.00  0.00    -0.205 F 
ATOM     92  C   UNL A   1      46.240  27.859  37.040  1.00  0.00     0.022 A 
BRANCH  90  93
ATOM     93  S   UNL A   1      44.742  25.939  38.303  1.00  0.00     0.127 S 
ATOM     94  O   UNL A   1      46.123  25.547  38.576  1.00  0.00    -0.237 OA
ATOM     95  O   UNL A   1      44.068  26.612  39.414  1.00  0.00    -0.237 OA
ATOM     96  O   UNL A   1      43.927  24.941  37.623  1.00  0.00    -0.744 OA
ENDBRANCH  90  93
ENDBRANCH  63  86
ENDBRANCH  37  38
ENDBRANCH  30  32
ENDBRANCH  29  30
ENDBRANCH  28  29
ENDBRANCH  27  28
ENDBRANCH  26  27
ENDBRANCH  25  26
ENDBRANCH   1  25
TORSDOF 23
ENDMDL
MODEL 2
REMARK VINA RESULT:      -9.3      5.485      9.972
REMARK SMILES Cc1nc(CNC(=O)[C@H]2CCO[C@H]2C)sc1C(=O)OCCOCCOCCOC(=O)c1ccc(-c2c3nc(c(-c4cccc(S(=O)(=O)[O-])c4F)c4ccc([nH]4)c(-c4cccc(S(=O)(=O)[O-])c4F)c4nc(c(-c5cccc(S(=O)(=O)[O-])c5F)c5ccc2[nH]5)C=C4)C=C3)cc1
REMARK SMILES IDX 23 1 22 2 21 3 20 4 19 5 17 6 18 7 16 8 1 9 2 10 3 11 4 12
REMARK SMILES IDX 15 13 5 14 6 15 7 16 8 18 9 19 10 20 13 21 11 22 12 23 14 24
REMARK SMILES IDX 24 25 25 26 26 27 27 28 28 29 29 30 30 31 31 32 32 33 93 34
REMARK SMILES IDX 33 35 92 36 34 37 35 38 36 39 86 40 37 41 91 42 85 43 87 44
REMARK SMILES IDX 38 45 90 46 84 47 83 48 39 50 71 51 51 52 70 53 52 54 55 55
REMARK SMILES IDX 69 56 88 57 53 58 54 59 68 61 89 62 56 63 40 64 41 65 49 66
REMARK SMILES IDX 42 67 44 68 50 69 43 70 45 71 46 72 47 73 48 74 72 75 73 76
REMARK SMILES IDX 81 77 74 78 76 79 82 80 75 81 77 82 78 83 79 84 80 85 57 86
REMARK SMILES IDX 58 87 66 88 59 89 61 90 67 91 60 92 62 93 63 94 64 95 65 96
REMARK H PARENT 6 17 87 49 55 60
REMARK Flexibility Score: inf
ROOT
ATOM      1  C   UNL A   1      40.051  21.077  26.480  1.00  0.00     0.188 C 
ENDROOT
BRANCH   1   2
ATOM      2  O   UNL A   1      39.179  21.330  25.384  1.00  0.00    -0.376 OA
BRANCH   2   3
ATOM      3  C   UNL A   1      37.931  21.971  25.623  1.00  0.00     0.202 C 
BRANCH   3   4
ATOM      4  C   UNL A   1      36.935  21.995  24.462  1.00  0.00     0.261 C 
BRANCH   4   5
ATOM      5  O   UNL A   1      35.648  22.495  24.867  1.00  0.00    -0.459 OA
BRANCH   5   6
ATOM      6  C   UNL A   1      34.934  23.133  23.896  1.00  0.00     0.350 C 
ATOM      7  O   UNL A   1      35.337  23.316  22.753  1.00  0.00    -0.245 OA
BRANCH   6   8
ATOM      8  C   UNL A   1      33.610  23.458  24.378  1.00  0.00     0.135 A 
ATOM      9  C   UNL A   1      32.220  21.291  24.117  1.00  0.00     0.068 C 
ATOM     10  C   UNL A   1      32.435  22.725  24.453  1.00  0.00     0.063 A 
ATOM     11  N   UNL A   1      31.339  23.436  24.935  1.00  0.00    -0.244 NA
ATOM     12  C   UNL A   1      31.675  24.676  25.223  1.00  0.00     0.113 A 
ATOM     13  S   UNL A   1      33.332  25.049  24.968  1.00  0.00    -0.110 S 
BRANCH  12  14
ATOM     14  C   UNL A   1      30.769  25.742  25.775  1.00  0.00     0.183 C 
BRANCH  14  15
ATOM     15  N   UNL A   1      31.496  26.976  26.032  1.00  0.00    -0.349 N 
ATOM     16  C   UNL A   1      31.399  28.185  25.414  1.00  0.00     0.226 C 
ATOM     17  H   UNL A   1      32.156  26.929  26.760  1.00  0.00     0.163 HD
ATOM     18  O   UNL A   1      32.063  29.125  25.850  1.00  0.00    -0.275 OA
BRANCH  16  19
ATOM     19  C   UNL A   1      30.487  28.331  24.215  1.00  0.00     0.109 C 
ATOM     20  C   UNL A   1      30.132  29.764  23.868  1.00  0.00     0.044 C 
ATOM     21  C   UNL A   1      31.099  27.839  22.906  1.00  0.00     0.127 C 
ATOM     22  C   UNL A   1      29.669  29.633  22.435  1.00  0.00     0.161 C 
ATOM     23  O   UNL A   1      30.385  28.532  21.856  1.00  0.00    -0.378 OA
ATOM     24  C   UNL A   1      32.583  28.146  22.714  1.00  0.00     0.039 C 
ENDBRANCH  16  19
ENDBRANCH  14  15
ENDBRANCH  12  14
ENDBRANCH   6   8
ENDBRANCH   5   6
ENDBRANCH   4   5
ENDBRANCH   3   4
ENDBRANCH   2   3
ENDBRANCH   1   2
BRANCH   1  25
ATOM     25  C   UNL A   1      41.394  20.373  26.211  1.00  0.00     0.188 C 
BRANCH  25  26
ATOM     26  O   UNL A   1      42.507  20.962  26.867  1.00  0.00    -0.376 OA
BRANCH  26  27
ATOM     27  C   UNL A   1      43.308  21.825  26.070  1.00  0.00     0.202 C 
BRANCH  27  28
ATOM     28  C   UNL A   1      42.624  23.136  25.664  1.00  0.00     0.261 C 
BRANCH  28  29
ATOM     29  O   UNL A   1      43.308  23.894  24.654  1.00  0.00    -0.460 OA
BRANCH  29  30
ATOM     30  C   UNL A   1      44.487  24.460  25.001  1.00  0.00     0.338 C 
ATOM     31  O   UNL A   1      45.593  24.159  24.592  1.00  0.00    -0.246 OA
BRANCH  30  32
ATOM     32  C   UNL A   1      44.188  25.637  25.843  1.00  0.00     0.060 A 
ATOM     33  C   UNL A   1      43.667  26.790  25.241  1.00  0.00     0.016 A 
ATOM     34  C   UNL A   1      44.415  25.597  27.221  1.00  0.00     0.016 A 
ATOM     35  C   UNL A   1      43.394  27.917  26.020  1.00  0.00     0.010 A 
ATOM     36  C   UNL A   1      44.155  26.730  27.994  1.00  0.00     0.010 A 
ATOM     37  C   UNL A   1      43.667  27.904  27.396  1.00  0.00    -0.014 A 
BRANCH  37  38
ATOM     38  C   UNL A   1      43.587  29.155  28.188  1.00  0.00     0.031 A 
ATOM     39  C   UNL A   1      44.855  29.918  28.462  1.00  0.00     0.074 A 
ATOM     40  C   UNL A   1      42.417  29.590  28.690  1.00  0.00     0.049 A 
ATOM     41  N   UNL A   1      45.029  31.014  29.150  1.00  0.00    -0.248 NA
ATOM     42  C   UNL A   1      46.092  29.367  27.882  1.00  0.00     0.031 C 
ATOM     43  C   UNL A   1      41.124  28.931  28.516  1.00  0.00     0.029 A 
ATOM     44  N   UNL A   1      42.138  30.678  29.479  1.00  0.00    -0.354 N 
ATOM     45  C   UNL A   1      46.391  31.279  29.102  1.00  0.00     0.074 A 
ATOM     46  C   UNL A   1      47.003  30.220  28.328  1.00  0.00     0.031 C 
ATOM     47  C   UNL A   1      40.192  29.612  29.207  1.00  0.00     0.029 A 
ATOM     48  C   UNL A   1      40.825  30.744  29.885  1.00  0.00     0.049 A 
ATOM     49  H   UNL A   1      42.813  31.349  29.732  1.00  0.00     0.167 HD
ATOM     50  C   UNL A   1      47.074  32.319  29.636  1.00  0.00     0.034 A 
ATOM     51  C   UNL A   1      40.211  31.608  30.718  1.00  0.00     0.034 A 
ATOM     52  C   UNL A   1      46.473  33.377  30.398  1.00  0.00     0.049 A 
ATOM     53  C   UNL A   1      40.997  32.745  31.318  1.00  0.00     0.074 A 
ATOM     54  C   UNL A   1      47.078  34.495  30.945  1.00  0.00     0.029 A 
ATOM     55  N   UNL A   1      45.131  33.441  30.739  1.00  0.00    -0.354 N 
ATOM     56  N   UNL A   1      42.257  33.063  31.141  1.00  0.00    -0.248 NA
ATOM     57  C   UNL A   1      40.269  33.665  32.206  1.00  0.00     0.031 C 
ATOM     58  C   UNL A   1      46.102  35.231  31.626  1.00  0.00     0.029 A 
ATOM     59  C   UNL A   1      44.887  34.576  31.492  1.00  0.00     0.049 A 
ATOM     60  H   UNL A   1      44.450  32.778  30.481  1.00  0.00     0.167 HD
ATOM     61  C   UNL A   1      42.463  34.233  31.866  1.00  0.00     0.074 A 
ATOM     62  C   UNL A   1      41.194  34.581  32.468  1.00  0.00     0.031 C 
ATOM     63  C   UNL A   1      43.606  34.946  32.033  1.00  0.00     0.034 A 
BRANCH  50  64
ATOM     64  C   UNL A   1      48.553  32.385  29.370  1.00  0.00     0.023 A 
ATOM     65  C   UNL A   1      49.440  31.758  30.269  1.00  0.00     0.012 A 
ATOM     66  C   UNL A   1      49.061  33.016  28.220  1.00  0.00     0.148 A 
ATOM     67  C   UNL A   1      50.815  31.780  30.038  1.00  0.00     0.002 A 
ATOM     68  C   UNL A   1      50.430  33.004  27.978  1.00  0.00     0.091 A 
ATOM     69  F   UNL A   1      48.202  33.631  27.394  1.00  0.00    -0.205 F 
ATOM     70  C   UNL A   1      51.308  32.393  28.890  1.00  0.00     0.022 A 
BRANCH  68  71
ATOM     71  S   UNL A   1      51.154  33.711  26.494  1.00  0.00     0.127 S 
ATOM     72  O   UNL A   1      50.841  35.130  26.662  1.00  0.00    -0.237 OA
ATOM     73  O   UNL A   1      52.570  33.377  26.651  1.00  0.00    -0.237 OA
ATOM     74  O   UNL A   1      50.497  33.050  25.376  1.00  0.00    -0.744 OA
ENDBRANCH  68  71
ENDBRANCH  50  64
BRANCH  51  75
ATOM     75  C   UNL A   1      38.756  31.459  31.006  1.00  0.00     0.023 A 
ATOM     76  C   UNL A   1      38.339  30.599  32.041  1.00  0.00     0.012 A 
ATOM     77  C   UNL A   1      37.786  32.165  30.268  1.00  0.00     0.148 A 
ATOM     78  C   UNL A   1      36.983  30.426  32.319  1.00  0.00     0.002 A 
ATOM     79  C   UNL A   1      36.439  32.026  30.584  1.00  0.00     0.091 A 
ATOM     80  F   UNL A   1      38.200  32.958  29.270  1.00  0.00    -0.205 F 
ATOM     81  C   UNL A   1      36.034  31.147  31.599  1.00  0.00     0.022 A 
BRANCH  79  82
ATOM     82  S   UNL A   1      35.163  33.008  29.786  1.00  0.00     0.127 S 
ATOM     83  O   UNL A   1      34.086  32.956  30.770  1.00  0.00    -0.237 OA
ATOM     84  O   UNL A   1      35.817  34.310  29.656  1.00  0.00    -0.237 OA
ATOM     85  O   UNL A   1      34.899  32.342  28.517  1.00  0.00    -0.744 OA
ENDBRANCH  79  82
ENDBRANCH  51  75
BRANCH  63  86
ATOM     86  C   UNL A   1      43.541  36.194  32.875  1.00  0.00     0.023 A 
ATOM     87  C   UNL A   1      43.586  36.089  34.279  1.00  0.00     0.012 A 
ATOM     88  C   UNL A   1      43.527  37.469  32.276  1.00  0.00     0.148 A 
ATOM     89  C   UNL A   1      43.596  37.235  35.075  1.00  0.00     0.002 A 
ATOM     90  C   UNL A   1      43.579  38.606  33.074  1.00  0.00     0.091 A 
ATOM     91  F   UNL A   1      43.463  37.548  30.939  1.00  0.00    -0.205 F 
ATOM     92  C   UNL A   1      43.604  38.491  34.473  1.00  0.00     0.022 A 
BRANCH  90  93
ATOM     93  S   UNL A   1      43.686  40.260  32.378  1.00  0.00     0.127 S 
ATOM     94  O   UNL A   1      44.400  40.012  31.127  1.00  0.00    -0.237 OA
ATOM     95  O   UNL A   1      42.278  40.625  32.215  1.00  0.00    -0.237 OA
ATOM     96  O   UNL A   1      44.403  41.059  33.363  1.00  0.00    -0.744 OA
ENDBRANCH  90  93
ENDBRANCH  63  86
ENDBRANCH  37  38
ENDBRANCH  30  32
ENDBRANCH  29  30
ENDBRANCH  28  29
ENDBRANCH  27  28
ENDBRANCH  26  27
ENDBRANCH  25  26
ENDBRANCH   1  25
TORSDOF 23
ENDMDL
MODEL 3
REMARK VINA RESULT:      -9.1      3.552      8.619
REMARK SMILES Cc1nc(CNC(=O)[C@H]2CCO[C@H]2C)sc1C(=O)OCCOCCOCCOC(=O)c1ccc(-c2c3nc(c(-c4cccc(S(=O)(=O)[O-])c4F)c4ccc([nH]4)c(-c4cccc(S(=O)(=O)[O-])c4F)c4nc(c(-c5cccc(S(=O)(=O)[O-])c5F)c5ccc2[nH]5)C=C4)C=C3)cc1
REMARK SMILES IDX 23 1 22 2 21 3 20 4 19 5 17 6 18 7 16 8 1 9 2 10 3 11 4 12
REMARK SMILES IDX 15 13 5 14 6 15 7 16 8 18 9 19 10 20 13 21 11 22 12 23 14 24
REMARK SMILES IDX 24 25 25 26 26 27 27 28 28 29 29 30 30 31 31 32 32 33 93 34
REMARK SMILES IDX 33 35 92 36 34 37 35 38 36 39 86 40 37 41 91 42 85 43 87 44
REMARK SMILES IDX 38 45 90 46 84 47 83 48 39 50 71 51 51 52 70 53 52 54 55 55
REMARK SMILES IDX 69 56 88 57 53 58 54 59 68 61 89 62 56 63 40 64 41 65 49 66
REMARK SMILES IDX 42 67 44 68 50 69 43 70 45 71 46 72 47 73 48 74 72 75 73 76
REMARK SMILES IDX 81 77 74 78 76 79 82 80 75 81 77 82 78 83 79 84 80 85 57 86
REMARK SMILES IDX 58 87 66 88 59 89 61 90 67 91 60 92 62 93 63 94 64 95 65 96
REMARK H PARENT 6 17 87 49 55 60
REMARK Flexibility Score: inf
ROOT
ATOM      1  C   UNL A   1      30.233  30.455  23.955  1.00  0.00     0.188 C 
ENDROOT
BRANCH   1   2
ATOM      2  O   UNL A   1      28.972  29.889  23.614  1.00  0.00    -0.376 OA
BRANCH   2   3
ATOM      3  C   UNL A   1      28.925  28.581  23.057  1.00  0.00     0.202 C 
BRANCH   3   4
ATOM      4  C   UNL A   1      30.250  27.818  22.979  1.00  0.00     0.261 C 
BRANCH   4   5
ATOM      5  O   UNL A   1      30.372  26.845  24.032  1.00  0.00    -0.459 OA
BRANCH   5   6
ATOM      6  C   UNL A   1      31.331  27.109  24.967  1.00  0.00     0.350 C 
ATOM      7  O   UNL A   1      31.158  27.825  25.947  1.00  0.00    -0.245 OA
BRANCH   6   8
ATOM      8  C   UNL A   1      32.525  26.343  24.691  1.00  0.00     0.135 A 
ATOM      9  C   UNL A   1      33.456  27.275  22.464  1.00  0.00     0.068 C 
ATOM     10  C   UNL A   1      33.423  26.356  23.635  1.00  0.00     0.063 A 
ATOM     11  N   UNL A   1      34.431  25.398  23.719  1.00  0.00    -0.244 NA
ATOM     12  C   UNL A   1      34.302  24.679  24.814  1.00  0.00     0.113 A 
ATOM     13  S   UNL A   1      32.990  25.135  25.823  1.00  0.00    -0.110 S 
BRANCH  12  14
ATOM     14  C   UNL A   1      35.201  23.558  25.257  1.00  0.00     0.183 C 
BRANCH  14  15
ATOM     15  N   UNL A   1      34.634  22.836  26.385  1.00  0.00    -0.349 N 
ATOM     16  C   UNL A   1      34.032  21.616  26.421  1.00  0.00     0.226 C 
ATOM     17  H   UNL A   1      34.694  23.300  27.251  1.00  0.00     0.163 HD
ATOM     18  O   UNL A   1      33.691  21.158  27.512  1.00  0.00    -0.275 OA
BRANCH  16  19
ATOM     19  C   UNL A   1      33.799  20.868  25.126  1.00  0.00     0.109 C 
ATOM     20  C   UNL A   1      33.375  19.423  25.303  1.00  0.00     0.044 C 
ATOM     21  C   UNL A   1      32.655  21.425  24.284  1.00  0.00     0.127 C 
ATOM     22  C   UNL A   1      32.765  19.109  23.956  1.00  0.00     0.161 C 
ATOM     23  O   UNL A   1      32.224  20.334  23.439  1.00  0.00    -0.378 OA
ATOM     24  C   UNL A   1      31.430  21.896  25.065  1.00  0.00     0.039 C 
ENDBRANCH  16  19
ENDBRANCH  14  15
ENDBRANCH  12  14
ENDBRANCH   6   8
ENDBRANCH   5   6
ENDBRANCH   4   5
ENDBRANCH   3   4
ENDBRANCH   2   3
ENDBRANCH   1   2
BRANCH   1  25
ATOM     25  C   UNL A   1      30.280  31.585  25.000  1.00  0.00     0.188 C 
BRANCH  25  26
ATOM     26  O   UNL A   1      30.866  31.214  26.240  1.00  0.00    -0.376 OA
BRANCH  26  27
ATOM     27  C   UNL A   1      32.287  31.208  26.274  1.00  0.00     0.202 C 
BRANCH  27  28
ATOM     28  C   UNL A   1      32.897  31.783  27.557  1.00  0.00     0.261 C 
BRANCH  28  29
ATOM     29  O   UNL A   1      34.227  31.330  27.857  1.00  0.00    -0.460 OA
BRANCH  29  30
ATOM     30  C   UNL A   1      34.539  30.062  27.506  1.00  0.00     0.338 C 
ATOM     31  O   UNL A   1      33.910  29.330  26.764  1.00  0.00    -0.246 OA
BRANCH  30  32
ATOM     32  C   UNL A   1      35.883  29.766  28.044  1.00  0.00     0.060 A 
ATOM     33  C   UNL A   1      37.004  29.975  27.230  1.00  0.00     0.016 A 
ATOM     34  C   UNL A   1      36.033  29.292  29.350  1.00  0.00     0.016 A 
ATOM     35  C   UNL A   1      38.280  29.685  27.719  1.00  0.00     0.010 A 
ATOM     36  C   UNL A   1      37.310  28.989  29.830  1.00  0.00     0.010 A 
ATOM     37  C   UNL A   1      38.437  29.161  29.010  1.00  0.00    -0.014 A 
BRANCH  37  38
ATOM     38  C   UNL A   1      39.756  28.649  29.457  1.00  0.00     0.031 A 
ATOM     39  C   UNL A   1      40.505  29.412  30.515  1.00  0.00     0.074 A 
ATOM     40  C   UNL A   1      40.299  27.546  28.909  1.00  0.00     0.049 A 
ATOM     41  N   UNL A   1      41.678  29.169  31.037  1.00  0.00    -0.248 NA
ATOM     42  C   UNL A   1      39.842  30.611  31.054  1.00  0.00     0.031 C 
ATOM     43  C   UNL A   1      39.685  26.731  27.862  1.00  0.00     0.029 A 
ATOM     44  N   UNL A   1      41.510  26.943  29.140  1.00  0.00    -0.354 N 
ATOM     45  C   UNL A   1      41.903  30.188  31.953  1.00  0.00     0.074 A 
ATOM     46  C   UNL A   1      40.750  31.063  31.907  1.00  0.00     0.031 C 
ATOM     47  C   UNL A   1      40.540  25.752  27.517  1.00  0.00     0.029 A 
ATOM     48  C   UNL A   1      41.765  25.879  28.306  1.00  0.00     0.049 A 
ATOM     49  H   UNL A   1      42.138  27.243  29.837  1.00  0.00     0.167 HD
ATOM     50  C   UNL A   1      42.963  30.373  32.774  1.00  0.00     0.034 A 
ATOM     51  C   UNL A   1      42.865  25.109  28.185  1.00  0.00     0.034 A 
ATOM     52  C   UNL A   1      44.106  29.506  32.830  1.00  0.00     0.049 A 
ATOM     53  C   UNL A   1      44.042  25.349  29.096  1.00  0.00     0.074 A 
ATOM     54  C   UNL A   1      45.210  29.590  33.660  1.00  0.00     0.029 A 
ATOM     55  N   UNL A   1      44.302  28.404  32.012  1.00  0.00    -0.354 N 
ATOM     56  N   UNL A   1      44.177  26.229  30.059  1.00  0.00    -0.248 NA
ATOM     57  C   UNL A   1      45.208  24.466  28.928  1.00  0.00     0.031 C 
ATOM     58  C   UNL A   1      46.080  28.543  33.336  1.00  0.00     0.029 A 
ATOM     59  C   UNL A   1      45.511  27.801  32.312  1.00  0.00     0.049 A 
ATOM     60  H   UNL A   1      43.673  28.095  31.321  1.00  0.00     0.167 HD
ATOM     61  C   UNL A   1      45.422  25.985  30.631  1.00  0.00     0.074 A 
ATOM     62  C   UNL A   1      45.994  24.861  29.921  1.00  0.00     0.031 C 
ATOM     63  C   UNL A   1      46.043  26.644  31.641  1.00  0.00     0.034 A 
BRANCH  50  64
ATOM     64  C   UNL A   1      42.911  31.544  33.717  1.00  0.00     0.023 A 
ATOM     65  C   UNL A   1      43.591  32.731  33.377  1.00  0.00     0.012 A 
ATOM     66  C   UNL A   1      42.158  31.492  34.905  1.00  0.00     0.148 A 
ATOM     67  C   UNL A   1      43.543  33.841  34.218  1.00  0.00     0.002 A 
ATOM     68  C   UNL A   1      42.085  32.614  35.721  1.00  0.00     0.091 A 
ATOM     69  F   UNL A   1      41.542  30.344  35.223  1.00  0.00    -0.205 F 
ATOM     70  C   UNL A   1      42.783  33.787  35.383  1.00  0.00     0.022 A 
BRANCH  68  71
ATOM     71  S   UNL A   1      41.080  32.662  37.209  1.00  0.00     0.127 S 
ATOM     72  O   UNL A   1      39.746  32.398  36.672  1.00  0.00    -0.237 OA
ATOM     73  O   UNL A   1      41.646  31.568  38.000  1.00  0.00    -0.237 OA
ATOM     74  O   UNL A   1      41.276  33.986  37.781  1.00  0.00    -0.744 OA
ENDBRANCH  68  71
ENDBRANCH  50  64
BRANCH  51  75
ATOM     75  C   UNL A   1      42.896  24.004  27.185  1.00  0.00     0.023 A 
ATOM     76  C   UNL A   1      43.574  24.192  25.965  1.00  0.00     0.012 A 
ATOM     77  C   UNL A   1      42.262  22.772  27.435  1.00  0.00     0.148 A 
ATOM     78  C   UNL A   1      43.601  23.182  25.003  1.00  0.00     0.002 A 
ATOM     79  C   UNL A   1      42.337  21.751  26.493  1.00  0.00     0.091 A 
ATOM     80  F   UNL A   1      41.599  22.620  28.590  1.00  0.00    -0.205 F 
ATOM     81  C   UNL A   1      42.993  21.959  25.271  1.00  0.00     0.022 A 
BRANCH  79  82
ATOM     82  S   UNL A   1      41.682  20.107  26.808  1.00  0.00     0.127 S 
ATOM     83  O   UNL A   1      40.328  20.407  27.262  1.00  0.00    -0.237 OA
ATOM     84  O   UNL A   1      41.766  19.487  25.485  1.00  0.00    -0.237 OA
ATOM     85  O   UNL A   1      42.572  19.520  27.801  1.00  0.00    -0.744 OA
ENDBRANCH  79  82
ENDBRANCH  51  75
BRANCH  63  86
ATOM     86  C   UNL A   1      47.402  26.156  32.070  1.00  0.00     0.023 A 
ATOM     87  C   UNL A   1      48.557  26.710  31.483  1.00  0.00     0.012 A 
ATOM     88  C   UNL A   1      47.538  25.220  33.114  1.00  0.00     0.148 A 
ATOM     89  C   UNL A   1      49.826  26.321  31.913  1.00  0.00     0.002 A 
ATOM     90  C   UNL A   1      48.805  24.870  33.565  1.00  0.00     0.091 A 
ATOM     91  F   UNL A   1      46.428  24.689  33.646  1.00  0.00    -0.205 F 
ATOM     92  C   UNL A   1      49.950  25.412  32.960  1.00  0.00     0.022 A 
BRANCH  90  93
ATOM     93  S   UNL A   1      49.052  23.776  34.970  1.00  0.00     0.127 S 
ATOM     94  O   UNL A   1      50.506  23.632  34.984  1.00  0.00    -0.237 OA
ATOM     95  O   UNL A   1      48.506  24.559  36.079  1.00  0.00    -0.237 OA
ATOM     96  O   UNL A   1      48.303  22.564  34.666  1.00  0.00    -0.744 OA
ENDBRANCH  90  93
ENDBRANCH  63  86
ENDBRANCH  37  38
ENDBRANCH  30  32
ENDBRANCH  29  30
ENDBRANCH  28  29
ENDBRANCH  27  28
ENDBRANCH  26  27
ENDBRANCH  25  26
ENDBRANCH   1  25
TORSDOF 23
ENDMDL
