MODEL 1
REMARK VINA RESULT:      -7.8      0.000      0.000
REMARK SMILES CC[N@@H+](C)Cc1cc2c(cc1Cl)C=C(C(=O)OCCOCCOCCOC(=O)c1ccc(-c3c4nc(c(-c5cccc(S(=O)(=O)[O-])c5F)c5ccc([nH]5)c(-c5cccc(S(=O)(=O)[O-])c5F)c5nc(c(-c6cccc(S(=O)(=O)[O-])c6F)c6ccc3[nH]6)C=C5)C=C4)cc1)[C@@H](C(F)(F)F)O2
REMARK SMILES IDX 21 1 20 2 19 3 18 4 17 5 15 6 16 7 14 8 6 9 7 10 11 11 8 12
REMARK SMILES IDX 10 13 12 14 9 15 97 16 13 17 92 18 5 19 3 20 4 21 2 23 1 24
REMARK SMILES IDX 93 25 94 26 95 27 96 28 22 29 23 30 24 31 25 32 26 33 27 34
REMARK SMILES IDX 28 35 29 36 30 37 91 38 31 39 90 40 32 41 33 42 34 43 84 44
REMARK SMILES IDX 35 45 89 46 83 47 85 48 36 49 88 50 82 51 81 52 37 54 69 55
REMARK SMILES IDX 49 56 68 57 50 58 53 59 67 60 86 61 51 62 52 63 66 65 87 66
REMARK SMILES IDX 54 67 38 68 39 69 47 70 40 71 42 72 48 73 41 74 43 75 44 76
REMARK SMILES IDX 45 77 46 78 70 79 71 80 79 81 72 82 74 83 80 84 73 85 75 86
REMARK SMILES IDX 76 87 77 88 78 89 55 90 56 91 64 92 57 93 59 94 65 95 58 96
REMARK SMILES IDX 60 97 61 98 62 99 63 100
REMARK H PARENT 3 22 85 53 53 64
REMARK Flexibility Score: inf
ROOT
ATOM      1  C   UNL A   1      42.591  22.692  27.373  1.00  0.00     0.188 C 
ENDROOT
BRANCH   1   2
ATOM      2  O   UNL A   1      42.036  23.986  27.490  1.00  0.00    -0.376 OA
BRANCH   2   3
ATOM      3  C   UNL A   1      41.070  24.402  26.542  1.00  0.00     0.202 C 
BRANCH   3   4
ATOM      4  C   UNL A   1      40.833  25.893  26.230  1.00  0.00     0.261 C 
BRANCH   4   5
ATOM      5  O   UNL A   1      39.926  26.592  27.092  1.00  0.00    -0.460 OA
BRANCH   5   6
ATOM      6  C   UNL A   1      40.081  27.931  27.167  1.00  0.00     0.338 C 
ATOM      7  O   UNL A   1      40.788  28.618  26.447  1.00  0.00    -0.246 OA
BRANCH   6   8
ATOM      8  C   UNL A   1      39.142  28.477  28.165  1.00  0.00     0.087 C 
ATOM      9  C   UNL A   1      35.971  31.486  30.663  1.00  0.00     0.029 A 
ATOM     10  C   UNL A   1      36.590  30.246  30.958  1.00  0.00     0.058 A 
ATOM     11  C   UNL A   1      36.142  32.003  29.368  1.00  0.00     0.050 A 
ATOM     12  C   UNL A   1      37.381  29.583  30.010  1.00  0.00     0.128 A 
ATOM     13  C   UNL A   1      36.843  31.285  28.395  1.00  0.00     0.033 A 
ATOM     14  Cl  UNL A   1      35.671  33.591  28.894  1.00  0.00    -0.084 Cl
ATOM     15  C   UNL A   1      37.491  30.098  28.722  1.00  0.00     0.019 A 
ATOM     16  O   UNL A   1      38.039  28.452  30.416  1.00  0.00    -0.475 OA
ATOM     17  C   UNL A   1      38.352  29.467  27.741  1.00  0.00     0.027 C 
ATOM     18  C   UNL A   1      39.110  27.931  29.569  1.00  0.00     0.316 C 
BRANCH   9  19
ATOM     19  C   UNL A   1      35.274  32.241  31.787  1.00  0.00     0.300 C 
BRANCH  19  20
ATOM     20  N   UNL A   1      36.055  33.144  32.654  1.00  0.00    -0.334 N 
ATOM     21  C   UNL A   1      36.599  32.481  33.835  1.00  0.00     0.333 C 
ATOM     22  H   UNL A   1      36.829  33.405  32.043  1.00  0.00     0.348 HD
BRANCH  20  23
ATOM     23  C   UNL A   1      35.411  34.412  33.016  1.00  0.00     0.258 C 
ATOM     24  C   UNL A   1      35.191  34.594  34.518  1.00  0.00     0.071 C 
ENDBRANCH  20  23
ENDBRANCH  19  20
ENDBRANCH   9  19
BRANCH  18  25
ATOM     25  C   UNL A   1      40.465  28.109  30.268  1.00  0.00     0.430 C 
ATOM     26  F   UNL A   1      41.076  29.256  29.885  1.00  0.00    -0.167 F 
ATOM     27  F   UNL A   1      40.316  28.185  31.615  1.00  0.00    -0.167 F 
ATOM     28  F   UNL A   1      41.316  27.091  30.013  1.00  0.00    -0.167 F 
ENDBRANCH  18  25
ENDBRANCH   6   8
ENDBRANCH   5   6
ENDBRANCH   4   5
ENDBRANCH   3   4
ENDBRANCH   2   3
ENDBRANCH   1   2
BRANCH   1  29
ATOM     29  C   UNL A   1      42.976  22.337  25.920  1.00  0.00     0.188 C 
BRANCH  29  30
ATOM     30  O   UNL A   1      44.223  21.700  25.656  1.00  0.00    -0.376 OA
BRANCH  30  31
ATOM     31  C   UNL A   1      44.864  21.936  24.407  1.00  0.00     0.202 C 
BRANCH  31  32
ATOM     32  C   UNL A   1      45.905  23.061  24.279  1.00  0.00     0.261 C 
BRANCH  32  33
ATOM     33  O   UNL A   1      45.453  24.366  24.677  1.00  0.00    -0.460 OA
BRANCH  33  34
ATOM     34  C   UNL A   1      46.432  25.259  24.981  1.00  0.00     0.338 C 
ATOM     35  O   UNL A   1      47.522  25.364  24.447  1.00  0.00    -0.246 OA
BRANCH  34  36
ATOM     36  C   UNL A   1      45.897  26.247  25.942  1.00  0.00     0.060 A 
ATOM     37  C   UNL A   1      44.523  26.396  26.130  1.00  0.00     0.016 A 
ATOM     38  C   UNL A   1      46.802  27.032  26.670  1.00  0.00     0.016 A 
ATOM     39  C   UNL A   1      44.055  27.323  27.067  1.00  0.00     0.010 A 
ATOM     40  C   UNL A   1      46.332  27.973  27.588  1.00  0.00     0.010 A 
ATOM     41  C   UNL A   1      44.955  28.111  27.808  1.00  0.00    -0.014 A 
BRANCH  41  42
ATOM     42  C   UNL A   1      44.462  28.946  28.930  1.00  0.00     0.031 A 
ATOM     43  C   UNL A   1      44.202  30.414  28.779  1.00  0.00     0.074 A 
ATOM     44  C   UNL A   1      44.278  28.350  30.124  1.00  0.00     0.049 A 
ATOM     45  N   UNL A   1      43.696  31.245  29.653  1.00  0.00    -0.248 NA
ATOM     46  C   UNL A   1      44.555  31.033  27.493  1.00  0.00     0.031 C 
ATOM     47  C   UNL A   1      44.561  26.942  30.410  1.00  0.00     0.029 A 
ATOM     48  N   UNL A   1      43.824  28.850  31.317  1.00  0.00    -0.354 N 
ATOM     49  C   UNL A   1      43.667  32.486  29.031  1.00  0.00     0.074 A 
ATOM     50  C   UNL A   1      44.226  32.303  27.706  1.00  0.00     0.031 C 
ATOM     51  C   UNL A   1      44.265  26.689  31.693  1.00  0.00     0.029 A 
ATOM     52  C   UNL A   1      43.782  27.915  32.322  1.00  0.00     0.049 A 
ATOM     53  H   UNL A   1      43.553  29.789  31.442  1.00  0.00     0.167 HD
ATOM     54  C   UNL A   1      43.194  33.660  29.514  1.00  0.00     0.034 A 
ATOM     55  C   UNL A   1      43.389  28.023  33.606  1.00  0.00     0.034 A 
ATOM     56  C   UNL A   1      42.628  33.835  30.826  1.00  0.00     0.049 A 
ATOM     57  C   UNL A   1      42.859  29.332  34.111  1.00  0.00     0.074 A 
ATOM     58  C   UNL A   1      42.059  34.976  31.369  1.00  0.00     0.029 A 
ATOM     59  N   UNL A   1      42.573  32.858  31.808  1.00  0.00    -0.354 N 
ATOM     60  N   UNL A   1      42.696  30.457  33.458  1.00  0.00    -0.248 NA
ATOM     61  C   UNL A   1      42.429  29.381  35.515  1.00  0.00     0.031 C 
ATOM     62  C   UNL A   1      41.674  34.693  32.683  1.00  0.00     0.029 A 
ATOM     63  C   UNL A   1      41.991  33.373  32.955  1.00  0.00     0.049 A 
ATOM     64  H   UNL A   1      42.899  31.936  31.705  1.00  0.00     0.167 HD
ATOM     65  C   UNL A   1      42.128  31.342  34.365  1.00  0.00     0.074 A 
ATOM     66  C   UNL A   1      41.960  30.620  35.609  1.00  0.00     0.031 C 
ATOM     67  C   UNL A   1      41.792  32.642  34.180  1.00  0.00     0.034 A 
BRANCH  54  68
ATOM     68  C   UNL A   1      43.194  34.856  28.601  1.00  0.00     0.023 A 
ATOM     69  C   UNL A   1      41.990  35.233  27.974  1.00  0.00     0.012 A 
ATOM     70  C   UNL A   1      44.332  35.676  28.473  1.00  0.00     0.148 A 
ATOM     71  C   UNL A   1      41.918  36.408  27.227  1.00  0.00     0.002 A 
ATOM     72  C   UNL A   1      44.246  36.860  27.748  1.00  0.00     0.091 A 
ATOM     73  F   UNL A   1      45.467  35.291  29.073  1.00  0.00    -0.205 F 
ATOM     74  C   UNL A   1      43.041  37.224  27.123  1.00  0.00     0.022 A 
BRANCH  72  75
ATOM     75  S   UNL A   1      45.613  38.015  27.598  1.00  0.00     0.127 S 
ATOM     76  O   UNL A   1      45.094  38.953  26.603  1.00  0.00    -0.237 OA
ATOM     77  O   UNL A   1      45.708  38.556  28.953  1.00  0.00    -0.237 OA
ATOM     78  O   UNL A   1      46.760  37.229  27.168  1.00  0.00    -0.744 OA
ENDBRANCH  72  75
ENDBRANCH  54  68
BRANCH  55  79
ATOM     79  C   UNL A   1      43.415  26.813  34.470  1.00  0.00     0.023 A 
ATOM     80  C   UNL A   1      42.266  26.006  34.555  1.00  0.00     0.012 A 
ATOM     81  C   UNL A   1      44.594  26.418  35.128  1.00  0.00     0.148 A 
ATOM     82  C   UNL A   1      42.289  24.821  35.290  1.00  0.00     0.002 A 
ATOM     83  C   UNL A   1      44.621  25.218  35.826  1.00  0.00     0.091 A 
ATOM     84  F   UNL A   1      45.672  27.207  35.025  1.00  0.00    -0.205 F 
ATOM     85  C   UNL A   1      43.467  24.422  35.916  1.00  0.00     0.022 A 
BRANCH  83  86
ATOM     86  S   UNL A   1      46.117  24.566  36.578  1.00  0.00     0.127 S 
ATOM     87  O   UNL A   1      45.658  23.272  37.080  1.00  0.00    -0.237 OA
ATOM     88  O   UNL A   1      47.020  24.497  35.429  1.00  0.00    -0.237 OA
ATOM     89  O   UNL A   1      46.502  25.530  37.598  1.00  0.00    -0.744 OA
ENDBRANCH  83  86
ENDBRANCH  55  79
BRANCH  67  90
ATOM     90  C   UNL A   1      41.204  33.390  35.345  1.00  0.00     0.023 A 
ATOM     91  C   UNL A   1      39.819  33.307  35.590  1.00  0.00     0.012 A 
ATOM     92  C   UNL A   1      42.030  34.079  36.255  1.00  0.00     0.148 A 
ATOM     93  C   UNL A   1      39.263  33.909  36.718  1.00  0.00     0.002 A 
ATOM     94  C   UNL A   1      41.473  34.647  37.394  1.00  0.00     0.091 A 
ATOM     95  F   UNL A   1      43.343  34.152  35.994  1.00  0.00    -0.205 F 
ATOM     96  C   UNL A   1      40.090  34.569  37.624  1.00  0.00     0.022 A 
BRANCH  94  97
ATOM     97  S   UNL A   1      42.463  35.457  38.658  1.00  0.00     0.127 S 
ATOM     98  O   UNL A   1      43.061  36.559  37.905  1.00  0.00    -0.237 OA
ATOM     99  O   UNL A   1      41.450  35.862  39.631  1.00  0.00    -0.237 OA
ATOM    100  O   UNL A   1      43.403  34.454  39.139  1.00  0.00    -0.744 OA
ENDBRANCH  94  97
ENDBRANCH  67  90
ENDBRANCH  41  42
ENDBRANCH  34  36
ENDBRANCH  33  34
ENDBRANCH  32  33
ENDBRANCH  31  32
ENDBRANCH  30  31
ENDBRANCH  29  30
ENDBRANCH   1  29
TORSDOF 24
ENDMDL
MODEL 2
REMARK VINA RESULT:      -7.8      4.706      9.148
REMARK SMILES CC[N@@H+](C)Cc1cc2c(cc1Cl)C=C(C(=O)OCCOCCOCCOC(=O)c1ccc(-c3c4nc(c(-c5cccc(S(=O)(=O)[O-])c5F)c5ccc([nH]5)c(-c5cccc(S(=O)(=O)[O-])c5F)c5nc(c(-c6cccc(S(=O)(=O)[O-])c6F)c6ccc3[nH]6)C=C5)C=C4)cc1)[C@@H](C(F)(F)F)O2
REMARK SMILES IDX 21 1 20 2 19 3 18 4 17 5 15 6 16 7 14 8 6 9 7 10 11 11 8 12
REMARK SMILES IDX 10 13 12 14 9 15 97 16 13 17 92 18 5 19 3 20 4 21 2 23 1 24
REMARK SMILES IDX 93 25 94 26 95 27 96 28 22 29 23 30 24 31 25 32 26 33 27 34
REMARK SMILES IDX 28 35 29 36 30 37 91 38 31 39 90 40 32 41 33 42 34 43 84 44
REMARK SMILES IDX 35 45 89 46 83 47 85 48 36 49 88 50 82 51 81 52 37 54 69 55
REMARK SMILES IDX 49 56 68 57 50 58 53 59 67 60 86 61 51 62 52 63 66 65 87 66
REMARK SMILES IDX 54 67 38 68 39 69 47 70 40 71 42 72 48 73 41 74 43 75 44 76
REMARK SMILES IDX 45 77 46 78 70 79 71 80 79 81 72 82 74 83 80 84 73 85 75 86
REMARK SMILES IDX 76 87 77 88 78 89 55 90 56 91 64 92 57 93 59 94 65 95 58 96
REMARK SMILES IDX 60 97 61 98 62 99 63 100
REMARK H PARENT 3 22 85 53 53 64
REMARK Flexibility Score: inf
ROOT
ATOM      1  C   UNL A   1      41.155  20.818  26.930  1.00  0.00     0.188 C 
ENDROOT
BRANCH   1   2
ATOM      2  O   UNL A   1      40.600  21.828  26.114  1.00  0.00    -0.376 OA
BRANCH   2   3
ATOM      3  C   UNL A   1      39.255  22.217  26.329  1.00  0.00     0.202 C 
BRANCH   3   4
ATOM      4  C   UNL A   1      38.089  21.541  25.581  1.00  0.00     0.261 C 
BRANCH   4   5
ATOM      5  O   UNL A   1      36.843  22.249  25.562  1.00  0.00    -0.460 OA
BRANCH   5   6
ATOM      6  C   UNL A   1      35.770  21.562  25.115  1.00  0.00     0.338 C 
ATOM      7  O   UNL A   1      35.691  20.352  24.978  1.00  0.00    -0.246 OA
BRANCH   6   8
ATOM      8  C   UNL A   1      34.631  22.487  24.955  1.00  0.00     0.087 C 
ATOM      9  C   UNL A   1      31.819  26.553  24.002  1.00  0.00     0.029 A 
ATOM     10  C   UNL A   1      31.557  25.290  24.590  1.00  0.00     0.058 A 
ATOM     11  C   UNL A   1      33.090  26.754  23.439  1.00  0.00     0.050 A 
ATOM     12  C   UNL A   1      32.543  24.295  24.648  1.00  0.00     0.128 A 
ATOM     13  C   UNL A   1      34.032  25.722  23.406  1.00  0.00     0.033 A 
ATOM     14  Cl  UNL A   1      33.673  28.281  22.896  1.00  0.00    -0.084 Cl
ATOM     15  C   UNL A   1      33.775  24.509  24.039  1.00  0.00     0.019 A 
ATOM     16  O   UNL A   1      32.244  23.150  25.338  1.00  0.00    -0.475 OA
ATOM     17  C   UNL A   1      34.833  23.524  24.137  1.00  0.00     0.027 C 
ATOM     18  C   UNL A   1      33.339  22.250  25.693  1.00  0.00     0.316 C 
BRANCH   9  19
ATOM     19  C   UNL A   1      30.769  27.650  24.129  1.00  0.00     0.300 C 
BRANCH  19  20
ATOM     20  N   UNL A   1      29.907  27.972  22.977  1.00  0.00    -0.334 N 
ATOM     21  C   UNL A   1      30.218  29.262  22.367  1.00  0.00     0.333 C 
ATOM     22  H   UNL A   1      30.152  27.234  22.317  1.00  0.00     0.348 HD
BRANCH  20  23
ATOM     23  C   UNL A   1      28.462  27.829  23.188  1.00  0.00     0.258 C 
ATOM     24  C   UNL A   1      27.659  29.095  22.889  1.00  0.00     0.071 C 
ENDBRANCH  20  23
ENDBRANCH  19  20
ENDBRANCH   9  19
BRANCH  18  25
ATOM     25  C   UNL A   1      33.553  22.259  27.213  1.00  0.00     0.430 C 
ATOM     26  F   UNL A   1      34.425  23.227  27.587  1.00  0.00    -0.167 F 
ATOM     27  F   UNL A   1      32.394  22.511  27.871  1.00  0.00    -0.167 F 
ATOM     28  F   UNL A   1      34.031  21.082  27.675  1.00  0.00    -0.167 F 
ENDBRANCH  18  25
ENDBRANCH   6   8
ENDBRANCH   5   6
ENDBRANCH   4   5
ENDBRANCH   3   4
ENDBRANCH   2   3
ENDBRANCH   1   2
BRANCH   1  29
ATOM     29  C   UNL A   1      41.772  19.661  26.112  1.00  0.00     0.188 C 
BRANCH  29  30
ATOM     30  O   UNL A   1      43.162  19.372  26.236  1.00  0.00    -0.376 OA
BRANCH  30  31
ATOM     31  C   UNL A   1      43.852  18.827  25.117  1.00  0.00     0.202 C 
BRANCH  31  32
ATOM     32  C   UNL A   1      44.696  19.743  24.215  1.00  0.00     0.261 C 
BRANCH  32  33
ATOM     33  O   UNL A   1      45.159  20.956  24.831  1.00  0.00    -0.460 OA
BRANCH  33  34
ATOM     34  C   UNL A   1      44.876  22.102  24.158  1.00  0.00     0.338 C 
ATOM     35  O   UNL A   1      44.524  22.203  22.996  1.00  0.00    -0.246 OA
BRANCH  34  36
ATOM     36  C   UNL A   1      44.859  23.228  25.115  1.00  0.00     0.060 A 
ATOM     37  C   UNL A   1      43.656  23.780  25.554  1.00  0.00     0.016 A 
ATOM     38  C   UNL A   1      46.083  23.729  25.583  1.00  0.00     0.016 A 
ATOM     39  C   UNL A   1      43.680  24.827  26.481  1.00  0.00     0.010 A 
ATOM     40  C   UNL A   1      46.104  24.791  26.490  1.00  0.00     0.010 A 
ATOM     41  C   UNL A   1      44.901  25.334  26.962  1.00  0.00    -0.014 A 
BRANCH  41  42
ATOM     42  C   UNL A   1      44.914  26.306  28.081  1.00  0.00     0.031 A 
ATOM     43  C   UNL A   1      44.816  25.876  29.514  1.00  0.00     0.074 A 
ATOM     44  C   UNL A   1      44.986  27.616  27.777  1.00  0.00     0.049 A 
ATOM     45  N   UNL A   1      44.894  26.612  30.592  1.00  0.00    -0.248 NA
ATOM     46  C   UNL A   1      44.597  24.446  29.775  1.00  0.00     0.031 C 
ATOM     47  C   UNL A   1      45.020  28.158  26.417  1.00  0.00     0.029 A 
ATOM     48  N   UNL A   1      45.034  28.724  28.582  1.00  0.00    -0.354 N 
ATOM     49  C   UNL A   1      44.736  25.743  31.663  1.00  0.00     0.074 A 
ATOM     50  C   UNL A   1      44.537  24.421  31.103  1.00  0.00     0.031 C 
ATOM     51  C   UNL A   1      45.091  29.496  26.483  1.00  0.00     0.029 A 
ATOM     52  C   UNL A   1      45.099  29.906  27.884  1.00  0.00     0.049 A 
ATOM     53  H   UNL A   1      45.023  28.679  29.566  1.00  0.00     0.167 HD
ATOM     54  C   UNL A   1      44.779  26.022  32.988  1.00  0.00     0.034 A 
ATOM     55  C   UNL A   1      45.170  31.179  28.317  1.00  0.00     0.034 A 
ATOM     56  C   UNL A   1      44.990  27.335  33.540  1.00  0.00     0.049 A 
ATOM     57  C   UNL A   1      45.228  31.458  29.790  1.00  0.00     0.074 A 
ATOM     58  C   UNL A   1      45.119  27.693  34.873  1.00  0.00     0.029 A 
ATOM     59  N   UNL A   1      45.084  28.505  32.803  1.00  0.00    -0.354 N 
ATOM     60  N   UNL A   1      45.232  30.606  30.786  1.00  0.00    -0.248 NA
ATOM     61  C   UNL A   1      45.322  32.866  30.200  1.00  0.00     0.031 C 
ATOM     62  C   UNL A   1      45.276  29.081  34.941  1.00  0.00     0.029 A 
ATOM     63  C   UNL A   1      45.257  29.586  33.652  1.00  0.00     0.049 A 
ATOM     64  H   UNL A   1      45.033  28.559  31.822  1.00  0.00     0.167 HD
ATOM     65  C   UNL A   1      45.348  31.371  31.939  1.00  0.00     0.074 A 
ATOM     66  C   UNL A   1      45.427  32.755  31.519  1.00  0.00     0.031 C 
ATOM     67  C   UNL A   1      45.372  30.958  33.230  1.00  0.00     0.034 A 
BRANCH  54  68
ATOM     68  C   UNL A   1      44.667  24.878  33.959  1.00  0.00     0.023 A 
ATOM     69  C   UNL A   1      43.386  24.464  34.375  1.00  0.00     0.012 A 
ATOM     70  C   UNL A   1      45.799  24.134  34.346  1.00  0.00     0.148 A 
ATOM     71  C   UNL A   1      43.232  23.328  35.168  1.00  0.00     0.002 A 
ATOM     72  C   UNL A   1      45.635  22.988  35.115  1.00  0.00     0.091 A 
ATOM     73  F   UNL A   1      47.006  24.554  33.943  1.00  0.00    -0.205 F 
ATOM     74  C   UNL A   1      44.353  22.586  35.529  1.00  0.00     0.022 A 
BRANCH  72  75
ATOM     75  S   UNL A   1      47.004  21.925  35.588  1.00  0.00     0.127 S 
ATOM     76  O   UNL A   1      47.931  22.889  36.180  1.00  0.00    -0.237 OA
ATOM     77  O   UNL A   1      46.373  21.019  36.546  1.00  0.00    -0.237 OA
ATOM     78  O   UNL A   1      47.468  21.295  34.360  1.00  0.00    -0.744 OA
ENDBRANCH  72  75
ENDBRANCH  54  68
BRANCH  55  79
ATOM     79  C   UNL A   1      45.271  32.274  27.317  1.00  0.00     0.023 A 
ATOM     80  C   UNL A   1      44.110  32.699  26.645  1.00  0.00     0.012 A 
ATOM     81  C   UNL A   1      46.487  32.948  27.100  1.00  0.00     0.148 A 
ATOM     82  C   UNL A   1      44.160  33.779  25.765  1.00  0.00     0.002 A 
ATOM     83  C   UNL A   1      46.522  34.046  26.252  1.00  0.00     0.091 A 
ATOM     84  F   UNL A   1      47.574  32.520  27.758  1.00  0.00    -0.205 F 
ATOM     85  C   UNL A   1      45.362  34.459  25.576  1.00  0.00     0.022 A 
BRANCH  83  86
ATOM     86  S   UNL A   1      47.994  35.050  26.025  1.00  0.00     0.127 S 
ATOM     87  O   UNL A   1      48.715  34.293  25.003  1.00  0.00    -0.237 OA
ATOM     88  O   UNL A   1      47.422  36.316  25.565  1.00  0.00    -0.237 OA
ATOM     89  O   UNL A   1      48.639  35.111  27.328  1.00  0.00    -0.744 OA
ENDBRANCH  83  86
ENDBRANCH  55  79
BRANCH  67  90
ATOM     90  C   UNL A   1      45.488  32.005  34.302  1.00  0.00     0.023 A 
ATOM     91  C   UNL A   1      46.766  32.437  34.710  1.00  0.00     0.012 A 
ATOM     92  C   UNL A   1      44.342  32.637  34.825  1.00  0.00     0.148 A 
ATOM     93  C   UNL A   1      46.901  33.476  35.630  1.00  0.00     0.002 A 
ATOM     94  C   UNL A   1      44.486  33.693  35.716  1.00  0.00     0.091 A 
ATOM     95  F   UNL A   1      43.137  32.200  34.429  1.00  0.00    -0.205 F 
ATOM     96  C   UNL A   1      45.763  34.110  36.125  1.00  0.00     0.022 A 
BRANCH  94  97
ATOM     97  S   UNL A   1      43.084  34.621  36.356  1.00  0.00     0.127 S 
ATOM     98  O   UNL A   1      42.361  33.591  37.098  1.00  0.00    -0.237 OA
ATOM     99  O   UNL A   1      43.737  35.630  37.189  1.00  0.00    -0.237 OA
ATOM    100  O   UNL A   1      42.386  35.152  35.192  1.00  0.00    -0.744 OA
ENDBRANCH  94  97
ENDBRANCH  67  90
ENDBRANCH  41  42
ENDBRANCH  34  36
ENDBRANCH  33  34
ENDBRANCH  32  33
ENDBRANCH  31  32
ENDBRANCH  30  31
ENDBRANCH  29  30
ENDBRANCH   1  29
TORSDOF 24
ENDMDL
MODEL 3
REMARK VINA RESULT:      -7.6      5.403      8.967
REMARK SMILES CC[N@@H+](C)Cc1cc2c(cc1Cl)C=C(C(=O)OCCOCCOCCOC(=O)c1ccc(-c3c4nc(c(-c5cccc(S(=O)(=O)[O-])c5F)c5ccc([nH]5)c(-c5cccc(S(=O)(=O)[O-])c5F)c5nc(c(-c6cccc(S(=O)(=O)[O-])c6F)c6ccc3[nH]6)C=C5)C=C4)cc1)[C@@H](C(F)(F)F)O2
REMARK SMILES IDX 21 1 20 2 19 3 18 4 17 5 15 6 16 7 14 8 6 9 7 10 11 11 8 12
REMARK SMILES IDX 10 13 12 14 9 15 97 16 13 17 92 18 5 19 3 20 4 21 2 23 1 24
REMARK SMILES IDX 93 25 94 26 95 27 96 28 22 29 23 30 24 31 25 32 26 33 27 34
REMARK SMILES IDX 28 35 29 36 30 37 91 38 31 39 90 40 32 41 33 42 34 43 84 44
REMARK SMILES IDX 35 45 89 46 83 47 85 48 36 49 88 50 82 51 81 52 37 54 69 55
REMARK SMILES IDX 49 56 68 57 50 58 53 59 67 60 86 61 51 62 52 63 66 65 87 66
REMARK SMILES IDX 54 67 38 68 39 69 47 70 40 71 42 72 48 73 41 74 43 75 44 76
REMARK SMILES IDX 45 77 46 78 70 79 71 80 79 81 72 82 74 83 80 84 73 85 75 86
REMARK SMILES IDX 76 87 77 88 78 89 55 90 56 91 64 92 57 93 59 94 65 95 58 96
REMARK SMILES IDX 60 97 61 98 62 99 63 100
REMARK H PARENT 3 22 85 53 53 64
REMARK Flexibility Score: inf
ROOT
ATOM      1  C   UNL A   1      40.912  21.394  27.499  1.00  0.00     0.188 C 
ENDROOT
BRANCH   1   2
ATOM      2  O   UNL A   1      40.553  22.062  26.307  1.00  0.00    -0.376 OA
BRANCH   2   3
ATOM      3  C   UNL A   1      39.234  22.562  26.176  1.00  0.00     0.202 C 
BRANCH   3   4
ATOM      4  C   UNL A   1      38.066  21.656  25.738  1.00  0.00     0.261 C 
BRANCH   4   5
ATOM      5  O   UNL A   1      36.744  22.147  25.993  1.00  0.00    -0.460 OA
BRANCH   5   6
ATOM      6  C   UNL A   1      35.740  21.544  25.320  1.00  0.00     0.338 C 
ATOM      7  O   UNL A   1      35.682  20.364  25.013  1.00  0.00    -0.246 OA
BRANCH   6   8
ATOM      8  C   UNL A   1      34.633  22.501  25.136  1.00  0.00     0.087 C 
ATOM      9  C   UNL A   1      31.969  26.682  24.252  1.00  0.00     0.029 A 
ATOM     10  C   UNL A   1      31.642  25.387  24.726  1.00  0.00     0.058 A 
ATOM     11  C   UNL A   1      33.285  26.894  23.807  1.00  0.00     0.050 A 
ATOM     12  C   UNL A   1      32.604  24.370  24.792  1.00  0.00     0.128 A 
ATOM     13  C   UNL A   1      34.210  25.847  23.775  1.00  0.00     0.033 A 
ATOM     14  Cl  UNL A   1      33.933  28.443  23.421  1.00  0.00    -0.084 Cl
ATOM     15  C   UNL A   1      33.885  24.600  24.299  1.00  0.00     0.019 A 
ATOM     16  O   UNL A   1      32.233  23.187  25.373  1.00  0.00    -0.475 OA
ATOM     17  C   UNL A   1      34.916  23.588  24.412  1.00  0.00     0.027 C 
ATOM     18  C   UNL A   1      33.282  22.241  25.750  1.00  0.00     0.316 C 
BRANCH   9  19
ATOM     19  C   UNL A   1      30.930  27.789  24.372  1.00  0.00     0.300 C 
BRANCH  19  20
ATOM     20  N   UNL A   1      29.971  28.012  23.274  1.00  0.00    -0.334 N 
ATOM     21  C   UNL A   1      30.611  28.165  21.971  1.00  0.00     0.333 C 
ATOM     22  H   UNL A   1      29.442  27.140  23.276  1.00  0.00     0.348 HD
BRANCH  20  23
ATOM     23  C   UNL A   1      28.971  29.064  23.491  1.00  0.00     0.258 C 
ATOM     24  C   UNL A   1      29.565  30.454  23.719  1.00  0.00     0.071 C 
ENDBRANCH  20  23
ENDBRANCH  19  20
ENDBRANCH   9  19
BRANCH  18  25
ATOM     25  C   UNL A   1      33.373  22.141  27.279  1.00  0.00     0.430 C 
ATOM     26  F   UNL A   1      34.316  22.976  27.777  1.00  0.00    -0.167 F 
ATOM     27  F   UNL A   1      32.201  22.492  27.865  1.00  0.00    -0.167 F 
ATOM     28  F   UNL A   1      33.674  20.892  27.698  1.00  0.00    -0.167 F 
ENDBRANCH  18  25
ENDBRANCH   6   8
ENDBRANCH   5   6
ENDBRANCH   4   5
ENDBRANCH   3   4
ENDBRANCH   2   3
ENDBRANCH   1   2
BRANCH   1  29
ATOM     29  C   UNL A   1      41.139  19.880  27.289  1.00  0.00     0.188 C 
BRANCH  29  30
ATOM     30  O   UNL A   1      42.298  19.258  27.835  1.00  0.00    -0.376 OA
BRANCH  30  31
ATOM     31  C   UNL A   1      42.770  18.050  27.247  1.00  0.00     0.202 C 
BRANCH  31  32
ATOM     32  C   UNL A   1      43.578  18.099  25.939  1.00  0.00     0.261 C 
BRANCH  32  33
ATOM     33  O   UNL A   1      43.130  19.064  24.974  1.00  0.00    -0.460 OA
BRANCH  33  34
ATOM     34  C   UNL A   1      44.110  19.747  24.327  1.00  0.00     0.338 C 
ATOM     35  O   UNL A   1      44.713  19.395  23.328  1.00  0.00    -0.246 OA
BRANCH  34  36
ATOM     36  C   UNL A   1      44.207  21.106  24.901  1.00  0.00     0.060 A 
ATOM     37  C   UNL A   1      44.511  21.296  26.249  1.00  0.00     0.016 A 
ATOM     38  C   UNL A   1      43.994  22.206  24.059  1.00  0.00     0.016 A 
ATOM     39  C   UNL A   1      44.620  22.597  26.750  1.00  0.00     0.010 A 
ATOM     40  C   UNL A   1      44.080  23.504  24.568  1.00  0.00     0.010 A 
ATOM     41  C   UNL A   1      44.415  23.709  25.913  1.00  0.00    -0.014 A 
BRANCH  41  42
ATOM     42  C   UNL A   1      44.720  25.075  26.403  1.00  0.00     0.031 A 
ATOM     43  C   UNL A   1      46.069  25.704  26.225  1.00  0.00     0.074 A 
ATOM     44  C   UNL A   1      43.748  25.742  27.054  1.00  0.00     0.049 A 
ATOM     45  N   UNL A   1      46.448  26.918  26.532  1.00  0.00    -0.248 NA
ATOM     46  C   UNL A   1      47.128  24.874  25.633  1.00  0.00     0.031 C 
ATOM     47  C   UNL A   1      42.417  25.207  27.345  1.00  0.00     0.029 A 
ATOM     48  N   UNL A   1      43.730  27.002  27.593  1.00  0.00    -0.354 N 
ATOM     49  C   UNL A   1      47.787  27.003  26.175  1.00  0.00     0.074 A 
ATOM     50  C   UNL A   1      48.162  25.709  25.642  1.00  0.00     0.031 C 
ATOM     51  C   UNL A   1      41.709  26.136  28.004  1.00  0.00     0.029 A 
ATOM     52  C   UNL A   1      42.535  27.325  28.189  1.00  0.00     0.049 A 
ATOM     53  H   UNL A   1      44.499  27.616  27.558  1.00  0.00     0.167 HD
ATOM     54  C   UNL A   1      48.615  28.073  26.261  1.00  0.00     0.034 A 
ATOM     55  C   UNL A   1      42.139  28.455  28.806  1.00  0.00     0.034 A 
ATOM     56  C   UNL A   1      48.235  29.361  26.780  1.00  0.00     0.049 A 
ATOM     57  C   UNL A   1      43.072  29.627  28.877  1.00  0.00     0.074 A 
ATOM     58  C   UNL A   1      48.993  30.519  26.836  1.00  0.00     0.029 A 
ATOM     59  N   UNL A   1      47.006  29.662  27.346  1.00  0.00    -0.354 N 
ATOM     60  N   UNL A   1      44.285  29.738  28.394  1.00  0.00    -0.248 NA
ATOM     61  C   UNL A   1      42.576  30.836  29.547  1.00  0.00     0.031 C 
ATOM     62  C   UNL A   1      48.228  31.516  27.450  1.00  0.00     0.029 A 
ATOM     63  C   UNL A   1      46.989  30.983  27.764  1.00  0.00     0.049 A 
ATOM     64  H   UNL A   1      46.257  29.031  27.438  1.00  0.00     0.167 HD
ATOM     65  C   UNL A   1      44.691  31.034  28.685  1.00  0.00     0.074 A 
ATOM     66  C   UNL A   1      43.589  31.676  29.372  1.00  0.00     0.031 C 
ATOM     67  C   UNL A   1      45.879  31.629  28.415  1.00  0.00     0.034 A 
BRANCH  54  68
ATOM     68  C   UNL A   1      50.012  27.935  25.720  1.00  0.00     0.023 A 
ATOM     69  C   UNL A   1      51.080  27.787  26.627  1.00  0.00     0.012 A 
ATOM     70  C   UNL A   1      50.251  27.813  24.337  1.00  0.00     0.148 A 
ATOM     71  C   UNL A   1      52.369  27.525  26.166  1.00  0.00     0.002 A 
ATOM     72  C   UNL A   1      51.535  27.526  23.886  1.00  0.00     0.091 A 
ATOM     73  F   UNL A   1      49.219  27.965  23.496  1.00  0.00    -0.205 F 
ATOM     74  C   UNL A   1      52.594  27.385  24.799  1.00  0.00     0.022 A 
BRANCH  72  75
ATOM     75  S   UNL A   1      51.925  27.267  22.152  1.00  0.00     0.127 S 
ATOM     76  O   UNL A   1      52.232  28.628  21.716  1.00  0.00    -0.237 OA
ATOM     77  O   UNL A   1      53.082  26.376  22.228  1.00  0.00    -0.237 OA
ATOM     78  O   UNL A   1      50.736  26.678  21.555  1.00  0.00    -0.744 OA
ENDBRANCH  72  75
ENDBRANCH  54  68
BRANCH  55  79
ATOM     79  C   UNL A   1      40.751  28.538  29.331  1.00  0.00     0.023 A 
ATOM     80  C   UNL A   1      40.484  28.095  30.640  1.00  0.00     0.012 A 
ATOM     81  C   UNL A   1      39.723  29.132  28.575  1.00  0.00     0.148 A 
ATOM     82  C   UNL A   1      39.210  28.239  31.188  1.00  0.00     0.002 A 
ATOM     83  C   UNL A   1      38.468  29.307  29.140  1.00  0.00     0.091 A 
ATOM     84  F   UNL A   1      40.010  29.545  27.333  1.00  0.00    -0.205 F 
ATOM     85  C   UNL A   1      38.206  28.853  30.444  1.00  0.00     0.022 A 
BRANCH  83  86
ATOM     86  S   UNL A   1      37.140  30.179  28.303  1.00  0.00     0.127 S 
ATOM     87  O   UNL A   1      35.966  29.424  28.739  1.00  0.00    -0.237 OA
ATOM     88  O   UNL A   1      37.258  31.520  28.875  1.00  0.00    -0.237 OA
ATOM     89  O   UNL A   1      37.443  30.095  26.882  1.00  0.00    -0.744 OA
ENDBRANCH  83  86
ENDBRANCH  55  79
BRANCH  67  90
ATOM     90  C   UNL A   1      46.070  33.053  28.859  1.00  0.00     0.023 A 
ATOM     91  C   UNL A   1      46.679  33.313  30.103  1.00  0.00     0.012 A 
ATOM     92  C   UNL A   1      45.749  34.127  28.005  1.00  0.00     0.148 A 
ATOM     93  C   UNL A   1      46.957  34.622  30.495  1.00  0.00     0.002 A 
ATOM     94  C   UNL A   1      46.060  35.427  28.389  1.00  0.00     0.091 A 
ATOM     95  F   UNL A   1      45.161  33.854  26.831  1.00  0.00    -0.205 F 
ATOM     96  C   UNL A   1      46.658  35.676  29.635  1.00  0.00     0.022 A 
BRANCH  94  97
ATOM     97  S   UNL A   1      45.779  36.847  27.322  1.00  0.00     0.127 S 
ATOM     98  O   UNL A   1      46.269  37.944  28.155  1.00  0.00    -0.237 OA
ATOM     99  O   UNL A   1      46.619  36.535  26.166  1.00  0.00    -0.237 OA
ATOM    100  O   UNL A   1      44.349  36.868  27.047  1.00  0.00    -0.744 OA
ENDBRANCH  94  97
ENDBRANCH  67  90
ENDBRANCH  41  42
ENDBRANCH  34  36
ENDBRANCH  33  34
ENDBRANCH  32  33
ENDBRANCH  31  32
ENDBRANCH  30  31
ENDBRANCH  29  30
ENDBRANCH   1  29
TORSDOF 24
ENDMDL
