MODEL 1
REMARK VINA RESULT:      -9.5      0.000      0.000
REMARK SMILES C[C@@H](Nc1ccc(C(=O)OCCOCCOCCOC(=O)c2ccc(-c3c4nc(c(-c5cccc(S(=O)(=O)[O-])c5F)c5ccc([nH]5)c(-c5cccc(S(=O)(=O)[O-])c5F)c5nc(c(-c6cccc(S(=O)(=O)[O-])c6F)c6ccc3[nH]6)C=C5)C=C4)cc2)cc1)C1CC[NH+](C)CC1
REMARK SMILES IDX 14 1 13 2 12 3 11 4 10 5 8 6 9 7 7 8 4 9 5 10 86 11 6 12
REMARK SMILES IDX 85 13 3 14 2 16 1 17 87 18 88 19 93 20 89 21 92 22 90 23
REMARK SMILES IDX 91 24 15 26 16 27 17 28 18 29 19 30 20 31 21 32 22 33 23 34
REMARK SMILES IDX 84 35 24 36 83 37 25 38 26 39 27 40 77 41 28 42 82 43 76 44
REMARK SMILES IDX 78 45 29 46 81 47 75 48 74 49 30 51 62 52 42 53 61 54 43 55
REMARK SMILES IDX 46 56 60 57 79 58 44 59 45 60 59 62 80 63 47 64 31 65 32 66
REMARK SMILES IDX 40 67 33 68 35 69 41 70 34 71 36 72 37 73 38 74 39 75 63 76
REMARK SMILES IDX 64 77 72 78 65 79 67 80 73 81 66 82 68 83 69 84 70 85 71 86
REMARK SMILES IDX 48 87 49 88 57 89 50 90 52 91 58 92 51 93 53 94 54 95 55 96
REMARK SMILES IDX 56 97
REMARK H PARENT 3 15 90 25 78 50 46 61
REMARK Flexibility Score: inf
ROOT
ATOM      1  C   UNL A   1      34.144  35.671  28.614  1.00  0.00     0.188 C 
ENDROOT
BRANCH   1   2
ATOM      2  O   UNL A   1      34.357  34.537  27.789  1.00  0.00    -0.376 OA
BRANCH   2   3
ATOM      3  C   UNL A   1      33.639  33.337  28.053  1.00  0.00     0.202 C 
BRANCH   3   4
ATOM      4  C   UNL A   1      34.348  31.967  28.051  1.00  0.00     0.261 C 
BRANCH   4   5
ATOM      5  O   UNL A   1      33.561  30.883  27.526  1.00  0.00    -0.460 OA
BRANCH   5   6
ATOM      6  C   UNL A   1      34.227  29.721  27.365  1.00  0.00     0.338 C 
ATOM      7  O   UNL A   1      35.196  29.341  28.002  1.00  0.00    -0.246 OA
BRANCH   6   8
ATOM      8  C   UNL A   1      33.528  28.835  26.424  1.00  0.00     0.060 A 
ATOM      9  C   UNL A   1      32.171  26.048  24.530  1.00  0.00     0.034 A 
ATOM     10  C   UNL A   1      31.587  26.354  26.227  1.00  0.00     0.026 A 
ATOM     11  C   UNL A   1      33.281  27.229  23.704  1.00  0.00     0.026 A 
ATOM     12  C   UNL A   1      32.280  27.747  27.178  1.00  0.00     0.018 A 
ATOM     13  C   UNL A   1      33.963  28.655  24.669  1.00  0.00     0.018 A 
BRANCH   9  14
ATOM     14  N   UNL A   1      32.077  24.731  24.081  1.00  0.00    -0.382 N 
ATOM     15  H   UNL A   1      31.275  24.429  23.595  1.00  0.00     0.160 HD
BRANCH  14  16
ATOM     16  C   UNL A   1      33.189  23.787  24.336  1.00  0.00     0.079 C 
ATOM     17  C   UNL A   1      33.827  23.410  22.991  1.00  0.00     0.031 C 
BRANCH  16  18
ATOM     18  C   UNL A   1      33.031  22.500  25.213  1.00  0.00     0.022 C 
ATOM     19  C   UNL A   1      33.032  22.591  26.739  1.00  0.00     0.067 C 
ATOM     20  C   UNL A   1      33.937  21.343  24.839  1.00  0.00     0.067 C 
ATOM     21  C   UNL A   1      34.405  22.835  27.376  1.00  0.00     0.262 C 
ATOM     22  C   UNL A   1      35.160  21.234  25.759  1.00  0.00     0.262 C 
ATOM     23  N   UNL A   1      35.642  22.633  26.399  1.00  0.00    -0.337 N 
ATOM     24  C   UNL A   1      37.329  23.804  26.038  1.00  0.00     0.332 C 
ATOM     25  H   UNL A   1      36.482  23.194  26.261  1.00  0.00     0.347 HD
ENDBRANCH  16  18
ENDBRANCH  14  16
ENDBRANCH   9  14
ENDBRANCH   6   8
ENDBRANCH   5   6
ENDBRANCH   4   5
ENDBRANCH   3   4
ENDBRANCH   2   3
ENDBRANCH   1   2
BRANCH   1  26
ATOM     26  C   UNL A   1      33.058  35.613  29.706  1.00  0.00     0.188 C 
BRANCH  26  27
ATOM     27  O   UNL A   1      32.730  36.832  30.316  1.00  0.00    -0.376 OA
BRANCH  27  28
ATOM     28  C   UNL A   1      33.181  37.094  31.628  1.00  0.00     0.202 C 
BRANCH  28  29
ATOM     29  C   UNL A   1      33.283  36.033  32.747  1.00  0.00     0.261 C 
BRANCH  29  30
ATOM     30  O   UNL A   1      34.508  35.303  32.908  1.00  0.00    -0.460 OA
BRANCH  30  31
ATOM     31  C   UNL A   1      34.432  33.955  32.752  1.00  0.00     0.338 C 
ATOM     32  O   UNL A   1      33.417  33.281  32.755  1.00  0.00    -0.246 OA
BRANCH  31  33
ATOM     33  C   UNL A   1      35.760  33.444  32.336  1.00  0.00     0.060 A 
ATOM     34  C   UNL A   1      36.527  32.697  33.247  1.00  0.00     0.016 A 
ATOM     35  C   UNL A   1      36.264  33.738  31.070  1.00  0.00     0.016 A 
ATOM     36  C   UNL A   1      37.814  32.275  32.905  1.00  0.00     0.010 A 
ATOM     37  C   UNL A   1      37.563  33.334  30.740  1.00  0.00     0.010 A 
ATOM     38  C   UNL A   1      38.360  32.636  31.667  1.00  0.00    -0.014 A 
BRANCH  38  39
ATOM     39  C   UNL A   1      39.814  32.462  31.407  1.00  0.00     0.031 A 
ATOM     40  C   UNL A   1      40.779  33.419  32.057  1.00  0.00     0.074 A 
ATOM     41  C   UNL A   1      40.280  31.493  30.597  1.00  0.00     0.049 A 
ATOM     42  N   UNL A   1      42.073  33.527  31.908  1.00  0.00    -0.248 NA
ATOM     43  C   UNL A   1      40.201  34.394  32.999  1.00  0.00     0.031 C 
ATOM     44  C   UNL A   1      39.463  30.489  29.920  1.00  0.00     0.029 A 
ATOM     45  N   UNL A   1      41.562  31.223  30.180  1.00  0.00    -0.354 N 
ATOM     46  C   UNL A   1      42.459  34.603  32.697  1.00  0.00     0.074 A 
ATOM     47  C   UNL A   1      41.259  35.122  33.319  1.00  0.00     0.031 C 
ATOM     48  C   UNL A   1      40.259  29.732  29.145  1.00  0.00     0.029 A 
ATOM     49  C   UNL A   1      41.634  30.221  29.240  1.00  0.00     0.049 A 
ATOM     50  H   UNL A   1      42.352  31.701  30.522  1.00  0.00     0.167 HD
ATOM     51  C   UNL A   1      43.697  35.115  32.894  1.00  0.00     0.034 A 
ATOM     52  C   UNL A   1      42.680  29.775  28.514  1.00  0.00     0.034 A 
ATOM     53  C   UNL A   1      44.891  34.597  32.283  1.00  0.00     0.049 A 
ATOM     54  C   UNL A   1      44.044  30.388  28.719  1.00  0.00     0.074 A 
ATOM     55  C   UNL A   1      46.198  35.019  32.459  1.00  0.00     0.029 A 
ATOM     56  N   UNL A   1      44.927  33.562  31.362  1.00  0.00    -0.354 N 
ATOM     57  N   UNL A   1      44.409  31.344  29.538  1.00  0.00    -0.248 NA
ATOM     58  C   UNL A   1      45.149  29.838  27.916  1.00  0.00     0.031 C 
ATOM     59  C   UNL A   1      47.016  34.275  31.603  1.00  0.00     0.029 A 
ATOM     60  C   UNL A   1      46.229  33.344  30.946  1.00  0.00     0.049 A 
ATOM     61  H   UNL A   1      44.142  33.056  31.051  1.00  0.00     0.167 HD
ATOM     62  C   UNL A   1      45.786  31.475  29.387  1.00  0.00     0.074 A 
ATOM     63  C   UNL A   1      46.193  30.492  28.406  1.00  0.00     0.031 C 
ATOM     64  C   UNL A   1      46.636  32.333  30.004  1.00  0.00     0.034 A 
BRANCH  51  65
ATOM     65  C   UNL A   1      43.827  36.308  33.806  1.00  0.00     0.023 A 
ATOM     66  C   UNL A   1      44.142  36.127  35.169  1.00  0.00     0.012 A 
ATOM     67  C   UNL A   1      43.688  37.615  33.297  1.00  0.00     0.148 A 
ATOM     68  C   UNL A   1      44.278  37.226  36.017  1.00  0.00     0.002 A 
ATOM     69  C   UNL A   1      43.877  38.705  34.137  1.00  0.00     0.091 A 
ATOM     70  F   UNL A   1      43.371  37.766  32.004  1.00  0.00    -0.205 F 
ATOM     71  C   UNL A   1      44.156  38.513  35.499  1.00  0.00     0.022 A 
BRANCH  69  72
ATOM     72  S   UNL A   1      43.825  40.401  33.549  1.00  0.00     0.127 S 
ATOM     73  O   UNL A   1      44.169  41.144  34.762  1.00  0.00    -0.237 OA
ATOM     74  O   UNL A   1      44.864  40.400  32.521  1.00  0.00    -0.237 OA
ATOM     75  O   UNL A   1      42.473  40.617  33.053  1.00  0.00    -0.744 OA
ENDBRANCH  69  72
ENDBRANCH  51  65
BRANCH  52  76
ATOM     76  C   UNL A   1      42.492  28.678  27.521  1.00  0.00     0.023 A 
ATOM     77  C   UNL A   1      42.142  28.990  26.192  1.00  0.00     0.012 A 
ATOM     78  C   UNL A   1      42.644  27.328  27.891  1.00  0.00     0.148 A 
ATOM     79  C   UNL A   1      41.910  27.977  25.261  1.00  0.00     0.002 A 
ATOM     80  C   UNL A   1      42.469  26.327  26.945  1.00  0.00     0.091 A 
ATOM     81  F   UNL A   1      42.962  27.052  29.163  1.00  0.00    -0.205 F 
ATOM     82  C   UNL A   1      42.083  26.646  25.634  1.00  0.00     0.022 A 
BRANCH  80  83
ATOM     83  S   UNL A   1      42.781  24.594  27.302  1.00  0.00     0.127 S 
ATOM     84  O   UNL A   1      43.419  24.670  28.614  1.00  0.00    -0.237 OA
ATOM     85  O   UNL A   1      41.426  24.044  27.306  1.00  0.00    -0.237 OA
ATOM     86  O   UNL A   1      43.628  24.112  26.220  1.00  0.00    -0.744 OA
ENDBRANCH  80  83
ENDBRANCH  52  76
BRANCH  64  87
ATOM     87  C   UNL A   1      48.110  32.211  29.703  1.00  0.00     0.023 A 
ATOM     88  C   UNL A   1      48.936  31.376  30.482  1.00  0.00     0.012 A 
ATOM     89  C   UNL A   1      48.660  32.878  28.589  1.00  0.00     0.148 A 
ATOM     90  C   UNL A   1      50.293  31.243  30.183  1.00  0.00     0.002 A 
ATOM     91  C   UNL A   1      49.998  32.695  28.263  1.00  0.00     0.091 A 
ATOM     92  F   UNL A   1      47.863  33.679  27.867  1.00  0.00    -0.205 F 
ATOM     93  C   UNL A   1      50.820  31.892  29.069  1.00  0.00     0.022 A 
BRANCH  91  94
ATOM     94  S   UNL A   1      50.739  33.410  26.791  1.00  0.00     0.127 S 
ATOM     95  O   UNL A   1      50.711  34.838  27.107  1.00  0.00    -0.237 OA
ATOM     96  O   UNL A   1      52.074  32.810  26.796  1.00  0.00    -0.237 OA
ATOM     97  O   UNL A   1      49.896  33.004  25.675  1.00  0.00    -0.744 OA
ENDBRANCH  91  94
ENDBRANCH  64  87
ENDBRANCH  38  39
ENDBRANCH  31  33
ENDBRANCH  30  31
ENDBRANCH  29  30
ENDBRANCH  28  29
ENDBRANCH  27  28
ENDBRANCH  26  27
ENDBRANCH   1  26
TORSDOF 23
ENDMDL
MODEL 2
REMARK VINA RESULT:      -9.0      4.516      8.110
REMARK SMILES C[C@@H](Nc1ccc(C(=O)OCCOCCOCCOC(=O)c2ccc(-c3c4nc(c(-c5cccc(S(=O)(=O)[O-])c5F)c5ccc([nH]5)c(-c5cccc(S(=O)(=O)[O-])c5F)c5nc(c(-c6cccc(S(=O)(=O)[O-])c6F)c6ccc3[nH]6)C=C5)C=C4)cc2)cc1)C1CC[NH+](C)CC1
REMARK SMILES IDX 14 1 13 2 12 3 11 4 10 5 8 6 9 7 7 8 4 9 5 10 86 11 6 12
REMARK SMILES IDX 85 13 3 14 2 16 1 17 87 18 88 19 93 20 89 21 92 22 90 23
REMARK SMILES IDX 91 24 15 26 16 27 17 28 18 29 19 30 20 31 21 32 22 33 23 34
REMARK SMILES IDX 84 35 24 36 83 37 25 38 26 39 27 40 77 41 28 42 82 43 76 44
REMARK SMILES IDX 78 45 29 46 81 47 75 48 74 49 30 51 62 52 42 53 61 54 43 55
REMARK SMILES IDX 46 56 60 57 79 58 44 59 45 60 59 62 80 63 47 64 31 65 32 66
REMARK SMILES IDX 40 67 33 68 35 69 41 70 34 71 36 72 37 73 38 74 39 75 63 76
REMARK SMILES IDX 64 77 72 78 65 79 67 80 73 81 66 82 68 83 69 84 70 85 71 86
REMARK SMILES IDX 48 87 49 88 57 89 50 90 52 91 58 92 51 93 53 94 54 95 55 96
REMARK SMILES IDX 56 97
REMARK H PARENT 3 15 90 25 78 50 46 61
REMARK Flexibility Score: inf
ROOT
ATOM      1  C   UNL A   1      39.308  34.828  29.727  1.00  0.00     0.188 C 
ENDROOT
BRANCH   1   2
ATOM      2  O   UNL A   1      40.629  34.558  29.286  1.00  0.00    -0.376 OA
BRANCH   2   3
ATOM      3  C   UNL A   1      41.422  35.619  28.764  1.00  0.00     0.202 C 
BRANCH   3   4
ATOM      4  C   UNL A   1      42.924  35.424  28.476  1.00  0.00     0.261 C 
BRANCH   4   5
ATOM      5  O   UNL A   1      43.307  34.072  28.164  1.00  0.00    -0.460 OA
BRANCH   5   6
ATOM      6  C   UNL A   1      44.096  33.477  29.082  1.00  0.00     0.338 C 
ATOM      7  O   UNL A   1      44.188  33.768  30.264  1.00  0.00    -0.246 OA
BRANCH   6   8
ATOM      8  C   UNL A   1      44.731  32.270  28.534  1.00  0.00     0.060 A 
ATOM      9  C   UNL A   1      46.096  29.623  26.454  1.00  0.00     0.034 A 
ATOM     10  C   UNL A   1      46.921  31.245  26.506  1.00  0.00     0.026 A 
ATOM     11  C   UNL A   1      44.711  29.251  27.575  1.00  0.00     0.026 A 
ATOM     12  C   UNL A   1      46.225  32.574  27.541  1.00  0.00     0.018 A 
ATOM     13  C   UNL A   1      44.024  30.600  28.641  1.00  0.00     0.018 A 
BRANCH   9  14
ATOM     14  N   UNL A   1      46.284  28.879  25.289  1.00  0.00    -0.382 N 
ATOM     15  H   UNL A   1      45.864  29.166  24.446  1.00  0.00     0.160 HD
BRANCH  14  16
ATOM     16  C   UNL A   1      47.120  27.658  25.325  1.00  0.00     0.079 C 
ATOM     17  C   UNL A   1      46.203  26.435  25.182  1.00  0.00     0.031 C 
BRANCH  16  18
ATOM     18  C   UNL A   1      48.181  27.382  26.443  1.00  0.00     0.022 C 
ATOM     19  C   UNL A   1      49.298  28.388  26.724  1.00  0.00     0.067 C 
ATOM     20  C   UNL A   1      48.823  26.009  26.406  1.00  0.00     0.067 C 
ATOM     21  C   UNL A   1      50.426  28.416  25.686  1.00  0.00     0.262 C 
ATOM     22  C   UNL A   1      50.216  26.028  25.764  1.00  0.00     0.262 C 
ATOM     23  N   UNL A   1      50.432  27.194  24.671  1.00  0.00    -0.337 N 
ATOM     24  C   UNL A   1      50.627  27.117  22.596  1.00  0.00     0.332 C 
ATOM     25  H   UNL A   1      50.569  27.166  23.661  1.00  0.00     0.347 HD
ENDBRANCH  16  18
ENDBRANCH  14  16
ENDBRANCH   9  14
ENDBRANCH   6   8
ENDBRANCH   5   6
ENDBRANCH   4   5
ENDBRANCH   3   4
ENDBRANCH   2   3
ENDBRANCH   1   2
BRANCH   1  26
ATOM     26  C   UNL A   1      38.256  33.702  29.682  1.00  0.00     0.188 C 
BRANCH  26  27
ATOM     27  O   UNL A   1      37.572  33.449  30.881  1.00  0.00    -0.376 OA
BRANCH  27  28
ATOM     28  C   UNL A   1      36.186  33.708  30.955  1.00  0.00     0.202 C 
BRANCH  28  29
ATOM     29  C   UNL A   1      35.197  33.524  29.782  1.00  0.00     0.261 C 
BRANCH  29  30
ATOM     30  O   UNL A   1      34.489  32.283  29.652  1.00  0.00    -0.460 OA
BRANCH  30  31
ATOM     31  C   UNL A   1      34.728  31.568  28.521  1.00  0.00     0.338 C 
ATOM     32  O   UNL A   1      34.202  31.735  27.433  1.00  0.00    -0.246 OA
BRANCH  31  33
ATOM     33  C   UNL A   1      35.908  30.699  28.742  1.00  0.00     0.060 A 
ATOM     34  C   UNL A   1      35.940  29.854  29.864  1.00  0.00     0.016 A 
ATOM     35  C   UNL A   1      36.995  30.751  27.871  1.00  0.00     0.016 A 
ATOM     36  C   UNL A   1      37.076  29.086  30.136  1.00  0.00     0.010 A 
ATOM     37  C   UNL A   1      38.140  29.999  28.160  1.00  0.00     0.010 A 
ATOM     38  C   UNL A   1      38.203  29.194  29.313  1.00  0.00    -0.014 A 
BRANCH  38  39
ATOM     39  C   UNL A   1      39.508  28.628  29.747  1.00  0.00     0.031 A 
ATOM     40  C   UNL A   1      40.237  29.297  30.885  1.00  0.00     0.074 A 
ATOM     41  C   UNL A   1      40.056  27.559  29.142  1.00  0.00     0.049 A 
ATOM     42  N   UNL A   1      41.422  29.047  31.376  1.00  0.00    -0.248 NA
ATOM     43  C   UNL A   1      39.532  30.405  31.553  1.00  0.00     0.031 C 
ATOM     44  C   UNL A   1      39.454  26.804  28.046  1.00  0.00     0.029 A 
ATOM     45  N   UNL A   1      41.270  26.945  29.348  1.00  0.00    -0.354 N 
ATOM     46  C   UNL A   1      41.626  29.990  32.376  1.00  0.00     0.074 A 
ATOM     47  C   UNL A   1      40.444  30.823  32.418  1.00  0.00     0.031 C 
ATOM     48  C   UNL A   1      40.314  25.849  27.652  1.00  0.00     0.029 A 
ATOM     49  C   UNL A   1      41.542  25.948  28.439  1.00  0.00     0.049 A 
ATOM     50  H   UNL A   1      41.884  27.195  30.075  1.00  0.00     0.167 HD
ATOM     51  C   UNL A   1      42.695  30.150  33.191  1.00  0.00     0.034 A 
ATOM     52  C   UNL A   1      42.664  25.225  28.243  1.00  0.00     0.034 A 
ATOM     53  C   UNL A   1      43.869  29.318  33.156  1.00  0.00     0.049 A 
ATOM     54  C   UNL A   1      43.859  25.448  29.136  1.00  0.00     0.074 A 
ATOM     55  C   UNL A   1      44.983  29.372  33.975  1.00  0.00     0.029 A 
ATOM     56  N   UNL A   1      44.093  28.300  32.243  1.00  0.00    -0.354 N 
ATOM     57  N   UNL A   1      44.001  26.280  30.139  1.00  0.00    -0.248 NA
ATOM     58  C   UNL A   1      45.042  24.608  28.888  1.00  0.00     0.031 C 
ATOM     59  C   UNL A   1      45.904  28.423  33.521  1.00  0.00     0.029 A 
ATOM     60  C   UNL A   1      45.335  27.731  32.465  1.00  0.00     0.049 A 
ATOM     61  H   UNL A   1      43.461  28.022  31.542  1.00  0.00     0.167 HD
ATOM     62  C   UNL A   1      45.264  26.031  30.670  1.00  0.00     0.074 A 
ATOM     63  C   UNL A   1      45.842  24.961  29.885  1.00  0.00     0.031 C 
ATOM     64  C   UNL A   1      45.888  26.634  31.712  1.00  0.00     0.034 A 
BRANCH  51  65
ATOM     65  C   UNL A   1      42.653  31.275  34.193  1.00  0.00     0.023 A 
ATOM     66  C   UNL A   1      42.228  31.031  35.515  1.00  0.00     0.012 A 
ATOM     67  C   UNL A   1      43.088  32.567  33.835  1.00  0.00     0.148 A 
ATOM     68  C   UNL A   1      42.198  32.064  36.452  1.00  0.00     0.002 A 
ATOM     69  C   UNL A   1      43.105  33.577  34.788  1.00  0.00     0.091 A 
ATOM     70  F   UNL A   1      43.472  32.783  32.569  1.00  0.00    -0.205 F 
ATOM     71  C   UNL A   1      42.646  33.332  36.091  1.00  0.00     0.022 A 
BRANCH  69  72
ATOM     72  S   UNL A   1      43.743  35.220  34.447  1.00  0.00     0.127 S 
ATOM     73  O   UNL A   1      43.595  35.870  35.749  1.00  0.00    -0.237 OA
ATOM     74  O   UNL A   1      45.125  34.937  34.061  1.00  0.00    -0.237 OA
ATOM     75  O   UNL A   1      42.911  35.766  33.383  1.00  0.00    -0.744 OA
ENDBRANCH  69  72
ENDBRANCH  51  65
BRANCH  52  76
ATOM     76  C   UNL A   1      42.719  24.207  27.154  1.00  0.00     0.023 A 
ATOM     77  C   UNL A   1      43.295  24.541  25.913  1.00  0.00     0.012 A 
ATOM     78  C   UNL A   1      42.193  22.914  27.340  1.00  0.00     0.148 A 
ATOM     79  C   UNL A   1      43.310  23.620  24.864  1.00  0.00     0.002 A 
ATOM     80  C   UNL A   1      42.264  21.983  26.312  1.00  0.00     0.091 A 
ATOM     81  F   UNL A   1      41.637  22.621  28.524  1.00  0.00    -0.205 F 
ATOM     82  C   UNL A   1      42.804  22.339  25.066  1.00  0.00     0.022 A 
BRANCH  80  83
ATOM     83  S   UNL A   1      41.743  20.276  26.516  1.00  0.00     0.127 S 
ATOM     84  O   UNL A   1      40.288  20.403  26.490  1.00  0.00    -0.237 OA
ATOM     85  O   UNL A   1      42.327  19.645  25.333  1.00  0.00    -0.237 OA
ATOM     86  O   UNL A   1      42.312  19.836  27.782  1.00  0.00    -0.744 OA
ENDBRANCH  80  83
ENDBRANCH  52  76
BRANCH  64  87
ATOM     87  C   UNL A   1      47.242  26.113  32.127  1.00  0.00     0.023 A 
ATOM     88  C   UNL A   1      47.369  25.232  33.218  1.00  0.00     0.012 A 
ATOM     89  C   UNL A   1      48.387  26.449  31.376  1.00  0.00     0.148 A 
ATOM     90  C   UNL A   1      48.619  24.729  33.581  1.00  0.00     0.002 A 
ATOM     91  C   UNL A   1      49.619  25.899  31.707  1.00  0.00     0.091 A 
ATOM     92  F   UNL A   1      48.250  27.300  30.348  1.00  0.00    -0.205 F 
ATOM     93  C   UNL A   1      49.740  25.052  32.820  1.00  0.00     0.022 A 
BRANCH  91  94
ATOM     94  S   UNL A   1      51.097  26.179  30.725  1.00  0.00     0.127 S 
ATOM     95  O   UNL A   1      51.256  27.629  30.833  1.00  0.00    -0.237 OA
ATOM     96  O   UNL A   1      52.100  25.399  31.450  1.00  0.00    -0.237 OA
ATOM     97  O   UNL A   1      50.795  25.686  29.388  1.00  0.00    -0.744 OA
ENDBRANCH  91  94
ENDBRANCH  64  87
ENDBRANCH  38  39
ENDBRANCH  31  33
ENDBRANCH  30  31
ENDBRANCH  29  30
ENDBRANCH  28  29
ENDBRANCH  27  28
ENDBRANCH  26  27
ENDBRANCH   1  26
TORSDOF 23
ENDMDL
MODEL 3
REMARK VINA RESULT:      -9.0      4.873      8.591
REMARK SMILES C[C@@H](Nc1ccc(C(=O)OCCOCCOCCOC(=O)c2ccc(-c3c4nc(c(-c5cccc(S(=O)(=O)[O-])c5F)c5ccc([nH]5)c(-c5cccc(S(=O)(=O)[O-])c5F)c5nc(c(-c6cccc(S(=O)(=O)[O-])c6F)c6ccc3[nH]6)C=C5)C=C4)cc2)cc1)C1CC[NH+](C)CC1
REMARK SMILES IDX 14 1 13 2 12 3 11 4 10 5 8 6 9 7 7 8 4 9 5 10 86 11 6 12
REMARK SMILES IDX 85 13 3 14 2 16 1 17 87 18 88 19 93 20 89 21 92 22 90 23
REMARK SMILES IDX 91 24 15 26 16 27 17 28 18 29 19 30 20 31 21 32 22 33 23 34
REMARK SMILES IDX 84 35 24 36 83 37 25 38 26 39 27 40 77 41 28 42 82 43 76 44
REMARK SMILES IDX 78 45 29 46 81 47 75 48 74 49 30 51 62 52 42 53 61 54 43 55
REMARK SMILES IDX 46 56 60 57 79 58 44 59 45 60 59 62 80 63 47 64 31 65 32 66
REMARK SMILES IDX 40 67 33 68 35 69 41 70 34 71 36 72 37 73 38 74 39 75 63 76
REMARK SMILES IDX 64 77 72 78 65 79 67 80 73 81 66 82 68 83 69 84 70 85 71 86
REMARK SMILES IDX 48 87 49 88 57 89 50 90 52 91 58 92 51 93 53 94 54 95 55 96
REMARK SMILES IDX 56 97
REMARK H PARENT 3 15 90 25 78 50 46 61
REMARK Flexibility Score: inf
ROOT
ATOM      1  C   UNL A   1      39.200  34.876  29.588  1.00  0.00     0.188 C 
ENDROOT
BRANCH   1   2
ATOM      2  O   UNL A   1      40.530  34.802  29.099  1.00  0.00    -0.376 OA
BRANCH   2   3
ATOM      3  C   UNL A   1      41.097  35.933  28.447  1.00  0.00     0.202 C 
BRANCH   3   4
ATOM      4  C   UNL A   1      42.586  35.956  28.043  1.00  0.00     0.261 C 
BRANCH   4   5
ATOM      5  O   UNL A   1      43.187  34.658  27.887  1.00  0.00    -0.460 OA
BRANCH   5   6
ATOM      6  C   UNL A   1      44.138  34.357  28.795  1.00  0.00     0.338 C 
ATOM      7  O   UNL A   1      44.321  34.907  29.870  1.00  0.00    -0.246 OA
BRANCH   6   8
ATOM      8  C   UNL A   1      44.852  33.126  28.429  1.00  0.00     0.060 A 
ATOM      9  C   UNL A   1      46.497  29.889  28.314  1.00  0.00     0.034 A 
ATOM     10  C   UNL A   1      44.686  29.975  28.483  1.00  0.00     0.026 A 
ATOM     11  C   UNL A   1      47.472  31.395  28.010  1.00  0.00     0.026 A 
ATOM     12  C   UNL A   1      43.866  31.602  28.552  1.00  0.00     0.018 A 
ATOM     13  C   UNL A   1      46.629  33.043  28.059  1.00  0.00     0.018 A 
BRANCH   9  14
ATOM     14  N   UNL A   1      47.104  28.743  28.827  1.00  0.00    -0.382 N 
ATOM     15  H   UNL A   1      47.174  28.615  29.801  1.00  0.00     0.160 HD
BRANCH  14  16
ATOM     16  C   UNL A   1      47.642  27.719  27.903  1.00  0.00     0.079 C 
ATOM     17  C   UNL A   1      49.152  27.948  27.747  1.00  0.00     0.031 C 
BRANCH  16  18
ATOM     18  C   UNL A   1      47.015  27.424  26.500  1.00  0.00     0.022 C 
ATOM     19  C   UNL A   1      46.624  25.999  26.104  1.00  0.00     0.067 C 
ATOM     20  C   UNL A   1      47.752  28.023  25.318  1.00  0.00     0.067 C 
ATOM     21  C   UNL A   1      47.796  25.075  25.755  1.00  0.00     0.262 C 
ATOM     22  C   UNL A   1      48.641  26.999  24.599  1.00  0.00     0.262 C 
ATOM     23  N   UNL A   1      49.188  25.811  25.542  1.00  0.00    -0.337 N 
ATOM     24  C   UNL A   1      51.100  25.396  26.265  1.00  0.00     0.332 C 
ATOM     25  H   UNL A   1      50.125  25.575  25.869  1.00  0.00     0.347 HD
ENDBRANCH  16  18
ENDBRANCH  14  16
ENDBRANCH   9  14
ENDBRANCH   6   8
ENDBRANCH   5   6
ENDBRANCH   4   5
ENDBRANCH   3   4
ENDBRANCH   2   3
ENDBRANCH   1   2
BRANCH   1  26
ATOM     26  C   UNL A   1      38.360  33.587  29.679  1.00  0.00     0.188 C 
BRANCH  26  27
ATOM     27  O   UNL A   1      37.705  33.363  30.899  1.00  0.00    -0.376 OA
BRANCH  27  28
ATOM     28  C   UNL A   1      36.312  33.578  30.988  1.00  0.00     0.202 C 
BRANCH  28  29
ATOM     29  C   UNL A   1      35.321  33.381  29.819  1.00  0.00     0.261 C 
BRANCH  29  30
ATOM     30  O   UNL A   1      34.641  32.124  29.683  1.00  0.00    -0.460 OA
BRANCH  30  31
ATOM     31  C   UNL A   1      34.880  31.431  28.538  1.00  0.00     0.338 C 
ATOM     32  O   UNL A   1      34.344  31.607  27.458  1.00  0.00    -0.246 OA
BRANCH  31  33
ATOM     33  C   UNL A   1      36.074  30.574  28.737  1.00  0.00     0.060 A 
ATOM     34  C   UNL A   1      36.139  29.734  29.861  1.00  0.00     0.016 A 
ATOM     35  C   UNL A   1      37.141  30.634  27.842  1.00  0.00     0.016 A 
ATOM     36  C   UNL A   1      37.288  28.978  30.110  1.00  0.00     0.010 A 
ATOM     37  C   UNL A   1      38.299  29.895  28.108  1.00  0.00     0.010 A 
ATOM     38  C   UNL A   1      38.396  29.095  29.262  1.00  0.00    -0.014 A 
BRANCH  38  39
ATOM     39  C   UNL A   1      39.716  28.544  29.670  1.00  0.00     0.031 A 
ATOM     40  C   UNL A   1      40.494  29.265  30.741  1.00  0.00     0.074 A 
ATOM     41  C   UNL A   1      40.233  27.442  29.098  1.00  0.00     0.049 A 
ATOM     42  N   UNL A   1      41.699  29.033  31.193  1.00  0.00    -0.248 NA
ATOM     43  C   UNL A   1      39.823  30.410  31.381  1.00  0.00     0.031 C 
ATOM     44  C   UNL A   1      39.582  26.636  28.068  1.00  0.00     0.029 A 
ATOM     45  N   UNL A   1      41.452  26.832  29.283  1.00  0.00    -0.354 N 
ATOM     46  C   UNL A   1      41.948  30.024  32.135  1.00  0.00     0.074 A 
ATOM     47  C   UNL A   1      40.772  30.865  32.184  1.00  0.00     0.031 C 
ATOM     48  C   UNL A   1      40.422  25.657  27.686  1.00  0.00     0.029 A 
ATOM     49  C   UNL A   1      41.682  25.789  28.416  1.00  0.00     0.049 A 
ATOM     50  H   UNL A   1      42.097  27.115  29.970  1.00  0.00     0.167 HD
ATOM     51  C   UNL A   1      43.051  30.218  32.896  1.00  0.00     0.034 A 
ATOM     52  C   UNL A   1      42.792  25.050  28.210  1.00  0.00     0.034 A 
ATOM     53  C   UNL A   1      44.219  29.379  32.854  1.00  0.00     0.049 A 
ATOM     54  C   UNL A   1      44.025  25.311  29.040  1.00  0.00     0.074 A 
ATOM     55  C   UNL A   1      45.367  29.468  33.621  1.00  0.00     0.029 A 
ATOM     56  N   UNL A   1      44.400  28.314  31.985  1.00  0.00    -0.354 N 
ATOM     57  N   UNL A   1      44.212  26.191  29.992  1.00  0.00    -0.248 NA
ATOM     58  C   UNL A   1      45.193  24.452  28.785  1.00  0.00     0.031 C 
ATOM     59  C   UNL A   1      46.265  28.491  33.178  1.00  0.00     0.029 A 
ATOM     60  C   UNL A   1      45.649  27.750  32.183  1.00  0.00     0.049 A 
ATOM     61  H   UNL A   1      43.738  28.005  31.325  1.00  0.00     0.167 HD
ATOM     62  C   UNL A   1      45.495  25.962  30.481  1.00  0.00     0.074 A 
ATOM     63  C   UNL A   1      46.035  24.850  29.728  1.00  0.00     0.031 C 
ATOM     64  C   UNL A   1      46.164  26.613  31.464  1.00  0.00     0.034 A 
BRANCH  51  65
ATOM     65  C   UNL A   1      43.056  31.393  33.839  1.00  0.00     0.023 A 
ATOM     66  C   UNL A   1      43.538  32.646  33.409  1.00  0.00     0.012 A 
ATOM     67  C   UNL A   1      42.529  31.266  35.141  1.00  0.00     0.148 A 
ATOM     68  C   UNL A   1      43.534  33.742  34.271  1.00  0.00     0.002 A 
ATOM     69  C   UNL A   1      42.479  32.376  35.974  1.00  0.00     0.091 A 
ATOM     70  F   UNL A   1      42.090  30.064  35.537  1.00  0.00    -0.205 F 
ATOM     71  C   UNL A   1      42.995  33.609  35.548  1.00  0.00     0.022 A 
BRANCH  69  72
ATOM     72  S   UNL A   1      41.727  32.329  37.605  1.00  0.00     0.127 S 
ATOM     73  O   UNL A   1      42.466  31.237  38.239  1.00  0.00    -0.237 OA
ATOM     74  O   UNL A   1      42.042  33.659  38.124  1.00  0.00    -0.237 OA
ATOM     75  O   UNL A   1      40.309  32.076  37.391  1.00  0.00    -0.744 OA
ENDBRANCH  69  72
ENDBRANCH  51  65
BRANCH  52  76
ATOM     76  C   UNL A   1      42.797  23.977  27.173  1.00  0.00     0.023 A 
ATOM     77  C   UNL A   1      43.412  24.212  25.927  1.00  0.00     0.012 A 
ATOM     78  C   UNL A   1      42.185  22.732  27.412  1.00  0.00     0.148 A 
ATOM     79  C   UNL A   1      43.383  23.241  24.925  1.00  0.00     0.002 A 
ATOM     80  C   UNL A   1      42.211  21.748  26.431  1.00  0.00     0.091 A 
ATOM     81  F   UNL A   1      41.594  22.534  28.598  1.00  0.00    -0.205 F 
ATOM     82  C   UNL A   1      42.791  22.007  25.179  1.00  0.00     0.022 A 
BRANCH  80  83
ATOM     83  S   UNL A   1      41.577  20.091  26.708  1.00  0.00     0.127 S 
ATOM     84  O   UNL A   1      40.159  20.349  26.945  1.00  0.00    -0.237 OA
ATOM     85  O   UNL A   1      41.881  19.441  25.433  1.00  0.00    -0.237 OA
ATOM     86  O   UNL A   1      42.318  19.568  27.847  1.00  0.00    -0.744 OA
ENDBRANCH  80  83
ENDBRANCH  52  76
BRANCH  64  87
ATOM     87  C   UNL A   1      47.533  26.105  31.848  1.00  0.00     0.023 A 
ATOM     88  C   UNL A   1      48.682  26.554  31.168  1.00  0.00     0.012 A 
ATOM     89  C   UNL A   1      47.679  25.228  32.942  1.00  0.00     0.148 A 
ATOM     90  C   UNL A   1      49.949  26.105  31.544  1.00  0.00     0.002 A 
ATOM     91  C   UNL A   1      48.947  24.831  33.347  1.00  0.00     0.091 A 
ATOM     92  F   UNL A   1      46.573  24.801  33.570  1.00  0.00    -0.205 F 
ATOM     93  C   UNL A   1      50.082  25.254  32.639  1.00  0.00     0.022 A 
BRANCH  91  94
ATOM     94  S   UNL A   1      49.221  23.819  34.806  1.00  0.00     0.127 S 
ATOM     95  O   UNL A   1      48.351  22.673  34.541  1.00  0.00    -0.237 OA
ATOM     96  O   UNL A   1      50.653  23.531  34.716  1.00  0.00    -0.237 OA
ATOM     97  O   UNL A   1      48.838  24.639  35.946  1.00  0.00    -0.744 OA
ENDBRANCH  91  94
ENDBRANCH  64  87
ENDBRANCH  38  39
ENDBRANCH  31  33
ENDBRANCH  30  31
ENDBRANCH  29  30
ENDBRANCH  28  29
ENDBRANCH  27  28
ENDBRANCH  26  27
ENDBRANCH   1  26
TORSDOF 23
ENDMDL
