MODEL 1
REMARK VINA RESULT:      -6.8      0.000      0.000
REMARK SMILES C[C@H](C(=O)OCCOCCOCCOC(=O)c1ccc(-c2c3nc(c(-c4cccc(S(=O)(=O)[O-])c4F)c4ccc([nH]4)c(-c4cccc(S(=O)(=O)[O-])c4F)c4nc(c(-c5cccc(S(=O)(=O)[O-])c5F)c5ccc2[nH]5)C=C4)C=C3)cc1)[C@H](C)[NH+]1CC[NH+](CCO)CC1
REMARK SMILES IDX 9 1 8 2 7 3 6 4 5 5 3 6 4 7 2 8 1 9 80 10 81 11 82 12 83 13
REMARK SMILES IDX 90 14 84 16 89 17 85 18 86 20 87 21 88 22 10 24 11 25 12 26
REMARK SMILES IDX 13 27 14 28 15 29 16 30 17 31 18 32 79 33 19 34 78 35 20 36
REMARK SMILES IDX 21 37 22 38 72 39 23 40 77 41 71 42 73 43 24 44 76 45 70 46
REMARK SMILES IDX 69 47 25 49 57 50 37 51 56 52 38 53 41 54 55 55 74 56 39 57
REMARK SMILES IDX 40 58 54 60 75 61 42 62 26 63 27 64 35 65 28 66 30 67 36 68
REMARK SMILES IDX 29 69 31 70 32 71 33 72 34 73 58 74 59 75 67 76 60 77 62 78
REMARK SMILES IDX 68 79 61 80 63 81 64 82 65 83 66 84 43 85 44 86 52 87 45 88
REMARK SMILES IDX 47 89 53 90 46 91 48 92 49 93 50 94 51 95
REMARK H PARENT 82 15 85 19 88 23 73 48 41 59
REMARK Flexibility Score: inf
ROOT
ATOM      1  C   UNL A   1      48.337  21.463  35.669  1.00  0.00     0.188 C 
ENDROOT
BRANCH   1   2
ATOM      2  O   UNL A   1      47.349  20.638  36.274  1.00  0.00    -0.376 OA
BRANCH   2   3
ATOM      3  C   UNL A   1      46.056  21.207  36.387  1.00  0.00     0.202 C 
BRANCH   3   4
ATOM      4  C   UNL A   1      45.314  21.328  35.055  1.00  0.00     0.261 C 
BRANCH   4   5
ATOM      5  O   UNL A   1      45.361  22.614  34.416  1.00  0.00    -0.463 OA
BRANCH   5   6
ATOM      6  C   UNL A   1      44.222  23.354  34.411  1.00  0.00     0.314 C 
ATOM      7  O   UNL A   1      43.138  22.944  34.798  1.00  0.00    -0.252 OA
BRANCH   6   8
ATOM      8  C   UNL A   1      44.463  24.700  33.735  1.00  0.00     0.154 C 
ATOM      9  C   UNL A   1      44.432  24.341  32.246  1.00  0.00     0.026 C 
BRANCH   8  10
ATOM     10  C   UNL A   1      43.583  25.874  34.310  1.00  0.00     0.195 C 
ATOM     11  C   UNL A   1      43.290  27.021  33.330  1.00  0.00     0.076 C 
BRANCH  10  12
ATOM     12  N   UNL A   1      43.937  26.472  35.594  1.00  0.00    -0.323 N 
ATOM     13  C   UNL A   1      42.943  26.793  36.608  1.00  0.00     0.324 C 
ATOM     14  C   UNL A   1      45.293  26.524  36.083  1.00  0.00     0.324 C 
ATOM     15  H   UNL A   1      43.865  27.180  34.863  1.00  0.00     0.348 HD
ATOM     16  C   UNL A   1      43.157  26.044  37.956  1.00  0.00     0.324 C 
ATOM     17  C   UNL A   1      45.454  25.532  37.249  1.00  0.00     0.324 C 
ATOM     18  N   UNL A   1      44.534  25.742  38.365  1.00  0.00    -0.324 N 
ATOM     19  H   UNL A   1      44.397  24.829  38.798  1.00  0.00     0.348 HD
BRANCH  18  20
ATOM     20  C   UNL A   1      45.104  26.440  39.514  1.00  0.00     0.291 C 
BRANCH  20  21
ATOM     21  C   UNL A   1      44.441  26.252  40.884  1.00  0.00     0.217 C 
BRANCH  21  22
ATOM     22  O   UNL A   1      44.102  27.501  41.465  1.00  0.00    -0.391 OA
ATOM     23  H   UNL A   1      43.213  27.449  41.850  1.00  0.00     0.210 HD
ENDBRANCH  21  22
ENDBRANCH  20  21
ENDBRANCH  18  20
ENDBRANCH  10  12
ENDBRANCH   8  10
ENDBRANCH   6   8
ENDBRANCH   5   6
ENDBRANCH   4   5
ENDBRANCH   3   4
ENDBRANCH   2   3
ENDBRANCH   1   2
BRANCH   1  24
ATOM     24  C   UNL A   1      49.296  20.667  34.764  1.00  0.00     0.188 C 
BRANCH  24  25
ATOM     25  O   UNL A   1      50.704  20.875  34.823  1.00  0.00    -0.376 OA
BRANCH  25  26
ATOM     26  C   UNL A   1      51.524  20.317  33.813  1.00  0.00     0.202 C 
BRANCH  26  27
ATOM     27  C   UNL A   1      52.161  21.296  32.819  1.00  0.00     0.261 C 
BRANCH  27  28
ATOM     28  O   UNL A   1      51.333  22.395  32.409  1.00  0.00    -0.460 OA
BRANCH  28  29
ATOM     29  C   UNL A   1      51.856  23.629  32.614  1.00  0.00     0.338 C 
ATOM     30  O   UNL A   1      53.042  23.914  32.691  1.00  0.00    -0.246 OA
BRANCH  29  31
ATOM     31  C   UNL A   1      50.778  24.648  32.610  1.00  0.00     0.060 A 
ATOM     32  C   UNL A   1      49.595  24.372  33.310  1.00  0.00     0.016 A 
ATOM     33  C   UNL A   1      50.893  25.835  31.882  1.00  0.00     0.016 A 
ATOM     34  C   UNL A   1      48.511  25.254  33.246  1.00  0.00     0.010 A 
ATOM     35  C   UNL A   1      49.802  26.709  31.804  1.00  0.00     0.010 A 
ATOM     36  C   UNL A   1      48.591  26.407  32.455  1.00  0.00    -0.014 A 
BRANCH  36  37
ATOM     37  C   UNL A   1      47.371  27.206  32.167  1.00  0.00     0.031 A 
ATOM     38  C   UNL A   1      46.941  28.260  33.153  1.00  0.00     0.074 A 
ATOM     39  C   UNL A   1      46.631  26.992  31.062  1.00  0.00     0.049 A 
ATOM     40  N   UNL A   1      45.897  29.047  33.125  1.00  0.00    -0.248 NA
ATOM     41  C   UNL A   1      47.806  28.449  34.329  1.00  0.00     0.031 C 
ATOM     42  C   UNL A   1      46.924  26.006  30.025  1.00  0.00     0.029 A 
ATOM     43  N   UNL A   1      45.457  27.576  30.652  1.00  0.00    -0.354 N 
ATOM     44  C   UNL A   1      45.967  29.813  34.284  1.00  0.00     0.074 A 
ATOM     45  C   UNL A   1      47.149  29.383  35.001  1.00  0.00     0.031 C 
ATOM     46  C   UNL A   1      45.935  26.027  29.114  1.00  0.00     0.029 A 
ATOM     47  C   UNL A   1      44.929  27.011  29.515  1.00  0.00     0.049 A 
ATOM     48  H   UNL A   1      45.034  28.328  31.126  1.00  0.00     0.167 HD
ATOM     49  C   UNL A   1      45.135  30.793  34.710  1.00  0.00     0.034 A 
ATOM     50  C   UNL A   1      43.759  27.244  28.883  1.00  0.00     0.034 A 
ATOM     51  C   UNL A   1      43.955  31.223  34.010  1.00  0.00     0.049 A 
ATOM     52  C   UNL A   1      42.825  28.311  29.401  1.00  0.00     0.074 A 
ATOM     53  C   UNL A   1      43.074  32.235  34.352  1.00  0.00     0.029 A 
ATOM     54  N   UNL A   1      43.476  30.656  32.840  1.00  0.00    -0.354 N 
ATOM     55  N   UNL A   1      42.973  29.115  30.425  1.00  0.00    -0.248 NA
ATOM     56  C   UNL A   1      41.576  28.524  28.651  1.00  0.00     0.031 C 
ATOM     57  C   UNL A   1      42.043  32.256  33.407  1.00  0.00     0.029 A 
ATOM     58  C   UNL A   1      42.303  31.285  32.455  1.00  0.00     0.049 A 
ATOM     59  H   UNL A   1      43.907  29.917  32.354  1.00  0.00     0.167 HD
ATOM     60  C   UNL A   1      41.860  29.952  30.419  1.00  0.00     0.074 A 
ATOM     61  C   UNL A   1      41.056  29.571  29.279  1.00  0.00     0.031 C 
ATOM     62  C   UNL A   1      41.532  30.943  31.288  1.00  0.00     0.034 A 
BRANCH  49  63
ATOM     63  C   UNL A   1      45.488  31.488  35.999  1.00  0.00     0.023 A 
ATOM     64  C   UNL A   1      46.294  32.644  35.968  1.00  0.00     0.012 A 
ATOM     65  C   UNL A   1      44.985  31.029  37.232  1.00  0.00     0.148 A 
ATOM     66  C   UNL A   1      46.623  33.312  37.146  1.00  0.00     0.002 A 
ATOM     67  C   UNL A   1      45.281  31.726  38.397  1.00  0.00     0.091 A 
ATOM     68  F   UNL A   1      44.236  29.916  37.243  1.00  0.00    -0.205 F 
ATOM     69  C   UNL A   1      46.110  32.860  38.359  1.00  0.00     0.022 A 
BRANCH  67  70
ATOM     70  S   UNL A   1      44.605  31.268  39.997  1.00  0.00     0.127 S 
ATOM     71  O   UNL A   1      45.325  32.172  40.892  1.00  0.00    -0.237 OA
ATOM     72  O   UNL A   1      43.184  31.577  39.831  1.00  0.00    -0.237 OA
ATOM     73  O   UNL A   1      44.901  29.853  40.169  1.00  0.00    -0.744 OA
ENDBRANCH  67  70
ENDBRANCH  49  63
BRANCH  50  74
ATOM     74  C   UNL A   1      43.403  26.463  27.663  1.00  0.00     0.023 A 
ATOM     75  C   UNL A   1      43.710  26.982  26.389  1.00  0.00     0.012 A 
ATOM     76  C   UNL A   1      42.753  25.218  27.758  1.00  0.00     0.148 A 
ATOM     77  C   UNL A   1      43.344  26.290  25.233  1.00  0.00     0.002 A 
ATOM     78  C   UNL A   1      42.440  24.508  26.604  1.00  0.00     0.091 A 
ATOM     79  F   UNL A   1      42.453  24.750  28.979  1.00  0.00    -0.205 F 
ATOM     80  C   UNL A   1      42.718  25.051  25.341  1.00  0.00     0.022 A 
BRANCH  78  81
ATOM     81  S   UNL A   1      41.740  22.855  26.645  1.00  0.00     0.127 S 
ATOM     82  O   UNL A   1      42.350  22.302  27.851  1.00  0.00    -0.237 OA
ATOM     83  O   UNL A   1      40.308  23.141  26.753  1.00  0.00    -0.237 OA
ATOM     84  O   UNL A   1      42.136  22.227  25.392  1.00  0.00    -0.744 OA
ENDBRANCH  78  81
ENDBRANCH  50  74
BRANCH  62  85
ATOM     85  C   UNL A   1      40.268  31.727  31.028  1.00  0.00     0.023 A 
ATOM     86  C   UNL A   1      40.312  32.898  30.245  1.00  0.00     0.012 A 
ATOM     87  C   UNL A   1      39.023  31.256  31.491  1.00  0.00     0.148 A 
ATOM     88  C   UNL A   1      39.143  33.604  29.956  1.00  0.00     0.002 A 
ATOM     89  C   UNL A   1      37.857  31.935  31.157  1.00  0.00     0.091 A 
ATOM     90  F   UNL A   1      39.000  30.149  32.248  1.00  0.00    -0.205 F 
ATOM     91  C   UNL A   1      37.917  33.117  30.401  1.00  0.00     0.022 A 
BRANCH  89  92
ATOM     92  S   UNL A   1      36.224  31.331  31.602  1.00  0.00     0.127 S 
ATOM     93  O   UNL A   1      36.126  31.739  33.002  1.00  0.00    -0.237 OA
ATOM     94  O   UNL A   1      35.357  32.077  30.689  1.00  0.00    -0.237 OA
ATOM     95  O   UNL A   1      36.250  29.893  31.372  1.00  0.00    -0.744 OA
ENDBRANCH  89  92
ENDBRANCH  62  85
ENDBRANCH  36  37
ENDBRANCH  29  31
ENDBRANCH  28  29
ENDBRANCH  27  28
ENDBRANCH  26  27
ENDBRANCH  25  26
ENDBRANCH  24  25
ENDBRANCH   1  24
TORSDOF 25
ENDMDL
MODEL 2
REMARK VINA RESULT:      -6.3      4.489      8.949
REMARK SMILES C[C@H](C(=O)OCCOCCOCCOC(=O)c1ccc(-c2c3nc(c(-c4cccc(S(=O)(=O)[O-])c4F)c4ccc([nH]4)c(-c4cccc(S(=O)(=O)[O-])c4F)c4nc(c(-c5cccc(S(=O)(=O)[O-])c5F)c5ccc2[nH]5)C=C4)C=C3)cc1)[C@H](C)[NH+]1CC[NH+](CCO)CC1
REMARK SMILES IDX 9 1 8 2 7 3 6 4 5 5 3 6 4 7 2 8 1 9 80 10 81 11 82 12 83 13
REMARK SMILES IDX 90 14 84 16 89 17 85 18 86 20 87 21 88 22 10 24 11 25 12 26
REMARK SMILES IDX 13 27 14 28 15 29 16 30 17 31 18 32 79 33 19 34 78 35 20 36
REMARK SMILES IDX 21 37 22 38 72 39 23 40 77 41 71 42 73 43 24 44 76 45 70 46
REMARK SMILES IDX 69 47 25 49 57 50 37 51 56 52 38 53 41 54 55 55 74 56 39 57
REMARK SMILES IDX 40 58 54 60 75 61 42 62 26 63 27 64 35 65 28 66 30 67 36 68
REMARK SMILES IDX 29 69 31 70 32 71 33 72 34 73 58 74 59 75 67 76 60 77 62 78
REMARK SMILES IDX 68 79 61 80 63 81 64 82 65 83 66 84 43 85 44 86 52 87 45 88
REMARK SMILES IDX 47 89 53 90 46 91 48 92 49 93 50 94 51 95
REMARK H PARENT 82 15 85 19 88 23 73 48 41 59
REMARK Flexibility Score: inf
ROOT
ATOM      1  C   UNL A   1      41.266  21.688  27.260  1.00  0.00     0.188 C 
ENDROOT
BRANCH   1   2
ATOM      2  O   UNL A   1      40.352  22.736  27.558  1.00  0.00    -0.376 OA
BRANCH   2   3
ATOM      3  C   UNL A   1      40.685  24.010  27.034  1.00  0.00     0.202 C 
BRANCH   3   4
ATOM      4  C   UNL A   1      39.919  25.167  27.680  1.00  0.00     0.261 C 
BRANCH   4   5
ATOM      5  O   UNL A   1      40.648  25.962  28.628  1.00  0.00    -0.463 OA
BRANCH   5   6
ATOM      6  C   UNL A   1      40.797  27.283  28.355  1.00  0.00     0.314 C 
ATOM      7  O   UNL A   1      41.538  27.725  27.490  1.00  0.00    -0.252 OA
BRANCH   6   8
ATOM      8  C   UNL A   1      40.019  28.126  29.362  1.00  0.00     0.154 C 
ATOM      9  C   UNL A   1      41.015  29.234  29.717  1.00  0.00     0.026 C 
BRANCH   8  10
ATOM     10  C   UNL A   1      38.547  28.465  28.913  1.00  0.00     0.195 C 
ATOM     11  C   UNL A   1      38.423  29.306  27.633  1.00  0.00     0.076 C 
BRANCH  10  12
ATOM     12  N   UNL A   1      37.608  29.010  29.889  1.00  0.00    -0.323 N 
ATOM     13  C   UNL A   1      37.842  28.941  31.324  1.00  0.00     0.324 C 
ATOM     14  C   UNL A   1      36.535  29.904  29.525  1.00  0.00     0.324 C 
ATOM     15  H   UNL A   1      37.325  28.079  29.583  1.00  0.00     0.348 HD
ATOM     16  C   UNL A   1      37.921  30.335  32.014  1.00  0.00     0.324 C 
ATOM     17  C   UNL A   1      36.859  31.321  30.029  1.00  0.00     0.324 C 
ATOM     18  N   UNL A   1      37.098  31.421  31.468  1.00  0.00    -0.324 N 
ATOM     19  H   UNL A   1      37.732  32.210  31.598  1.00  0.00     0.348 HD
BRANCH  18  20
ATOM     20  C   UNL A   1      35.970  31.922  32.249  1.00  0.00     0.291 C 
BRANCH  20  21
ATOM     21  C   UNL A   1      36.248  32.498  33.644  1.00  0.00     0.217 C 
BRANCH  21  22
ATOM     22  O   UNL A   1      37.176  33.568  33.580  1.00  0.00    -0.391 OA
ATOM     23  H   UNL A   1      37.326  33.921  34.471  1.00  0.00     0.210 HD
ENDBRANCH  21  22
ENDBRANCH  20  21
ENDBRANCH  18  20
ENDBRANCH  10  12
ENDBRANCH   8  10
ENDBRANCH   6   8
ENDBRANCH   5   6
ENDBRANCH   4   5
ENDBRANCH   3   4
ENDBRANCH   2   3
ENDBRANCH   1   2
BRANCH   1  24
ATOM     24  C   UNL A   1      41.984  21.897  25.914  1.00  0.00     0.188 C 
BRANCH  24  25
ATOM     25  O   UNL A   1      42.834  20.891  25.370  1.00  0.00    -0.376 OA
BRANCH  25  26
ATOM     26  C   UNL A   1      44.093  21.267  24.843  1.00  0.00     0.202 C 
BRANCH  26  27
ATOM     27  C   UNL A   1      45.272  21.301  25.822  1.00  0.00     0.261 C 
BRANCH  27  28
ATOM     28  O   UNL A   1      46.436  22.010  25.371  1.00  0.00    -0.460 OA
BRANCH  28  29
ATOM     29  C   UNL A   1      46.232  23.301  25.013  1.00  0.00     0.338 C 
ATOM     30  O   UNL A   1      46.271  23.757  23.879  1.00  0.00    -0.246 OA
BRANCH  29  31
ATOM     31  C   UNL A   1      45.816  24.100  26.192  1.00  0.00     0.060 A 
ATOM     32  C   UNL A   1      44.478  24.507  26.284  1.00  0.00     0.016 A 
ATOM     33  C   UNL A   1      46.733  24.500  27.167  1.00  0.00     0.016 A 
ATOM     34  C   UNL A   1      44.063  25.350  27.320  1.00  0.00     0.010 A 
ATOM     35  C   UNL A   1      46.321  25.359  28.195  1.00  0.00     0.010 A 
ATOM     36  C   UNL A   1      44.993  25.819  28.258  1.00  0.00    -0.014 A 
BRANCH  36  37
ATOM     37  C   UNL A   1      44.628  26.914  29.194  1.00  0.00     0.031 A 
ATOM     38  C   UNL A   1      44.695  28.339  28.708  1.00  0.00     0.074 A 
ATOM     39  C   UNL A   1      44.265  26.665  30.466  1.00  0.00     0.049 A 
ATOM     40  N   UNL A   1      44.458  29.450  29.357  1.00  0.00    -0.248 NA
ATOM     41  C   UNL A   1      45.085  28.534  27.303  1.00  0.00     0.031 C 
ATOM     42  C   UNL A   1      44.159  25.341  31.072  1.00  0.00     0.029 A 
ATOM     43  N   UNL A   1      43.951  27.530  31.487  1.00  0.00    -0.354 N 
ATOM     44  C   UNL A   1      44.685  30.477  28.448  1.00  0.00     0.074 A 
ATOM     45  C   UNL A   1      45.094  29.856  27.206  1.00  0.00     0.031 C 
ATOM     46  C   UNL A   1      43.840  25.482  32.371  1.00  0.00     0.029 A 
ATOM     47  C   UNL A   1      43.742  26.905  32.694  1.00  0.00     0.049 A 
ATOM     48  H   UNL A   1      43.883  28.506  31.366  1.00  0.00     0.167 HD
ATOM     49  C   UNL A   1      44.553  31.814  28.620  1.00  0.00     0.034 A 
ATOM     50  C   UNL A   1      43.520  27.422  33.921  1.00  0.00     0.034 A 
ATOM     51  C   UNL A   1      44.154  32.441  29.851  1.00  0.00     0.049 A 
ATOM     52  C   UNL A   1      43.420  28.918  34.099  1.00  0.00     0.074 A 
ATOM     53  C   UNL A   1      43.960  33.789  30.105  1.00  0.00     0.029 A 
ATOM     54  N   UNL A   1      43.909  31.773  31.039  1.00  0.00    -0.354 N 
ATOM     55  N   UNL A   1      43.508  29.867  33.200  1.00  0.00    -0.248 NA
ATOM     56  C   UNL A   1      43.158  29.411  35.461  1.00  0.00     0.031 C 
ATOM     57  C   UNL A   1      43.631  33.937  31.456  1.00  0.00     0.029 A 
ATOM     58  C   UNL A   1      43.581  32.680  32.034  1.00  0.00     0.049 A 
ATOM     59  H   UNL A   1      43.959  30.798  31.158  1.00  0.00     0.167 HD
ATOM     60  C   UNL A   1      43.272  31.061  33.877  1.00  0.00     0.074 A 
ATOM     61  C   UNL A   1      43.019  30.715  35.259  1.00  0.00     0.031 C 
ATOM     62  C   UNL A   1      43.274  32.330  33.397  1.00  0.00     0.034 A 
BRANCH  49  63
ATOM     63  C   UNL A   1      44.829  32.695  27.431  1.00  0.00     0.023 A 
ATOM     64  C   UNL A   1      43.786  32.996  26.531  1.00  0.00     0.012 A 
ATOM     65  C   UNL A   1      46.101  33.266  27.230  1.00  0.00     0.148 A 
ATOM     66  C   UNL A   1      44.013  33.819  25.430  1.00  0.00     0.002 A 
ATOM     67  C   UNL A   1      46.307  34.123  26.155  1.00  0.00     0.091 A 
ATOM     68  F   UNL A   1      47.084  32.953  28.085  1.00  0.00    -0.205 F 
ATOM     69  C   UNL A   1      45.269  34.390  25.247  1.00  0.00     0.022 A 
BRANCH  67  70
ATOM     70  S   UNL A   1      47.868  34.967  25.877  1.00  0.00     0.127 S 
ATOM     71  O   UNL A   1      48.597  33.985  25.078  1.00  0.00    -0.237 OA
ATOM     72  O   UNL A   1      47.446  36.160  25.142  1.00  0.00    -0.237 OA
ATOM     73  O   UNL A   1      48.421  35.234  27.197  1.00  0.00    -0.744 OA
ENDBRANCH  67  70
ENDBRANCH  49  63
BRANCH  50  74
ATOM     74  C   UNL A   1      43.350  26.514  35.092  1.00  0.00     0.023 A 
ATOM     75  C   UNL A   1      42.098  25.914  35.333  1.00  0.00     0.012 A 
ATOM     76  C   UNL A   1      44.417  26.252  35.972  1.00  0.00     0.148 A 
ATOM     77  C   UNL A   1      41.903  25.098  36.449  1.00  0.00     0.002 A 
ATOM     78  C   UNL A   1      44.231  25.395  37.051  1.00  0.00     0.091 A 
ATOM     79  F   UNL A   1      45.595  26.847  35.736  1.00  0.00    -0.205 F 
ATOM     80  C   UNL A   1      42.971  24.832  37.302  1.00  0.00     0.022 A 
BRANCH  78  81
ATOM     81  S   UNL A   1      45.575  24.901  38.136  1.00  0.00     0.127 S 
ATOM     82  O   UNL A   1      44.905  23.963  39.033  1.00  0.00    -0.237 OA
ATOM     83  O   UNL A   1      46.511  24.290  37.192  1.00  0.00    -0.237 OA
ATOM     84  O   UNL A   1      46.056  26.129  38.753  1.00  0.00    -0.744 OA
ENDBRANCH  78  81
ENDBRANCH  50  74
BRANCH  62  85
ATOM     85  C   UNL A   1      42.951  33.454  34.353  1.00  0.00     0.023 A 
ATOM     86  C   UNL A   1      43.983  34.268  34.860  1.00  0.00     0.012 A 
ATOM     87  C   UNL A   1      41.613  33.754  34.682  1.00  0.00     0.148 A 
ATOM     88  C   UNL A   1      43.692  35.342  35.704  1.00  0.00     0.002 A 
ATOM     89  C   UNL A   1      41.327  34.854  35.482  1.00  0.00     0.091 A 
ATOM     90  F   UNL A   1      40.644  32.959  34.204  1.00  0.00    -0.205 F 
ATOM     91  C   UNL A   1      42.366  35.641  36.005  1.00  0.00     0.022 A 
BRANCH  89  92
ATOM     92  S   UNL A   1      39.645  35.376  35.843  1.00  0.00     0.127 S 
ATOM     93  O   UNL A   1      39.045  35.392  34.510  1.00  0.00    -0.237 OA
ATOM     94  O   UNL A   1      39.167  34.302  36.714  1.00  0.00    -0.237 OA
ATOM     95  O   UNL A   1      39.758  36.675  36.492  1.00  0.00    -0.744 OA
ENDBRANCH  89  92
ENDBRANCH  62  85
ENDBRANCH  36  37
ENDBRANCH  29  31
ENDBRANCH  28  29
ENDBRANCH  27  28
ENDBRANCH  26  27
ENDBRANCH  25  26
ENDBRANCH  24  25
ENDBRANCH   1  24
TORSDOF 25
ENDMDL
MODEL 3
REMARK VINA RESULT:      -6.3      4.455      8.330
REMARK SMILES C[C@H](C(=O)OCCOCCOCCOC(=O)c1ccc(-c2c3nc(c(-c4cccc(S(=O)(=O)[O-])c4F)c4ccc([nH]4)c(-c4cccc(S(=O)(=O)[O-])c4F)c4nc(c(-c5cccc(S(=O)(=O)[O-])c5F)c5ccc2[nH]5)C=C4)C=C3)cc1)[C@H](C)[NH+]1CC[NH+](CCO)CC1
REMARK SMILES IDX 9 1 8 2 7 3 6 4 5 5 3 6 4 7 2 8 1 9 80 10 81 11 82 12 83 13
REMARK SMILES IDX 90 14 84 16 89 17 85 18 86 20 87 21 88 22 10 24 11 25 12 26
REMARK SMILES IDX 13 27 14 28 15 29 16 30 17 31 18 32 79 33 19 34 78 35 20 36
REMARK SMILES IDX 21 37 22 38 72 39 23 40 77 41 71 42 73 43 24 44 76 45 70 46
REMARK SMILES IDX 69 47 25 49 57 50 37 51 56 52 38 53 41 54 55 55 74 56 39 57
REMARK SMILES IDX 40 58 54 60 75 61 42 62 26 63 27 64 35 65 28 66 30 67 36 68
REMARK SMILES IDX 29 69 31 70 32 71 33 72 34 73 58 74 59 75 67 76 60 77 62 78
REMARK SMILES IDX 68 79 61 80 63 81 64 82 65 83 66 84 43 85 44 86 52 87 45 88
REMARK SMILES IDX 47 89 53 90 46 91 48 92 49 93 50 94 51 95
REMARK H PARENT 82 15 85 19 88 23 73 48 41 59
REMARK Flexibility Score: inf
ROOT
ATOM      1  C   UNL A   1      46.907  27.261  24.395  1.00  0.00     0.188 C 
ENDROOT
BRANCH   1   2
ATOM      2  O   UNL A   1      46.297  26.342  25.293  1.00  0.00    -0.376 OA
BRANCH   2   3
ATOM      3  C   UNL A   1      45.001  26.693  25.747  1.00  0.00     0.202 C 
BRANCH   3   4
ATOM      4  C   UNL A   1      43.970  26.839  24.625  1.00  0.00     0.261 C 
BRANCH   4   5
ATOM      5  O   UNL A   1      42.590  26.749  25.014  1.00  0.00    -0.463 OA
BRANCH   5   6
ATOM      6  C   UNL A   1      42.023  27.849  25.573  1.00  0.00     0.314 C 
ATOM      7  O   UNL A   1      41.900  28.921  25.001  1.00  0.00    -0.252 OA
BRANCH   6   8
ATOM      8  C   UNL A   1      41.692  27.591  27.040  1.00  0.00     0.154 C 
ATOM      9  C   UNL A   1      41.929  28.960  27.686  1.00  0.00     0.026 C 
BRANCH   8  10
ATOM     10  C   UNL A   1      40.345  26.805  27.265  1.00  0.00     0.195 C 
ATOM     11  C   UNL A   1      39.371  27.437  28.272  1.00  0.00     0.076 C 
BRANCH  10  12
ATOM     12  N   UNL A   1      40.389  25.371  27.537  1.00  0.00    -0.323 N 
ATOM     13  C   UNL A   1      39.194  24.540  27.554  1.00  0.00     0.324 C 
ATOM     14  C   UNL A   1      41.616  24.611  27.521  1.00  0.00     0.324 C 
ATOM     15  H   UNL A   1      40.396  25.912  28.402  1.00  0.00     0.348 HD
ATOM     16  C   UNL A   1      39.211  23.393  26.501  1.00  0.00     0.324 C 
ATOM     17  C   UNL A   1      41.639  23.706  26.277  1.00  0.00     0.324 C 
ATOM     18  N   UNL A   1      40.506  22.789  26.163  1.00  0.00    -0.324 N 
ATOM     19  H   UNL A   1      40.372  22.622  25.166  1.00  0.00     0.348 HD
BRANCH  18  20
ATOM     20  C   UNL A   1      40.779  21.415  26.575  1.00  0.00     0.291 C 
BRANCH  20  21
ATOM     21  C   UNL A   1      42.240  20.956  26.663  1.00  0.00     0.217 C 
BRANCH  21  22
ATOM     22  O   UNL A   1      42.662  20.846  28.013  1.00  0.00    -0.391 OA
ATOM     23  H   UNL A   1      42.876  21.727  28.359  1.00  0.00     0.210 HD
ENDBRANCH  21  22
ENDBRANCH  20  21
ENDBRANCH  18  20
ENDBRANCH  10  12
ENDBRANCH   8  10
ENDBRANCH   6   8
ENDBRANCH   5   6
ENDBRANCH   4   5
ENDBRANCH   3   4
ENDBRANCH   2   3
ENDBRANCH   1   2
BRANCH   1  24
ATOM     24  C   UNL A   1      48.428  27.050  24.278  1.00  0.00     0.188 C 
BRANCH  24  25
ATOM     25  O   UNL A   1      49.258  28.019  23.645  1.00  0.00    -0.376 OA
BRANCH  25  26
ATOM     26  C   UNL A   1      50.624  27.717  23.427  1.00  0.00     0.202 C 
BRANCH  26  27
ATOM     27  C   UNL A   1      51.265  26.693  24.370  1.00  0.00     0.261 C 
BRANCH  27  28
ATOM     28  O   UNL A   1      51.853  27.229  25.566  1.00  0.00    -0.460 OA
BRANCH  28  29
ATOM     29  C   UNL A   1      51.853  26.401  26.639  1.00  0.00     0.338 C 
ATOM     30  O   UNL A   1      52.701  25.563  26.913  1.00  0.00    -0.246 OA
BRANCH  29  31
ATOM     31  C   UNL A   1      50.723  26.732  27.542  1.00  0.00     0.060 A 
ATOM     32  C   UNL A   1      49.510  26.050  27.370  1.00  0.00     0.016 A 
ATOM     33  C   UNL A   1      50.824  27.738  28.505  1.00  0.00     0.016 A 
ATOM     34  C   UNL A   1      48.386  26.403  28.125  1.00  0.00     0.010 A 
ATOM     35  C   UNL A   1      49.694  28.103  29.248  1.00  0.00     0.010 A 
ATOM     36  C   UNL A   1      48.459  27.463  29.038  1.00  0.00    -0.014 A 
BRANCH  36  37
ATOM     37  C   UNL A   1      47.220  28.018  29.644  1.00  0.00     0.031 A 
ATOM     38  C   UNL A   1      46.523  27.233  30.724  1.00  0.00     0.074 A 
ATOM     39  C   UNL A   1      46.695  29.189  29.233  1.00  0.00     0.049 A 
ATOM     40  N   UNL A   1      45.417  27.504  31.366  1.00  0.00    -0.248 NA
ATOM     41  C   UNL A   1      47.162  25.971  31.132  1.00  0.00     0.031 C 
ATOM     42  C   UNL A   1      47.258  30.052  28.199  1.00  0.00     0.029 A 
ATOM     43  N   UNL A   1      45.545  29.832  29.622  1.00  0.00    -0.354 N 
ATOM     44  C   UNL A   1      45.214  26.442  32.240  1.00  0.00     0.074 A 
ATOM     45  C   UNL A   1      46.306  25.514  32.034  1.00  0.00     0.031 C 
ATOM     46  C   UNL A   1      46.432  31.095  28.007  1.00  0.00     0.029 A 
ATOM     47  C   UNL A   1      45.272  30.963  28.889  1.00  0.00     0.049 A 
ATOM     48  H   UNL A   1      44.971  29.514  30.356  1.00  0.00     0.167 HD
ATOM     49  C   UNL A   1      44.222  26.258  33.143  1.00  0.00     0.034 A 
ATOM     50  C   UNL A   1      44.201  31.783  28.910  1.00  0.00     0.034 A 
ATOM     51  C   UNL A   1      43.129  27.170  33.351  1.00  0.00     0.049 A 
ATOM     52  C   UNL A   1      43.083  31.534  29.895  1.00  0.00     0.074 A 
ATOM     53  C   UNL A   1      42.097  27.079  34.271  1.00  0.00     0.029 A 
ATOM     54  N   UNL A   1      42.910  28.325  32.620  1.00  0.00    -0.354 N 
ATOM     55  N   UNL A   1      42.975  30.597  30.805  1.00  0.00    -0.248 NA
ATOM     56  C   UNL A   1      41.955  32.479  29.875  1.00  0.00     0.031 C 
ATOM     57  C   UNL A   1      41.236  28.162  34.072  1.00  0.00     0.029 A 
ATOM     58  C   UNL A   1      41.752  28.949  33.055  1.00  0.00     0.049 A 
ATOM     59  H   UNL A   1      43.492  28.655  31.899  1.00  0.00     0.167 HD
ATOM     60  C   UNL A   1      41.792  30.863  31.489  1.00  0.00     0.074 A 
ATOM     61  C   UNL A   1      41.228  32.059  30.902  1.00  0.00     0.031 C 
ATOM     62  C   UNL A   1      41.220  30.171  32.508  1.00  0.00     0.034 A 
BRANCH  49  63
ATOM     63  C   UNL A   1      44.284  25.018  33.997  1.00  0.00     0.023 A 
ATOM     64  C   UNL A   1      43.823  23.792  33.477  1.00  0.00     0.012 A 
ATOM     65  C   UNL A   1      44.842  25.055  35.290  1.00  0.00     0.148 A 
ATOM     66  C   UNL A   1      43.882  22.629  34.243  1.00  0.00     0.002 A 
ATOM     67  C   UNL A   1      44.939  23.883  36.030  1.00  0.00     0.091 A 
ATOM     68  F   UNL A   1      45.257  26.235  35.774  1.00  0.00    -0.205 F 
ATOM     69  C   UNL A   1      44.449  22.672  35.514  1.00  0.00     0.022 A 
BRANCH  67  70
ATOM     70  S   UNL A   1      45.722  23.821  37.645  1.00  0.00     0.127 S 
ATOM     71  O   UNL A   1      45.652  22.393  37.952  1.00  0.00    -0.237 OA
ATOM     72  O   UNL A   1      47.067  24.317  37.355  1.00  0.00    -0.237 OA
ATOM     73  O   UNL A   1      44.931  24.685  38.509  1.00  0.00    -0.744 OA
ENDBRANCH  67  70
ENDBRANCH  49  63
BRANCH  50  74
ATOM     74  C   UNL A   1      44.134  32.946  27.978  1.00  0.00     0.023 A 
ATOM     75  C   UNL A   1      43.838  32.732  26.617  1.00  0.00     0.012 A 
ATOM     76  C   UNL A   1      44.373  34.258  28.431  1.00  0.00     0.148 A 
ATOM     77  C   UNL A   1      43.817  33.799  25.718  1.00  0.00     0.002 A 
ATOM     78  C   UNL A   1      44.296  35.323  27.540  1.00  0.00     0.091 A 
ATOM     79  F   UNL A   1      44.671  34.438  29.726  1.00  0.00    -0.205 F 
ATOM     80  C   UNL A   1      44.037  35.094  26.181  1.00  0.00     0.022 A 
BRANCH  78  81
ATOM     81  S   UNL A   1      44.449  37.034  28.064  1.00  0.00     0.127 S 
ATOM     82  O   UNL A   1      43.407  37.128  29.083  1.00  0.00    -0.237 OA
ATOM     83  O   UNL A   1      45.819  37.067  28.577  1.00  0.00    -0.237 OA
ATOM     84  O   UNL A   1      44.234  37.835  26.867  1.00  0.00    -0.744 OA
ENDBRANCH  78  81
ENDBRANCH  50  74
BRANCH  62  85
ATOM     85  C   UNL A   1      39.936  30.702  33.098  1.00  0.00     0.023 A 
ATOM     86  C   UNL A   1      38.702  30.406  32.486  1.00  0.00     0.012 A 
ATOM     87  C   UNL A   1      39.947  31.425  34.308  1.00  0.00     0.148 A 
ATOM     88  C   UNL A   1      37.504  30.848  33.050  1.00  0.00     0.002 A 
ATOM     89  C   UNL A   1      38.748  31.820  34.891  1.00  0.00     0.091 A 
ATOM     90  F   UNL A   1      41.131  31.713  34.870  1.00  0.00    -0.205 F 
ATOM     91  C   UNL A   1      37.526  31.544  34.256  1.00  0.00     0.022 A 
BRANCH  89  92
ATOM     92  S   UNL A   1      38.672  32.633  36.492  1.00  0.00     0.127 S 
ATOM     93  O   UNL A   1      38.203  31.551  37.354  1.00  0.00    -0.237 OA
ATOM     94  O   UNL A   1      40.064  33.025  36.708  1.00  0.00    -0.237 OA
ATOM     95  O   UNL A   1      37.748  33.748  36.332  1.00  0.00    -0.744 OA
ENDBRANCH  89  92
ENDBRANCH  62  85
ENDBRANCH  36  37
ENDBRANCH  29  31
ENDBRANCH  28  29
ENDBRANCH  27  28
ENDBRANCH  26  27
ENDBRANCH  25  26
ENDBRANCH  24  25
ENDBRANCH   1  24
TORSDOF 25
ENDMDL
