MODEL 1
REMARK VINA RESULT:     -11.5      0.000      0.000
REMARK SMILES O=C(OCCOCCOCCOC(=O)[C@@]12C[C@H]3C[C@@H](C1)C[C@](n1cc([N+](=O)[O-])cn1)(C3)C2)c1ccc(-c2c3nc(c(-c4cccc(S(=O)(=O)[O-])c4F)c4ccc([nH]4)c(-c4cccc(S(=O)(=O)[O-])c4F)c4nc(c(-c5cccc(S(=O)(=O)[O-])c5F)c5ccc2[nH]5)C=C4)C=C3)cc1
REMARK SMILES IDX 7 1 6 2 5 3 4 4 3 5 2 6 1 7 33 8 34 9 95 10 35 11 94 12
REMARK SMILES IDX 36 13 37 14 38 15 88 16 39 17 93 18 87 19 89 20 40 21 92 22
REMARK SMILES IDX 86 23 85 24 41 26 73 27 53 28 72 29 54 30 57 31 71 32 90 33
REMARK SMILES IDX 55 34 56 35 70 37 91 38 58 39 42 40 43 41 51 42 44 43 46 44
REMARK SMILES IDX 52 45 45 46 47 47 48 48 49 49 50 50 74 51 75 52 83 53 76 54
REMARK SMILES IDX 78 55 84 56 77 57 79 58 80 59 81 60 82 61 59 62 60 63 68 64
REMARK SMILES IDX 61 65 63 66 69 67 62 68 64 69 65 70 66 71 67 72 8 73 9 74
REMARK SMILES IDX 10 75 11 76 12 77 13 78 14 79 15 80 16 81 20 82 32 83 17 84
REMARK SMILES IDX 19 85 22 86 18 87 31 88 21 89 23 90 24 91 30 92 25 93 29 94
REMARK SMILES IDX 26 95 27 96 28 97
REMARK H PARENT 89 25 57 36
REMARK Flexibility Score: inf
ROOT
ATOM      1  C   UNL A   1      33.955  30.804  27.742  1.00  0.00     0.188 C 
ENDROOT
BRANCH   1   2
ATOM      2  O   UNL A   1      34.533  32.055  27.445  1.00  0.00    -0.376 OA
BRANCH   2   3
ATOM      3  C   UNL A   1      34.031  33.220  28.110  1.00  0.00     0.202 C 
BRANCH   3   4
ATOM      4  C   UNL A   1      34.261  33.621  29.594  1.00  0.00     0.261 C 
BRANCH   4   5
ATOM      5  O   UNL A   1      34.294  32.648  30.649  1.00  0.00    -0.460 OA
BRANCH   5   6
ATOM      6  C   UNL A   1      35.320  32.029  31.275  1.00  0.00     0.338 C 
ATOM      7  O   UNL A   1      35.435  32.178  32.491  1.00  0.00    -0.246 OA
BRANCH   6   8
ATOM      8  C   UNL A   1      36.345  31.209  30.582  1.00  0.00     0.060 A 
ATOM      9  C   UNL A   1      36.340  29.818  30.548  1.00  0.00     0.016 A 
ATOM     10  C   UNL A   1      37.483  31.906  30.118  1.00  0.00     0.016 A 
ATOM     11  C   UNL A   1      37.508  29.139  30.265  1.00  0.00     0.010 A 
ATOM     12  C   UNL A   1      38.656  31.229  29.832  1.00  0.00     0.010 A 
ATOM     13  C   UNL A   1      38.676  29.854  30.006  1.00  0.00    -0.014 A 
BRANCH  13  14
ATOM     14  C   UNL A   1      39.906  29.089  29.963  1.00  0.00     0.031 A 
ATOM     15  C   UNL A   1      40.578  28.938  31.268  1.00  0.00     0.074 A 
ATOM     16  C   UNL A   1      40.410  28.598  28.816  1.00  0.00     0.049 A 
ATOM     17  N   UNL A   1      41.637  29.553  31.679  1.00  0.00    -0.248 NA
ATOM     18  C   UNL A   1      39.904  28.134  32.292  1.00  0.00     0.031 C 
ATOM     19  C   UNL A   1      39.738  28.462  27.521  1.00  0.00     0.029 A 
ATOM     20  N   UNL A   1      41.615  28.002  28.606  1.00  0.00    -0.354 N 
ATOM     21  C   UNL A   1      41.905  29.019  32.935  1.00  0.00     0.074 A 
ATOM     22  C   UNL A   1      40.712  28.318  33.336  1.00  0.00     0.031 C 
ATOM     23  C   UNL A   1      40.444  27.604  26.749  1.00  0.00     0.029 A 
ATOM     24  C   UNL A   1      41.674  27.253  27.438  1.00  0.00     0.049 A 
ATOM     25  H   UNL A   1      42.376  28.093  29.225  1.00  0.00     0.167 HD
ATOM     26  C   UNL A   1      43.173  28.978  33.427  1.00  0.00     0.034 A 
ATOM     27  C   UNL A   1      42.628  26.346  27.115  1.00  0.00     0.034 A 
ATOM     28  C   UNL A   1      44.057  29.848  32.695  1.00  0.00     0.049 A 
ATOM     29  C   UNL A   1      43.829  26.654  27.927  1.00  0.00     0.074 A 
ATOM     30  C   UNL A   1      44.097  31.199  32.413  1.00  0.00     0.029 A 
ATOM     31  N   UNL A   1      44.927  29.250  31.815  1.00  0.00    -0.354 N 
ATOM     32  N   UNL A   1      44.562  27.717  27.754  1.00  0.00    -0.248 NA
ATOM     33  C   UNL A   1      43.988  25.984  29.208  1.00  0.00     0.031 C 
ATOM     34  C   UNL A   1      44.627  31.284  31.093  1.00  0.00     0.029 A 
ATOM     35  C   UNL A   1      44.927  29.990  30.664  1.00  0.00     0.049 A 
ATOM     36  H   UNL A   1      45.456  28.436  31.982  1.00  0.00     0.167 HD
ATOM     37  C   UNL A   1      44.911  28.106  29.040  1.00  0.00     0.074 A 
ATOM     38  C   UNL A   1      44.638  26.941  29.876  1.00  0.00     0.031 C 
ATOM     39  C   UNL A   1      45.106  29.423  29.346  1.00  0.00     0.034 A 
BRANCH  26  40
ATOM     40  C   UNL A   1      43.718  27.882  34.314  1.00  0.00     0.023 A 
ATOM     41  C   UNL A   1      43.307  26.559  34.033  1.00  0.00     0.012 A 
ATOM     42  C   UNL A   1      44.361  28.103  35.554  1.00  0.00     0.148 A 
ATOM     43  C   UNL A   1      43.466  25.528  34.964  1.00  0.00     0.002 A 
ATOM     44  C   UNL A   1      44.593  27.058  36.439  1.00  0.00     0.091 A 
ATOM     45  F   UNL A   1      44.634  29.346  35.958  1.00  0.00    -0.205 F 
ATOM     46  C   UNL A   1      44.116  25.775  36.166  1.00  0.00     0.022 A 
BRANCH  44  47
ATOM     47  S   UNL A   1      45.479  27.312  37.981  1.00  0.00     0.127 S 
ATOM     48  O   UNL A   1      46.632  28.083  37.534  1.00  0.00    -0.237 OA
ATOM     49  O   UNL A   1      44.497  28.054  38.770  1.00  0.00    -0.237 OA
ATOM     50  O   UNL A   1      45.762  25.972  38.492  1.00  0.00    -0.744 OA
ENDBRANCH  44  47
ENDBRANCH  26  40
BRANCH  27  51
ATOM     51  C   UNL A   1      42.504  25.087  26.347  1.00  0.00     0.023 A 
ATOM     52  C   UNL A   1      43.478  24.764  25.381  1.00  0.00     0.012 A 
ATOM     53  C   UNL A   1      41.607  24.075  26.754  1.00  0.00     0.148 A 
ATOM     54  C   UNL A   1      43.577  23.468  24.863  1.00  0.00     0.002 A 
ATOM     55  C   UNL A   1      41.704  22.790  26.230  1.00  0.00     0.091 A 
ATOM     56  F   UNL A   1      40.723  24.345  27.724  1.00  0.00    -0.205 F 
ATOM     57  C   UNL A   1      42.696  22.479  25.293  1.00  0.00     0.022 A 
BRANCH  55  58
ATOM     58  S   UNL A   1      40.618  21.459  26.762  1.00  0.00     0.127 S 
ATOM     59  O   UNL A   1      40.834  21.451  28.209  1.00  0.00    -0.237 OA
ATOM     60  O   UNL A   1      39.309  21.951  26.341  1.00  0.00    -0.237 OA
ATOM     61  O   UNL A   1      41.094  20.262  26.079  1.00  0.00    -0.744 OA
ENDBRANCH  55  58
ENDBRANCH  27  51
BRANCH  39  62
ATOM     62  C   UNL A   1      45.242  30.407  28.213  1.00  0.00     0.023 A 
ATOM     63  C   UNL A   1      44.126  30.927  27.525  1.00  0.00     0.012 A 
ATOM     64  C   UNL A   1      46.513  30.950  27.957  1.00  0.00     0.148 A 
ATOM     65  C   UNL A   1      44.281  31.947  26.583  1.00  0.00     0.002 A 
ATOM     66  C   UNL A   1      46.655  31.998  27.058  1.00  0.00     0.091 A 
ATOM     67  F   UNL A   1      47.565  30.446  28.622  1.00  0.00    -0.205 F 
ATOM     68  C   UNL A   1      45.543  32.493  26.360  1.00  0.00     0.022 A 
BRANCH  66  69
ATOM     69  S   UNL A   1      48.229  32.830  26.838  1.00  0.00     0.127 S 
ATOM     70  O   UNL A   1      47.914  33.816  25.806  1.00  0.00    -0.237 OA
ATOM     71  O   UNL A   1      48.478  33.393  28.167  1.00  0.00    -0.237 OA
ATOM     72  O   UNL A   1      49.176  31.791  26.451  1.00  0.00    -0.744 OA
ENDBRANCH  66  69
ENDBRANCH  39  62
ENDBRANCH  13  14
ENDBRANCH   6   8
ENDBRANCH   5   6
ENDBRANCH   4   5
ENDBRANCH   3   4
ENDBRANCH   2   3
ENDBRANCH   1   2
BRANCH   1  73
ATOM     73  C   UNL A   1      33.073  30.073  26.732  1.00  0.00     0.188 C 
BRANCH  73  74
ATOM     74  O   UNL A   1      33.550  28.847  26.199  1.00  0.00    -0.376 OA
BRANCH  74  75
ATOM     75  C   UNL A   1      32.667  28.134  25.347  1.00  0.00     0.202 C 
BRANCH  75  76
ATOM     76  C   UNL A   1      31.702  27.140  26.004  1.00  0.00     0.261 C 
BRANCH  76  77
ATOM     77  O   UNL A   1      31.599  25.882  25.317  1.00  0.00    -0.463 OA
BRANCH  77  78
ATOM     78  C   UNL A   1      31.879  24.739  26.014  1.00  0.00     0.312 C 
ATOM     79  O   UNL A   1      31.438  24.477  27.124  1.00  0.00    -0.252 OA
BRANCH  78  80
ATOM     80  C   UNL A   1      32.797  23.800  25.209  1.00  0.00     0.071 C 
ATOM     81  C   UNL A   1      32.810  24.246  23.734  1.00  0.00     0.022 C 
ATOM     82  C   UNL A   1      34.253  23.755  25.727  1.00  0.00     0.022 C 
ATOM     83  C   UNL A   1      32.244  22.380  25.283  1.00  0.00     0.049 C 
ATOM     84  C   UNL A   1      33.646  23.275  22.884  1.00  0.00    -0.007 C 
ATOM     85  C   UNL A   1      35.112  22.802  24.867  1.00  0.00    -0.007 C 
ATOM     86  C   UNL A   1      33.066  21.361  24.462  1.00  0.00     0.065 C 
ATOM     87  C   UNL A   1      35.090  23.276  23.408  1.00  0.00     0.007 C 
ATOM     88  C   UNL A   1      33.052  21.851  22.985  1.00  0.00     0.034 C 
ATOM     89  C   UNL A   1      34.538  21.373  24.943  1.00  0.00     0.034 C 
BRANCH  86  90
ATOM     90  N   UNL A   1      32.409  20.054  24.690  1.00  0.00    -0.259 N 
ATOM     91  C   UNL A   1      32.312  19.103  23.683  1.00  0.00     0.195 A 
ATOM     92  N   UNL A   1      32.507  19.465  25.911  1.00  0.00    -0.173 NA
ATOM     93  C   UNL A   1      32.822  17.952  24.246  1.00  0.00     0.307 A 
ATOM     94  C   UNL A   1      32.809  18.192  25.627  1.00  0.00     0.220 A 
BRANCH  93  95
ATOM     95  N   UNL A   1      33.368  16.826  23.557  1.00  0.00     0.066 N 
ATOM     96  O   UNL A   1      33.346  15.742  24.153  1.00  0.00    -0.258 OA
ATOM     97  O   UNL A   1      33.897  17.036  22.458  1.00  0.00    -0.258 OA
ENDBRANCH  93  95
ENDBRANCH  86  90
ENDBRANCH  78  80
ENDBRANCH  77  78
ENDBRANCH  76  77
ENDBRANCH  75  76
ENDBRANCH  74  75
ENDBRANCH  73  74
ENDBRANCH   1  73
TORSDOF 22
ENDMDL
MODEL 2
REMARK VINA RESULT:     -11.2      3.114      8.905
REMARK SMILES O=C(OCCOCCOCCOC(=O)[C@@]12C[C@H]3C[C@@H](C1)C[C@](n1cc([N+](=O)[O-])cn1)(C3)C2)c1ccc(-c2c3nc(c(-c4cccc(S(=O)(=O)[O-])c4F)c4ccc([nH]4)c(-c4cccc(S(=O)(=O)[O-])c4F)c4nc(c(-c5cccc(S(=O)(=O)[O-])c5F)c5ccc2[nH]5)C=C4)C=C3)cc1
REMARK SMILES IDX 7 1 6 2 5 3 4 4 3 5 2 6 1 7 33 8 34 9 95 10 35 11 94 12
REMARK SMILES IDX 36 13 37 14 38 15 88 16 39 17 93 18 87 19 89 20 40 21 92 22
REMARK SMILES IDX 86 23 85 24 41 26 73 27 53 28 72 29 54 30 57 31 71 32 90 33
REMARK SMILES IDX 55 34 56 35 70 37 91 38 58 39 42 40 43 41 51 42 44 43 46 44
REMARK SMILES IDX 52 45 45 46 47 47 48 48 49 49 50 50 74 51 75 52 83 53 76 54
REMARK SMILES IDX 78 55 84 56 77 57 79 58 80 59 81 60 82 61 59 62 60 63 68 64
REMARK SMILES IDX 61 65 63 66 69 67 62 68 64 69 65 70 66 71 67 72 8 73 9 74
REMARK SMILES IDX 10 75 11 76 12 77 13 78 14 79 15 80 16 81 20 82 32 83 17 84
REMARK SMILES IDX 19 85 22 86 18 87 31 88 21 89 23 90 24 91 30 92 25 93 29 94
REMARK SMILES IDX 26 95 27 96 28 97
REMARK H PARENT 89 25 57 36
REMARK Flexibility Score: inf
ROOT
ATOM      1  C   UNL A   1      42.425  19.645  26.143  1.00  0.00     0.188 C 
ENDROOT
BRANCH   1   2
ATOM      2  O   UNL A   1      43.097  20.277  25.076  1.00  0.00    -0.376 OA
BRANCH   2   3
ATOM      3  C   UNL A   1      43.723  21.543  25.312  1.00  0.00     0.202 C 
BRANCH   3   4
ATOM      4  C   UNL A   1      44.347  22.043  26.644  1.00  0.00     0.261 C 
BRANCH   4   5
ATOM      5  O   UNL A   1      43.555  22.264  27.821  1.00  0.00    -0.460 OA
BRANCH   5   6
ATOM      6  C   UNL A   1      42.517  23.095  28.068  1.00  0.00     0.338 C 
ATOM      7  O   UNL A   1      41.423  22.597  28.330  1.00  0.00    -0.246 OA
BRANCH   6   8
ATOM      8  C   UNL A   1      42.603  24.575  28.005  1.00  0.00     0.060 A 
ATOM      9  C   UNL A   1      43.568  25.331  28.663  1.00  0.00     0.016 A 
ATOM     10  C   UNL A   1      41.507  25.232  27.401  1.00  0.00     0.016 A 
ATOM     11  C   UNL A   1      43.341  26.672  28.901  1.00  0.00     0.010 A 
ATOM     12  C   UNL A   1      41.276  26.577  27.636  1.00  0.00     0.010 A 
ATOM     13  C   UNL A   1      42.152  27.255  28.468  1.00  0.00    -0.014 A 
BRANCH  13  14
ATOM     14  C   UNL A   1      41.870  28.588  28.962  1.00  0.00     0.031 A 
ATOM     15  C   UNL A   1      42.818  29.623  28.506  1.00  0.00     0.074 A 
ATOM     16  C   UNL A   1      40.850  28.845  29.802  1.00  0.00     0.049 A 
ATOM     17  N   UNL A   1      43.760  30.179  29.194  1.00  0.00    -0.248 NA
ATOM     18  C   UNL A   1      42.826  29.959  27.080  1.00  0.00     0.031 C 
ATOM     19  C   UNL A   1      39.711  27.983  30.129  1.00  0.00     0.029 A 
ATOM     20  N   UNL A   1      40.563  30.003  30.458  1.00  0.00    -0.354 N 
ATOM     21  C   UNL A   1      44.323  31.125  28.344  1.00  0.00     0.074 A 
ATOM     22  C   UNL A   1      43.854  30.806  27.020  1.00  0.00     0.031 C 
ATOM     23  C   UNL A   1      38.745  28.734  30.705  1.00  0.00     0.029 A 
ATOM     24  C   UNL A   1      39.253  30.078  30.913  1.00  0.00     0.049 A 
ATOM     25  H   UNL A   1      41.223  30.720  30.597  1.00  0.00     0.167 HD
ATOM     26  C   UNL A   1      44.916  32.247  28.834  1.00  0.00     0.034 A 
ATOM     27  C   UNL A   1      38.619  31.195  31.345  1.00  0.00     0.034 A 
ATOM     28  C   UNL A   1      45.203  32.127  30.241  1.00  0.00     0.049 A 
ATOM     29  C   UNL A   1      39.658  32.175  31.739  1.00  0.00     0.074 A 
ATOM     30  C   UNL A   1      45.944  31.265  31.024  1.00  0.00     0.029 A 
ATOM     31  N   UNL A   1      44.376  32.807  31.102  1.00  0.00    -0.354 N 
ATOM     32  N   UNL A   1      40.432  32.027  32.777  1.00  0.00    -0.248 NA
ATOM     33  C   UNL A   1      40.121  33.131  30.746  1.00  0.00     0.031 C 
ATOM     34  C   UNL A   1      45.207  31.142  32.237  1.00  0.00     0.029 A 
ATOM     35  C   UNL A   1      44.088  31.972  32.147  1.00  0.00     0.049 A 
ATOM     36  H   UNL A   1      44.050  33.730  30.990  1.00  0.00     0.167 HD
ATOM     37  C   UNL A   1      41.667  32.501  32.357  1.00  0.00     0.074 A 
ATOM     38  C   UNL A   1      41.384  33.277  31.152  1.00  0.00     0.031 C 
ATOM     39  C   UNL A   1      42.826  31.977  32.853  1.00  0.00     0.034 A 
BRANCH  26  40
ATOM     40  C   UNL A   1      44.898  33.598  28.156  1.00  0.00     0.023 A 
ATOM     41  C   UNL A   1      46.144  34.147  27.776  1.00  0.00     0.012 A 
ATOM     42  C   UNL A   1      43.784  34.468  28.137  1.00  0.00     0.148 A 
ATOM     43  C   UNL A   1      46.285  35.501  27.460  1.00  0.00     0.002 A 
ATOM     44  C   UNL A   1      43.913  35.792  27.740  1.00  0.00     0.091 A 
ATOM     45  F   UNL A   1      42.610  34.069  28.634  1.00  0.00    -0.205 F 
ATOM     46  C   UNL A   1      45.167  36.325  27.435  1.00  0.00     0.022 A 
BRANCH  44  47
ATOM     47  S   UNL A   1      42.491  36.886  27.636  1.00  0.00     0.127 S 
ATOM     48  O   UNL A   1      42.447  37.439  28.984  1.00  0.00    -0.237 OA
ATOM     49  O   UNL A   1      42.907  37.817  26.590  1.00  0.00    -0.237 OA
ATOM     50  O   UNL A   1      41.369  36.029  27.258  1.00  0.00    -0.744 OA
ENDBRANCH  44  47
ENDBRANCH  26  40
BRANCH  27  51
ATOM     51  C   UNL A   1      37.195  31.577  31.211  1.00  0.00     0.023 A 
ATOM     52  C   UNL A   1      36.482  32.009  32.347  1.00  0.00     0.012 A 
ATOM     53  C   UNL A   1      36.619  31.792  29.940  1.00  0.00     0.148 A 
ATOM     54  C   UNL A   1      35.253  32.666  32.219  1.00  0.00     0.002 A 
ATOM     55  C   UNL A   1      35.393  32.437  29.818  1.00  0.00     0.091 A 
ATOM     56  F   UNL A   1      37.316  31.454  28.847  1.00  0.00    -0.205 F 
ATOM     57  C   UNL A   1      34.711  32.888  30.956  1.00  0.00     0.022 A 
BRANCH  55  58
ATOM     58  S   UNL A   1      34.651  32.782  28.217  1.00  0.00     0.127 S 
ATOM     59  O   UNL A   1      35.745  33.453  27.513  1.00  0.00    -0.237 OA
ATOM     60  O   UNL A   1      34.343  31.439  27.732  1.00  0.00    -0.237 OA
ATOM     61  O   UNL A   1      33.501  33.637  28.487  1.00  0.00    -0.744 OA
ENDBRANCH  55  58
ENDBRANCH  27  51
BRANCH  39  62
ATOM     62  C   UNL A   1      42.748  31.103  34.079  1.00  0.00     0.023 A 
ATOM     63  C   UNL A   1      42.768  31.631  35.386  1.00  0.00     0.012 A 
ATOM     64  C   UNL A   1      42.474  29.737  33.900  1.00  0.00     0.148 A 
ATOM     65  C   UNL A   1      42.543  30.807  36.491  1.00  0.00     0.002 A 
ATOM     66  C   UNL A   1      42.200  28.931  34.998  1.00  0.00     0.091 A 
ATOM     67  F   UNL A   1      42.456  29.249  32.649  1.00  0.00    -0.205 F 
ATOM     68  C   UNL A   1      42.245  29.460  36.297  1.00  0.00     0.022 A 
BRANCH  66  69
ATOM     69  S   UNL A   1      41.673  27.229  34.796  1.00  0.00     0.127 S 
ATOM     70  O   UNL A   1      40.576  27.359  33.840  1.00  0.00    -0.237 OA
ATOM     71  O   UNL A   1      42.876  26.587  34.263  1.00  0.00    -0.237 OA
ATOM     72  O   UNL A   1      41.299  26.769  36.128  1.00  0.00    -0.744 OA
ENDBRANCH  66  69
ENDBRANCH  39  62
ENDBRANCH  13  14
ENDBRANCH   6   8
ENDBRANCH   5   6
ENDBRANCH   4   5
ENDBRANCH   3   4
ENDBRANCH   2   3
ENDBRANCH   1   2
BRANCH   1  73
ATOM     73  C   UNL A   1      40.916  19.416  26.111  1.00  0.00     0.188 C 
BRANCH  73  74
ATOM     74  O   UNL A   1      40.070  20.524  26.378  1.00  0.00    -0.376 OA
BRANCH  74  75
ATOM     75  C   UNL A   1      39.013  20.758  25.460  1.00  0.00     0.202 C 
BRANCH  75  76
ATOM     76  C   UNL A   1      38.124  21.983  25.706  1.00  0.00     0.261 C 
BRANCH  76  77
ATOM     77  O   UNL A   1      36.742  21.781  25.370  1.00  0.00    -0.463 OA
BRANCH  77  78
ATOM     78  C   UNL A   1      36.279  22.301  24.193  1.00  0.00     0.312 C 
ATOM     79  O   UNL A   1      36.988  22.638  23.255  1.00  0.00    -0.252 OA
BRANCH  78  80
ATOM     80  C   UNL A   1      34.740  22.381  24.181  1.00  0.00     0.071 C 
ATOM     81  C   UNL A   1      34.269  23.256  25.357  1.00  0.00     0.022 C 
ATOM     82  C   UNL A   1      34.155  22.953  22.869  1.00  0.00     0.022 C 
ATOM     83  C   UNL A   1      34.169  20.977  24.359  1.00  0.00     0.049 C 
ATOM     84  C   UNL A   1      32.733  23.282  25.429  1.00  0.00    -0.007 C 
ATOM     85  C   UNL A   1      32.612  23.009  22.936  1.00  0.00    -0.007 C 
ATOM     86  C   UNL A   1      32.625  20.949  24.413  1.00  0.00     0.065 C 
ATOM     87  C   UNL A   1      32.188  23.881  24.124  1.00  0.00     0.007 C 
ATOM     88  C   UNL A   1      32.196  21.844  25.611  1.00  0.00     0.034 C 
ATOM     89  C   UNL A   1      32.048  21.586  23.126  1.00  0.00     0.034 C 
BRANCH  86  90
ATOM     90  N   UNL A   1      32.264  19.519  24.544  1.00  0.00    -0.259 N 
ATOM     91  C   UNL A   1      32.573  18.597  23.551  1.00  0.00     0.195 A 
ATOM     92  N   UNL A   1      32.281  18.938  25.773  1.00  0.00    -0.173 NA
ATOM     93  C   UNL A   1      33.233  17.584  24.215  1.00  0.00     0.307 A 
ATOM     94  C   UNL A   1      32.920  17.780  25.568  1.00  0.00     0.220 A 
BRANCH  93  95
ATOM     95  N   UNL A   1      34.141  16.637  23.653  1.00  0.00     0.066 N 
ATOM     96  O   UNL A   1      34.222  16.605  22.418  1.00  0.00    -0.258 OA
ATOM     97  O   UNL A   1      34.711  15.864  24.434  1.00  0.00    -0.258 OA
ENDBRANCH  93  95
ENDBRANCH  86  90
ENDBRANCH  78  80
ENDBRANCH  77  78
ENDBRANCH  76  77
ENDBRANCH  75  76
ENDBRANCH  74  75
ENDBRANCH  73  74
ENDBRANCH   1  73
TORSDOF 22
ENDMDL
MODEL 3
REMARK VINA RESULT:     -11.2      3.319      9.347
REMARK SMILES O=C(OCCOCCOCCOC(=O)[C@@]12C[C@H]3C[C@@H](C1)C[C@](n1cc([N+](=O)[O-])cn1)(C3)C2)c1ccc(-c2c3nc(c(-c4cccc(S(=O)(=O)[O-])c4F)c4ccc([nH]4)c(-c4cccc(S(=O)(=O)[O-])c4F)c4nc(c(-c5cccc(S(=O)(=O)[O-])c5F)c5ccc2[nH]5)C=C4)C=C3)cc1
REMARK SMILES IDX 7 1 6 2 5 3 4 4 3 5 2 6 1 7 33 8 34 9 95 10 35 11 94 12
REMARK SMILES IDX 36 13 37 14 38 15 88 16 39 17 93 18 87 19 89 20 40 21 92 22
REMARK SMILES IDX 86 23 85 24 41 26 73 27 53 28 72 29 54 30 57 31 71 32 90 33
REMARK SMILES IDX 55 34 56 35 70 37 91 38 58 39 42 40 43 41 51 42 44 43 46 44
REMARK SMILES IDX 52 45 45 46 47 47 48 48 49 49 50 50 74 51 75 52 83 53 76 54
REMARK SMILES IDX 78 55 84 56 77 57 79 58 80 59 81 60 82 61 59 62 60 63 68 64
REMARK SMILES IDX 61 65 63 66 69 67 62 68 64 69 65 70 66 71 67 72 8 73 9 74
REMARK SMILES IDX 10 75 11 76 12 77 13 78 14 79 15 80 16 81 20 82 32 83 17 84
REMARK SMILES IDX 19 85 22 86 18 87 31 88 21 89 23 90 24 91 30 92 25 93 29 94
REMARK SMILES IDX 26 95 27 96 28 97
REMARK H PARENT 89 25 57 36
REMARK Flexibility Score: inf
ROOT
ATOM      1  C   UNL A   1      40.472  21.182  27.183  1.00  0.00     0.188 C 
ENDROOT
BRANCH   1   2
ATOM      2  O   UNL A   1      41.618  20.706  26.513  1.00  0.00    -0.376 OA
BRANCH   2   3
ATOM      3  C   UNL A   1      41.661  19.332  26.115  1.00  0.00     0.202 C 
BRANCH   3   4
ATOM      4  C   UNL A   1      42.929  18.468  25.870  1.00  0.00     0.261 C 
BRANCH   4   5
ATOM      5  O   UNL A   1      44.171  19.044  25.437  1.00  0.00    -0.460 OA
BRANCH   5   6
ATOM      6  C   UNL A   1      44.459  19.956  24.482  1.00  0.00     0.338 C 
ATOM      7  O   UNL A   1      44.513  19.576  23.312  1.00  0.00    -0.246 OA
BRANCH   6   8
ATOM      8  C   UNL A   1      44.754  21.385  24.757  1.00  0.00     0.060 A 
ATOM      9  C   UNL A   1      45.839  21.828  25.507  1.00  0.00     0.016 A 
ATOM     10  C   UNL A   1      43.745  22.304  24.394  1.00  0.00     0.016 A 
ATOM     11  C   UNL A   1      45.814  23.092  26.062  1.00  0.00     0.010 A 
ATOM     12  C   UNL A   1      43.716  23.574  24.947  1.00  0.00     0.010 A 
ATOM     13  C   UNL A   1      44.708  23.913  25.854  1.00  0.00    -0.014 A 
BRANCH  13  14
ATOM     14  C   UNL A   1      44.636  25.116  26.660  1.00  0.00     0.031 A 
ATOM     15  C   UNL A   1      45.775  26.038  26.485  1.00  0.00     0.074 A 
ATOM     16  C   UNL A   1      43.632  25.345  27.526  1.00  0.00     0.049 A 
ATOM     17  N   UNL A   1      46.760  26.229  27.299  1.00  0.00    -0.248 NA
ATOM     18  C   UNL A   1      45.921  26.701  25.186  1.00  0.00     0.031 C 
ATOM     19  C   UNL A   1      42.344  24.653  27.616  1.00  0.00     0.029 A 
ATOM     20  N   UNL A   1      43.516  26.342  28.445  1.00  0.00    -0.354 N 
ATOM     21  C   UNL A   1      47.526  27.233  26.716  1.00  0.00     0.074 A 
ATOM     22  C   UNL A   1      47.083  27.334  25.349  1.00  0.00     0.031 C 
ATOM     23  C   UNL A   1      41.493  25.408  28.350  1.00  0.00     0.029 A 
ATOM     24  C   UNL A   1      42.216  26.545  28.890  1.00  0.00     0.049 A 
ATOM     25  H   UNL A   1      44.282  26.872  28.764  1.00  0.00     0.167 HD
ATOM     26  C   UNL A   1      48.279  28.074  27.475  1.00  0.00     0.034 A 
ATOM     27  C   UNL A   1      41.764  27.622  29.578  1.00  0.00     0.034 A 
ATOM     28  C   UNL A   1      48.461  27.568  28.812  1.00  0.00     0.049 A 
ATOM     29  C   UNL A   1      42.936  28.270  30.214  1.00  0.00     0.074 A 
ATOM     30  C   UNL A   1      48.995  26.422  29.365  1.00  0.00     0.029 A 
ATOM     31  N   UNL A   1      47.719  28.160  29.805  1.00  0.00    -0.354 N 
ATOM     32  N   UNL A   1      43.612  27.735  31.191  1.00  0.00    -0.248 NA
ATOM     33  C   UNL A   1      43.613  29.335  29.493  1.00  0.00     0.031 C 
ATOM     34  C   UNL A   1      48.181  26.147  30.501  1.00  0.00     0.029 A 
ATOM     35  C   UNL A   1      47.231  27.165  30.607  1.00  0.00     0.049 A 
ATOM     36  H   UNL A   1      47.567  29.126  29.921  1.00  0.00     0.167 HD
ATOM     37  C   UNL A   1      44.932  28.062  30.915  1.00  0.00     0.074 A 
ATOM     38  C   UNL A   1      44.858  29.144  29.937  1.00  0.00     0.031 C 
ATOM     39  C   UNL A   1      45.953  27.230  31.278  1.00  0.00     0.034 A 
BRANCH  26  40
ATOM     40  C   UNL A   1      48.536  29.529  27.153  1.00  0.00     0.023 A 
ATOM     41  C   UNL A   1      49.866  29.991  27.271  1.00  0.00     0.012 A 
ATOM     42  C   UNL A   1      47.526  30.510  27.029  1.00  0.00     0.148 A 
ATOM     43  C   UNL A   1      50.167  31.355  27.330  1.00  0.00     0.002 A 
ATOM     44  C   UNL A   1      47.838  31.863  27.002  1.00  0.00     0.091 A 
ATOM     45  F   UNL A   1      46.238  30.160  27.074  1.00  0.00    -0.205 F 
ATOM     46  C   UNL A   1      49.153  32.294  27.189  1.00  0.00     0.022 A 
BRANCH  44  47
ATOM     47  S   UNL A   1      46.572  33.116  26.766  1.00  0.00     0.127 S 
ATOM     48  O   UNL A   1      45.972  33.181  28.093  1.00  0.00    -0.237 OA
ATOM     49  O   UNL A   1      47.371  34.278  26.383  1.00  0.00    -0.237 OA
ATOM     50  O   UNL A   1      45.714  32.606  25.699  1.00  0.00    -0.744 OA
ENDBRANCH  44  47
ENDBRANCH  26  40
BRANCH  27  51
ATOM     51  C   UNL A   1      40.439  28.279  29.527  1.00  0.00     0.023 A 
ATOM     52  C   UNL A   1      39.720  28.300  28.315  1.00  0.00     0.012 A 
ATOM     53  C   UNL A   1      39.757  28.629  30.713  1.00  0.00     0.148 A 
ATOM     54  C   UNL A   1      38.359  28.625  28.291  1.00  0.00     0.002 A 
ATOM     55  C   UNL A   1      38.407  28.959  30.682  1.00  0.00     0.091 A 
ATOM     56  F   UNL A   1      40.406  28.544  31.882  1.00  0.00    -0.205 F 
ATOM     57  C   UNL A   1      37.699  28.946  29.474  1.00  0.00     0.022 A 
BRANCH  55  58
ATOM     58  S   UNL A   1      37.488  29.355  32.176  1.00  0.00     0.127 S 
ATOM     59  O   UNL A   1      38.230  30.505  32.694  1.00  0.00    -0.237 OA
ATOM     60  O   UNL A   1      36.165  29.669  31.643  1.00  0.00    -0.237 OA
ATOM     61  O   UNL A   1      37.565  28.166  33.017  1.00  0.00    -0.744 OA
ENDBRANCH  55  58
ENDBRANCH  27  51
BRANCH  39  62
ATOM     62  C   UNL A   1      45.654  26.116  32.249  1.00  0.00     0.023 A 
ATOM     63  C   UNL A   1      45.055  24.904  31.848  1.00  0.00     0.012 A 
ATOM     64  C   UNL A   1      46.149  26.230  33.559  1.00  0.00     0.148 A 
ATOM     65  C   UNL A   1      44.931  23.840  32.744  1.00  0.00     0.002 A 
ATOM     66  C   UNL A   1      46.070  25.152  34.430  1.00  0.00     0.091 A 
ATOM     67  F   UNL A   1      46.719  27.390  33.925  1.00  0.00    -0.205 F 
ATOM     68  C   UNL A   1      45.451  23.957  34.031  1.00  0.00     0.022 A 
BRANCH  66  69
ATOM     69  S   UNL A   1      46.847  25.201  36.046  1.00  0.00     0.127 S 
ATOM     70  O   UNL A   1      46.266  26.409  36.629  1.00  0.00    -0.237 OA
ATOM     71  O   UNL A   1      46.393  23.949  36.654  1.00  0.00    -0.237 OA
ATOM     72  O   UNL A   1      48.283  25.249  35.795  1.00  0.00    -0.744 OA
ENDBRANCH  66  69
ENDBRANCH  39  62
ENDBRANCH  13  14
ENDBRANCH   6   8
ENDBRANCH   5   6
ENDBRANCH   4   5
ENDBRANCH   3   4
ENDBRANCH   2   3
ENDBRANCH   1   2
BRANCH   1  73
ATOM     73  C   UNL A   1      39.657  22.352  26.635  1.00  0.00     0.188 C 
BRANCH  73  74
ATOM     74  O   UNL A   1      38.894  22.137  25.458  1.00  0.00    -0.376 OA
BRANCH  74  75
ATOM     75  C   UNL A   1      38.123  20.946  25.404  1.00  0.00     0.202 C 
BRANCH  75  76
ATOM     76  C   UNL A   1      36.752  21.025  24.721  1.00  0.00     0.261 C 
BRANCH  76  77
ATOM     77  O   UNL A   1      36.052  22.258  24.954  1.00  0.00    -0.463 OA
BRANCH  77  78
ATOM     78  C   UNL A   1      35.530  22.919  23.877  1.00  0.00     0.312 C 
ATOM     79  O   UNL A   1      36.083  23.026  22.792  1.00  0.00    -0.252 OA
BRANCH  78  80
ATOM     80  C   UNL A   1      34.133  23.491  24.192  1.00  0.00     0.071 C 
ATOM     81  C   UNL A   1      33.059  22.504  23.696  1.00  0.00     0.022 C 
ATOM     82  C   UNL A   1      33.896  23.769  25.694  1.00  0.00     0.022 C 
ATOM     83  C   UNL A   1      33.960  24.814  23.451  1.00  0.00     0.049 C 
ATOM     84  C   UNL A   1      31.652  23.086  23.911  1.00  0.00    -0.007 C 
ATOM     85  C   UNL A   1      32.477  24.331  25.930  1.00  0.00    -0.007 C 
ATOM     86  C   UNL A   1      32.566  25.450  23.657  1.00  0.00     0.065 C 
ATOM     87  C   UNL A   1      31.441  23.324  25.414  1.00  0.00     0.007 C 
ATOM     88  C   UNL A   1      31.518  24.422  23.144  1.00  0.00     0.034 C 
ATOM     89  C   UNL A   1      32.310  25.662  25.169  1.00  0.00     0.034 C 
BRANCH  86  90
ATOM     90  N   UNL A   1      32.605  26.726  22.908  1.00  0.00    -0.259 N 
ATOM     91  C   UNL A   1      31.483  27.222  22.256  1.00  0.00     0.195 A 
ATOM     92  N   UNL A   1      33.396  27.736  23.356  1.00  0.00    -0.173 NA
ATOM     93  C   UNL A   1      31.358  28.514  22.720  1.00  0.00     0.307 A 
ATOM     94  C   UNL A   1      32.606  28.815  23.284  1.00  0.00     0.220 A 
BRANCH  93  95
ATOM     95  N   UNL A   1      30.172  29.310  22.739  1.00  0.00     0.066 N 
ATOM     96  O   UNL A   1      29.978  29.998  23.750  1.00  0.00    -0.258 OA
ATOM     97  O   UNL A   1      29.389  29.184  21.789  1.00  0.00    -0.258 OA
ENDBRANCH  93  95
ENDBRANCH  86  90
ENDBRANCH  78  80
ENDBRANCH  77  78
ENDBRANCH  76  77
ENDBRANCH  75  76
ENDBRANCH  74  75
ENDBRANCH  73  74
ENDBRANCH   1  73
TORSDOF 22
ENDMDL
