MODEL 1
REMARK VINA RESULT:      -9.9      0.000      0.000
REMARK SMILES COc1cc(C)cc2c1O[C@H](C(F)(F)F)C(C(=O)OCCOCCOCCOC(=O)c1ccc(-c3c4nc(c(-c5cccc(S(=O)(=O)[O-])c5F)c5ccc([nH]5)c(-c5cccc(S(=O)(=O)[O-])c5F)c5nc(c(-c6cccc(S(=O)(=O)[O-])c6F)c6ccc3[nH]6)C=C5)C=C4)cc1)=C2
REMARK SMILES IDX 24 1 23 2 22 3 21 4 20 5 19 6 17 7 18 8 16 9 3 10 4 11 9 12
REMARK SMILES IDX 5 13 8 14 10 15 6 16 7 17 94 18 11 19 2 20 1 21 12 22 13 23
REMARK SMILES IDX 14 24 15 25 25 26 26 27 27 28 28 29 29 30 30 31 31 32 32 33
REMARK SMILES IDX 93 34 33 35 92 36 34 37 35 38 36 39 86 40 37 41 91 42 85 43
REMARK SMILES IDX 87 44 38 45 90 46 84 47 83 48 39 50 71 51 51 52 70 53 52 54
REMARK SMILES IDX 55 55 69 56 88 57 53 58 54 59 68 61 89 62 56 63 40 64 41 65
REMARK SMILES IDX 49 66 42 67 44 68 50 69 43 70 45 71 46 72 47 73 48 74 72 75
REMARK SMILES IDX 73 76 81 77 74 78 76 79 82 80 75 81 77 82 78 83 79 84 80 85
REMARK SMILES IDX 57 86 58 87 66 88 59 89 61 90 67 91 60 92 62 93 63 94 64 95
REMARK SMILES IDX 65 96
REMARK H PARENT 87 49 55 60
REMARK Flexibility Score: inf
ROOT
ATOM      1  C   UNL A   1      30.454  27.457  24.993  1.00  0.00     0.188 C 
ENDROOT
BRANCH   1   2
ATOM      2  C   UNL A   1      29.492  26.365  24.475  1.00  0.00     0.188 C 
BRANCH   2   3
ATOM      3  O   UNL A   1      29.886  25.735  23.280  1.00  0.00    -0.376 OA
BRANCH   3   4
ATOM      4  C   UNL A   1      30.486  24.454  23.275  1.00  0.00     0.202 C 
BRANCH   4   5
ATOM      5  C   UNL A   1      30.790  23.592  24.514  1.00  0.00     0.261 C 
BRANCH   5   6
ATOM      6  O   UNL A   1      31.999  23.849  25.224  1.00  0.00    -0.460 OA
BRANCH   6   7
ATOM      7  C   UNL A   1      32.286  22.987  26.229  1.00  0.00     0.338 C 
ATOM      8  O   UNL A   1      31.506  22.556  27.060  1.00  0.00    -0.246 OA
BRANCH   7   9
ATOM      9  C   UNL A   1      33.688  22.550  26.101  1.00  0.00     0.087 C 
ATOM     10  C   UNL A   1      37.676  21.405  25.571  1.00  0.00     0.161 A 
ATOM     11  C   UNL A   1      38.688  22.354  25.762  1.00  0.00     0.054 A 
ATOM     12  C   UNL A   1      36.337  21.769  25.795  1.00  0.00     0.169 A 
ATOM     13  C   UNL A   1      38.376  23.656  26.179  1.00  0.00    -0.047 A 
ATOM     14  C   UNL A   1      36.018  23.069  26.194  1.00  0.00     0.021 A 
ATOM     15  O   UNL A   1      35.390  20.797  25.601  1.00  0.00    -0.471 OA
ATOM     16  C   UNL A   1      39.452  24.685  26.377  1.00  0.00     0.044 C 
ATOM     17  C   UNL A   1      37.038  24.002  26.406  1.00  0.00     0.015 A 
ATOM     18  C   UNL A   1      34.629  23.470  26.344  1.00  0.00     0.027 C 
ATOM     19  C   UNL A   1      33.985  21.122  25.734  1.00  0.00     0.316 C 
BRANCH  10  20
ATOM     20  O   UNL A   1      37.884  20.119  25.136  1.00  0.00    -0.493 OA
ATOM     21  C   UNL A   1      39.124  19.511  25.464  1.00  0.00     0.278 C 
ENDBRANCH  10  20
BRANCH  19  22
ATOM     22  C   UNL A   1      33.270  20.685  24.447  1.00  0.00     0.430 C 
ATOM     23  F   UNL A   1      31.949  20.464  24.663  1.00  0.00    -0.167 F 
ATOM     24  F   UNL A   1      33.340  21.639  23.485  1.00  0.00    -0.167 F 
ATOM     25  F   UNL A   1      33.790  19.552  23.926  1.00  0.00    -0.167 F 
ENDBRANCH  19  22
ENDBRANCH   7   9
ENDBRANCH   6   7
ENDBRANCH   5   6
ENDBRANCH   4   5
ENDBRANCH   3   4
ENDBRANCH   2   3
ENDBRANCH   1   2
BRANCH   1  26
ATOM     26  O   UNL A   1      31.311  27.182  26.094  1.00  0.00    -0.376 OA
BRANCH  26  27
ATOM     27  C   UNL A   1      32.074  28.243  26.659  1.00  0.00     0.202 C 
BRANCH  27  28
ATOM     28  C   UNL A   1      31.894  29.672  26.127  1.00  0.00     0.261 C 
BRANCH  28  29
ATOM     29  O   UNL A   1      33.116  30.421  26.035  1.00  0.00    -0.460 OA
BRANCH  29  30
ATOM     30  C   UNL A   1      33.344  31.294  27.051  1.00  0.00     0.338 C 
ATOM     31  O   UNL A   1      32.542  32.055  27.561  1.00  0.00    -0.246 OA
BRANCH  30  32
ATOM     32  C   UNL A   1      34.691  31.041  27.602  1.00  0.00     0.060 A 
ATOM     33  C   UNL A   1      35.598  32.085  27.792  1.00  0.00     0.016 A 
ATOM     34  C   UNL A   1      35.042  29.724  27.932  1.00  0.00     0.016 A 
ATOM     35  C   UNL A   1      36.852  31.809  28.344  1.00  0.00     0.010 A 
ATOM     36  C   UNL A   1      36.302  29.449  28.464  1.00  0.00     0.010 A 
ATOM     37  C   UNL A   1      37.208  30.493  28.695  1.00  0.00    -0.014 A 
BRANCH  37  38
ATOM     38  C   UNL A   1      38.441  30.248  29.479  1.00  0.00     0.031 A 
ATOM     39  C   UNL A   1      38.634  30.795  30.861  1.00  0.00     0.074 A 
ATOM     40  C   UNL A   1      39.415  29.522  28.899  1.00  0.00     0.049 A 
ATOM     41  N   UNL A   1      39.621  30.575  31.690  1.00  0.00    -0.248 NA
ATOM     42  C   UNL A   1      37.602  31.705  31.378  1.00  0.00     0.031 C 
ATOM     43  C   UNL A   1      39.367  28.998  27.532  1.00  0.00     0.029 A 
ATOM     44  N   UNL A   1      40.632  29.106  29.375  1.00  0.00    -0.354 N 
ATOM     45  C   UNL A   1      39.332  31.309  32.832  1.00  0.00     0.074 A 
ATOM     46  C   UNL A   1      38.086  32.004  32.579  1.00  0.00     0.031 C 
ATOM     47  C   UNL A   1      40.499  28.326  27.281  1.00  0.00     0.029 A 
ATOM     48  C   UNL A   1      41.353  28.371  28.465  1.00  0.00     0.049 A 
ATOM     49  H   UNL A   1      40.958  29.314  30.280  1.00  0.00     0.167 HD
ATOM     50  C   UNL A   1      40.031  31.369  33.991  1.00  0.00     0.034 A 
ATOM     51  C   UNL A   1      42.560  27.785  28.571  1.00  0.00     0.034 A 
ATOM     52  C   UNL A   1      41.264  30.667  34.240  1.00  0.00     0.049 A 
ATOM     53  C   UNL A   1      43.301  27.849  29.874  1.00  0.00     0.074 A 
ATOM     54  C   UNL A   1      42.003  30.625  35.410  1.00  0.00     0.029 A 
ATOM     55  N   UNL A   1      41.943  29.897  33.311  1.00  0.00    -0.354 N 
ATOM     56  N   UNL A   1      42.938  28.424  30.994  1.00  0.00    -0.248 NA
ATOM     57  C   UNL A   1      44.596  27.159  29.941  1.00  0.00     0.031 C 
ATOM     58  C   UNL A   1      43.136  29.836  35.185  1.00  0.00     0.029 A 
ATOM     59  C   UNL A   1      43.095  29.379  33.879  1.00  0.00     0.049 A 
ATOM     60  H   UNL A   1      41.650  29.739  32.384  1.00  0.00     0.167 HD
ATOM     61  C   UNL A   1      43.948  28.150  31.906  1.00  0.00     0.074 A 
ATOM     62  C   UNL A   1      44.932  27.343  31.213  1.00  0.00     0.031 C 
ATOM     63  C   UNL A   1      44.051  28.544  33.198  1.00  0.00     0.034 A 
BRANCH  50  64
ATOM     64  C   UNL A   1      39.451  32.162  35.131  1.00  0.00     0.023 A 
ATOM     65  C   UNL A   1      38.576  31.518  36.026  1.00  0.00     0.012 A 
ATOM     66  C   UNL A   1      39.879  33.477  35.400  1.00  0.00     0.148 A 
ATOM     67  C   UNL A   1      38.129  32.171  37.174  1.00  0.00     0.002 A 
ATOM     68  C   UNL A   1      39.451  34.111  36.561  1.00  0.00     0.091 A 
ATOM     69  F   UNL A   1      40.708  34.069  34.529  1.00  0.00    -0.205 F 
ATOM     70  C   UNL A   1      38.575  33.461  37.447  1.00  0.00     0.022 A 
BRANCH  68  71
ATOM     71  S   UNL A   1      40.010  35.751  37.041  1.00  0.00     0.127 S 
ATOM     72  O   UNL A   1      39.572  36.555  35.901  1.00  0.00    -0.237 OA
ATOM     73  O   UNL A   1      39.261  35.982  38.275  1.00  0.00    -0.237 OA
ATOM     74  O   UNL A   1      41.454  35.652  37.208  1.00  0.00    -0.744 OA
ENDBRANCH  68  71
ENDBRANCH  50  64
BRANCH  51  75
ATOM     75  C   UNL A   1      43.088  27.014  27.415  1.00  0.00     0.023 A 
ATOM     76  C   UNL A   1      43.784  27.692  26.397  1.00  0.00     0.012 A 
ATOM     77  C   UNL A   1      42.986  25.611  27.373  1.00  0.00     0.148 A 
ATOM     78  C   UNL A   1      44.366  26.982  25.347  1.00  0.00     0.002 A 
ATOM     79  C   UNL A   1      43.603  24.907  26.346  1.00  0.00     0.091 A 
ATOM     80  F   UNL A   1      42.318  24.996  28.359  1.00  0.00    -0.205 F 
ATOM     81  C   UNL A   1      44.284  25.591  25.328  1.00  0.00     0.022 A 
BRANCH  79  82
ATOM     82  S   UNL A   1      43.645  23.113  26.293  1.00  0.00     0.127 S 
ATOM     83  O   UNL A   1      44.309  22.793  27.554  1.00  0.00    -0.237 OA
ATOM     84  O   UNL A   1      42.220  22.783  26.244  1.00  0.00    -0.237 OA
ATOM     85  O   UNL A   1      44.388  22.769  25.089  1.00  0.00    -0.744 OA
ENDBRANCH  79  82
ENDBRANCH  51  75
BRANCH  63  86
ATOM     86  C   UNL A   1      45.268  28.118  33.971  1.00  0.00     0.023 A 
ATOM     87  C   UNL A   1      46.424  28.922  33.933  1.00  0.00     0.012 A 
ATOM     88  C   UNL A   1      45.228  26.997  34.822  1.00  0.00     0.148 A 
ATOM     89  C   UNL A   1      47.527  28.612  34.726  1.00  0.00     0.002 A 
ATOM     90  C   UNL A   1      46.319  26.712  35.634  1.00  0.00     0.091 A 
ATOM     91  F   UNL A   1      44.119  26.244  34.832  1.00  0.00    -0.205 F 
ATOM     92  C   UNL A   1      47.470  27.515  35.585  1.00  0.00     0.022 A 
BRANCH  90  93
ATOM     93  S   UNL A   1      46.318  25.365  36.824  1.00  0.00     0.127 S 
ATOM     94  O   UNL A   1      45.239  25.766  37.726  1.00  0.00    -0.237 OA
ATOM     95  O   UNL A   1      46.011  24.210  35.982  1.00  0.00    -0.237 OA
ATOM     96  O   UNL A   1      47.648  25.350  37.418  1.00  0.00    -0.744 OA
ENDBRANCH  90  93
ENDBRANCH  63  86
ENDBRANCH  37  38
ENDBRANCH  30  32
ENDBRANCH  29  30
ENDBRANCH  28  29
ENDBRANCH  27  28
ENDBRANCH  26  27
ENDBRANCH   1  26
TORSDOF 22
ENDMDL
MODEL 2
REMARK VINA RESULT:      -9.6      2.245      7.815
REMARK SMILES COc1cc(C)cc2c1O[C@H](C(F)(F)F)C(C(=O)OCCOCCOCCOC(=O)c1ccc(-c3c4nc(c(-c5cccc(S(=O)(=O)[O-])c5F)c5ccc([nH]5)c(-c5cccc(S(=O)(=O)[O-])c5F)c5nc(c(-c6cccc(S(=O)(=O)[O-])c6F)c6ccc3[nH]6)C=C5)C=C4)cc1)=C2
REMARK SMILES IDX 24 1 23 2 22 3 21 4 20 5 19 6 17 7 18 8 16 9 3 10 4 11 9 12
REMARK SMILES IDX 5 13 8 14 10 15 6 16 7 17 94 18 11 19 2 20 1 21 12 22 13 23
REMARK SMILES IDX 14 24 15 25 25 26 26 27 27 28 28 29 29 30 30 31 31 32 32 33
REMARK SMILES IDX 93 34 33 35 92 36 34 37 35 38 36 39 86 40 37 41 91 42 85 43
REMARK SMILES IDX 87 44 38 45 90 46 84 47 83 48 39 50 71 51 51 52 70 53 52 54
REMARK SMILES IDX 55 55 69 56 88 57 53 58 54 59 68 61 89 62 56 63 40 64 41 65
REMARK SMILES IDX 49 66 42 67 44 68 50 69 43 70 45 71 46 72 47 73 48 74 72 75
REMARK SMILES IDX 73 76 81 77 74 78 76 79 82 80 75 81 77 82 78 83 79 84 80 85
REMARK SMILES IDX 57 86 58 87 66 88 59 89 61 90 67 91 60 92 62 93 63 94 64 95
REMARK SMILES IDX 65 96
REMARK H PARENT 87 49 55 60
REMARK Flexibility Score: inf
ROOT
ATOM      1  C   UNL A   1      31.785  29.758  25.255  1.00  0.00     0.188 C 
ENDROOT
BRANCH   1   2
ATOM      2  C   UNL A   1      30.932  28.735  24.474  1.00  0.00     0.188 C 
BRANCH   2   3
ATOM      3  O   UNL A   1      30.963  28.871  23.073  1.00  0.00    -0.376 OA
BRANCH   3   4
ATOM      4  C   UNL A   1      31.139  27.757  22.220  1.00  0.00     0.202 C 
BRANCH   4   5
ATOM      5  C   UNL A   1      30.921  26.281  22.600  1.00  0.00     0.261 C 
BRANCH   5   6
ATOM      6  O   UNL A   1      32.018  25.571  23.170  1.00  0.00    -0.460 OA
BRANCH   6   7
ATOM      7  C   UNL A   1      31.748  24.887  24.308  1.00  0.00     0.338 C 
ATOM      8  O   UNL A   1      30.716  24.932  24.955  1.00  0.00    -0.246 OA
BRANCH   7   9
ATOM      9  C   UNL A   1      32.869  23.974  24.595  1.00  0.00     0.087 C 
ATOM     10  C   UNL A   1      36.135  21.442  25.250  1.00  0.00     0.161 A 
ATOM     11  C   UNL A   1      37.351  21.996  25.667  1.00  0.00     0.054 A 
ATOM     12  C   UNL A   1      35.019  22.281  25.075  1.00  0.00     0.169 A 
ATOM     13  C   UNL A   1      37.462  23.372  25.916  1.00  0.00    -0.047 A 
ATOM     14  C   UNL A   1      35.128  23.654  25.306  1.00  0.00     0.021 A 
ATOM     15  O   UNL A   1      33.852  21.683  24.675  1.00  0.00    -0.471 OA
ATOM     16  C   UNL A   1      38.765  23.978  26.353  1.00  0.00     0.044 C 
ATOM     17  C   UNL A   1      36.341  24.192  25.746  1.00  0.00     0.015 A 
ATOM     18  C   UNL A   1      33.999  24.532  25.043  1.00  0.00     0.027 C 
ATOM     19  C   UNL A   1      32.685  22.494  24.396  1.00  0.00     0.316 C 
BRANCH  10  20
ATOM     20  O   UNL A   1      35.940  20.116  24.954  1.00  0.00    -0.493 OA
ATOM     21  C   UNL A   1      37.096  19.303  24.814  1.00  0.00     0.278 C 
ENDBRANCH  10  20
BRANCH  19  22
ATOM     22  C   UNL A   1      32.188  22.148  22.985  1.00  0.00     0.430 C 
ATOM     23  F   UNL A   1      32.195  20.809  22.770  1.00  0.00    -0.167 F 
ATOM     24  F   UNL A   1      30.909  22.554  22.791  1.00  0.00    -0.167 F 
ATOM     25  F   UNL A   1      32.940  22.718  22.018  1.00  0.00    -0.167 F 
ENDBRANCH  19  22
ENDBRANCH   7   9
ENDBRANCH   6   7
ENDBRANCH   5   6
ENDBRANCH   4   5
ENDBRANCH   3   4
ENDBRANCH   2   3
ENDBRANCH   1   2
BRANCH   1  26
ATOM     26  O   UNL A   1      33.196  29.592  25.333  1.00  0.00    -0.376 OA
BRANCH  26  27
ATOM     27  C   UNL A   1      33.831  29.663  26.606  1.00  0.00     0.202 C 
BRANCH  27  28
ATOM     28  C   UNL A   1      33.451  30.785  27.582  1.00  0.00     0.261 C 
BRANCH  28  29
ATOM     29  O   UNL A   1      34.485  31.760  27.785  1.00  0.00    -0.460 OA
BRANCH  29  30
ATOM     30  C   UNL A   1      34.885  31.927  29.072  1.00  0.00     0.338 C 
ATOM     31  O   UNL A   1      34.260  32.456  29.975  1.00  0.00    -0.246 OA
BRANCH  30  32
ATOM     32  C   UNL A   1      36.141  31.177  29.281  1.00  0.00     0.060 A 
ATOM     33  C   UNL A   1      37.334  31.594  28.689  1.00  0.00     0.016 A 
ATOM     34  C   UNL A   1      36.109  30.034  30.091  1.00  0.00     0.016 A 
ATOM     35  C   UNL A   1      38.507  30.876  28.935  1.00  0.00     0.010 A 
ATOM     36  C   UNL A   1      37.278  29.306  30.319  1.00  0.00     0.010 A 
ATOM     37  C   UNL A   1      38.490  29.736  29.760  1.00  0.00    -0.014 A 
BRANCH  37  38
ATOM     38  C   UNL A   1      39.766  29.119  30.191  1.00  0.00     0.031 A 
ATOM     39  C   UNL A   1      40.393  27.975  29.454  1.00  0.00     0.074 A 
ATOM     40  C   UNL A   1      40.353  29.608  31.300  1.00  0.00     0.049 A 
ATOM     41  N   UNL A   1      41.552  27.408  29.668  1.00  0.00    -0.248 NA
ATOM     42  C   UNL A   1      39.629  27.387  28.344  1.00  0.00     0.031 C 
ATOM     43  C   UNL A   1      39.798  30.674  32.139  1.00  0.00     0.029 A 
ATOM     44  N   UNL A   1      41.532  29.276  31.915  1.00  0.00    -0.354 N 
ATOM     45  C   UNL A   1      41.668  26.402  28.719  1.00  0.00     0.074 A 
ATOM     46  C   UNL A   1      40.445  26.418  27.941  1.00  0.00     0.031 C 
ATOM     47  C   UNL A   1      40.639  30.911  33.156  1.00  0.00     0.029 A 
ATOM     48  C   UNL A   1      41.789  30.019  33.043  1.00  0.00     0.049 A 
ATOM     49  H   UNL A   1      42.137  28.575  31.582  1.00  0.00     0.167 HD
ATOM     50  C   UNL A   1      42.711  25.565  28.505  1.00  0.00     0.034 A 
ATOM     51  C   UNL A   1      42.837  29.995  33.888  1.00  0.00     0.034 A 
ATOM     52  C   UNL A   1      43.928  25.562  29.275  1.00  0.00     0.049 A 
ATOM     53  C   UNL A   1      43.988  29.075  33.612  1.00  0.00     0.074 A 
ATOM     54  C   UNL A   1      45.060  24.789  29.082  1.00  0.00     0.029 A 
ATOM     55  N   UNL A   1      44.172  26.356  30.383  1.00  0.00    -0.354 N 
ATOM     56  N   UNL A   1      44.144  28.234  32.620  1.00  0.00    -0.248 NA
ATOM     57  C   UNL A   1      45.121  29.122  34.547  1.00  0.00     0.031 C 
ATOM     58  C   UNL A   1      45.986  25.108  30.081  1.00  0.00     0.029 A 
ATOM     59  C   UNL A   1      45.433  26.089  30.889  1.00  0.00     0.049 A 
ATOM     60  H   UNL A   1      43.542  27.015  30.757  1.00  0.00     0.167 HD
ATOM     61  C   UNL A   1      45.398  27.666  32.797  1.00  0.00     0.074 A 
ATOM     62  C   UNL A   1      45.969  28.269  33.985  1.00  0.00     0.031 C 
ATOM     63  C   UNL A   1      46.012  26.720  32.046  1.00  0.00     0.034 A 
BRANCH  50  64
ATOM     64  C   UNL A   1      42.636  24.619  27.337  1.00  0.00     0.023 A 
ATOM     65  C   UNL A   1      43.186  25.023  26.104  1.00  0.00     0.012 A 
ATOM     66  C   UNL A   1      42.167  23.301  27.492  1.00  0.00     0.148 A 
ATOM     67  C   UNL A   1      43.268  24.128  25.038  1.00  0.00     0.002 A 
ATOM     68  C   UNL A   1      42.277  22.407  26.432  1.00  0.00     0.091 A 
ATOM     69  F   UNL A   1      41.643  22.945  28.673  1.00  0.00    -0.205 F 
ATOM     70  C   UNL A   1      42.824  22.820  25.206  1.00  0.00     0.022 A 
BRANCH  68  71
ATOM     71  S   UNL A   1      41.790  20.681  26.557  1.00  0.00     0.127 S 
ATOM     72  O   UNL A   1      42.399  20.296  27.829  1.00  0.00    -0.237 OA
ATOM     73  O   UNL A   1      40.332  20.774  26.580  1.00  0.00    -0.237 OA
ATOM     74  O   UNL A   1      42.344  20.020  25.382  1.00  0.00    -0.744 OA
ENDBRANCH  68  71
ENDBRANCH  50  64
BRANCH  51  75
ATOM     75  C   UNL A   1      42.861  30.950  35.027  1.00  0.00     0.023 A 
ATOM     76  C   UNL A   1      42.410  30.524  36.290  1.00  0.00     0.012 A 
ATOM     77  C   UNL A   1      43.416  32.235  34.883  1.00  0.00     0.148 A 
ATOM     78  C   UNL A   1      42.504  31.370  37.395  1.00  0.00     0.002 A 
ATOM     79  C   UNL A   1      43.544  33.057  35.996  1.00  0.00     0.091 A 
ATOM     80  F   UNL A   1      43.838  32.609  33.667  1.00  0.00    -0.205 F 
ATOM     81  C   UNL A   1      43.081  32.630  37.250  1.00  0.00     0.022 A 
BRANCH  79  82
ATOM     82  S   UNL A   1      44.369  34.651  35.931  1.00  0.00     0.127 S 
ATOM     83  O   UNL A   1      44.275  35.091  37.320  1.00  0.00    -0.237 OA
ATOM     84  O   UNL A   1      45.713  34.273  35.492  1.00  0.00    -0.237 OA
ATOM     85  O   UNL A   1      43.619  35.447  34.969  1.00  0.00    -0.744 OA
ENDBRANCH  79  82
ENDBRANCH  51  75
BRANCH  63  86
ATOM     86  C   UNL A   1      47.379  26.260  32.470  1.00  0.00     0.023 A 
ATOM     87  C   UNL A   1      48.509  27.000  32.073  1.00  0.00     0.012 A 
ATOM     88  C   UNL A   1      47.535  25.174  33.354  1.00  0.00     0.148 A 
ATOM     89  C   UNL A   1      49.777  26.662  32.542  1.00  0.00     0.002 A 
ATOM     90  C   UNL A   1      48.797  24.862  33.844  1.00  0.00     0.091 A 
ATOM     91  F   UNL A   1      46.443  24.481  33.709  1.00  0.00    -0.205 F 
ATOM     92  C   UNL A   1      49.919  25.602  33.436  1.00  0.00     0.022 A 
BRANCH  90  93
ATOM     93  S   UNL A   1      49.076  23.561  35.052  1.00  0.00     0.127 S 
ATOM     94  O   UNL A   1      49.590  22.481  34.211  1.00  0.00    -0.237 OA
ATOM     95  O   UNL A   1      50.068  24.171  35.937  1.00  0.00    -0.237 OA
ATOM     96  O   UNL A   1      47.784  23.302  35.673  1.00  0.00    -0.744 OA
ENDBRANCH  90  93
ENDBRANCH  63  86
ENDBRANCH  37  38
ENDBRANCH  30  32
ENDBRANCH  29  30
ENDBRANCH  28  29
ENDBRANCH  27  28
ENDBRANCH  26  27
ENDBRANCH   1  26
TORSDOF 22
ENDMDL
MODEL 3
REMARK VINA RESULT:      -9.1      3.364      5.449
REMARK SMILES COc1cc(C)cc2c1O[C@H](C(F)(F)F)C(C(=O)OCCOCCOCCOC(=O)c1ccc(-c3c4nc(c(-c5cccc(S(=O)(=O)[O-])c5F)c5ccc([nH]5)c(-c5cccc(S(=O)(=O)[O-])c5F)c5nc(c(-c6cccc(S(=O)(=O)[O-])c6F)c6ccc3[nH]6)C=C5)C=C4)cc1)=C2
REMARK SMILES IDX 24 1 23 2 22 3 21 4 20 5 19 6 17 7 18 8 16 9 3 10 4 11 9 12
REMARK SMILES IDX 5 13 8 14 10 15 6 16 7 17 94 18 11 19 2 20 1 21 12 22 13 23
REMARK SMILES IDX 14 24 15 25 25 26 26 27 27 28 28 29 29 30 30 31 31 32 32 33
REMARK SMILES IDX 93 34 33 35 92 36 34 37 35 38 36 39 86 40 37 41 91 42 85 43
REMARK SMILES IDX 87 44 38 45 90 46 84 47 83 48 39 50 71 51 51 52 70 53 52 54
REMARK SMILES IDX 55 55 69 56 88 57 53 58 54 59 68 61 89 62 56 63 40 64 41 65
REMARK SMILES IDX 49 66 42 67 44 68 50 69 43 70 45 71 46 72 47 73 48 74 72 75
REMARK SMILES IDX 73 76 81 77 74 78 76 79 82 80 75 81 77 82 78 83 79 84 80 85
REMARK SMILES IDX 57 86 58 87 66 88 59 89 61 90 67 91 60 92 62 93 63 94 64 95
REMARK SMILES IDX 65 96
REMARK H PARENT 87 49 55 60
REMARK Flexibility Score: inf
ROOT
ATOM      1  C   UNL A   1      33.860  34.560  28.722  1.00  0.00     0.188 C 
ENDROOT
BRANCH   1   2
ATOM      2  C   UNL A   1      35.150  33.746  28.476  1.00  0.00     0.188 C 
BRANCH   2   3
ATOM      3  O   UNL A   1      35.012  32.650  27.604  1.00  0.00    -0.376 OA
BRANCH   3   4
ATOM      4  C   UNL A   1      34.342  31.467  27.995  1.00  0.00     0.202 C 
BRANCH   4   5
ATOM      5  C   UNL A   1      33.468  30.579  27.090  1.00  0.00     0.261 C 
BRANCH   5   6
ATOM      6  O   UNL A   1      33.666  29.169  27.150  1.00  0.00    -0.460 OA
BRANCH   6   7
ATOM      7  C   UNL A   1      32.540  28.416  27.134  1.00  0.00     0.338 C 
ATOM      8  O   UNL A   1      31.574  28.539  27.867  1.00  0.00    -0.246 OA
BRANCH   7   9
ATOM      9  C   UNL A   1      32.609  27.475  26.001  1.00  0.00     0.087 C 
ATOM     10  C   UNL A   1      32.956  24.902  22.721  1.00  0.00     0.161 A 
ATOM     11  C   UNL A   1      33.990  23.958  22.704  1.00  0.00     0.054 A 
ATOM     12  C   UNL A   1      32.803  25.737  23.842  1.00  0.00     0.169 A 
ATOM     13  C   UNL A   1      34.865  23.837  23.793  1.00  0.00    -0.047 A 
ATOM     14  C   UNL A   1      33.682  25.633  24.923  1.00  0.00     0.021 A 
ATOM     15  O   UNL A   1      31.768  26.636  23.808  1.00  0.00    -0.471 OA
ATOM     16  C   UNL A   1      35.984  22.835  23.780  1.00  0.00     0.044 C 
ATOM     17  C   UNL A   1      34.695  24.670  24.905  1.00  0.00     0.015 A 
ATOM     18  C   UNL A   1      33.576  26.552  26.044  1.00  0.00     0.027 C 
ATOM     19  C   UNL A   1      31.600  27.582  24.891  1.00  0.00     0.316 C 
BRANCH  10  20
ATOM     20  O   UNL A   1      32.073  25.113  21.691  1.00  0.00    -0.493 OA
ATOM     21  C   UNL A   1      32.614  25.502  20.438  1.00  0.00     0.278 C 
ENDBRANCH  10  20
BRANCH  19  22
ATOM     22  C   UNL A   1      31.538  28.993  24.287  1.00  0.00     0.430 C 
ATOM     23  F   UNL A   1      32.778  29.495  24.067  1.00  0.00    -0.167 F 
ATOM     24  F   UNL A   1      30.911  28.997  23.084  1.00  0.00    -0.167 F 
ATOM     25  F   UNL A   1      30.882  29.867  25.083  1.00  0.00    -0.167 F 
ENDBRANCH  19  22
ENDBRANCH   7   9
ENDBRANCH   6   7
ENDBRANCH   5   6
ENDBRANCH   4   5
ENDBRANCH   3   4
ENDBRANCH   2   3
ENDBRANCH   1   2
BRANCH   1  26
ATOM     26  O   UNL A   1      33.940  35.859  29.296  1.00  0.00    -0.376 OA
BRANCH  26  27
ATOM     27  C   UNL A   1      32.810  36.380  29.987  1.00  0.00     0.202 C 
BRANCH  27  28
ATOM     28  C   UNL A   1      32.985  36.966  31.395  1.00  0.00     0.261 C 
BRANCH  28  29
ATOM     29  O   UNL A   1      34.002  36.319  32.177  1.00  0.00    -0.460 OA
BRANCH  29  30
ATOM     30  C   UNL A   1      33.720  35.049  32.564  1.00  0.00     0.338 C 
ATOM     31  O   UNL A   1      32.619  34.542  32.683  1.00  0.00    -0.246 OA
BRANCH  30  32
ATOM     32  C   UNL A   1      34.982  34.281  32.629  1.00  0.00     0.060 A 
ATOM     33  C   UNL A   1      36.172  34.811  32.129  1.00  0.00     0.016 A 
ATOM     34  C   UNL A   1      34.958  33.005  33.208  1.00  0.00     0.016 A 
ATOM     35  C   UNL A   1      37.350  34.067  32.237  1.00  0.00     0.010 A 
ATOM     36  C   UNL A   1      36.132  32.255  33.296  1.00  0.00     0.010 A 
ATOM     37  C   UNL A   1      37.341  32.791  32.831  1.00  0.00    -0.014 A 
BRANCH  37  38
ATOM     38  C   UNL A   1      38.622  32.113  33.140  1.00  0.00     0.031 A 
ATOM     39  C   UNL A   1      39.432  32.445  34.356  1.00  0.00     0.074 A 
ATOM     40  C   UNL A   1      39.062  31.184  32.270  1.00  0.00     0.049 A 
ATOM     41  N   UNL A   1      40.517  31.861  34.792  1.00  0.00    -0.248 NA
ATOM     42  C   UNL A   1      38.977  33.572  35.183  1.00  0.00     0.031 C 
ATOM     43  C   UNL A   1      38.392  30.829  31.016  1.00  0.00     0.029 A 
ATOM     44  N   UNL A   1      40.170  30.378  32.298  1.00  0.00    -0.354 N 
ATOM     45  C   UNL A   1      40.878  32.538  35.949  1.00  0.00     0.074 A 
ATOM     46  C   UNL A   1      39.906  33.598  36.134  1.00  0.00     0.031 C 
ATOM     47  C   UNL A   1      39.100  29.872  30.398  1.00  0.00     0.029 A 
ATOM     48  C   UNL A   1      40.270  29.547  31.209  1.00  0.00     0.049 A 
ATOM     49  H   UNL A   1      40.829  30.392  33.029  1.00  0.00     0.167 HD
ATOM     50  C   UNL A   1      41.908  32.277  36.790  1.00  0.00     0.034 A 
ATOM     51  C   UNL A   1      41.192  28.616  30.898  1.00  0.00     0.034 A 
ATOM     52  C   UNL A   1      42.863  31.215  36.606  1.00  0.00     0.049 A 
ATOM     53  C   UNL A   1      42.309  28.333  31.858  1.00  0.00     0.074 A 
ATOM     54  C   UNL A   1      43.900  30.843  37.444  1.00  0.00     0.029 A 
ATOM     55  N   UNL A   1      42.909  30.365  35.513  1.00  0.00    -0.354 N 
ATOM     56  N   UNL A   1      42.546  28.884  33.023  1.00  0.00    -0.248 NA
ATOM     57  C   UNL A   1      43.263  27.280  31.483  1.00  0.00     0.031 C 
ATOM     58  C   UNL A   1      44.580  29.774  36.854  1.00  0.00     0.029 A 
ATOM     59  C   UNL A   1      43.959  29.473  35.652  1.00  0.00     0.049 A 
ATOM     60  H   UNL A   1      42.287  30.391  34.750  1.00  0.00     0.167 HD
ATOM     61  C   UNL A   1      43.663  28.233  33.530  1.00  0.00     0.074 A 
ATOM     62  C   UNL A   1      44.047  27.235  32.553  1.00  0.00     0.031 C 
ATOM     63  C   UNL A   1      44.314  28.456  34.697  1.00  0.00     0.034 A 
BRANCH  50  64
ATOM     64  C   UNL A   1      42.028  33.098  38.044  1.00  0.00     0.023 A 
ATOM     65  C   UNL A   1      41.474  32.595  39.237  1.00  0.00     0.012 A 
ATOM     66  C   UNL A   1      42.802  34.274  38.078  1.00  0.00     0.148 A 
ATOM     67  C   UNL A   1      41.685  33.251  40.449  1.00  0.00     0.002 A 
ATOM     68  C   UNL A   1      43.031  34.908  39.295  1.00  0.00     0.091 A 
ATOM     69  F   UNL A   1      43.313  34.735  36.927  1.00  0.00    -0.205 F 
ATOM     70  C   UNL A   1      42.472  34.399  40.479  1.00  0.00     0.022 A 
BRANCH  68  71
ATOM     71  S   UNL A   1      44.077  36.360  39.457  1.00  0.00     0.127 S 
ATOM     72  O   UNL A   1      45.349  35.866  38.931  1.00  0.00    -0.237 OA
ATOM     73  O   UNL A   1      43.395  37.327  38.598  1.00  0.00    -0.237 OA
ATOM     74  O   UNL A   1      44.084  36.696  40.875  1.00  0.00    -0.744 OA
ENDBRANCH  68  71
ENDBRANCH  50  64
BRANCH  51  75
ATOM     75  C   UNL A   1      41.028  27.833  29.645  1.00  0.00     0.023 A 
ATOM     76  C   UNL A   1      39.978  26.901  29.550  1.00  0.00     0.012 A 
ATOM     77  C   UNL A   1      41.843  28.080  28.525  1.00  0.00     0.148 A 
ATOM     78  C   UNL A   1      39.747  26.218  28.356  1.00  0.00     0.002 A 
ATOM     79  C   UNL A   1      41.582  27.426  27.328  1.00  0.00     0.091 A 
ATOM     80  F   UNL A   1      42.834  28.974  28.648  1.00  0.00    -0.205 F 
ATOM     81  C   UNL A   1      40.541  26.488  27.244  1.00  0.00     0.022 A 
BRANCH  79  82
ATOM     82  S   UNL A   1      42.480  27.785  25.814  1.00  0.00     0.127 S 
ATOM     83  O   UNL A   1      43.855  27.486  26.206  1.00  0.00    -0.237 OA
ATOM     84  O   UNL A   1      41.882  26.829  24.881  1.00  0.00    -0.237 OA
ATOM     85  O   UNL A   1      42.204  29.182  25.511  1.00  0.00    -0.744 OA
ENDBRANCH  79  82
ENDBRANCH  51  75
BRANCH  63  86
ATOM     86  C   UNL A   1      45.520  27.612  35.004  1.00  0.00     0.023 A 
ATOM     87  C   UNL A   1      45.343  26.345  35.590  1.00  0.00     0.012 A 
ATOM     88  C   UNL A   1      46.808  28.021  34.605  1.00  0.00     0.148 A 
ATOM     89  C   UNL A   1      46.432  25.496  35.783  1.00  0.00     0.002 A 
ATOM     90  C   UNL A   1      47.884  27.158  34.771  1.00  0.00     0.091 A 
ATOM     91  F   UNL A   1      46.950  29.237  34.058  1.00  0.00    -0.205 F 
ATOM     92  C   UNL A   1      47.699  25.898  35.362  1.00  0.00     0.022 A 
BRANCH  90  93
ATOM     93  S   UNL A   1      49.542  27.552  34.200  1.00  0.00     0.127 S 
ATOM     94  O   UNL A   1      49.414  27.352  32.756  1.00  0.00    -0.237 OA
ATOM     95  O   UNL A   1      49.687  28.948  34.612  1.00  0.00    -0.237 OA
ATOM     96  O   UNL A   1      50.435  26.621  34.877  1.00  0.00    -0.744 OA
ENDBRANCH  90  93
ENDBRANCH  63  86
ENDBRANCH  37  38
ENDBRANCH  30  32
ENDBRANCH  29  30
ENDBRANCH  28  29
ENDBRANCH  27  28
ENDBRANCH  26  27
ENDBRANCH   1  26
TORSDOF 22
ENDMDL
