MODEL 1
REMARK VINA RESULT:     -10.2      0.000      0.000
REMARK SMILES O=C(OCCOCCOCCOC(=O)C1CN(c2cnccn2)C1)c1ccc(-c2c3nc(c(-c4cccc(S(=O)(=O)[O-])c4F)c4ccc([nH]4)c(-c4cccc(S(=O)(=O)[O-])c4F)c4nc(c(-c5cccc(S(=O)(=O)[O-])c5F)c5ccc2[nH]5)C=C4)C=C3)cc1
REMARK SMILES IDX 7 1 6 2 5 3 4 4 3 5 2 6 1 7 25 8 26 9 87 10 27 11 86 12
REMARK SMILES IDX 28 13 29 14 30 15 80 16 31 17 85 18 79 19 81 20 32 21 84 22
REMARK SMILES IDX 78 23 77 24 33 26 65 27 45 28 64 29 46 30 49 31 63 32 82 33
REMARK SMILES IDX 47 34 48 35 62 37 83 38 50 39 34 40 35 41 43 42 36 43 38 44
REMARK SMILES IDX 44 45 37 46 39 47 40 48 41 49 42 50 66 51 67 52 75 53 68 54
REMARK SMILES IDX 70 55 76 56 69 57 71 58 72 59 73 60 74 61 51 62 52 63 60 64
REMARK SMILES IDX 53 65 55 66 61 67 54 68 56 69 57 70 58 71 59 72 8 73 9 74
REMARK SMILES IDX 10 75 11 76 12 77 13 78 14 79 15 80 16 81 24 82 17 83 18 84
REMARK SMILES IDX 19 85 23 86 20 87 22 88 21 89
REMARK H PARENT 81 25 49 36
REMARK Flexibility Score: inf
ROOT
ATOM      1  C   UNL A   1      36.865  21.968  25.039  1.00  0.00     0.188 C 
ENDROOT
BRANCH   1   2
ATOM      2  O   UNL A   1      38.169  21.462  25.332  1.00  0.00    -0.376 OA
BRANCH   2   3
ATOM      3  C   UNL A   1      38.365  20.082  24.995  1.00  0.00     0.202 C 
BRANCH   3   4
ATOM      4  C   UNL A   1      39.311  19.253  25.889  1.00  0.00     0.261 C 
BRANCH   4   5
ATOM      5  O   UNL A   1      40.697  19.296  25.505  1.00  0.00    -0.460 OA
BRANCH   5   6
ATOM      6  C   UNL A   1      41.746  19.895  26.125  1.00  0.00     0.338 C 
ATOM      7  O   UNL A   1      42.753  19.221  26.337  1.00  0.00    -0.246 OA
BRANCH   6   8
ATOM      8  C   UNL A   1      41.735  21.318  26.592  1.00  0.00     0.060 A 
ATOM      9  C   UNL A   1      41.510  22.421  25.772  1.00  0.00     0.016 A 
ATOM     10  C   UNL A   1      41.933  21.557  27.964  1.00  0.00     0.016 A 
ATOM     11  C   UNL A   1      41.606  23.716  26.246  1.00  0.00     0.010 A 
ATOM     12  C   UNL A   1      41.990  22.864  28.467  1.00  0.00     0.010 A 
ATOM     13  C   UNL A   1      41.887  23.947  27.586  1.00  0.00    -0.014 A 
BRANCH  13  14
ATOM     14  C   UNL A   1      42.319  25.313  27.936  1.00  0.00     0.031 A 
ATOM     15  C   UNL A   1      43.656  25.763  27.420  1.00  0.00     0.074 A 
ATOM     16  C   UNL A   1      41.449  26.176  28.494  1.00  0.00     0.049 A 
ATOM     17  N   UNL A   1      44.223  26.933  27.508  1.00  0.00    -0.248 NA
ATOM     18  C   UNL A   1      44.452  24.768  26.674  1.00  0.00     0.031 C 
ATOM     19  C   UNL A   1      40.073  25.855  28.879  1.00  0.00     0.029 A 
ATOM     20  N   UNL A   1      41.568  27.505  28.794  1.00  0.00    -0.354 N 
ATOM     21  C   UNL A   1      45.457  26.799  26.885  1.00  0.00     0.074 A 
ATOM     22  C   UNL A   1      45.557  25.443  26.405  1.00  0.00     0.031 C 
ATOM     23  C   UNL A   1      39.467  26.963  29.335  1.00  0.00     0.029 A 
ATOM     24  C   UNL A   1      40.430  28.049  29.345  1.00  0.00     0.049 A 
ATOM     25  H   UNL A   1      42.389  28.023  28.630  1.00  0.00     0.167 HD
ATOM     26  C   UNL A   1      46.422  27.733  26.737  1.00  0.00     0.034 A 
ATOM     27  C   UNL A   1      40.213  29.286  29.826  1.00  0.00     0.034 A 
ATOM     28  C   UNL A   1      46.284  29.077  27.220  1.00  0.00     0.049 A 
ATOM     29  C   UNL A   1      41.342  30.264  29.742  1.00  0.00     0.074 A 
ATOM     30  C   UNL A   1      47.195  30.114  27.164  1.00  0.00     0.029 A 
ATOM     31  N   UNL A   1      45.155  29.563  27.867  1.00  0.00    -0.354 N 
ATOM     32  N   UNL A   1      42.518  30.116  29.182  1.00  0.00    -0.248 NA
ATOM     33  C   UNL A   1      41.103  31.587  30.329  1.00  0.00     0.031 C 
ATOM     34  C   UNL A   1      46.634  31.212  27.822  1.00  0.00     0.029 A 
ATOM     35  C   UNL A   1      45.352  30.878  28.234  1.00  0.00     0.049 A 
ATOM     36  H   UNL A   1      44.336  29.044  28.039  1.00  0.00     0.167 HD
ATOM     37  C   UNL A   1      43.152  31.340  29.313  1.00  0.00     0.074 A 
ATOM     38  C   UNL A   1      42.220  32.218  30.000  1.00  0.00     0.031 C 
ATOM     39  C   UNL A   1      44.386  31.714  28.901  1.00  0.00     0.034 A 
BRANCH  26  40
ATOM     40  C   UNL A   1      47.714  27.299  26.101  1.00  0.00     0.023 A 
ATOM     41  C   UNL A   1      48.765  26.773  26.881  1.00  0.00     0.012 A 
ATOM     42  C   UNL A   1      47.890  27.438  24.710  1.00  0.00     0.148 A 
ATOM     43  C   UNL A   1      49.981  26.429  26.290  1.00  0.00     0.002 A 
ATOM     44  C   UNL A   1      49.086  27.048  24.123  1.00  0.00     0.091 A 
ATOM     45  F   UNL A   1      46.893  27.973  23.993  1.00  0.00    -0.205 F 
ATOM     46  C   UNL A   1      50.139  26.558  24.913  1.00  0.00     0.022 A 
BRANCH  44  47
ATOM     47  S   UNL A   1      49.357  27.115  22.349  1.00  0.00     0.127 S 
ATOM     48  O   UNL A   1      48.965  28.491  22.043  1.00  0.00    -0.237 OA
ATOM     49  O   UNL A   1      50.795  26.855  22.254  1.00  0.00    -0.237 OA
ATOM     50  O   UNL A   1      48.511  26.084  21.771  1.00  0.00    -0.744 OA
ENDBRANCH  44  47
ENDBRANCH  26  40
BRANCH  27  51
ATOM     51  C   UNL A   1      38.913  29.681  30.429  1.00  0.00     0.023 A 
ATOM     52  C   UNL A   1      38.591  29.268  31.734  1.00  0.00     0.012 A 
ATOM     53  C   UNL A   1      37.972  30.422  29.694  1.00  0.00     0.148 A 
ATOM     54  C   UNL A   1      37.349  29.579  32.292  1.00  0.00     0.002 A 
ATOM     55  C   UNL A   1      36.752  30.767  30.271  1.00  0.00     0.091 A 
ATOM     56  F   UNL A   1      38.299  30.802  28.451  1.00  0.00    -0.205 F 
ATOM     57  C   UNL A   1      36.432  30.333  31.564  1.00  0.00     0.022 A 
BRANCH  55  58
ATOM     58  S   UNL A   1      35.556  31.820  29.436  1.00  0.00     0.127 S 
ATOM     59  O   UNL A   1      34.951  30.901  28.470  1.00  0.00    -0.237 OA
ATOM     60  O   UNL A   1      34.691  32.209  30.548  1.00  0.00    -0.237 OA
ATOM     61  O   UNL A   1      36.328  32.907  28.861  1.00  0.00    -0.744 OA
ENDBRANCH  55  58
ENDBRANCH  27  51
BRANCH  39  62
ATOM     62  C   UNL A   1      44.762  33.145  29.135  1.00  0.00     0.023 A 
ATOM     63  C   UNL A   1      45.483  33.513  30.286  1.00  0.00     0.012 A 
ATOM     64  C   UNL A   1      44.427  34.117  28.176  1.00  0.00     0.148 A 
ATOM     65  C   UNL A   1      45.827  34.845  30.500  1.00  0.00     0.002 A 
ATOM     66  C   UNL A   1      44.828  35.429  28.364  1.00  0.00     0.091 A 
ATOM     67  F   UNL A   1      43.715  33.740  27.103  1.00  0.00    -0.205 F 
ATOM     68  C   UNL A   1      45.512  35.799  29.534  1.00  0.00     0.022 A 
BRANCH  66  69
ATOM     69  S   UNL A   1      44.564  36.691  27.118  1.00  0.00     0.127 S 
ATOM     70  O   UNL A   1      44.604  37.913  27.920  1.00  0.00    -0.237 OA
ATOM     71  O   UNL A   1      45.715  36.499  26.237  1.00  0.00    -0.237 OA
ATOM     72  O   UNL A   1      43.278  36.388  26.504  1.00  0.00    -0.744 OA
ENDBRANCH  66  69
ENDBRANCH  39  62
ENDBRANCH  13  14
ENDBRANCH   6   8
ENDBRANCH   5   6
ENDBRANCH   4   5
ENDBRANCH   3   4
ENDBRANCH   2   3
ENDBRANCH   1   2
BRANCH   1  73
ATOM     73  C   UNL A   1      36.611  23.416  25.464  1.00  0.00     0.188 C 
BRANCH  73  74
ATOM     74  O   UNL A   1      35.758  24.215  24.652  1.00  0.00    -0.376 OA
BRANCH  74  75
ATOM     75  C   UNL A   1      34.772  25.005  25.307  1.00  0.00     0.202 C 
BRANCH  75  76
ATOM     76  C   UNL A   1      33.287  24.778  24.973  1.00  0.00     0.261 C 
BRANCH  76  77
ATOM     77  O   UNL A   1      32.547  24.109  26.005  1.00  0.00    -0.463 OA
BRANCH  77  78
ATOM     78  C   UNL A   1      31.895  22.963  25.636  1.00  0.00     0.312 C 
ATOM     79  O   UNL A   1      30.669  22.875  25.565  1.00  0.00    -0.252 OA
BRANCH  78  80
ATOM     80  C   UNL A   1      32.863  21.876  25.173  1.00  0.00     0.138 C 
ATOM     81  C   UNL A   1      33.366  20.791  26.127  1.00  0.00     0.135 C 
ATOM     82  C   UNL A   1      32.301  20.709  24.363  1.00  0.00     0.135 C 
ATOM     83  N   UNL A   1      33.320  19.918  24.989  1.00  0.00    -0.353 N 
BRANCH  83  84
ATOM     84  C   UNL A   1      33.330  18.518  24.959  1.00  0.00     0.147 A 
ATOM     85  C   UNL A   1      34.094  17.860  23.986  1.00  0.00     0.157 A 
ATOM     86  N   UNL A   1      32.586  17.819  25.828  1.00  0.00    -0.236 NA
ATOM     87  N   UNL A   1      34.150  16.514  23.833  1.00  0.00    -0.259 NA
ATOM     88  C   UNL A   1      32.616  16.471  25.666  1.00  0.00     0.133 A 
ATOM     89  C   UNL A   1      33.376  15.829  24.704  1.00  0.00     0.131 A 
ENDBRANCH  83  84
ENDBRANCH  78  80
ENDBRANCH  77  78
ENDBRANCH  76  77
ENDBRANCH  75  76
ENDBRANCH  74  75
ENDBRANCH  73  74
ENDBRANCH   1  73
TORSDOF 21
ENDMDL
MODEL 2
REMARK VINA RESULT:      -9.3      1.102      7.683
REMARK SMILES O=C(OCCOCCOCCOC(=O)C1CN(c2cnccn2)C1)c1ccc(-c2c3nc(c(-c4cccc(S(=O)(=O)[O-])c4F)c4ccc([nH]4)c(-c4cccc(S(=O)(=O)[O-])c4F)c4nc(c(-c5cccc(S(=O)(=O)[O-])c5F)c5ccc2[nH]5)C=C4)C=C3)cc1
REMARK SMILES IDX 7 1 6 2 5 3 4 4 3 5 2 6 1 7 25 8 26 9 87 10 27 11 86 12
REMARK SMILES IDX 28 13 29 14 30 15 80 16 31 17 85 18 79 19 81 20 32 21 84 22
REMARK SMILES IDX 78 23 77 24 33 26 65 27 45 28 64 29 46 30 49 31 63 32 82 33
REMARK SMILES IDX 47 34 48 35 62 37 83 38 50 39 34 40 35 41 43 42 36 43 38 44
REMARK SMILES IDX 44 45 37 46 39 47 40 48 41 49 42 50 66 51 67 52 75 53 68 54
REMARK SMILES IDX 70 55 76 56 69 57 71 58 72 59 73 60 74 61 51 62 52 63 60 64
REMARK SMILES IDX 53 65 55 66 61 67 54 68 56 69 57 70 58 71 59 72 8 73 9 74
REMARK SMILES IDX 10 75 11 76 12 77 13 78 14 79 15 80 16 81 24 82 17 83 18 84
REMARK SMILES IDX 19 85 23 86 20 87 22 88 21 89
REMARK H PARENT 81 25 49 36
REMARK Flexibility Score: inf
ROOT
ATOM      1  C   UNL A   1      37.447  21.506  25.050  1.00  0.00     0.188 C 
ENDROOT
BRANCH   1   2
ATOM      2  O   UNL A   1      38.689  21.143  25.656  1.00  0.00    -0.376 OA
BRANCH   2   3
ATOM      3  C   UNL A   1      39.176  19.845  25.291  1.00  0.00     0.202 C 
BRANCH   3   4
ATOM      4  C   UNL A   1      40.122  19.130  26.279  1.00  0.00     0.261 C 
BRANCH   4   5
ATOM      5  O   UNL A   1      41.452  18.898  25.782  1.00  0.00    -0.460 OA
BRANCH   5   6
ATOM      6  C   UNL A   1      42.573  19.648  25.934  1.00  0.00     0.338 C 
ATOM      7  O   UNL A   1      43.662  19.085  25.835  1.00  0.00    -0.246 OA
BRANCH   6   8
ATOM      8  C   UNL A   1      42.560  21.112  26.246  1.00  0.00     0.060 A 
ATOM      9  C   UNL A   1      42.369  22.122  25.306  1.00  0.00     0.016 A 
ATOM     10  C   UNL A   1      42.718  21.496  27.589  1.00  0.00     0.016 A 
ATOM     11  C   UNL A   1      42.460  23.460  25.641  1.00  0.00     0.010 A 
ATOM     12  C   UNL A   1      42.770  22.849  27.951  1.00  0.00     0.010 A 
ATOM     13  C   UNL A   1      42.703  23.832  26.956  1.00  0.00    -0.014 A 
BRANCH  13  14
ATOM     14  C   UNL A   1      43.134  25.226  27.171  1.00  0.00     0.031 A 
ATOM     15  C   UNL A   1      42.166  26.145  27.860  1.00  0.00     0.074 A 
ATOM     16  C   UNL A   1      44.417  25.579  26.960  1.00  0.00     0.049 A 
ATOM     17  N   UNL A   1      42.331  27.379  28.245  1.00  0.00    -0.248 NA
ATOM     18  C   UNL A   1      40.839  25.589  28.191  1.00  0.00     0.031 C 
ATOM     19  C   UNL A   1      45.459  24.692  26.440  1.00  0.00     0.029 A 
ATOM     20  N   UNL A   1      45.077  26.753  27.197  1.00  0.00    -0.354 N 
ATOM     21  C   UNL A   1      41.120  27.762  28.806  1.00  0.00     0.074 A 
ATOM     22  C   UNL A   1      40.229  26.630  28.732  1.00  0.00     0.031 C 
ATOM     23  C   UNL A   1      46.633  25.344  26.427  1.00  0.00     0.029 A 
ATOM     24  C   UNL A   1      46.412  26.711  26.863  1.00  0.00     0.049 A 
ATOM     25  H   UNL A   1      44.640  27.551  27.572  1.00  0.00     0.167 HD
ATOM     26  C   UNL A   1      40.785  28.961  29.331  1.00  0.00     0.034 A 
ATOM     27  C   UNL A   1      47.336  27.686  26.887  1.00  0.00     0.034 A 
ATOM     28  C   UNL A   1      41.702  30.064  29.396  1.00  0.00     0.049 A 
ATOM     29  C   UNL A   1      46.903  29.033  27.375  1.00  0.00     0.074 A 
ATOM     30  C   UNL A   1      41.485  31.341  29.873  1.00  0.00     0.029 A 
ATOM     31  N   UNL A   1      43.017  30.014  28.951  1.00  0.00    -0.354 N 
ATOM     32  N   UNL A   1      45.744  29.393  27.870  1.00  0.00    -0.248 NA
ATOM     33  C   UNL A   1      47.911  30.097  27.333  1.00  0.00     0.031 C 
ATOM     34  C   UNL A   1      42.655  32.079  29.670  1.00  0.00     0.029 A 
ATOM     35  C   UNL A   1      43.618  31.244  29.123  1.00  0.00     0.049 A 
ATOM     36  H   UNL A   1      43.454  29.219  28.569  1.00  0.00     0.167 HD
ATOM     37  C   UNL A   1      45.890  30.720  28.238  1.00  0.00     0.074 A 
ATOM     38  C   UNL A   1      47.256  31.092  27.913  1.00  0.00     0.031 C 
ATOM     39  C   UNL A   1      44.987  31.558  28.799  1.00  0.00     0.034 A 
BRANCH  26  40
ATOM     40  C   UNL A   1      39.365  29.145  29.790  1.00  0.00     0.023 A 
ATOM     41  C   UNL A   1      38.963  28.739  31.079  1.00  0.00     0.012 A 
ATOM     42  C   UNL A   1      38.416  29.711  28.917  1.00  0.00     0.148 A 
ATOM     43  C   UNL A   1      37.630  28.859  31.475  1.00  0.00     0.002 A 
ATOM     44  C   UNL A   1      37.102  29.872  29.335  1.00  0.00     0.091 A 
ATOM     45  F   UNL A   1      38.812  30.058  27.684  1.00  0.00    -0.205 F 
ATOM     46  C   UNL A   1      36.703  29.432  30.608  1.00  0.00     0.022 A 
BRANCH  44  47
ATOM     47  S   UNL A   1      35.853  30.660  28.314  1.00  0.00     0.127 S 
ATOM     48  O   UNL A   1      35.557  29.605  27.345  1.00  0.00    -0.237 OA
ATOM     49  O   UNL A   1      34.786  30.914  29.284  1.00  0.00    -0.237 OA
ATOM     50  O   UNL A   1      36.475  31.854  27.764  1.00  0.00    -0.744 OA
ENDBRANCH  44  47
ENDBRANCH  26  40
BRANCH  27  51
ATOM     51  C   UNL A   1      48.736  27.457  26.443  1.00  0.00     0.023 A 
ATOM     52  C   UNL A   1      49.721  27.102  27.383  1.00  0.00     0.012 A 
ATOM     53  C   UNL A   1      49.107  27.641  25.100  1.00  0.00     0.148 A 
ATOM     54  C   UNL A   1      51.052  26.942  26.992  1.00  0.00     0.002 A 
ATOM     55  C   UNL A   1      50.428  27.439  24.707  1.00  0.00     0.091 A 
ATOM     56  F   UNL A   1      48.153  27.983  24.223  1.00  0.00    -0.205 F 
ATOM     57  C   UNL A   1      51.405  27.104  25.655  1.00  0.00     0.022 A 
BRANCH  55  58
ATOM     58  S   UNL A   1      50.946  27.530  22.987  1.00  0.00     0.127 S 
ATOM     59  O   UNL A   1      49.980  26.653  22.323  1.00  0.00    -0.237 OA
ATOM     60  O   UNL A   1      50.778  28.957  22.713  1.00  0.00    -0.237 OA
ATOM     61  O   UNL A   1      52.322  27.068  22.968  1.00  0.00    -0.744 OA
ENDBRANCH  55  58
ENDBRANCH  27  51
BRANCH  39  62
ATOM     62  C   UNL A   1      45.476  32.931  29.144  1.00  0.00     0.023 A 
ATOM     63  C   UNL A   1      46.131  33.167  30.367  1.00  0.00     0.012 A 
ATOM     64  C   UNL A   1      45.313  33.979  28.221  1.00  0.00     0.148 A 
ATOM     65  C   UNL A   1      46.581  34.446  30.685  1.00  0.00     0.002 A 
ATOM     66  C   UNL A   1      45.819  35.234  28.516  1.00  0.00     0.091 A 
ATOM     67  F   UNL A   1      44.659  33.729  27.077  1.00  0.00    -0.205 F 
ATOM     68  C   UNL A   1      46.438  35.475  29.754  1.00  0.00     0.022 A 
BRANCH  66  69
ATOM     69  S   UNL A   1      45.779  36.578  27.330  1.00  0.00     0.127 S 
ATOM     70  O   UNL A   1      46.433  35.973  26.172  1.00  0.00    -0.237 OA
ATOM     71  O   UNL A   1      44.343  36.807  27.173  1.00  0.00    -0.237 OA
ATOM     72  O   UNL A   1      46.501  37.682  27.950  1.00  0.00    -0.744 OA
ENDBRANCH  66  69
ENDBRANCH  39  62
ENDBRANCH  13  14
ENDBRANCH   6   8
ENDBRANCH   5   6
ENDBRANCH   4   5
ENDBRANCH   3   4
ENDBRANCH   2   3
ENDBRANCH   1   2
BRANCH   1  73
ATOM     73  C   UNL A   1      37.206  23.009  24.894  1.00  0.00     0.188 C 
BRANCH  73  74
ATOM     74  O   UNL A   1      35.862  23.469  24.803  1.00  0.00    -0.376 OA
BRANCH  74  75
ATOM     75  C   UNL A   1      35.055  23.387  25.972  1.00  0.00     0.202 C 
BRANCH  75  76
ATOM     76  C   UNL A   1      33.568  23.776  25.885  1.00  0.00     0.261 C 
BRANCH  76  77
ATOM     77  O   UNL A   1      32.686  22.676  25.617  1.00  0.00    -0.463 OA
BRANCH  77  78
ATOM     78  C   UNL A   1      32.617  22.258  24.315  1.00  0.00     0.312 C 
ATOM     79  O   UNL A   1      32.145  22.946  23.408  1.00  0.00    -0.252 OA
BRANCH  78  80
ATOM     80  C   UNL A   1      33.335  20.928  24.101  1.00  0.00     0.138 C 
ATOM     81  C   UNL A   1      33.816  20.078  25.278  1.00  0.00     0.135 C 
ATOM     82  C   UNL A   1      32.493  19.705  23.742  1.00  0.00     0.135 C 
ATOM     83  N   UNL A   1      33.471  18.947  24.466  1.00  0.00    -0.353 N 
BRANCH  83  84
ATOM     84  C   UNL A   1      33.274  17.616  24.857  1.00  0.00     0.147 A 
ATOM     85  C   UNL A   1      34.235  16.654  24.519  1.00  0.00     0.157 A 
ATOM     86  N   UNL A   1      32.158  17.264  25.512  1.00  0.00    -0.236 NA
ATOM     87  N   UNL A   1      34.134  15.333  24.807  1.00  0.00    -0.259 NA
ATOM     88  C   UNL A   1      32.037  15.938  25.781  1.00  0.00     0.133 A 
ATOM     89  C   UNL A   1      32.994  14.995  25.447  1.00  0.00     0.131 A 
ENDBRANCH  83  84
ENDBRANCH  78  80
ENDBRANCH  77  78
ENDBRANCH  76  77
ENDBRANCH  75  76
ENDBRANCH  74  75
ENDBRANCH  73  74
ENDBRANCH   1  73
TORSDOF 21
ENDMDL
MODEL 3
REMARK VINA RESULT:      -8.9      2.642      8.465
REMARK SMILES O=C(OCCOCCOCCOC(=O)C1CN(c2cnccn2)C1)c1ccc(-c2c3nc(c(-c4cccc(S(=O)(=O)[O-])c4F)c4ccc([nH]4)c(-c4cccc(S(=O)(=O)[O-])c4F)c4nc(c(-c5cccc(S(=O)(=O)[O-])c5F)c5ccc2[nH]5)C=C4)C=C3)cc1
REMARK SMILES IDX 7 1 6 2 5 3 4 4 3 5 2 6 1 7 25 8 26 9 87 10 27 11 86 12
REMARK SMILES IDX 28 13 29 14 30 15 80 16 31 17 85 18 79 19 81 20 32 21 84 22
REMARK SMILES IDX 78 23 77 24 33 26 65 27 45 28 64 29 46 30 49 31 63 32 82 33
REMARK SMILES IDX 47 34 48 35 62 37 83 38 50 39 34 40 35 41 43 42 36 43 38 44
REMARK SMILES IDX 44 45 37 46 39 47 40 48 41 49 42 50 66 51 67 52 75 53 68 54
REMARK SMILES IDX 70 55 76 56 69 57 71 58 72 59 73 60 74 61 51 62 52 63 60 64
REMARK SMILES IDX 53 65 55 66 61 67 54 68 56 69 57 70 58 71 59 72 8 73 9 74
REMARK SMILES IDX 10 75 11 76 12 77 13 78 14 79 15 80 16 81 24 82 17 83 18 84
REMARK SMILES IDX 19 85 23 86 20 87 22 88 21 89
REMARK H PARENT 81 25 49 36
REMARK Flexibility Score: inf
ROOT
ATOM      1  C   UNL A   1      36.705  20.852  24.780  1.00  0.00     0.188 C 
ENDROOT
BRANCH   1   2
ATOM      2  O   UNL A   1      38.050  20.945  25.255  1.00  0.00    -0.376 OA
BRANCH   2   3
ATOM      3  C   UNL A   1      38.852  19.783  25.007  1.00  0.00     0.202 C 
BRANCH   3   4
ATOM      4  C   UNL A   1      39.741  19.268  26.159  1.00  0.00     0.261 C 
BRANCH   4   5
ATOM      5  O   UNL A   1      41.100  18.975  25.789  1.00  0.00    -0.460 OA
BRANCH   5   6
ATOM      6  C   UNL A   1      42.235  19.671  26.053  1.00  0.00     0.338 C 
ATOM      7  O   UNL A   1      43.302  19.059  26.048  1.00  0.00    -0.246 OA
BRANCH   6   8
ATOM      8  C   UNL A   1      42.259  21.132  26.381  1.00  0.00     0.060 A 
ATOM      9  C   UNL A   1      42.009  22.154  25.468  1.00  0.00     0.016 A 
ATOM     10  C   UNL A   1      42.521  21.500  27.713  1.00  0.00     0.016 A 
ATOM     11  C   UNL A   1      42.138  23.488  25.810  1.00  0.00     0.010 A 
ATOM     12  C   UNL A   1      42.612  22.848  28.084  1.00  0.00     0.010 A 
ATOM     13  C   UNL A   1      42.481  23.843  27.108  1.00  0.00    -0.014 A 
BRANCH  13  14
ATOM     14  C   UNL A   1      42.941  25.230  27.304  1.00  0.00     0.031 A 
ATOM     15  C   UNL A   1      41.986  26.180  27.971  1.00  0.00     0.074 A 
ATOM     16  C   UNL A   1      44.232  25.552  27.098  1.00  0.00     0.049 A 
ATOM     17  N   UNL A   1      42.176  27.416  28.338  1.00  0.00    -0.248 NA
ATOM     18  C   UNL A   1      40.645  25.658  28.300  1.00  0.00     0.031 C 
ATOM     19  C   UNL A   1      45.259  24.635  26.601  1.00  0.00     0.029 A 
ATOM     20  N   UNL A   1      44.915  26.715  27.323  1.00  0.00    -0.354 N 
ATOM     21  C   UNL A   1      40.968  27.833  28.884  1.00  0.00     0.074 A 
ATOM     22  C   UNL A   1      40.054  26.720  28.820  1.00  0.00     0.031 C 
ATOM     23  C   UNL A   1      46.447  25.262  26.587  1.00  0.00     0.029 A 
ATOM     24  C   UNL A   1      46.251  26.639  27.000  1.00  0.00     0.049 A 
ATOM     25  H   UNL A   1      44.493  27.528  27.682  1.00  0.00     0.167 HD
ATOM     26  C   UNL A   1      40.655  29.048  29.387  1.00  0.00     0.034 A 
ATOM     27  C   UNL A   1      47.197  27.595  27.017  1.00  0.00     0.034 A 
ATOM     28  C   UNL A   1      41.595  30.131  29.443  1.00  0.00     0.049 A 
ATOM     29  C   UNL A   1      46.788  28.958  27.480  1.00  0.00     0.074 A 
ATOM     30  C   UNL A   1      41.401  31.420  29.898  1.00  0.00     0.029 A 
ATOM     31  N   UNL A   1      42.912  30.046  29.010  1.00  0.00    -0.354 N 
ATOM     32  N   UNL A   1      45.633  29.351  27.960  1.00  0.00    -0.248 NA
ATOM     33  C   UNL A   1      47.819  29.999  27.430  1.00  0.00     0.031 C 
ATOM     34  C   UNL A   1      42.588  32.129  29.694  1.00  0.00     0.029 A 
ATOM     35  C   UNL A   1      43.538  31.266  29.167  1.00  0.00     0.049 A 
ATOM     36  H   UNL A   1      43.335  29.236  28.643  1.00  0.00     0.167 HD
ATOM     37  C   UNL A   1      45.805  30.679  28.309  1.00  0.00     0.074 A 
ATOM     38  C   UNL A   1      47.181  31.017  27.989  1.00  0.00     0.031 C 
ATOM     39  C   UNL A   1      44.916  31.545  28.850  1.00  0.00     0.034 A 
BRANCH  26  40
ATOM     40  C   UNL A   1      39.236  29.269  29.832  1.00  0.00     0.023 A 
ATOM     41  C   UNL A   1      38.826  28.933  31.139  1.00  0.00     0.012 A 
ATOM     42  C   UNL A   1      38.295  29.799  28.928  1.00  0.00     0.148 A 
ATOM     43  C   UNL A   1      37.493  29.087  31.524  1.00  0.00     0.002 A 
ATOM     44  C   UNL A   1      36.981  29.993  29.333  1.00  0.00     0.091 A 
ATOM     45  F   UNL A   1      38.697  30.077  27.680  1.00  0.00    -0.205 F 
ATOM     46  C   UNL A   1      36.574  29.624  30.625  1.00  0.00     0.022 A 
BRANCH  44  47
ATOM     47  S   UNL A   1      35.743  30.740  28.269  1.00  0.00     0.127 S 
ATOM     48  O   UNL A   1      34.659  31.000  29.216  1.00  0.00    -0.237 OA
ATOM     49  O   UNL A   1      36.437  31.938  27.793  1.00  0.00    -0.237 OA
ATOM     50  O   UNL A   1      35.447  29.757  27.240  1.00  0.00    -0.744 OA
ENDBRANCH  44  47
ENDBRANCH  26  40
BRANCH  27  51
ATOM     51  C   UNL A   1      48.595  27.330  26.588  1.00  0.00     0.023 A 
ATOM     52  C   UNL A   1      48.909  27.274  25.218  1.00  0.00     0.012 A 
ATOM     53  C   UNL A   1      49.605  27.081  27.532  1.00  0.00     0.148 A 
ATOM     54  C   UNL A   1      50.205  26.966  24.798  1.00  0.00     0.002 A 
ATOM     55  C   UNL A   1      50.905  26.816  27.109  1.00  0.00     0.091 A 
ATOM     56  F   UNL A   1      49.281  27.135  28.832  1.00  0.00    -0.205 F 
ATOM     57  C   UNL A   1      51.205  26.743  25.742  1.00  0.00     0.022 A 
BRANCH  55  58
ATOM     58  S   UNL A   1      52.271  26.615  28.263  1.00  0.00     0.127 S 
ATOM     59  O   UNL A   1      53.206  25.788  27.500  1.00  0.00    -0.237 OA
ATOM     60  O   UNL A   1      52.687  28.004  28.458  1.00  0.00    -0.237 OA
ATOM     61  O   UNL A   1      51.699  25.985  29.439  1.00  0.00    -0.744 OA
ENDBRANCH  55  58
ENDBRANCH  27  51
BRANCH  39  62
ATOM     62  C   UNL A   1      45.431  32.913  29.178  1.00  0.00     0.023 A 
ATOM     63  C   UNL A   1      45.951  33.190  30.455  1.00  0.00     0.012 A 
ATOM     64  C   UNL A   1      45.431  33.912  28.188  1.00  0.00     0.148 A 
ATOM     65  C   UNL A   1      46.426  34.464  30.757  1.00  0.00     0.002 A 
ATOM     66  C   UNL A   1      45.964  35.157  28.474  1.00  0.00     0.091 A 
ATOM     67  F   UNL A   1      44.903  33.625  26.988  1.00  0.00    -0.205 F 
ATOM     68  C   UNL A   1      46.446  35.442  29.763  1.00  0.00     0.022 A 
BRANCH  66  69
ATOM     69  S   UNL A   1      46.132  36.430  27.223  1.00  0.00     0.127 S 
ATOM     70  O   UNL A   1      44.807  37.048  27.248  1.00  0.00    -0.237 OA
ATOM     71  O   UNL A   1      47.205  37.259  27.769  1.00  0.00    -0.237 OA
ATOM     72  O   UNL A   1      46.475  35.736  25.988  1.00  0.00    -0.744 OA
ENDBRANCH  66  69
ENDBRANCH  39  62
ENDBRANCH  13  14
ENDBRANCH   6   8
ENDBRANCH   5   6
ENDBRANCH   4   5
ENDBRANCH   3   4
ENDBRANCH   2   3
ENDBRANCH   1   2
BRANCH   1  73
ATOM     73  C   UNL A   1      35.971  22.185  24.617  1.00  0.00     0.188 C 
BRANCH  73  74
ATOM     74  O   UNL A   1      34.727  22.355  25.286  1.00  0.00    -0.376 OA
BRANCH  74  75
ATOM     75  C   UNL A   1      33.557  21.862  24.643  1.00  0.00     0.202 C 
BRANCH  75  76
ATOM     76  C   UNL A   1      32.464  21.186  25.489  1.00  0.00     0.261 C 
BRANCH  76  77
ATOM     77  O   UNL A   1      31.234  21.922  25.560  1.00  0.00    -0.463 OA
BRANCH  77  78
ATOM     78  C   UNL A   1      31.229  23.016  26.383  1.00  0.00     0.312 C 
ATOM     79  O   UNL A   1      31.395  22.946  27.602  1.00  0.00    -0.252 OA
BRANCH  78  80
ATOM     80  C   UNL A   1      31.159  24.324  25.599  1.00  0.00     0.138 C 
ATOM     81  C   UNL A   1      30.221  25.459  26.014  1.00  0.00     0.135 C 
ATOM     82  C   UNL A   1      32.270  25.351  25.811  1.00  0.00     0.135 C 
ATOM     83  N   UNL A   1      31.262  26.340  25.568  1.00  0.00    -0.353 N 
BRANCH  83  84
ATOM     84  C   UNL A   1      31.438  27.701  25.851  1.00  0.00     0.147 A 
ATOM     85  C   UNL A   1      31.332  28.635  24.812  1.00  0.00     0.157 A 
ATOM     86  N   UNL A   1      31.743  28.096  27.095  1.00  0.00    -0.236 NA
ATOM     87  N   UNL A   1      31.522  29.970  24.957  1.00  0.00    -0.259 NA
ATOM     88  C   UNL A   1      31.961  29.429  27.244  1.00  0.00     0.133 A 
ATOM     89  C   UNL A   1      31.850  30.346  26.213  1.00  0.00     0.131 A 
ENDBRANCH  83  84
ENDBRANCH  78  80
ENDBRANCH  77  78
ENDBRANCH  76  77
ENDBRANCH  75  76
ENDBRANCH  74  75
ENDBRANCH  73  74
ENDBRANCH   1  73
TORSDOF 21
ENDMDL
