MODEL 1
REMARK VINA RESULT:     -11.6      0.000      0.000
REMARK SMILES Cc1ccc(C(=O)NC2(CC(=O)OCCOCCOCCOC(=O)c3ccc(-c4c5nc(c(-c6cccc(S(=O)(=O)[O-])c6F)c6ccc([nH]6)c(-c6cccc(S(=O)(=O)[O-])c6F)c6nc(c(-c7cccc(S(=O)(=O)[O-])c7F)c7ccc4[nH]7)C=C6)C=C5)cc3)CCC2)cc1
REMARK SMILES IDX 17 1 16 2 15 3 14 4 13 5 11 6 12 7 10 8 9 9 88 10 90 11
REMARK SMILES IDX 89 12 8 13 6 14 7 15 5 17 1 18 2 19 3 20 92 21 4 22 91 23
REMARK SMILES IDX 18 24 19 25 20 26 21 27 22 28 23 29 24 30 25 31 26 32 87 33
REMARK SMILES IDX 27 34 86 35 28 36 29 37 30 38 80 39 31 40 85 41 79 42 81 43
REMARK SMILES IDX 32 44 84 45 78 46 77 47 33 49 65 50 45 51 64 52 46 53 49 54
REMARK SMILES IDX 63 55 82 56 47 57 48 58 62 60 83 61 50 62 34 63 35 64 43 65
REMARK SMILES IDX 36 66 38 67 44 68 37 69 39 70 40 71 41 72 42 73 66 74 67 75
REMARK SMILES IDX 75 76 68 77 70 78 76 79 69 80 71 81 72 82 73 83 74 84 51 85
REMARK SMILES IDX 52 86 60 87 53 88 55 89 61 90 54 91 56 92 57 93 58 94 59 95
REMARK H PARENT 8 16 81 48 49 59
REMARK Flexibility Score: inf
ROOT
ATOM      1  C   UNL A   1      41.762  19.543  27.225  1.00  0.00     0.188 C 
ENDROOT
BRANCH   1   2
ATOM      2  O   UNL A   1      40.576  20.293  27.187  1.00  0.00    -0.376 OA
BRANCH   2   3
ATOM      3  C   UNL A   1      40.143  20.804  25.922  1.00  0.00     0.202 C 
BRANCH   3   4
ATOM      4  C   UNL A   1      38.552  21.027  25.394  1.00  0.00     0.261 C 
BRANCH   4   5
ATOM      5  O   UNL A   1      37.272  22.153  25.544  1.00  0.00    -0.463 OA
BRANCH   5   6
ATOM      6  C   UNL A   1      36.203  22.911  24.995  1.00  0.00     0.308 C 
ATOM      7  O   UNL A   1      35.468  22.680  24.031  1.00  0.00    -0.252 OA
BRANCH   6   8
ATOM      8  C   UNL A   1      35.614  23.872  25.910  1.00  0.00     0.151 C 
BRANCH   8   9
ATOM      9  C   UNL A   1      34.253  23.849  25.302  1.00  0.00     0.051 C 
ATOM     10  C   UNL A   1      33.084  24.036  26.398  1.00  0.00     0.029 C 
ATOM     11  C   UNL A   1      33.634  22.296  25.409  1.00  0.00     0.029 C 
ATOM     12  C   UNL A   1      33.363  22.587  26.892  1.00  0.00     0.005 C 
BRANCH   9  13
ATOM     13  N   UNL A   1      34.315  24.964  23.801  1.00  0.00    -0.346 N 
ATOM     14  C   UNL A   1      33.151  25.885  22.845  1.00  0.00     0.251 C 
ATOM     15  O   UNL A   1      33.634  26.071  21.709  1.00  0.00    -0.269 OA
ATOM     16  H   UNL A   1      35.232  25.063  23.456  1.00  0.00     0.164 HD
BRANCH  14  17
ATOM     17  C   UNL A   1      31.455  26.706  23.115  1.00  0.00     0.039 A 
ATOM     18  C   UNL A   1      27.379  29.054  23.113  1.00  0.00     0.044 C 
ATOM     19  C   UNL A   1      28.572  28.129  23.138  1.00  0.00    -0.051 A 
ATOM     20  C   UNL A   1      28.871  26.893  23.738  1.00  0.00     0.004 A 
ATOM     21  C   UNL A   1      29.632  28.583  22.451  1.00  0.00     0.004 A 
ATOM     22  C   UNL A   1      30.254  26.173  23.663  1.00  0.00     0.014 A 
ATOM     23  C   UNL A   1      30.929  27.952  22.586  1.00  0.00     0.014 A 
ENDBRANCH  14  17
ENDBRANCH   9  13
ENDBRANCH   8   9
ENDBRANCH   6   8
ENDBRANCH   5   6
ENDBRANCH   4   5
ENDBRANCH   3   4
ENDBRANCH   2   3
ENDBRANCH   1   2
BRANCH   1  24
ATOM     24  C   UNL A   1      42.424  19.440  25.864  1.00  0.00     0.188 C 
BRANCH  24  25
ATOM     25  O   UNL A   1      43.774  19.873  25.855  1.00  0.00    -0.376 OA
BRANCH  25  26
ATOM     26  C   UNL A   1      44.252  20.731  24.838  1.00  0.00     0.202 C 
BRANCH  26  27
ATOM     27  C   UNL A   1      44.964  21.795  25.633  1.00  0.00     0.261 C 
BRANCH  27  28
ATOM     28  O   UNL A   1      43.995  22.198  26.676  1.00  0.00    -0.460 OA
BRANCH  28  29
ATOM     29  C   UNL A   1      43.370  23.407  26.496  1.00  0.00     0.338 C 
ATOM     30  O   UNL A   1      42.764  23.682  25.465  1.00  0.00    -0.246 OA
BRANCH  29  31
ATOM     31  C   UNL A   1      43.650  24.455  27.617  1.00  0.00     0.060 A 
ATOM     32  C   UNL A   1      44.763  24.237  28.399  1.00  0.00     0.016 A 
ATOM     33  C   UNL A   1      42.838  25.464  28.171  1.00  0.00     0.016 A 
ATOM     34  C   UNL A   1      44.921  24.868  29.722  1.00  0.00     0.010 A 
ATOM     35  C   UNL A   1      43.038  26.048  29.575  1.00  0.00     0.010 A 
ATOM     36  C   UNL A   1      44.048  25.640  30.483  1.00  0.00    -0.014 A 
BRANCH  36  37
ATOM     37  C   UNL A   1      44.161  25.782  32.200  1.00  0.00     0.031 A 
ATOM     38  C   UNL A   1      44.405  27.166  32.712  1.00  0.00     0.074 A 
ATOM     39  C   UNL A   1      44.498  25.089  33.418  1.00  0.00     0.049 A 
ATOM     40  N   UNL A   1      44.556  27.459  33.976  1.00  0.00    -0.248 NA
ATOM     41  C   UNL A   1      44.291  28.357  31.882  1.00  0.00     0.031 C 
ATOM     42  C   UNL A   1      43.448  24.722  34.399  1.00  0.00     0.029 A 
ATOM     43  N   UNL A   1      45.518  24.294  33.987  1.00  0.00    -0.354 N 
ATOM     44  C   UNL A   1      43.723  28.532  34.077  1.00  0.00     0.074 A 
ATOM     45  C   UNL A   1      43.960  29.238  32.837  1.00  0.00     0.031 C 
ATOM     46  C   UNL A   1      43.844  23.732  35.246  1.00  0.00     0.029 A 
ATOM     47  C   UNL A   1      45.210  23.304  34.934  1.00  0.00     0.049 A 
ATOM     48  H   UNL A   1      46.454  24.436  33.718  1.00  0.00     0.167 HD
ATOM     49  C   UNL A   1      42.597  28.383  34.844  1.00  0.00     0.034 A 
ATOM     50  C   UNL A   1      46.025  22.439  35.663  1.00  0.00     0.034 A 
ATOM     51  C   UNL A   1      42.649  27.328  35.908  1.00  0.00     0.049 A 
ATOM     52  C   UNL A   1      46.058  23.070  37.004  1.00  0.00     0.074 A 
ATOM     53  C   UNL A   1      41.713  26.444  36.441  1.00  0.00     0.029 A 
ATOM     54  N   UNL A   1      43.858  26.984  36.544  1.00  0.00    -0.354 N 
ATOM     55  N   UNL A   1      45.597  24.273  37.091  1.00  0.00    -0.248 NA
ATOM     56  C   UNL A   1      46.497  22.552  38.293  1.00  0.00     0.031 C 
ATOM     57  C   UNL A   1      42.342  25.636  37.434  1.00  0.00     0.029 A 
ATOM     58  C   UNL A   1      43.662  26.041  37.549  1.00  0.00     0.049 A 
ATOM     59  H   UNL A   1      44.734  27.365  36.306  1.00  0.00     0.167 HD
ATOM     60  C   UNL A   1      45.411  24.604  38.369  1.00  0.00     0.074 A 
ATOM     61  C   UNL A   1      46.130  23.574  39.101  1.00  0.00     0.031 C 
ATOM     62  C   UNL A   1      44.685  25.730  38.568  1.00  0.00     0.034 A 
BRANCH  49  63
ATOM     63  C   UNL A   1      41.310  29.130  34.488  1.00  0.00     0.023 A 
ATOM     64  C   UNL A   1      40.581  28.697  33.365  1.00  0.00     0.012 A 
ATOM     65  C   UNL A   1      40.770  30.254  35.168  1.00  0.00     0.148 A 
ATOM     66  C   UNL A   1      39.368  29.287  32.988  1.00  0.00     0.002 A 
ATOM     67  C   UNL A   1      39.489  30.728  34.899  1.00  0.00     0.091 A 
ATOM     68  F   UNL A   1      41.531  30.984  35.991  1.00  0.00    -0.205 F 
ATOM     69  C   UNL A   1      38.789  30.260  33.791  1.00  0.00     0.022 A 
BRANCH  67  70
ATOM     70  S   UNL A   1      38.641  31.868  36.007  1.00  0.00     0.127 S 
ATOM     71  O   UNL A   1      37.968  32.768  35.074  1.00  0.00    -0.237 OA
ATOM     72  O   UNL A   1      37.752  30.975  36.747  1.00  0.00    -0.237 OA
ATOM     73  O   UNL A   1      39.681  32.491  36.824  1.00  0.00    -0.744 OA
ENDBRANCH  67  70
ENDBRANCH  49  63
BRANCH  50  74
ATOM     74  C   UNL A   1      47.150  21.518  35.190  1.00  0.00     0.023 A 
ATOM     75  C   UNL A   1      46.824  20.258  34.621  1.00  0.00     0.012 A 
ATOM     76  C   UNL A   1      48.498  21.907  35.080  1.00  0.00     0.148 A 
ATOM     77  C   UNL A   1      47.712  19.555  33.775  1.00  0.00     0.002 A 
ATOM     78  C   UNL A   1      49.381  21.217  34.220  1.00  0.00     0.091 A 
ATOM     79  F   UNL A   1      48.898  23.002  35.738  1.00  0.00    -0.205 F 
ATOM     80  C   UNL A   1      48.980  20.063  33.539  1.00  0.00     0.022 A 
BRANCH  78  81
ATOM     81  S   UNL A   1      51.001  21.896  33.833  1.00  0.00     0.127 S 
ATOM     82  O   UNL A   1      50.784  23.344  33.819  1.00  0.00    -0.237 OA
ATOM     83  O   UNL A   1      51.832  21.437  34.928  1.00  0.00    -0.237 OA
ATOM     84  O   UNL A   1      51.296  21.337  32.510  1.00  0.00    -0.744 OA
ENDBRANCH  78  81
ENDBRANCH  50  74
BRANCH  62  85
ATOM     85  C   UNL A   1      44.871  26.650  39.716  1.00  0.00     0.023 A 
ATOM     86  C   UNL A   1      44.269  26.447  40.967  1.00  0.00     0.012 A 
ATOM     87  C   UNL A   1      45.862  27.651  39.614  1.00  0.00     0.148 A 
ATOM     88  C   UNL A   1      44.667  27.187  42.078  1.00  0.00     0.002 A 
ATOM     89  C   UNL A   1      46.314  28.317  40.727  1.00  0.00     0.091 A 
ATOM     90  F   UNL A   1      46.384  27.975  38.427  1.00  0.00    -0.205 F 
ATOM     91  C   UNL A   1      45.714  28.096  41.967  1.00  0.00     0.022 A 
BRANCH  89  92
ATOM     92  S   UNL A   1      47.725  29.415  40.637  1.00  0.00     0.127 S 
ATOM     93  O   UNL A   1      47.924  29.743  42.036  1.00  0.00    -0.237 OA
ATOM     94  O   UNL A   1      48.735  28.563  40.033  1.00  0.00    -0.237 OA
ATOM     95  O   UNL A   1      47.306  30.545  39.780  1.00  0.00    -0.744 OA
ENDBRANCH  89  92
ENDBRANCH  62  85
ENDBRANCH  36  37
ENDBRANCH  29  31
ENDBRANCH  28  29
ENDBRANCH  27  28
ENDBRANCH  26  27
ENDBRANCH  25  26
ENDBRANCH  24  25
ENDBRANCH   1  24
TORSDOF 23
ENDMDL
MODEL 2
REMARK VINA RESULT:     -11.5      6.344     12.550
REMARK SMILES Cc1ccc(C(=O)NC2(CC(=O)OCCOCCOCCOC(=O)c3ccc(-c4c5nc(c(-c6cccc(S(=O)(=O)[O-])c6F)c6ccc([nH]6)c(-c6cccc(S(=O)(=O)[O-])c6F)c6nc(c(-c7cccc(S(=O)(=O)[O-])c7F)c7ccc4[nH]7)C=C6)C=C5)cc3)CCC2)cc1
REMARK SMILES IDX 17 1 16 2 15 3 14 4 13 5 11 6 12 7 10 8 9 9 88 10 90 11
REMARK SMILES IDX 89 12 8 13 6 14 7 15 5 17 1 18 2 19 3 20 92 21 4 22 91 23
REMARK SMILES IDX 18 24 19 25 20 26 21 27 22 28 23 29 24 30 25 31 26 32 87 33
REMARK SMILES IDX 27 34 86 35 28 36 29 37 30 38 80 39 31 40 85 41 79 42 81 43
REMARK SMILES IDX 32 44 84 45 78 46 77 47 33 49 65 50 45 51 64 52 46 53 49 54
REMARK SMILES IDX 63 55 82 56 47 57 48 58 62 60 83 61 50 62 34 63 35 64 43 65
REMARK SMILES IDX 36 66 38 67 44 68 37 69 39 70 40 71 41 72 42 73 66 74 67 75
REMARK SMILES IDX 75 76 68 77 70 78 76 79 69 80 71 81 72 82 73 83 74 84 51 85
REMARK SMILES IDX 52 86 60 87 53 88 55 89 61 90 54 91 56 92 57 93 58 94 59 95
REMARK H PARENT 8 16 81 48 49 59
REMARK Flexibility Score: inf
ROOT
ATOM      1  C   UNL A   1      44.996  19.776  24.317  1.00  0.00     0.188 C 
ENDROOT
BRANCH   1   2
ATOM      2  O   UNL A   1      44.353  21.002  24.084  1.00  0.00    -0.376 OA
BRANCH   2   3
ATOM      3  C   UNL A   1      44.515  22.041  25.054  1.00  0.00     0.202 C 
BRANCH   3   4
ATOM      4  C   UNL A   1      44.140  23.681  24.875  1.00  0.00     0.261 C 
BRANCH   4   5
ATOM      5  O   UNL A   1      44.189  25.138  25.773  1.00  0.00    -0.463 OA
BRANCH   5   6
ATOM      6  C   UNL A   1      44.198  26.556  25.854  1.00  0.00     0.308 C 
ATOM      7  O   UNL A   1      44.405  27.409  24.985  1.00  0.00    -0.252 OA
BRANCH   6   8
ATOM      8  C   UNL A   1      43.470  27.099  26.987  1.00  0.00     0.151 C 
BRANCH   8   9
ATOM      9  C   UNL A   1      44.672  27.358  27.831  1.00  0.00     0.051 C 
ATOM     10  C   UNL A   1      45.223  26.020  28.546  1.00  0.00     0.029 C 
ATOM     11  C   UNL A   1      44.186  27.593  29.416  1.00  0.00     0.029 C 
ATOM     12  C   UNL A   1      44.000  26.072  29.507  1.00  0.00     0.005 C 
BRANCH   9  13
ATOM     13  N   UNL A   1      45.829  28.416  26.810  1.00  0.00    -0.346 N 
ATOM     14  C   UNL A   1      45.872  30.091  26.253  1.00  0.00     0.251 C 
ATOM     15  O   UNL A   1      46.605  30.152  25.245  1.00  0.00    -0.269 OA
ATOM     16  H   UNL A   1      46.617  27.909  26.506  1.00  0.00     0.164 HD
BRANCH  14  17
ATOM     17  C   UNL A   1      45.183  31.772  26.819  1.00  0.00     0.039 A 
ATOM     18  C   UNL A   1      42.930  35.802  27.721  1.00  0.00     0.044 C 
ATOM     19  C   UNL A   1      43.633  34.469  27.635  1.00  0.00    -0.051 A 
ATOM     20  C   UNL A   1      44.412  33.687  28.504  1.00  0.00     0.004 A 
ATOM     21  C   UNL A   1      43.528  33.870  26.437  1.00  0.00     0.004 A 
ATOM     22  C   UNL A   1      45.104  32.341  28.121  1.00  0.00     0.014 A 
ATOM     23  C   UNL A   1      44.350  32.724  26.106  1.00  0.00     0.014 A 
ENDBRANCH  14  17
ENDBRANCH   9  13
ENDBRANCH   8   9
ENDBRANCH   6   8
ENDBRANCH   5   6
ENDBRANCH   4   5
ENDBRANCH   3   4
ENDBRANCH   2   3
ENDBRANCH   1   2
BRANCH   1  24
ATOM     24  C   UNL A   1      44.131  18.811  25.104  1.00  0.00     0.188 C 
BRANCH  24  25
ATOM     25  O   UNL A   1      42.760  19.171  25.133  1.00  0.00    -0.376 OA
BRANCH  25  26
ATOM     26  C   UNL A   1      42.035  19.160  26.347  1.00  0.00     0.202 C 
BRANCH  26  27
ATOM     27  C   UNL A   1      40.838  20.011  26.006  1.00  0.00     0.261 C 
BRANCH  27  28
ATOM     28  O   UNL A   1      41.310  21.404  26.165  1.00  0.00    -0.460 OA
BRANCH  28  29
ATOM     29  C   UNL A   1      41.039  22.009  27.367  1.00  0.00     0.338 C 
ATOM     30  O   UNL A   1      40.763  21.365  28.374  1.00  0.00    -0.246 OA
BRANCH  29  31
ATOM     31  C   UNL A   1      40.927  23.563  27.300  1.00  0.00     0.060 A 
ATOM     32  C   UNL A   1      41.184  24.249  28.467  1.00  0.00     0.016 A 
ATOM     33  C   UNL A   1      40.355  24.414  26.334  1.00  0.00     0.016 A 
ATOM     34  C   UNL A   1      40.721  25.632  28.676  1.00  0.00     0.010 A 
ATOM     35  C   UNL A   1      39.857  25.834  26.633  1.00  0.00     0.010 A 
ATOM     36  C   UNL A   1      39.899  26.453  27.907  1.00  0.00    -0.014 A 
BRANCH  36  37
ATOM     37  C   UNL A   1      38.997  27.771  28.564  1.00  0.00     0.031 A 
ATOM     38  C   UNL A   1      38.950  27.831  30.058  1.00  0.00     0.074 A 
ATOM     39  C   UNL A   1      37.914  28.691  28.324  1.00  0.00     0.049 A 
ATOM     40  N   UNL A   1      38.286  28.732  30.730  1.00  0.00    -0.248 NA
ATOM     41  C   UNL A   1      39.805  27.023  30.917  1.00  0.00     0.031 C 
ATOM     42  C   UNL A   1      38.178  30.133  28.099  1.00  0.00     0.029 A 
ATOM     43  N   UNL A   1      36.565  28.720  27.906  1.00  0.00    -0.354 N 
ATOM     44  C   UNL A   1      39.232  29.103  31.638  1.00  0.00     0.074 A 
ATOM     45  C   UNL A   1      39.861  27.844  31.976  1.00  0.00     0.031 C 
ATOM     46  C   UNL A   1      37.144  30.765  27.479  1.00  0.00     0.029 A 
ATOM     47  C   UNL A   1      36.056  29.823  27.203  1.00  0.00     0.049 A 
ATOM     48  H   UNL A   1      35.975  27.958  28.110  1.00  0.00     0.167 HD
ATOM     49  C   UNL A   1      39.728  30.377  31.543  1.00  0.00     0.034 A 
ATOM     50  C   UNL A   1      34.775  30.107  26.733  1.00  0.00     0.034 A 
ATOM     51  C   UNL A   1      38.849  31.387  30.871  1.00  0.00     0.049 A 
ATOM     52  C   UNL A   1      34.268  31.083  27.727  1.00  0.00     0.074 A 
ATOM     53  C   UNL A   1      39.089  32.484  30.045  1.00  0.00     0.029 A 
ATOM     54  N   UNL A   1      37.444  31.293  30.927  1.00  0.00    -0.354 N 
ATOM     55  N   UNL A   1      34.955  31.215  28.813  1.00  0.00    -0.248 NA
ATOM     56  C   UNL A   1      33.118  31.977  27.689  1.00  0.00     0.031 C 
ATOM     57  C   UNL A   1      37.846  33.077  29.677  1.00  0.00     0.029 A 
ATOM     58  C   UNL A   1      36.829  32.375  30.304  1.00  0.00     0.049 A 
ATOM     59  H   UNL A   1      36.958  30.553  31.356  1.00  0.00     0.167 HD
ATOM     60  C   UNL A   1      34.572  32.308  29.471  1.00  0.00     0.074 A 
ATOM     61  C   UNL A   1      33.318  32.675  28.831  1.00  0.00     0.031 C 
ATOM     62  C   UNL A   1      35.397  32.691  30.475  1.00  0.00     0.034 A 
BRANCH  49  63
ATOM     63  C   UNL A   1      41.176  30.678  31.937  1.00  0.00     0.023 A 
ATOM     64  C   UNL A   1      42.094  29.611  31.951  1.00  0.00     0.012 A 
ATOM     65  C   UNL A   1      41.702  31.940  32.320  1.00  0.00     0.148 A 
ATOM     66  C   UNL A   1      43.450  29.796  32.252  1.00  0.00     0.002 A 
ATOM     67  C   UNL A   1      43.072  32.154  32.451  1.00  0.00     0.091 A 
ATOM     68  F   UNL A   1      40.890  32.929  32.708  1.00  0.00    -0.205 F 
ATOM     69  C   UNL A   1      43.953  31.076  32.440  1.00  0.00     0.022 A 
BRANCH  67  70
ATOM     70  S   UNL A   1      43.775  33.811  32.533  1.00  0.00     0.127 S 
ATOM     71  O   UNL A   1      43.243  34.436  31.325  1.00  0.00    -0.237 OA
ATOM     72  O   UNL A   1      43.217  34.321  33.784  1.00  0.00    -0.237 OA
ATOM     73  O   UNL A   1      45.226  33.637  32.550  1.00  0.00    -0.744 OA
ENDBRANCH  67  70
ENDBRANCH  49  63
BRANCH  50  74
ATOM     74  C   UNL A   1      33.819  29.246  25.906  1.00  0.00     0.023 A 
ATOM     75  C   UNL A   1      33.622  29.551  24.532  1.00  0.00     0.012 A 
ATOM     76  C   UNL A   1      33.266  28.030  26.348  1.00  0.00     0.148 A 
ATOM     77  C   UNL A   1      33.141  28.597  23.606  1.00  0.00     0.002 A 
ATOM     78  C   UNL A   1      32.802  27.070  25.422  1.00  0.00     0.091 A 
ATOM     79  F   UNL A   1      33.276  27.769  27.661  1.00  0.00    -0.205 F 
ATOM     80  C   UNL A   1      32.772  27.336  24.050  1.00  0.00     0.022 A 
BRANCH  78  81
ATOM     81  S   UNL A   1      32.395  25.402  25.959  1.00  0.00     0.127 S 
ATOM     82  O   UNL A   1      33.652  24.891  26.511  1.00  0.00    -0.237 OA
ATOM     83  O   UNL A   1      31.358  25.607  26.951  1.00  0.00    -0.237 OA
ATOM     84  O   UNL A   1      31.990  24.735  24.717  1.00  0.00    -0.744 OA
ENDBRANCH  78  81
ENDBRANCH  50  74
BRANCH  62  85
ATOM     85  C   UNL A   1      34.946  33.378  31.709  1.00  0.00     0.023 A 
ATOM     86  C   UNL A   1      35.386  33.020  32.992  1.00  0.00     0.012 A 
ATOM     87  C   UNL A   1      34.212  34.578  31.573  1.00  0.00     0.148 A 
ATOM     88  C   UNL A   1      35.137  33.843  34.087  1.00  0.00     0.002 A 
ATOM     89  C   UNL A   1      34.044  35.431  32.637  1.00  0.00     0.091 A 
ATOM     90  F   UNL A   1      33.662  34.911  30.401  1.00  0.00    -0.205 F 
ATOM     91  C   UNL A   1      34.498  35.065  33.905  1.00  0.00     0.022 A 
BRANCH  89  92
ATOM     92  S   UNL A   1      33.320  37.052  32.416  1.00  0.00     0.127 S 
ATOM     93  O   UNL A   1      31.922  36.718  32.219  1.00  0.00    -0.237 OA
ATOM     94  O   UNL A   1      33.647  37.705  33.671  1.00  0.00    -0.237 OA
ATOM     95  O   UNL A   1      33.995  37.643  31.241  1.00  0.00    -0.744 OA
ENDBRANCH  89  92
ENDBRANCH  62  85
ENDBRANCH  36  37
ENDBRANCH  29  31
ENDBRANCH  28  29
ENDBRANCH  27  28
ENDBRANCH  26  27
ENDBRANCH  25  26
ENDBRANCH  24  25
ENDBRANCH   1  24
TORSDOF 23
ENDMDL
MODEL 3
REMARK VINA RESULT:     -11.2      3.485      4.046
REMARK SMILES Cc1ccc(C(=O)NC2(CC(=O)OCCOCCOCCOC(=O)c3ccc(-c4c5nc(c(-c6cccc(S(=O)(=O)[O-])c6F)c6ccc([nH]6)c(-c6cccc(S(=O)(=O)[O-])c6F)c6nc(c(-c7cccc(S(=O)(=O)[O-])c7F)c7ccc4[nH]7)C=C6)C=C5)cc3)CCC2)cc1
REMARK SMILES IDX 17 1 16 2 15 3 14 4 13 5 11 6 12 7 10 8 9 9 88 10 90 11
REMARK SMILES IDX 89 12 8 13 6 14 7 15 5 17 1 18 2 19 3 20 92 21 4 22 91 23
REMARK SMILES IDX 18 24 19 25 20 26 21 27 22 28 23 29 24 30 25 31 26 32 87 33
REMARK SMILES IDX 27 34 86 35 28 36 29 37 30 38 80 39 31 40 85 41 79 42 81 43
REMARK SMILES IDX 32 44 84 45 78 46 77 47 33 49 65 50 45 51 64 52 46 53 49 54
REMARK SMILES IDX 63 55 82 56 47 57 48 58 62 60 83 61 50 62 34 63 35 64 43 65
REMARK SMILES IDX 36 66 38 67 44 68 37 69 39 70 40 71 41 72 42 73 66 74 67 75
REMARK SMILES IDX 75 76 68 77 70 78 76 79 69 80 71 81 72 82 73 83 74 84 51 85
REMARK SMILES IDX 52 86 60 87 53 88 55 89 61 90 54 91 56 92 57 93 58 94 59 95
REMARK H PARENT 8 16 81 48 49 59
REMARK Flexibility Score: inf
ROOT
ATOM      1  C   UNL A   1      42.190  19.566  26.758  1.00  0.00     0.188 C 
ENDROOT
BRANCH   1   2
ATOM      2  O   UNL A   1      41.150  20.507  26.715  1.00  0.00    -0.376 OA
BRANCH   2   3
ATOM      3  C   UNL A   1      41.261  21.672  27.540  1.00  0.00     0.202 C 
BRANCH   3   4
ATOM      4  C   UNL A   1      40.498  23.165  27.317  1.00  0.00     0.261 C 
BRANCH   4   5
ATOM      5  O   UNL A   1      40.053  24.551  28.217  1.00  0.00    -0.463 OA
BRANCH   5   6
ATOM      6  C   UNL A   1      40.006  25.959  28.404  1.00  0.00     0.308 C 
ATOM      7  O   UNL A   1      40.371  26.655  29.356  1.00  0.00    -0.252 OA
BRANCH   6   8
ATOM      8  C   UNL A   1      39.907  26.726  27.175  1.00  0.00     0.151 C 
BRANCH   8   9
ATOM      9  C   UNL A   1      39.926  28.065  27.830  1.00  0.00     0.051 C 
ATOM     10  C   UNL A   1      40.169  29.263  26.777  1.00  0.00     0.029 C 
ATOM     11  C   UNL A   1      41.513  28.491  28.155  1.00  0.00     0.029 C 
ATOM     12  C   UNL A   1      41.654  28.815  26.661  1.00  0.00     0.005 C 
BRANCH   9  13
ATOM     13  N   UNL A   1      38.457  28.121  28.987  1.00  0.00    -0.346 N 
ATOM     14  C   UNL A   1      37.369  29.363  29.611  1.00  0.00     0.251 C 
ATOM     15  O   UNL A   1      36.874  28.952  30.680  1.00  0.00    -0.269 OA
ATOM     16  H   UNL A   1      38.233  27.229  29.338  1.00  0.00     0.164 HD
BRANCH  14  17
ATOM     17  C   UNL A   1      36.718  31.063  29.054  1.00  0.00     0.039 A 
ATOM     18  C   UNL A   1      34.429  34.954  27.731  1.00  0.00     0.044 C 
ATOM     19  C   UNL A   1      35.246  33.822  28.306  1.00  0.00    -0.051 A 
ATOM     20  C   UNL A   1      36.466  33.715  28.996  1.00  0.00     0.004 A 
ATOM     21  C   UNL A   1      34.717  32.605  28.103  1.00  0.00     0.004 A 
ATOM     22  C   UNL A   1      37.141  32.373  29.419  1.00  0.00     0.014 A 
ATOM     23  C   UNL A   1      35.493  31.408  28.357  1.00  0.00     0.014 A 
ENDBRANCH  14  17
ENDBRANCH   9  13
ENDBRANCH   8   9
ENDBRANCH   6   8
ENDBRANCH   5   6
ENDBRANCH   4   5
ENDBRANCH   3   4
ENDBRANCH   2   3
ENDBRANCH   1   2
BRANCH   1  24
ATOM     24  C   UNL A   1      43.008  19.551  25.481  1.00  0.00     0.188 C 
BRANCH  24  25
ATOM     25  O   UNL A   1      44.111  20.442  25.502  1.00  0.00    -0.376 OA
BRANCH  25  26
ATOM     26  C   UNL A   1      44.788  20.784  24.309  1.00  0.00     0.202 C 
BRANCH  26  27
ATOM     27  C   UNL A   1      45.865  21.710  24.813  1.00  0.00     0.261 C 
BRANCH  27  28
ATOM     28  O   UNL A   1      45.216  22.495  25.885  1.00  0.00    -0.460 OA
BRANCH  28  29
ATOM     29  C   UNL A   1      45.670  23.778  26.065  1.00  0.00     0.338 C 
ATOM     30  O   UNL A   1      46.622  24.227  25.435  1.00  0.00    -0.246 OA
BRANCH  29  31
ATOM     31  C   UNL A   1      45.006  24.541  27.252  1.00  0.00     0.060 A 
ATOM     32  C   UNL A   1      45.828  25.358  27.995  1.00  0.00     0.016 A 
ATOM     33  C   UNL A   1      43.763  24.365  27.891  1.00  0.00     0.016 A 
ATOM     34  C   UNL A   1      45.468  25.796  29.356  1.00  0.00     0.010 A 
ATOM     35  C   UNL A   1      43.470  24.812  29.329  1.00  0.00     0.010 A 
ATOM     36  C   UNL A   1      44.408  25.440  30.186  1.00  0.00    -0.014 A 
BRANCH  36  37
ATOM     37  C   UNL A   1      44.468  25.575  31.907  1.00  0.00     0.031 A 
ATOM     38  C   UNL A   1      44.670  26.961  32.432  1.00  0.00     0.074 A 
ATOM     39  C   UNL A   1      44.783  24.882  33.131  1.00  0.00     0.049 A 
ATOM     40  N   UNL A   1      44.778  27.250  33.702  1.00  0.00    -0.248 NA
ATOM     41  C   UNL A   1      44.557  28.153  31.604  1.00  0.00     0.031 C 
ATOM     42  C   UNL A   1      43.711  24.490  34.078  1.00  0.00     0.029 A 
ATOM     43  N   UNL A   1      45.800  24.104  33.726  1.00  0.00    -0.354 N 
ATOM     44  C   UNL A   1      43.922  28.306  33.782  1.00  0.00     0.074 A 
ATOM     45  C   UNL A   1      44.182  29.023  32.553  1.00  0.00     0.031 C 
ATOM     46  C   UNL A   1      44.101  23.504  34.932  1.00  0.00     0.029 A 
ATOM     47  C   UNL A   1      45.484  23.104  34.658  1.00  0.00     0.049 A 
ATOM     48  H   UNL A   1      46.741  24.265  33.485  1.00  0.00     0.167 HD
ATOM     49  C   UNL A   1      42.777  28.131  34.516  1.00  0.00     0.034 A 
ATOM     50  C   UNL A   1      46.294  22.250  35.407  1.00  0.00     0.034 A 
ATOM     51  C   UNL A   1      42.818  27.073  35.575  1.00  0.00     0.049 A 
ATOM     52  C   UNL A   1      46.275  22.874  36.752  1.00  0.00     0.074 A 
ATOM     53  C   UNL A   1      41.884  26.168  36.077  1.00  0.00     0.029 A 
ATOM     54  N   UNL A   1      44.014  26.748  36.245  1.00  0.00    -0.354 N 
ATOM     55  N   UNL A   1      45.788  24.068  36.831  1.00  0.00    -0.248 NA
ATOM     56  C   UNL A   1      46.686  22.358  38.050  1.00  0.00     0.031 C 
ATOM     57  C   UNL A   1      42.499  25.367  37.083  1.00  0.00     0.029 A 
ATOM     58  C   UNL A   1      43.807  25.796  37.240  1.00  0.00     0.049 A 
ATOM     59  H   UNL A   1      44.889  27.147  36.035  1.00  0.00     0.167 HD
ATOM     60  C   UNL A   1      45.558  24.389  38.104  1.00  0.00     0.074 A 
ATOM     61  C   UNL A   1      46.275  23.369  38.853  1.00  0.00     0.031 C 
ATOM     62  C   UNL A   1      44.805  25.500  38.286  1.00  0.00     0.034 A 
BRANCH  49  63
ATOM     63  C   UNL A   1      41.486  28.856  34.125  1.00  0.00     0.023 A 
ATOM     64  C   UNL A   1      40.765  28.373  33.017  1.00  0.00     0.012 A 
ATOM     65  C   UNL A   1      40.937  30.002  34.758  1.00  0.00     0.148 A 
ATOM     66  C   UNL A   1      39.550  28.940  32.613  1.00  0.00     0.002 A 
ATOM     67  C   UNL A   1      39.654  30.457  34.466  1.00  0.00     0.091 A 
ATOM     68  F   UNL A   1      41.690  30.769  35.554  1.00  0.00    -0.205 F 
ATOM     69  C   UNL A   1      38.961  29.941  33.374  1.00  0.00     0.022 A 
BRANCH  67  70
ATOM     70  S   UNL A   1      38.794  31.635  35.524  1.00  0.00     0.127 S 
ATOM     71  O   UNL A   1      39.438  32.898  35.173  1.00  0.00    -0.237 OA
ATOM     72  O   UNL A   1      37.412  31.504  35.071  1.00  0.00    -0.237 OA
ATOM     73  O   UNL A   1      39.020  31.188  36.898  1.00  0.00    -0.744 OA
ENDBRANCH  67  70
ENDBRANCH  49  63
BRANCH  50  74
ATOM     74  C   UNL A   1      47.450  21.353  34.963  1.00  0.00     0.023 A 
ATOM     75  C   UNL A   1      47.164  20.100  34.358  1.00  0.00     0.012 A 
ATOM     76  C   UNL A   1      48.796  21.763  34.915  1.00  0.00     0.148 A 
ATOM     77  C   UNL A   1      48.096  19.426  33.536  1.00  0.00     0.002 A 
ATOM     78  C   UNL A   1      49.722  21.101  34.080  1.00  0.00     0.091 A 
ATOM     79  F   UNL A   1      49.153  22.850  35.610  1.00  0.00    -0.205 F 
ATOM     80  C   UNL A   1      49.365  19.955  33.361  1.00  0.00     0.022 A 
BRANCH  78  81
ATOM     81  S   UNL A   1      51.346  21.809  33.772  1.00  0.00     0.127 S 
ATOM     82  O   UNL A   1      52.178  21.271  34.852  1.00  0.00    -0.237 OA
ATOM     83  O   UNL A   1      51.693  21.305  32.457  1.00  0.00    -0.237 OA
ATOM     84  O   UNL A   1      51.113  23.253  33.877  1.00  0.00    -0.744 OA
ENDBRANCH  78  81
ENDBRANCH  50  74
BRANCH  62  85
ATOM     85  C   UNL A   1      44.940  26.417  39.444  1.00  0.00     0.023 A 
ATOM     86  C   UNL A   1      44.156  26.310  40.603  1.00  0.00     0.012 A 
ATOM     87  C   UNL A   1      46.044  27.297  39.472  1.00  0.00     0.148 A 
ATOM     88  C   UNL A   1      44.483  27.023  41.753  1.00  0.00     0.002 A 
ATOM     89  C   UNL A   1      46.416  27.931  40.632  1.00  0.00     0.091 A 
ATOM     90  F   UNL A   1      46.754  27.535  38.365  1.00  0.00    -0.205 F 
ATOM     91  C   UNL A   1      45.633  27.806  41.781  1.00  0.00     0.022 A 
BRANCH  89  92
ATOM     92  S   UNL A   1      47.942  28.861  40.728  1.00  0.00     0.127 S 
ATOM     93  O   UNL A   1      47.747  29.609  41.955  1.00  0.00    -0.237 OA
ATOM     94  O   UNL A   1      48.939  27.805  40.779  1.00  0.00    -0.237 OA
ATOM     95  O   UNL A   1      48.000  29.677  39.497  1.00  0.00    -0.744 OA
ENDBRANCH  89  92
ENDBRANCH  62  85
ENDBRANCH  36  37
ENDBRANCH  29  31
ENDBRANCH  28  29
ENDBRANCH  27  28
ENDBRANCH  26  27
ENDBRANCH  25  26
ENDBRANCH  24  25
ENDBRANCH   1  24
TORSDOF 23
ENDMDL
