MODEL 1
REMARK VINA RESULT:      -9.7      0.000      0.000
REMARK SMILES O=C(CCCOc1ccc([N+](=O)[O-])cc1F)OCCOCCOCCOC(=O)c1ccc(-c2c3nc(c(-c4cccc(S(=O)(=O)[O-])c4F)c4ccc([nH]4)c(-c4cccc(S(=O)(=O)[O-])c4F)c4nc(c(-c5cccc(S(=O)(=O)[O-])c5F)c5ccc2[nH]5)C=C4)C=C3)cc1
REMARK SMILES IDX 21 1 20 2 19 3 18 4 17 5 2 6 1 7 3 8 4 9 5 10 6 11 7 12 8 13
REMARK SMILES IDX 15 14 9 15 14 16 16 17 10 18 11 19 12 20 13 21 22 22 23 23
REMARK SMILES IDX 24 24 25 25 26 26 27 27 28 28 29 29 30 30 91 31 31 32 90 33
REMARK SMILES IDX 32 34 33 35 34 36 84 37 35 38 89 39 83 40 85 41 36 42 88 43
REMARK SMILES IDX 82 44 81 45 37 47 69 48 49 49 68 50 50 51 53 52 67 53 86 54
REMARK SMILES IDX 51 55 52 56 66 58 87 59 54 60 38 61 39 62 47 63 40 64 42 65
REMARK SMILES IDX 48 66 41 67 43 68 44 69 45 70 46 71 70 72 71 73 79 74 72 75
REMARK SMILES IDX 74 76 80 77 73 78 75 79 76 80 77 81 78 82 55 83 56 84 64 85
REMARK SMILES IDX 57 86 59 87 65 88 58 89 60 90 61 91 62 92 63 93
REMARK H PARENT 85 46 53 57
REMARK Flexibility Score: inf
ROOT
ATOM      1  C   UNL A   1      35.626  22.908  23.413  1.00  0.00     0.188 C 
ENDROOT
BRANCH   1   2
ATOM      2  O   UNL A   1      34.528  23.274  24.235  1.00  0.00    -0.376 OA
BRANCH   2   3
ATOM      3  C   UNL A   1      33.269  22.724  23.824  1.00  0.00     0.202 C 
BRANCH   3   4
ATOM      4  C   UNL A   1      32.029  23.620  24.023  1.00  0.00     0.261 C 
BRANCH   4   5
ATOM      5  O   UNL A   1      31.367  23.252  25.240  1.00  0.00    -0.463 OA
BRANCH   5   6
ATOM      6  C   UNL A   1      31.687  23.991  26.329  1.00  0.00     0.305 C 
ATOM      7  O   UNL A   1      31.485  23.649  27.487  1.00  0.00    -0.252 OA
BRANCH   6   8
ATOM      8  C   UNL A   1      32.132  25.378  25.936  1.00  0.00     0.126 C 
BRANCH   8   9
ATOM      9  C   UNL A   1      31.066  26.488  25.906  1.00  0.00     0.053 C 
BRANCH   9  10
ATOM     10  C   UNL A   1      31.558  27.945  25.747  1.00  0.00     0.230 C 
BRANCH  10  11
ATOM     11  O   UNL A   1      31.662  28.401  24.377  1.00  0.00    -0.490 OA
BRANCH  11  12
ATOM     12  C   UNL A   1      30.509  29.038  24.018  1.00  0.00     0.155 A 
ATOM     13  C   UNL A   1      30.320  30.364  24.363  1.00  0.00     0.056 A 
ATOM     14  C   UNL A   1      29.609  28.393  23.172  1.00  0.00     0.171 A 
ATOM     15  C   UNL A   1      29.398  31.086  23.622  1.00  0.00     0.089 A 
ATOM     16  C   UNL A   1      28.723  29.121  22.406  1.00  0.00     0.128 A 
ATOM     17  F   UNL A   1      29.752  27.095  22.897  1.00  0.00    -0.203 F 
ATOM     18  C   UNL A   1      28.731  30.495  22.538  1.00  0.00     0.272 A 
BRANCH  18  19
ATOM     19  N   UNL A   1      28.219  31.251  21.392  1.00  0.00     0.062 N 
ATOM     20  O   UNL A   1      27.798  30.652  20.407  1.00  0.00    -0.258 OA
ATOM     21  O   UNL A   1      28.214  32.487  21.470  1.00  0.00    -0.258 OA
ENDBRANCH  18  19
ENDBRANCH  11  12
ENDBRANCH  10  11
ENDBRANCH   9  10
ENDBRANCH   8   9
ENDBRANCH   6   8
ENDBRANCH   5   6
ENDBRANCH   4   5
ENDBRANCH   3   4
ENDBRANCH   2   3
ENDBRANCH   1   2
BRANCH   1  22
ATOM     22  C   UNL A   1      36.881  22.270  24.091  1.00  0.00     0.188 C 
BRANCH  22  23
ATOM     23  O   UNL A   1      36.944  21.026  24.798  1.00  0.00    -0.376 OA
BRANCH  23  24
ATOM     24  C   UNL A   1      38.003  20.639  25.684  1.00  0.00     0.202 C 
BRANCH  24  25
ATOM     25  C   UNL A   1      39.038  19.454  25.321  1.00  0.00     0.261 C 
BRANCH  25  26
ATOM     26  O   UNL A   1      40.183  19.211  26.241  1.00  0.00    -0.460 OA
BRANCH  26  27
ATOM     27  C   UNL A   1      41.361  19.908  26.069  1.00  0.00     0.338 C 
ATOM     28  O   UNL A   1      42.291  19.536  25.384  1.00  0.00    -0.246 OA
BRANCH  27  29
ATOM     29  C   UNL A   1      41.327  21.306  26.680  1.00  0.00     0.060 A 
ATOM     30  C   UNL A   1      41.125  22.396  25.815  1.00  0.00     0.016 A 
ATOM     31  C   UNL A   1      41.601  21.611  28.021  1.00  0.00     0.016 A 
ATOM     32  C   UNL A   1      41.080  23.732  26.271  1.00  0.00     0.010 A 
ATOM     33  C   UNL A   1      41.648  22.970  28.468  1.00  0.00     0.010 A 
ATOM     34  C   UNL A   1      41.389  24.051  27.596  1.00  0.00    -0.014 A 
BRANCH  34  35
ATOM     35  C   UNL A   1      41.763  25.481  27.915  1.00  0.00     0.031 A 
ATOM     36  C   UNL A   1      43.139  25.947  27.479  1.00  0.00     0.074 A 
ATOM     37  C   UNL A   1      40.932  26.403  28.454  1.00  0.00     0.049 A 
ATOM     38  N   UNL A   1      43.725  27.108  27.627  1.00  0.00    -0.248 NA
ATOM     39  C   UNL A   1      43.955  24.958  26.757  1.00  0.00     0.031 C 
ATOM     40  C   UNL A   1      39.541  26.174  28.835  1.00  0.00     0.029 A 
ATOM     41  N   UNL A   1      41.140  27.735  28.772  1.00  0.00    -0.354 N 
ATOM     42  C   UNL A   1      44.987  26.974  27.056  1.00  0.00     0.074 A 
ATOM     43  C   UNL A   1      45.077  25.626  26.544  1.00  0.00     0.031 C 
ATOM     44  C   UNL A   1      39.030  27.310  29.350  1.00  0.00     0.029 A 
ATOM     45  C   UNL A   1      40.063  28.348  29.380  1.00  0.00     0.049 A 
ATOM     46  H   UNL A   1      41.985  28.203  28.582  1.00  0.00     0.167 HD
ATOM     47  C   UNL A   1      45.991  27.878  26.961  1.00  0.00     0.034 A 
ATOM     48  C   UNL A   1      39.922  29.583  29.921  1.00  0.00     0.034 A 
ATOM     49  C   UNL A   1      45.911  29.230  27.441  1.00  0.00     0.049 A 
ATOM     50  C   UNL A   1      41.072  30.565  29.873  1.00  0.00     0.074 A 
ATOM     51  C   UNL A   1      46.880  30.218  27.382  1.00  0.00     0.029 A 
ATOM     52  N   UNL A   1      44.813  29.784  28.076  1.00  0.00    -0.354 N 
ATOM     53  N   UNL A   1      42.250  30.423  29.314  1.00  0.00    -0.248 NA
ATOM     54  C   UNL A   1      40.877  31.881  30.510  1.00  0.00     0.031 C 
ATOM     55  C   UNL A   1      46.384  31.353  28.024  1.00  0.00     0.029 A 
ATOM     56  C   UNL A   1      45.085  31.093  28.431  1.00  0.00     0.049 A 
ATOM     57  H   UNL A   1      43.964  29.316  28.249  1.00  0.00     0.167 HD
ATOM     58  C   UNL A   1      42.918  31.631  29.499  1.00  0.00     0.074 A 
ATOM     59  C   UNL A   1      42.016  32.501  30.222  1.00  0.00     0.031 C 
ATOM     60  C   UNL A   1      44.167  31.979  29.103  1.00  0.00     0.034 A 
BRANCH  47  61
ATOM     61  C   UNL A   1      47.288  27.429  26.334  1.00  0.00     0.023 A 
ATOM     62  C   UNL A   1      47.584  27.758  24.997  1.00  0.00     0.012 A 
ATOM     63  C   UNL A   1      48.239  26.721  27.098  1.00  0.00     0.148 A 
ATOM     64  C   UNL A   1      48.788  27.356  24.418  1.00  0.00     0.002 A 
ATOM     65  C   UNL A   1      49.458  26.372  26.532  1.00  0.00     0.091 A 
ATOM     66  F   UNL A   1      47.930  26.400  28.363  1.00  0.00    -0.205 F 
ATOM     67  C   UNL A   1      49.728  26.674  25.187  1.00  0.00     0.022 A 
BRANCH  65  68
ATOM     68  S   UNL A   1      50.767  25.574  27.467  1.00  0.00     0.127 S 
ATOM     69  O   UNL A   1      50.851  26.430  28.649  1.00  0.00    -0.237 OA
ATOM     70  O   UNL A   1      50.203  24.247  27.713  1.00  0.00    -0.237 OA
ATOM     71  O   UNL A   1      51.942  25.586  26.606  1.00  0.00    -0.744 OA
ENDBRANCH  65  68
ENDBRANCH  47  61
BRANCH  48  72
ATOM     72  C   UNL A   1      38.624  29.968  30.567  1.00  0.00     0.023 A 
ATOM     73  C   UNL A   1      38.365  29.623  31.908  1.00  0.00     0.012 A 
ATOM     74  C   UNL A   1      37.664  30.726  29.864  1.00  0.00     0.148 A 
ATOM     75  C   UNL A   1      37.187  30.035  32.538  1.00  0.00     0.002 A 
ATOM     76  C   UNL A   1      36.522  31.184  30.514  1.00  0.00     0.091 A 
ATOM     77  F   UNL A   1      37.902  31.008  28.575  1.00  0.00    -0.205 F 
ATOM     78  C   UNL A   1      36.275  30.831  31.849  1.00  0.00     0.022 A 
BRANCH  76  79
ATOM     79  S   UNL A   1      35.362  32.326  29.750  1.00  0.00     0.127 S 
ATOM     80  O   UNL A   1      34.846  31.532  28.638  1.00  0.00    -0.237 OA
ATOM     81  O   UNL A   1      34.410  32.552  30.838  1.00  0.00    -0.237 OA
ATOM     82  O   UNL A   1      36.143  33.495  29.374  1.00  0.00    -0.744 OA
ENDBRANCH  76  79
ENDBRANCH  48  72
BRANCH  60  83
ATOM     83  C   UNL A   1      44.668  33.375  29.381  1.00  0.00     0.023 A 
ATOM     84  C   UNL A   1      45.346  33.656  30.581  1.00  0.00     0.012 A 
ATOM     85  C   UNL A   1      44.632  34.349  28.360  1.00  0.00     0.148 A 
ATOM     86  C   UNL A   1      45.982  34.886  30.763  1.00  0.00     0.002 A 
ATOM     87  C   UNL A   1      45.311  35.550  28.528  1.00  0.00     0.091 A 
ATOM     88  F   UNL A   1      43.972  34.063  27.229  1.00  0.00    -0.205 F 
ATOM     89  C   UNL A   1      45.981  35.823  29.732  1.00  0.00     0.022 A 
BRANCH  87  90
ATOM     90  S   UNL A   1      45.468  36.767  27.213  1.00  0.00     0.127 S 
ATOM     91  O   UNL A   1      45.954  35.946  26.105  1.00  0.00    -0.237 OA
ATOM     92  O   UNL A   1      44.092  37.239  27.065  1.00  0.00    -0.237 OA
ATOM     93  O   UNL A   1      46.407  37.769  27.697  1.00  0.00    -0.744 OA
ENDBRANCH  87  90
ENDBRANCH  60  83
ENDBRANCH  34  35
ENDBRANCH  27  29
ENDBRANCH  26  27
ENDBRANCH  25  26
ENDBRANCH  24  25
ENDBRANCH  23  24
ENDBRANCH  22  23
ENDBRANCH   1  22
TORSDOF 25
ENDMDL
MODEL 2
REMARK VINA RESULT:      -9.6      2.882      5.041
REMARK SMILES O=C(CCCOc1ccc([N+](=O)[O-])cc1F)OCCOCCOCCOC(=O)c1ccc(-c2c3nc(c(-c4cccc(S(=O)(=O)[O-])c4F)c4ccc([nH]4)c(-c4cccc(S(=O)(=O)[O-])c4F)c4nc(c(-c5cccc(S(=O)(=O)[O-])c5F)c5ccc2[nH]5)C=C4)C=C3)cc1
REMARK SMILES IDX 21 1 20 2 19 3 18 4 17 5 2 6 1 7 3 8 4 9 5 10 6 11 7 12 8 13
REMARK SMILES IDX 15 14 9 15 14 16 16 17 10 18 11 19 12 20 13 21 22 22 23 23
REMARK SMILES IDX 24 24 25 25 26 26 27 27 28 28 29 29 30 30 91 31 31 32 90 33
REMARK SMILES IDX 32 34 33 35 34 36 84 37 35 38 89 39 83 40 85 41 36 42 88 43
REMARK SMILES IDX 82 44 81 45 37 47 69 48 49 49 68 50 50 51 53 52 67 53 86 54
REMARK SMILES IDX 51 55 52 56 66 58 87 59 54 60 38 61 39 62 47 63 40 64 42 65
REMARK SMILES IDX 48 66 41 67 43 68 44 69 45 70 46 71 70 72 71 73 79 74 72 75
REMARK SMILES IDX 74 76 80 77 73 78 75 79 76 80 77 81 78 82 55 83 56 84 64 85
REMARK SMILES IDX 57 86 59 87 65 88 58 89 60 90 61 91 62 92 63 93
REMARK H PARENT 85 46 53 57
REMARK Flexibility Score: inf
ROOT
ATOM      1  C   UNL A   1      36.245  23.662  24.301  1.00  0.00     0.188 C 
ENDROOT
BRANCH   1   2
ATOM      2  O   UNL A   1      34.940  23.767  24.849  1.00  0.00    -0.376 OA
BRANCH   2   3
ATOM      3  C   UNL A   1      34.323  25.049  24.672  1.00  0.00     0.202 C 
BRANCH   3   4
ATOM      4  C   UNL A   1      32.953  25.252  25.353  1.00  0.00     0.261 C 
BRANCH   4   5
ATOM      5  O   UNL A   1      31.915  25.155  24.370  1.00  0.00    -0.463 OA
BRANCH   5   6
ATOM      6  C   UNL A   1      31.960  24.060  23.574  1.00  0.00     0.305 C 
ATOM      7  O   UNL A   1      32.345  24.058  22.412  1.00  0.00    -0.252 OA
BRANCH   6   8
ATOM      8  C   UNL A   1      31.280  22.882  24.227  1.00  0.00     0.126 C 
BRANCH   8   9
ATOM      9  C   UNL A   1      32.078  22.087  25.275  1.00  0.00     0.053 C 
BRANCH   9  10
ATOM     10  C   UNL A   1      32.104  20.547  25.134  1.00  0.00     0.230 C 
BRANCH  10  11
ATOM     11  O   UNL A   1      32.278  20.068  23.779  1.00  0.00    -0.490 OA
BRANCH  11  12
ATOM     12  C   UNL A   1      33.244  19.103  23.757  1.00  0.00     0.155 A 
ATOM     13  C   UNL A   1      34.409  19.280  24.480  1.00  0.00     0.056 A 
ATOM     14  C   UNL A   1      32.975  17.883  23.137  1.00  0.00     0.171 A 
ATOM     15  C   UNL A   1      35.133  18.143  24.803  1.00  0.00     0.089 A 
ATOM     16  C   UNL A   1      33.671  16.749  23.494  1.00  0.00     0.128 A 
ATOM     17  F   UNL A   1      31.885  17.737  22.381  1.00  0.00    -0.203 F 
ATOM     18  C   UNL A   1      34.662  16.870  24.447  1.00  0.00     0.272 A 
BRANCH  18  19
ATOM     19  N   UNL A   1      34.993  15.648  25.185  1.00  0.00     0.062 N 
ATOM     20  O   UNL A   1      34.156  14.757  25.294  1.00  0.00    -0.258 OA
ATOM     21  O   UNL A   1      36.131  15.552  25.663  1.00  0.00    -0.258 OA
ENDBRANCH  18  19
ENDBRANCH  11  12
ENDBRANCH  10  11
ENDBRANCH   9  10
ENDBRANCH   8   9
ENDBRANCH   6   8
ENDBRANCH   5   6
ENDBRANCH   4   5
ENDBRANCH   3   4
ENDBRANCH   2   3
ENDBRANCH   1   2
BRANCH   1  22
ATOM     22  C   UNL A   1      37.319  22.845  25.089  1.00  0.00     0.188 C 
BRANCH  22  23
ATOM     23  O   UNL A   1      37.542  21.431  25.035  1.00  0.00    -0.376 OA
BRANCH  23  24
ATOM     24  C   UNL A   1      38.437  20.708  25.891  1.00  0.00     0.202 C 
BRANCH  24  25
ATOM     25  C   UNL A   1      39.262  19.417  25.381  1.00  0.00     0.261 C 
BRANCH  25  26
ATOM     26  O   UNL A   1      40.479  19.014  26.136  1.00  0.00    -0.460 OA
BRANCH  26  27
ATOM     27  C   UNL A   1      41.651  19.725  25.981  1.00  0.00     0.338 C 
ATOM     28  O   UNL A   1      42.593  19.366  25.306  1.00  0.00    -0.246 OA
BRANCH  27  29
ATOM     29  C   UNL A   1      41.592  21.121  26.595  1.00  0.00     0.060 A 
ATOM     30  C   UNL A   1      41.390  22.211  25.730  1.00  0.00     0.016 A 
ATOM     31  C   UNL A   1      41.844  21.425  27.940  1.00  0.00     0.016 A 
ATOM     32  C   UNL A   1      41.323  23.545  26.189  1.00  0.00     0.010 A 
ATOM     33  C   UNL A   1      41.869  22.784  28.392  1.00  0.00     0.010 A 
ATOM     34  C   UNL A   1      41.611  23.864  27.519  1.00  0.00    -0.014 A 
BRANCH  34  35
ATOM     35  C   UNL A   1      41.964  25.297  27.846  1.00  0.00     0.031 A 
ATOM     36  C   UNL A   1      43.335  25.784  27.419  1.00  0.00     0.074 A 
ATOM     37  C   UNL A   1      41.117  26.205  28.386  1.00  0.00     0.049 A 
ATOM     38  N   UNL A   1      43.904  26.953  27.575  1.00  0.00    -0.248 NA
ATOM     39  C   UNL A   1      44.167  24.810  26.695  1.00  0.00     0.031 C 
ATOM     40  C   UNL A   1      39.729  25.956  28.761  1.00  0.00     0.029 A 
ATOM     41  N   UNL A   1      41.307  27.538  28.712  1.00  0.00    -0.354 N 
ATOM     42  C   UNL A   1      45.171  26.838  27.008  1.00  0.00     0.074 A 
ATOM     43  C   UNL A   1      45.280  25.494  26.490  1.00  0.00     0.031 C 
ATOM     44  C   UNL A   1      39.200  27.081  29.279  1.00  0.00     0.029 A 
ATOM     45  C   UNL A   1      40.219  28.133  29.319  1.00  0.00     0.049 A 
ATOM     46  H   UNL A   1      42.146  28.019  28.528  1.00  0.00     0.167 HD
ATOM     47  C   UNL A   1      46.163  27.757  26.923  1.00  0.00     0.034 A 
ATOM     48  C   UNL A   1      40.059  29.363  29.866  1.00  0.00     0.034 A 
ATOM     49  C   UNL A   1      46.063  29.105  27.409  1.00  0.00     0.049 A 
ATOM     50  C   UNL A   1      41.195  30.361  29.827  1.00  0.00     0.074 A 
ATOM     51  C   UNL A   1      47.018  30.106  27.358  1.00  0.00     0.029 A 
ATOM     52  N   UNL A   1      44.954  29.641  28.042  1.00  0.00    -0.354 N 
ATOM     53  N   UNL A   1      42.378  30.238  29.272  1.00  0.00    -0.248 NA
ATOM     54  C   UNL A   1      40.980  31.671  30.470  1.00  0.00     0.031 C 
ATOM     55  C   UNL A   1      46.504  31.230  28.005  1.00  0.00     0.029 A 
ATOM     56  C   UNL A   1      45.207  30.951  28.404  1.00  0.00     0.049 A 
ATOM     57  H   UNL A   1      44.111  29.160  28.209  1.00  0.00     0.167 HD
ATOM     58  C   UNL A   1      43.028  31.455  29.466  1.00  0.00     0.074 A 
ATOM     59  C   UNL A   1      42.112  32.308  30.190  1.00  0.00     0.031 C 
ATOM     60  C   UNL A   1      44.274  31.821  29.078  1.00  0.00     0.034 A 
BRANCH  47  61
ATOM     61  C   UNL A   1      47.468  27.328  26.299  1.00  0.00     0.023 A 
ATOM     62  C   UNL A   1      47.724  27.581  24.937  1.00  0.00     0.012 A 
ATOM     63  C   UNL A   1      48.465  26.717  27.087  1.00  0.00     0.148 A 
ATOM     64  C   UNL A   1      48.935  27.200  24.360  1.00  0.00     0.002 A 
ATOM     65  C   UNL A   1      49.689  26.389  26.518  1.00  0.00     0.091 A 
ATOM     66  F   UNL A   1      48.196  26.466  28.376  1.00  0.00    -0.205 F 
ATOM     67  C   UNL A   1      49.921  26.615  25.151  1.00  0.00     0.022 A 
BRANCH  65  68
ATOM     68  S   UNL A   1      51.053  25.716  27.475  1.00  0.00     0.127 S 
ATOM     69  O   UNL A   1      51.663  24.798  26.515  1.00  0.00    -0.237 OA
ATOM     70  O   UNL A   1      51.844  26.912  27.763  1.00  0.00    -0.237 OA
ATOM     71  O   UNL A   1      50.453  25.087  28.644  1.00  0.00    -0.744 OA
ENDBRANCH  65  68
ENDBRANCH  47  61
BRANCH  48  72
ATOM     72  C   UNL A   1      38.753  29.728  30.508  1.00  0.00     0.023 A 
ATOM     73  C   UNL A   1      38.482  29.346  31.836  1.00  0.00     0.012 A 
ATOM     74  C   UNL A   1      37.798  30.502  29.815  1.00  0.00     0.148 A 
ATOM     75  C   UNL A   1      37.295  29.737  32.465  1.00  0.00     0.002 A 
ATOM     76  C   UNL A   1      36.648  30.940  30.466  1.00  0.00     0.091 A 
ATOM     77  F   UNL A   1      38.049  30.819  28.538  1.00  0.00    -0.205 F 
ATOM     78  C   UNL A   1      36.389  30.549  31.788  1.00  0.00     0.022 A 
BRANCH  76  79
ATOM     79  S   UNL A   1      35.493  32.098  29.721  1.00  0.00     0.127 S 
ATOM     80  O   UNL A   1      36.367  33.218  29.378  1.00  0.00    -0.237 OA
ATOM     81  O   UNL A   1      35.001  31.331  28.577  1.00  0.00    -0.237 OA
ATOM     82  O   UNL A   1      34.493  32.376  30.741  1.00  0.00    -0.744 OA
ENDBRANCH  76  79
ENDBRANCH  48  72
BRANCH  60  83
ATOM     83  C   UNL A   1      44.755  33.222  29.364  1.00  0.00     0.023 A 
ATOM     84  C   UNL A   1      45.532  33.482  30.508  1.00  0.00     0.012 A 
ATOM     85  C   UNL A   1      44.595  34.232  28.391  1.00  0.00     0.148 A 
ATOM     86  C   UNL A   1      46.143  34.725  30.681  1.00  0.00     0.002 A 
ATOM     87  C   UNL A   1      45.250  35.449  28.545  1.00  0.00     0.091 A 
ATOM     88  F   UNL A   1      43.844  33.965  27.314  1.00  0.00    -0.205 F 
ATOM     89  C   UNL A   1      46.018  35.699  29.692  1.00  0.00     0.022 A 
BRANCH  87  90
ATOM     90  S   UNL A   1      45.247  36.718  27.270  1.00  0.00     0.127 S 
ATOM     91  O   UNL A   1      46.022  36.076  26.210  1.00  0.00    -0.237 OA
ATOM     92  O   UNL A   1      43.821  36.861  26.982  1.00  0.00    -0.237 OA
ATOM     93  O   UNL A   1      45.870  37.892  27.866  1.00  0.00    -0.744 OA
ENDBRANCH  87  90
ENDBRANCH  60  83
ENDBRANCH  34  35
ENDBRANCH  27  29
ENDBRANCH  26  27
ENDBRANCH  25  26
ENDBRANCH  24  25
ENDBRANCH  23  24
ENDBRANCH  22  23
ENDBRANCH   1  22
TORSDOF 25
ENDMDL
MODEL 3
REMARK VINA RESULT:      -9.2      2.060      2.519
REMARK SMILES O=C(CCCOc1ccc([N+](=O)[O-])cc1F)OCCOCCOCCOC(=O)c1ccc(-c2c3nc(c(-c4cccc(S(=O)(=O)[O-])c4F)c4ccc([nH]4)c(-c4cccc(S(=O)(=O)[O-])c4F)c4nc(c(-c5cccc(S(=O)(=O)[O-])c5F)c5ccc2[nH]5)C=C4)C=C3)cc1
REMARK SMILES IDX 21 1 20 2 19 3 18 4 17 5 2 6 1 7 3 8 4 9 5 10 6 11 7 12 8 13
REMARK SMILES IDX 15 14 9 15 14 16 16 17 10 18 11 19 12 20 13 21 22 22 23 23
REMARK SMILES IDX 24 24 25 25 26 26 27 27 28 28 29 29 30 30 91 31 31 32 90 33
REMARK SMILES IDX 32 34 33 35 34 36 84 37 35 38 89 39 83 40 85 41 36 42 88 43
REMARK SMILES IDX 82 44 81 45 37 47 69 48 49 49 68 50 50 51 53 52 67 53 86 54
REMARK SMILES IDX 51 55 52 56 66 58 87 59 54 60 38 61 39 62 47 63 40 64 42 65
REMARK SMILES IDX 48 66 41 67 43 68 44 69 45 70 46 71 70 72 71 73 79 74 72 75
REMARK SMILES IDX 74 76 80 77 73 78 75 79 76 80 77 81 78 82 55 83 56 84 64 85
REMARK SMILES IDX 57 86 59 87 65 88 58 89 60 90 61 91 62 92 63 93
REMARK H PARENT 85 46 53 57
REMARK Flexibility Score: inf
ROOT
ATOM      1  C   UNL A   1      36.052  22.419  24.375  1.00  0.00     0.188 C 
ENDROOT
BRANCH   1   2
ATOM      2  O   UNL A   1      34.993  21.476  24.316  1.00  0.00    -0.376 OA
BRANCH   2   3
ATOM      3  C   UNL A   1      33.681  22.052  24.353  1.00  0.00     0.202 C 
BRANCH   3   4
ATOM      4  C   UNL A   1      33.181  22.536  25.731  1.00  0.00     0.261 C 
BRANCH   4   5
ATOM      5  O   UNL A   1      31.767  22.323  25.825  1.00  0.00    -0.463 OA
BRANCH   5   6
ATOM      6  C   UNL A   1      31.121  23.066  26.756  1.00  0.00     0.305 C 
ATOM      7  O   UNL A   1      31.072  22.798  27.949  1.00  0.00    -0.252 OA
BRANCH   6   8
ATOM      8  C   UNL A   1      30.293  24.150  26.111  1.00  0.00     0.126 C 
BRANCH   8   9
ATOM      9  C   UNL A   1      31.040  25.334  25.473  1.00  0.00     0.053 C 
BRANCH   9  10
ATOM     10  C   UNL A   1      30.327  26.707  25.467  1.00  0.00     0.230 C 
BRANCH  10  11
ATOM     11  O   UNL A   1      31.182  27.831  25.150  1.00  0.00    -0.490 OA
BRANCH  11  12
ATOM     12  C   UNL A   1      31.769  27.629  23.933  1.00  0.00     0.155 A 
ATOM     13  C   UNL A   1      33.137  27.447  23.852  1.00  0.00     0.056 A 
ATOM     14  C   UNL A   1      30.963  27.450  22.810  1.00  0.00     0.171 A 
ATOM     15  C   UNL A   1      33.625  26.810  22.721  1.00  0.00     0.089 A 
ATOM     16  C   UNL A   1      31.443  26.777  21.706  1.00  0.00     0.128 A 
ATOM     17  F   UNL A   1      29.653  27.695  22.872  1.00  0.00    -0.203 F 
ATOM     18  C   UNL A   1      32.749  26.331  21.736  1.00  0.00     0.272 A 
BRANCH  18  19
ATOM     19  N   UNL A   1      33.060  25.203  20.854  1.00  0.00     0.062 N 
ATOM     20  O   UNL A   1      33.343  24.111  21.339  1.00  0.00    -0.258 OA
ATOM     21  O   UNL A   1      33.006  25.393  19.632  1.00  0.00    -0.258 OA
ENDBRANCH  18  19
ENDBRANCH  11  12
ENDBRANCH  10  11
ENDBRANCH   9  10
ENDBRANCH   8   9
ENDBRANCH   6   8
ENDBRANCH   5   6
ENDBRANCH   4   5
ENDBRANCH   3   4
ENDBRANCH   2   3
ENDBRANCH   1   2
BRANCH   1  22
ATOM     22  C   UNL A   1      37.199  22.185  25.410  1.00  0.00     0.188 C 
BRANCH  22  23
ATOM     23  O   UNL A   1      37.874  20.953  25.690  1.00  0.00    -0.376 OA
BRANCH  23  24
ATOM     24  C   UNL A   1      39.290  20.815  25.866  1.00  0.00     0.202 C 
BRANCH  24  25
ATOM     25  C   UNL A   1      40.042  19.394  25.713  1.00  0.00     0.261 C 
BRANCH  25  26
ATOM     26  O   UNL A   1      41.366  19.222  26.372  1.00  0.00    -0.460 OA
BRANCH  26  27
ATOM     27  C   UNL A   1      42.405  20.074  26.059  1.00  0.00     0.338 C 
ATOM     28  O   UNL A   1      43.311  19.808  25.298  1.00  0.00    -0.246 OA
BRANCH  27  29
ATOM     29  C   UNL A   1      42.218  21.481  26.620  1.00  0.00     0.060 A 
ATOM     30  C   UNL A   1      42.131  22.546  25.707  1.00  0.00     0.016 A 
ATOM     31  C   UNL A   1      42.245  21.820  27.980  1.00  0.00     0.016 A 
ATOM     32  C   UNL A   1      41.963  23.888  26.116  1.00  0.00     0.010 A 
ATOM     33  C   UNL A   1      42.168  23.188  28.396  1.00  0.00     0.010 A 
ATOM     34  C   UNL A   1      42.028  24.243  27.466  1.00  0.00    -0.014 A 
BRANCH  34  35
ATOM     35  C   UNL A   1      42.293  25.691  27.808  1.00  0.00     0.031 A 
ATOM     36  C   UNL A   1      43.645  26.256  27.418  1.00  0.00     0.074 A 
ATOM     37  C   UNL A   1      41.384  26.547  28.331  1.00  0.00     0.049 A 
ATOM     38  N   UNL A   1      44.144  27.453  27.594  1.00  0.00    -0.248 NA
ATOM     39  C   UNL A   1      44.547  25.334  26.711  1.00  0.00     0.031 C 
ATOM     40  C   UNL A   1      40.002  26.219  28.669  1.00  0.00     0.029 A 
ATOM     41  N   UNL A   1      41.491  27.887  28.668  1.00  0.00    -0.354 N 
ATOM     42  C   UNL A   1      45.429  27.413  27.059  1.00  0.00     0.074 A 
ATOM     43  C   UNL A   1      45.626  26.080  26.538  1.00  0.00     0.031 C 
ATOM     44  C   UNL A   1      39.398  27.311  29.179  1.00  0.00     0.029 A 
ATOM     45  C   UNL A   1      40.356  28.417  29.249  1.00  0.00     0.049 A 
ATOM     46  H   UNL A   1      42.306  28.415  28.507  1.00  0.00     0.167 HD
ATOM     47  C   UNL A   1      46.370  28.385  27.003  1.00  0.00     0.034 A 
ATOM     48  C   UNL A   1      40.114  29.633  29.798  1.00  0.00     0.034 A 
ATOM     49  C   UNL A   1      46.183  29.723  27.493  1.00  0.00     0.049 A 
ATOM     50  C   UNL A   1      41.194  30.693  29.792  1.00  0.00     0.074 A 
ATOM     51  C   UNL A   1      47.082  30.776  27.471  1.00  0.00     0.029 A 
ATOM     52  N   UNL A   1      45.030  30.193  28.099  1.00  0.00    -0.354 N 
ATOM     53  N   UNL A   1      42.395  30.639  29.267  1.00  0.00    -0.248 NA
ATOM     54  C   UNL A   1      40.890  31.985  30.435  1.00  0.00     0.031 C 
ATOM     55  C   UNL A   1      46.490  31.866  28.109  1.00  0.00     0.029 A 
ATOM     56  C   UNL A   1      45.201  31.513  28.474  1.00  0.00     0.049 A 
ATOM     57  H   UNL A   1      44.211  29.665  28.243  1.00  0.00     0.167 HD
ATOM     58  C   UNL A   1      42.972  31.888  29.483  1.00  0.00     0.074 A 
ATOM     59  C   UNL A   1      41.992  32.686  30.187  1.00  0.00     0.031 C 
ATOM     60  C   UNL A   1      44.205  32.326  29.128  1.00  0.00     0.034 A 
BRANCH  47  61
ATOM     61  C   UNL A   1      47.712  28.034  26.410  1.00  0.00     0.023 A 
ATOM     62  C   UNL A   1      48.815  27.773  27.247  1.00  0.00     0.012 A 
ATOM     63  C   UNL A   1      47.862  27.912  25.013  1.00  0.00     0.148 A 
ATOM     64  C   UNL A   1      50.054  27.434  26.704  1.00  0.00     0.002 A 
ATOM     65  C   UNL A   1      49.084  27.521  24.482  1.00  0.00     0.091 A 
ATOM     66  F   UNL A   1      46.807  28.184  24.232  1.00  0.00    -0.205 F 
ATOM     67  C   UNL A   1      50.186  27.297  25.324  1.00  0.00     0.022 A 
BRANCH  65  68
ATOM     68  S   UNL A   1      49.328  27.229  22.726  1.00  0.00     0.127 S 
ATOM     69  O   UNL A   1      48.954  28.523  22.156  1.00  0.00    -0.237 OA
ATOM     70  O   UNL A   1      50.757  26.926  22.662  1.00  0.00    -0.237 OA
ATOM     71  O   UNL A   1      48.453  26.119  22.376  1.00  0.00    -0.744 OA
ENDBRANCH  65  68
ENDBRANCH  47  61
BRANCH  48  72
ATOM     72  C   UNL A   1      38.774  29.921  30.408  1.00  0.00     0.023 A 
ATOM     73  C   UNL A   1      38.493  29.521  31.729  1.00  0.00     0.012 A 
ATOM     74  C   UNL A   1      37.794  30.641  29.693  1.00  0.00     0.148 A 
ATOM     75  C   UNL A   1      37.271  29.842  32.329  1.00  0.00     0.002 A 
ATOM     76  C   UNL A   1      36.605  31.010  30.316  1.00  0.00     0.091 A 
ATOM     77  F   UNL A   1      38.057  30.975  28.422  1.00  0.00    -0.205 F 
ATOM     78  C   UNL A   1      36.337  30.603  31.631  1.00  0.00     0.022 A 
BRANCH  76  79
ATOM     79  S   UNL A   1      35.404  32.103  29.544  1.00  0.00     0.127 S 
ATOM     80  O   UNL A   1      34.877  31.263  28.472  1.00  0.00    -0.237 OA
ATOM     81  O   UNL A   1      34.475  32.347  30.647  1.00  0.00    -0.237 OA
ATOM     82  O   UNL A   1      36.152  33.274  29.110  1.00  0.00    -0.744 OA
ENDBRANCH  76  79
ENDBRANCH  48  72
BRANCH  60  83
ATOM     83  C   UNL A   1      44.599  33.750  29.433  1.00  0.00     0.023 A 
ATOM     84  C   UNL A   1      45.262  34.056  30.635  1.00  0.00     0.012 A 
ATOM     85  C   UNL A   1      44.483  34.740  28.434  1.00  0.00     0.148 A 
ATOM     86  C   UNL A   1      45.803  35.327  30.841  1.00  0.00     0.002 A 
ATOM     87  C   UNL A   1      45.070  35.986  28.624  1.00  0.00     0.091 A 
ATOM     88  F   UNL A   1      43.840  34.428  27.300  1.00  0.00    -0.205 F 
ATOM     89  C   UNL A   1      45.724  36.283  29.830  1.00  0.00     0.022 A 
BRANCH  87  90
ATOM     90  S   UNL A   1      45.124  37.238  27.335  1.00  0.00     0.127 S 
ATOM     91  O   UNL A   1      45.764  38.354  28.032  1.00  0.00    -0.237 OA
ATOM     92  O   UNL A   1      45.956  36.598  26.318  1.00  0.00    -0.237 OA
ATOM     93  O   UNL A   1      43.743  37.471  26.937  1.00  0.00    -0.744 OA
ENDBRANCH  87  90
ENDBRANCH  60  83
ENDBRANCH  34  35
ENDBRANCH  27  29
ENDBRANCH  26  27
ENDBRANCH  25  26
ENDBRANCH  24  25
ENDBRANCH  23  24
ENDBRANCH  22  23
ENDBRANCH   1  22
TORSDOF 25
ENDMDL
