MODEL 1
REMARK VINA RESULT:     -10.5      0.000      0.000
REMARK SMILES Cc1nn(CC(=O)OCCOCCOCCOC(=O)c2ccc(-c3c4nc(c(-c5cccc(S(=O)(=O)[O-])c5F)c5ccc([nH]5)c(-c5cccc(S(=O)(=O)[O-])c5F)c5nc(c(-c6cccc(S(=O)(=O)[O-])c6F)c6ccc3[nH]6)C=C5)C=C4)cc2)c(C)c1NC(=O)C(=O)Nc1ccc(F)cc1
REMARK SMILES IDX 12 1 11 2 10 3 9 4 8 5 6 6 7 7 5 8 4 9 1 10 2 11 3 12 85 13
REMARK SMILES IDX 83 14 84 15 86 16 87 17 88 19 89 20 90 21 91 22 92 24 93 25
REMARK SMILES IDX 98 26 94 27 97 28 95 29 96 30 13 31 14 32 15 33 16 34 17 35
REMARK SMILES IDX 18 36 19 37 20 38 21 39 82 40 22 41 81 42 23 43 24 44 25 45
REMARK SMILES IDX 75 46 26 47 80 48 74 49 76 50 27 51 79 52 73 53 72 54 28 56
REMARK SMILES IDX 60 57 40 58 59 59 41 60 44 61 58 62 77 63 42 64 43 65 57 67
REMARK SMILES IDX 78 68 45 69 29 70 30 71 38 72 31 73 33 74 39 75 32 76 34 77
REMARK SMILES IDX 35 78 36 79 37 80 61 81 62 82 70 83 63 84 65 85 71 86 64 87
REMARK SMILES IDX 66 88 67 89 68 90 69 91 46 92 47 93 55 94 48 95 50 96 56 97
REMARK SMILES IDX 49 98 51 99 52 100 53 101 54 102
REMARK H PARENT 86 18 91 23 76 55 44 66
REMARK Flexibility Score: inf
ROOT
ATOM      1  C   UNL A   1      42.277  19.608  27.279  1.00  0.00     0.188 C 
ENDROOT
BRANCH   1   2
ATOM      2  O   UNL A   1      40.949  19.979  27.626  1.00  0.00    -0.376 OA
BRANCH   2   3
ATOM      3  C   UNL A   1      40.576  21.341  27.405  1.00  0.00     0.202 C 
BRANCH   3   4
ATOM      4  C   UNL A   1      40.005  21.710  26.014  1.00  0.00     0.261 C 
BRANCH   4   5
ATOM      5  O   UNL A   1      38.574  21.961  25.988  1.00  0.00    -0.462 OA
BRANCH   5   6
ATOM      6  C   UNL A   1      37.818  21.298  25.080  1.00  0.00     0.327 C 
ATOM      7  O   UNL A   1      37.933  20.097  24.849  1.00  0.00    -0.250 OA
BRANCH   6   8
ATOM      8  C   UNL A   1      36.712  22.119  24.458  1.00  0.00     0.267 C 
BRANCH   8   9
ATOM      9  N   UNL A   1      35.358  21.923  24.964  1.00  0.00    -0.256 N 
ATOM     10  C   UNL A   1      32.265  20.228  24.594  1.00  0.00     0.071 C 
ATOM     11  C   UNL A   1      33.372  21.167  24.915  1.00  0.00     0.083 A 
ATOM     12  N   UNL A   1      34.585  20.978  24.393  1.00  0.00    -0.175 NA
ATOM     13  C   UNL A   1      33.321  22.383  25.648  1.00  0.00     0.086 A 
ATOM     14  C   UNL A   1      34.645  22.767  25.787  1.00  0.00     0.060 A 
ATOM     15  C   UNL A   1      35.333  23.803  26.592  1.00  0.00     0.069 C 
BRANCH  13  16
ATOM     16  N   UNL A   1      32.155  22.973  26.100  1.00  0.00    -0.315 N 
ATOM     17  C   UNL A   1      31.472  24.039  25.557  1.00  0.00     0.314 C 
ATOM     18  H   UNL A   1      31.763  22.580  26.914  1.00  0.00     0.170 HD
ATOM     19  O   UNL A   1      30.379  24.375  26.004  1.00  0.00    -0.263 OA
BRANCH  17  20
ATOM     20  C   UNL A   1      32.017  24.688  24.286  1.00  0.00     0.314 C 
ATOM     21  O   UNL A   1      31.763  24.187  23.191  1.00  0.00    -0.263 OA
ATOM     22  N   UNL A   1      32.779  25.840  24.319  1.00  0.00    -0.318 N 
ATOM     23  H   UNL A   1      33.491  25.912  23.643  1.00  0.00     0.170 HD
BRANCH  22  24
ATOM     24  C   UNL A   1      32.652  26.918  25.205  1.00  0.00     0.041 A 
ATOM     25  C   UNL A   1      33.723  27.076  26.095  1.00  0.00     0.029 A 
ATOM     26  C   UNL A   1      31.621  27.855  25.189  1.00  0.00     0.029 A 
ATOM     27  C   UNL A   1      33.836  28.233  26.858  1.00  0.00     0.041 A 
ATOM     28  C   UNL A   1      31.724  29.008  25.974  1.00  0.00     0.041 A 
ATOM     29  C   UNL A   1      32.844  29.199  26.777  1.00  0.00     0.123 A 
ATOM     30  F   UNL A   1      32.977  30.335  27.472  1.00  0.00    -0.207 F 
ENDBRANCH  22  24
ENDBRANCH  17  20
ENDBRANCH  13  16
ENDBRANCH   8   9
ENDBRANCH   6   8
ENDBRANCH   5   6
ENDBRANCH   4   5
ENDBRANCH   3   4
ENDBRANCH   2   3
ENDBRANCH   1   2
BRANCH   1  31
ATOM     31  C   UNL A   1      42.452  18.576  26.151  1.00  0.00     0.188 C 
BRANCH  31  32
ATOM     32  O   UNL A   1      43.114  19.088  25.010  1.00  0.00    -0.376 OA
BRANCH  32  33
ATOM     33  C   UNL A   1      44.514  19.297  24.946  1.00  0.00     0.202 C 
BRANCH  33  34
ATOM     34  C   UNL A   1      45.016  20.573  24.266  1.00  0.00     0.261 C 
BRANCH  34  35
ATOM     35  O   UNL A   1      44.062  21.611  24.247  1.00  0.00    -0.460 OA
BRANCH  35  36
ATOM     36  C   UNL A   1      44.511  22.848  24.552  1.00  0.00     0.338 C 
ATOM     37  O   UNL A   1      45.428  23.452  24.037  1.00  0.00    -0.246 OA
BRANCH  36  38
ATOM     38  C   UNL A   1      43.623  23.343  25.618  1.00  0.00     0.060 A 
ATOM     39  C   UNL A   1      42.540  24.115  25.216  1.00  0.00     0.016 A 
ATOM     40  C   UNL A   1      44.041  23.256  26.961  1.00  0.00     0.016 A 
ATOM     41  C   UNL A   1      42.166  25.120  26.063  1.00  0.00     0.010 A 
ATOM     42  C   UNL A   1      43.688  24.269  27.798  1.00  0.00     0.010 A 
ATOM     43  C   UNL A   1      42.884  25.258  27.254  1.00  0.00    -0.014 A 
BRANCH  43  44
ATOM     44  C   UNL A   1      42.881  26.551  27.875  1.00  0.00     0.031 A 
ATOM     45  C   UNL A   1      44.073  27.329  27.531  1.00  0.00     0.074 A 
ATOM     46  C   UNL A   1      41.836  26.938  28.630  1.00  0.00     0.049 A 
ATOM     47  N   UNL A   1      45.089  27.568  28.288  1.00  0.00    -0.248 NA
ATOM     48  C   UNL A   1      44.266  27.668  26.114  1.00  0.00     0.031 C 
ATOM     49  C   UNL A   1      40.510  26.317  28.744  1.00  0.00     0.029 A 
ATOM     50  N   UNL A   1      41.698  28.079  29.344  1.00  0.00    -0.354 N 
ATOM     51  C   UNL A   1      45.930  28.337  27.496  1.00  0.00     0.074 A 
ATOM     52  C   UNL A   1      45.517  28.127  26.135  1.00  0.00     0.031 C 
ATOM     53  C   UNL A   1      39.642  27.229  29.242  1.00  0.00     0.029 A 
ATOM     54  C   UNL A   1      40.378  28.433  29.588  1.00  0.00     0.049 A 
ATOM     55  H   UNL A   1      42.464  28.611  29.661  1.00  0.00     0.167 HD
ATOM     56  C   UNL A   1      46.661  29.343  28.040  1.00  0.00     0.034 A 
ATOM     57  C   UNL A   1      39.948  29.675  29.922  1.00  0.00     0.034 A 
ATOM     58  C   UNL A   1      46.760  29.212  29.472  1.00  0.00     0.049 A 
ATOM     59  C   UNL A   1      41.134  30.431  30.405  1.00  0.00     0.074 A 
ATOM     60  C   UNL A   1      47.213  28.225  30.327  1.00  0.00     0.029 A 
ATOM     61  N   UNL A   1      45.970  30.041  30.232  1.00  0.00    -0.354 N 
ATOM     62  N   UNL A   1      41.776  30.144  31.505  1.00  0.00    -0.248 NA
ATOM     63  C   UNL A   1      41.887  31.205  29.427  1.00  0.00     0.031 C 
ATOM     64  C   UNL A   1      46.310  28.250  31.429  1.00  0.00     0.029 A 
ATOM     65  C   UNL A   1      45.394  29.282  31.216  1.00  0.00     0.049 A 
ATOM     66  H   UNL A   1      45.841  31.007  30.095  1.00  0.00     0.167 HD
ATOM     67  C   UNL A   1      43.118  30.300  31.176  1.00  0.00     0.074 A 
ATOM     68  C   UNL A   1      43.119  31.051  29.922  1.00  0.00     0.031 C 
ATOM     69  C   UNL A   1      44.087  29.546  31.778  1.00  0.00     0.034 A 
BRANCH  56  70
ATOM     70  C   UNL A   1      46.925  30.650  27.337  1.00  0.00     0.023 A 
ATOM     71  C   UNL A   1      48.252  31.124  27.356  1.00  0.00     0.012 A 
ATOM     72  C   UNL A   1      45.924  31.553  26.906  1.00  0.00     0.148 A 
ATOM     73  C   UNL A   1      48.558  32.444  27.010  1.00  0.00     0.002 A 
ATOM     74  C   UNL A   1      46.244  32.832  26.478  1.00  0.00     0.091 A 
ATOM     75  F   UNL A   1      44.631  31.249  27.041  1.00  0.00    -0.205 F 
ATOM     76  C   UNL A   1      47.555  33.296  26.561  1.00  0.00     0.022 A 
BRANCH  74  77
ATOM     77  S   UNL A   1      44.983  33.943  25.840  1.00  0.00     0.127 S 
ATOM     78  O   UNL A   1      43.776  33.143  26.012  1.00  0.00    -0.237 OA
ATOM     79  O   UNL A   1      45.107  35.086  26.745  1.00  0.00    -0.237 OA
ATOM     80  O   UNL A   1      45.377  34.231  24.465  1.00  0.00    -0.744 OA
ENDBRANCH  74  77
ENDBRANCH  56  70
BRANCH  57  81
ATOM     81  C   UNL A   1      38.686  30.356  29.544  1.00  0.00     0.023 A 
ATOM     82  C   UNL A   1      38.055  30.016  28.332  1.00  0.00     0.012 A 
ATOM     83  C   UNL A   1      37.957  31.128  30.479  1.00  0.00     0.148 A 
ATOM     84  C   UNL A   1      36.733  30.401  28.072  1.00  0.00     0.002 A 
ATOM     85  C   UNL A   1      36.648  31.519  30.211  1.00  0.00     0.091 A 
ATOM     86  F   UNL A   1      38.508  31.395  31.670  1.00  0.00    -0.205 F 
ATOM     87  C   UNL A   1      36.028  31.146  29.013  1.00  0.00     0.022 A 
BRANCH  85  88
ATOM     88  S   UNL A   1      35.672  32.467  31.389  1.00  0.00     0.127 S 
ATOM     89  O   UNL A   1      34.384  32.569  30.701  1.00  0.00    -0.237 OA
ATOM     90  O   UNL A   1      35.673  31.592  32.557  1.00  0.00    -0.237 OA
ATOM     91  O   UNL A   1      36.366  33.739  31.547  1.00  0.00    -0.744 OA
ENDBRANCH  85  88
ENDBRANCH  57  81
BRANCH  69  92
ATOM     92  C   UNL A   1      43.701  28.714  32.976  1.00  0.00     0.023 A 
ATOM     93  C   UNL A   1      43.280  27.373  32.860  1.00  0.00     0.012 A 
ATOM     94  C   UNL A   1      43.956  29.237  34.256  1.00  0.00     0.148 A 
ATOM     95  C   UNL A   1      43.099  26.578  33.996  1.00  0.00     0.002 A 
ATOM     96  C   UNL A   1      43.820  28.430  35.379  1.00  0.00     0.091 A 
ATOM     97  F   UNL A   1      44.362  30.511  34.350  1.00  0.00    -0.205 F 
ATOM     98  C   UNL A   1      43.383  27.101  35.255  1.00  0.00     0.022 A 
BRANCH  96  99
ATOM     99  S   UNL A   1      44.297  29.007  37.009  1.00  0.00     0.127 S 
ATOM    100  O   UNL A   1      44.093  27.814  37.827  1.00  0.00    -0.237 OA
ATOM    101  O   UNL A   1      45.697  29.384  36.813  1.00  0.00    -0.237 OA
ATOM    102  O   UNL A   1      43.417  30.131  37.307  1.00  0.00    -0.744 OA
ENDBRANCH  96  99
ENDBRANCH  69  92
ENDBRANCH  43  44
ENDBRANCH  36  38
ENDBRANCH  35  36
ENDBRANCH  34  35
ENDBRANCH  33  34
ENDBRANCH  32  33
ENDBRANCH  31  32
ENDBRANCH   1  31
TORSDOF 24
ENDMDL
MODEL 2
REMARK VINA RESULT:     -10.1      2.269      3.096
REMARK SMILES Cc1nn(CC(=O)OCCOCCOCCOC(=O)c2ccc(-c3c4nc(c(-c5cccc(S(=O)(=O)[O-])c5F)c5ccc([nH]5)c(-c5cccc(S(=O)(=O)[O-])c5F)c5nc(c(-c6cccc(S(=O)(=O)[O-])c6F)c6ccc3[nH]6)C=C5)C=C4)cc2)c(C)c1NC(=O)C(=O)Nc1ccc(F)cc1
REMARK SMILES IDX 12 1 11 2 10 3 9 4 8 5 6 6 7 7 5 8 4 9 1 10 2 11 3 12 85 13
REMARK SMILES IDX 83 14 84 15 86 16 87 17 88 19 89 20 90 21 91 22 92 24 93 25
REMARK SMILES IDX 98 26 94 27 97 28 95 29 96 30 13 31 14 32 15 33 16 34 17 35
REMARK SMILES IDX 18 36 19 37 20 38 21 39 82 40 22 41 81 42 23 43 24 44 25 45
REMARK SMILES IDX 75 46 26 47 80 48 74 49 76 50 27 51 79 52 73 53 72 54 28 56
REMARK SMILES IDX 60 57 40 58 59 59 41 60 44 61 58 62 77 63 42 64 43 65 57 67
REMARK SMILES IDX 78 68 45 69 29 70 30 71 38 72 31 73 33 74 39 75 32 76 34 77
REMARK SMILES IDX 35 78 36 79 37 80 61 81 62 82 70 83 63 84 65 85 71 86 64 87
REMARK SMILES IDX 66 88 67 89 68 90 69 91 46 92 47 93 55 94 48 95 50 96 56 97
REMARK SMILES IDX 49 98 51 99 52 100 53 101 54 102
REMARK H PARENT 86 18 91 23 76 55 44 66
REMARK Flexibility Score: inf
ROOT
ATOM      1  C   UNL A   1      40.287  20.486  26.078  1.00  0.00     0.188 C 
ENDROOT
BRANCH   1   2
ATOM      2  O   UNL A   1      39.097  21.082  26.578  1.00  0.00    -0.376 OA
BRANCH   2   3
ATOM      3  C   UNL A   1      38.495  22.103  25.781  1.00  0.00     0.202 C 
BRANCH   3   4
ATOM      4  C   UNL A   1      37.272  21.710  24.917  1.00  0.00     0.261 C 
BRANCH   4   5
ATOM      5  O   UNL A   1      36.037  21.521  25.657  1.00  0.00    -0.462 OA
BRANCH   5   6
ATOM      6  C   UNL A   1      35.284  22.610  25.945  1.00  0.00     0.327 C 
ATOM      7  O   UNL A   1      35.740  23.747  26.037  1.00  0.00    -0.250 OA
BRANCH   6   8
ATOM      8  C   UNL A   1      33.796  22.349  26.012  1.00  0.00     0.267 C 
BRANCH   8   9
ATOM      9  N   UNL A   1      32.963  22.910  24.953  1.00  0.00    -0.256 N 
ATOM     10  C   UNL A   1      32.842  24.828  21.971  1.00  0.00     0.071 C 
ATOM     11  C   UNL A   1      32.566  24.114  23.246  1.00  0.00     0.083 A 
ATOM     12  N   UNL A   1      33.564  23.551  23.930  1.00  0.00    -0.175 NA
ATOM     13  C   UNL A   1      31.345  24.021  23.966  1.00  0.00     0.086 A 
ATOM     14  C   UNL A   1      31.602  23.115  24.982  1.00  0.00     0.060 A 
ATOM     15  C   UNL A   1      30.748  22.406  25.964  1.00  0.00     0.069 C 
BRANCH  13  16
ATOM     16  N   UNL A   1      30.192  24.713  23.640  1.00  0.00    -0.315 N 
ATOM     17  C   UNL A   1      29.567  25.714  24.351  1.00  0.00     0.314 C 
ATOM     18  H   UNL A   1      29.765  24.457  22.791  1.00  0.00     0.170 HD
ATOM     19  O   UNL A   1      28.614  26.320  23.872  1.00  0.00    -0.263 OA
BRANCH  17  20
ATOM     20  C   UNL A   1      30.185  26.170  25.672  1.00  0.00     0.314 C 
ATOM     21  O   UNL A   1      30.000  25.505  26.691  1.00  0.00    -0.263 OA
ATOM     22  N   UNL A   1      30.966  27.306  25.764  1.00  0.00    -0.318 N 
ATOM     23  H   UNL A   1      30.893  27.819  26.600  1.00  0.00     0.170 HD
BRANCH  22  24
ATOM     24  C   UNL A   1      31.852  27.808  24.802  1.00  0.00     0.041 A 
ATOM     25  C   UNL A   1      33.182  27.393  24.952  1.00  0.00     0.029 A 
ATOM     26  C   UNL A   1      31.489  28.582  23.700  1.00  0.00     0.029 A 
ATOM     27  C   UNL A   1      34.108  27.623  23.941  1.00  0.00     0.041 A 
ATOM     28  C   UNL A   1      32.427  28.831  22.693  1.00  0.00     0.041 A 
ATOM     29  C   UNL A   1      33.717  28.324  22.810  1.00  0.00     0.123 A 
ATOM     30  F   UNL A   1      34.592  28.502  21.813  1.00  0.00    -0.207 F 
ENDBRANCH  22  24
ENDBRANCH  17  20
ENDBRANCH  13  16
ENDBRANCH   8   9
ENDBRANCH   6   8
ENDBRANCH   5   6
ENDBRANCH   4   5
ENDBRANCH   3   4
ENDBRANCH   2   3
ENDBRANCH   1   2
BRANCH   1  31
ATOM     31  C   UNL A   1      41.624  21.142  26.465  1.00  0.00     0.188 C 
BRANCH  31  32
ATOM     32  O   UNL A   1      42.602  21.086  25.444  1.00  0.00    -0.376 OA
BRANCH  32  33
ATOM     33  C   UNL A   1      43.991  21.243  25.680  1.00  0.00     0.202 C 
BRANCH  33  34
ATOM     34  C   UNL A   1      44.574  22.655  25.593  1.00  0.00     0.261 C 
BRANCH  34  35
ATOM     35  O   UNL A   1      43.928  23.583  26.434  1.00  0.00    -0.460 OA
BRANCH  35  36
ATOM     36  C   UNL A   1      43.079  24.448  25.838  1.00  0.00     0.338 C 
ATOM     37  O   UNL A   1      43.037  24.758  24.667  1.00  0.00    -0.246 OA
BRANCH  36  38
ATOM     38  C   UNL A   1      42.171  24.913  26.902  1.00  0.00     0.060 A 
ATOM     39  C   UNL A   1      41.030  25.591  26.491  1.00  0.00     0.016 A 
ATOM     40  C   UNL A   1      42.611  24.900  28.240  1.00  0.00     0.016 A 
ATOM     41  C   UNL A   1      40.594  26.593  27.312  1.00  0.00     0.010 A 
ATOM     42  C   UNL A   1      42.196  25.911  29.049  1.00  0.00     0.010 A 
ATOM     43  C   UNL A   1      41.316  26.822  28.487  1.00  0.00    -0.014 A 
BRANCH  43  44
ATOM     44  C   UNL A   1      41.226  28.131  29.066  1.00  0.00     0.031 A 
ATOM     45  C   UNL A   1      42.245  29.038  28.535  1.00  0.00     0.074 A 
ATOM     46  C   UNL A   1      40.254  28.415  29.953  1.00  0.00     0.049 A 
ATOM     47  N   UNL A   1      43.316  29.439  29.131  1.00  0.00    -0.248 NA
ATOM     48  C   UNL A   1      42.194  29.334  27.096  1.00  0.00     0.031 C 
ATOM     49  C   UNL A   1      39.051  27.635  30.272  1.00  0.00     0.029 A 
ATOM     50  N   UNL A   1      40.065  29.561  30.647  1.00  0.00    -0.354 N 
ATOM     51  C   UNL A   1      43.929  30.272  28.206  1.00  0.00     0.074 A 
ATOM     52  C   UNL A   1      43.363  29.949  26.925  1.00  0.00     0.031 C 
ATOM     53  C   UNL A   1      38.147  28.452  30.863  1.00  0.00     0.029 A 
ATOM     54  C   UNL A   1      38.757  29.754  31.068  1.00  0.00     0.049 A 
ATOM     55  H   UNL A   1      40.790  30.200  30.837  1.00  0.00     0.167 HD
ATOM     56  C   UNL A   1      44.588  31.387  28.613  1.00  0.00     0.034 A 
ATOM     57  C   UNL A   1      38.216  30.944  31.426  1.00  0.00     0.034 A 
ATOM     58  C   UNL A   1      44.901  31.335  30.019  1.00  0.00     0.049 A 
ATOM     59  C   UNL A   1      39.346  31.868  31.714  1.00  0.00     0.074 A 
ATOM     60  C   UNL A   1      45.595  30.454  30.827  1.00  0.00     0.029 A 
ATOM     61  N   UNL A   1      44.120  32.090  30.861  1.00  0.00    -0.354 N 
ATOM     62  N   UNL A   1      40.166  31.715  32.718  1.00  0.00    -0.248 NA
ATOM     63  C   UNL A   1      39.847  32.686  30.617  1.00  0.00     0.031 C 
ATOM     64  C   UNL A   1      44.858  30.414  32.046  1.00  0.00     0.029 A 
ATOM     65  C   UNL A   1      43.792  31.310  31.938  1.00  0.00     0.049 A 
ATOM     66  H   UNL A   1      43.847  33.025  30.718  1.00  0.00     0.167 HD
ATOM     67  C   UNL A   1      41.417  32.026  32.196  1.00  0.00     0.074 A 
ATOM     68  C   UNL A   1      41.145  32.712  30.935  1.00  0.00     0.031 C 
ATOM     69  C   UNL A   1      42.551  31.431  32.674  1.00  0.00     0.034 A 
BRANCH  56  70
ATOM     70  C   UNL A   1      44.577  32.683  27.844  1.00  0.00     0.023 A 
ATOM     71  C   UNL A   1      45.676  32.930  26.998  1.00  0.00     0.012 A 
ATOM     72  C   UNL A   1      43.707  33.770  28.105  1.00  0.00     0.148 A 
ATOM     73  C   UNL A   1      45.923  34.204  26.479  1.00  0.00     0.002 A 
ATOM     74  C   UNL A   1      43.906  35.009  27.515  1.00  0.00     0.091 A 
ATOM     75  F   UNL A   1      42.761  33.673  29.042  1.00  0.00    -0.205 F 
ATOM     76  C   UNL A   1      45.033  35.242  26.728  1.00  0.00     0.022 A 
BRANCH  74  77
ATOM     77  S   UNL A   1      42.747  36.358  27.771  1.00  0.00     0.127 S 
ATOM     78  O   UNL A   1      41.518  35.794  27.226  1.00  0.00    -0.237 OA
ATOM     79  O   UNL A   1      42.775  36.503  29.227  1.00  0.00    -0.237 OA
ATOM     80  O   UNL A   1      43.310  37.496  27.052  1.00  0.00    -0.744 OA
ENDBRANCH  74  77
ENDBRANCH  56  70
BRANCH  57  81
ATOM     81  C   UNL A   1      36.834  31.441  31.215  1.00  0.00     0.023 A 
ATOM     82  C   UNL A   1      36.102  31.930  32.314  1.00  0.00     0.012 A 
ATOM     83  C   UNL A   1      36.332  31.693  29.917  1.00  0.00     0.148 A 
ATOM     84  C   UNL A   1      34.929  32.673  32.128  1.00  0.00     0.002 A 
ATOM     85  C   UNL A   1      35.159  32.421  29.737  1.00  0.00     0.091 A 
ATOM     86  F   UNL A   1      37.052  31.307  28.856  1.00  0.00    -0.205 F 
ATOM     87  C   UNL A   1      34.461  32.924  30.841  1.00  0.00     0.022 A 
BRANCH  85  88
ATOM     88  S   UNL A   1      34.507  32.798  28.103  1.00  0.00     0.127 S 
ATOM     89  O   UNL A   1      33.344  33.627  28.425  1.00  0.00    -0.237 OA
ATOM     90  O   UNL A   1      35.620  33.518  27.492  1.00  0.00    -0.237 OA
ATOM     91  O   UNL A   1      34.175  31.513  27.502  1.00  0.00    -0.744 OA
ENDBRANCH  85  88
ENDBRANCH  57  81
BRANCH  69  92
ATOM     92  C   UNL A   1      42.449  30.612  33.937  1.00  0.00     0.023 A 
ATOM     93  C   UNL A   1      42.176  29.228  33.920  1.00  0.00     0.012 A 
ATOM     94  C   UNL A   1      42.829  31.213  35.149  1.00  0.00     0.148 A 
ATOM     95  C   UNL A   1      42.261  28.466  35.089  1.00  0.00     0.002 A 
ATOM     96  C   UNL A   1      42.957  30.444  36.299  1.00  0.00     0.091 A 
ATOM     97  F   UNL A   1      43.092  32.528  35.149  1.00  0.00    -0.205 F 
ATOM     98  C   UNL A   1      42.666  29.071  36.276  1.00  0.00     0.022 A 
BRANCH  96  99
ATOM     99  S   UNL A   1      43.601  31.139  37.823  1.00  0.00     0.127 S 
ATOM    100  O   UNL A   1      44.396  30.033  38.352  1.00  0.00    -0.237 OA
ATOM    101  O   UNL A   1      44.382  32.280  37.344  1.00  0.00    -0.237 OA
ATOM    102  O   UNL A   1      42.435  31.511  38.616  1.00  0.00    -0.744 OA
ENDBRANCH  96  99
ENDBRANCH  69  92
ENDBRANCH  43  44
ENDBRANCH  36  38
ENDBRANCH  35  36
ENDBRANCH  34  35
ENDBRANCH  33  34
ENDBRANCH  32  33
ENDBRANCH  31  32
ENDBRANCH   1  31
TORSDOF 24
ENDMDL
MODEL 3
REMARK VINA RESULT:     -10.0      2.652      7.474
REMARK SMILES Cc1nn(CC(=O)OCCOCCOCCOC(=O)c2ccc(-c3c4nc(c(-c5cccc(S(=O)(=O)[O-])c5F)c5ccc([nH]5)c(-c5cccc(S(=O)(=O)[O-])c5F)c5nc(c(-c6cccc(S(=O)(=O)[O-])c6F)c6ccc3[nH]6)C=C5)C=C4)cc2)c(C)c1NC(=O)C(=O)Nc1ccc(F)cc1
REMARK SMILES IDX 12 1 11 2 10 3 9 4 8 5 6 6 7 7 5 8 4 9 1 10 2 11 3 12 85 13
REMARK SMILES IDX 83 14 84 15 86 16 87 17 88 19 89 20 90 21 91 22 92 24 93 25
REMARK SMILES IDX 98 26 94 27 97 28 95 29 96 30 13 31 14 32 15 33 16 34 17 35
REMARK SMILES IDX 18 36 19 37 20 38 21 39 82 40 22 41 81 42 23 43 24 44 25 45
REMARK SMILES IDX 75 46 26 47 80 48 74 49 76 50 27 51 79 52 73 53 72 54 28 56
REMARK SMILES IDX 60 57 40 58 59 59 41 60 44 61 58 62 77 63 42 64 43 65 57 67
REMARK SMILES IDX 78 68 45 69 29 70 30 71 38 72 31 73 33 74 39 75 32 76 34 77
REMARK SMILES IDX 35 78 36 79 37 80 61 81 62 82 70 83 63 84 65 85 71 86 64 87
REMARK SMILES IDX 66 88 67 89 68 90 69 91 46 92 47 93 55 94 48 95 50 96 56 97
REMARK SMILES IDX 49 98 51 99 52 100 53 101 54 102
REMARK H PARENT 86 18 91 23 76 55 44 66
REMARK Flexibility Score: inf
ROOT
ATOM      1  C   UNL A   1      42.113  22.355  26.792  1.00  0.00     0.188 C 
ENDROOT
BRANCH   1   2
ATOM      2  O   UNL A   1      41.285  21.727  25.822  1.00  0.00    -0.376 OA
BRANCH   2   3
ATOM      3  C   UNL A   1      39.997  21.284  26.254  1.00  0.00     0.202 C 
BRANCH   3   4
ATOM      4  C   UNL A   1      38.793  22.223  25.997  1.00  0.00     0.261 C 
BRANCH   4   5
ATOM      5  O   UNL A   1      37.522  21.547  25.808  1.00  0.00    -0.462 OA
BRANCH   5   6
ATOM      6  C   UNL A   1      36.388  22.290  25.809  1.00  0.00     0.327 C 
ATOM      7  O   UNL A   1      36.348  23.466  25.456  1.00  0.00    -0.250 OA
BRANCH   6   8
ATOM      8  C   UNL A   1      35.130  21.524  26.147  1.00  0.00     0.267 C 
BRANCH   8   9
ATOM      9  N   UNL A   1      33.926  21.829  25.382  1.00  0.00    -0.256 N 
ATOM     10  C   UNL A   1      32.170  21.435  22.325  1.00  0.00     0.071 C 
ATOM     11  C   UNL A   1      32.710  21.876  23.639  1.00  0.00     0.083 A 
ATOM     12  N   UNL A   1      33.774  21.268  24.165  1.00  0.00    -0.175 NA
ATOM     13  C   UNL A   1      32.321  22.990  24.431  1.00  0.00     0.086 A 
ATOM     14  C   UNL A   1      33.024  22.842  25.616  1.00  0.00     0.060 A 
ATOM     15  C   UNL A   1      32.956  23.509  26.937  1.00  0.00     0.069 C 
BRANCH  13  16
ATOM     16  N   UNL A   1      31.416  23.954  24.028  1.00  0.00    -0.315 N 
ATOM     17  C   UNL A   1      31.674  25.189  23.473  1.00  0.00     0.314 C 
ATOM     18  H   UNL A   1      30.465  23.730  24.155  1.00  0.00     0.170 HD
ATOM     19  O   UNL A   1      30.758  25.889  23.053  1.00  0.00    -0.263 OA
BRANCH  17  20
ATOM     20  C   UNL A   1      33.127  25.597  23.237  1.00  0.00     0.314 C 
ATOM     21  O   UNL A   1      33.666  25.330  22.163  1.00  0.00    -0.263 OA
ATOM     22  N   UNL A   1      33.862  26.277  24.188  1.00  0.00    -0.318 N 
ATOM     23  H   UNL A   1      34.821  26.060  24.236  1.00  0.00     0.170 HD
BRANCH  22  24
ATOM     24  C   UNL A   1      33.398  27.241  25.092  1.00  0.00     0.041 A 
ATOM     25  C   UNL A   1      33.583  28.569  24.683  1.00  0.00     0.029 A 
ATOM     26  C   UNL A   1      32.710  26.971  26.273  1.00  0.00     0.029 A 
ATOM     27  C   UNL A   1      32.961  29.607  25.367  1.00  0.00     0.041 A 
ATOM     28  C   UNL A   1      32.103  28.019  26.974  1.00  0.00     0.041 A 
ATOM     29  C   UNL A   1      32.209  29.321  26.497  1.00  0.00     0.123 A 
ATOM     30  F   UNL A   1      31.569  30.313  27.128  1.00  0.00    -0.207 F 
ENDBRANCH  22  24
ENDBRANCH  17  20
ENDBRANCH  13  16
ENDBRANCH   8   9
ENDBRANCH   6   8
ENDBRANCH   5   6
ENDBRANCH   4   5
ENDBRANCH   3   4
ENDBRANCH   2   3
ENDBRANCH   1   2
BRANCH   1  31
ATOM     31  C   UNL A   1      43.618  22.446  26.485  1.00  0.00     0.188 C 
BRANCH  31  32
ATOM     32  O   UNL A   1      43.931  23.332  25.426  1.00  0.00    -0.376 OA
BRANCH  32  33
ATOM     33  C   UNL A   1      44.609  24.562  25.610  1.00  0.00     0.202 C 
BRANCH  33  34
ATOM     34  C   UNL A   1      43.815  25.854  25.400  1.00  0.00     0.261 C 
BRANCH  34  35
ATOM     35  O   UNL A   1      42.804  26.054  26.361  1.00  0.00    -0.460 OA
BRANCH  35  36
ATOM     36  C   UNL A   1      41.533  25.856  25.950  1.00  0.00     0.338 C 
ATOM     37  O   UNL A   1      41.140  25.089  25.097  1.00  0.00    -0.246 OA
BRANCH  36  38
ATOM     38  C   UNL A   1      40.700  26.738  26.787  1.00  0.00     0.060 A 
ATOM     39  C   UNL A   1      40.594  28.062  26.379  1.00  0.00     0.016 A 
ATOM     40  C   UNL A   1      40.291  26.297  28.061  1.00  0.00     0.016 A 
ATOM     41  C   UNL A   1      40.499  28.995  27.373  1.00  0.00     0.010 A 
ATOM     42  C   UNL A   1      40.220  27.222  29.055  1.00  0.00     0.010 A 
ATOM     43  C   UNL A   1      40.492  28.532  28.692  1.00  0.00    -0.014 A 
BRANCH  43  44
ATOM     44  C   UNL A   1      40.918  29.448  29.710  1.00  0.00     0.031 A 
ATOM     45  C   UNL A   1      39.793  30.169  30.308  1.00  0.00     0.074 A 
ATOM     46  C   UNL A   1      42.220  29.532  30.043  1.00  0.00     0.049 A 
ATOM     47  N   UNL A   1      39.461  31.398  30.103  1.00  0.00    -0.248 NA
ATOM     48  C   UNL A   1      38.786  29.368  31.017  1.00  0.00     0.031 C 
ATOM     49  C   UNL A   1      43.316  28.622  29.687  1.00  0.00     0.029 A 
ATOM     50  N   UNL A   1      42.805  30.383  30.918  1.00  0.00    -0.354 N 
ATOM     51  C   UNL A   1      38.339  31.583  30.897  1.00  0.00     0.074 A 
ATOM     52  C   UNL A   1      37.825  30.274  31.196  1.00  0.00     0.031 C 
ATOM     53  C   UNL A   1      44.338  28.809  30.556  1.00  0.00     0.029 A 
ATOM     54  C   UNL A   1      44.010  29.922  31.430  1.00  0.00     0.049 A 
ATOM     55  H   UNL A   1      42.412  31.251  31.168  1.00  0.00     0.167 HD
ATOM     56  C   UNL A   1      38.128  32.767  31.528  1.00  0.00     0.034 A 
ATOM     57  C   UNL A   1      44.596  30.362  32.570  1.00  0.00     0.034 A 
ATOM     58  C   UNL A   1      38.921  33.824  30.951  1.00  0.00     0.049 A 
ATOM     59  C   UNL A   1      43.981  31.676  32.898  1.00  0.00     0.074 A 
ATOM     60  C   UNL A   1      39.051  34.357  29.682  1.00  0.00     0.029 A 
ATOM     61  N   UNL A   1      40.039  34.218  31.646  1.00  0.00    -0.354 N 
ATOM     62  N   UNL A   1      44.136  32.749  32.171  1.00  0.00    -0.248 NA
ATOM     63  C   UNL A   1      42.814  31.677  33.771  1.00  0.00     0.031 C 
ATOM     64  C   UNL A   1      40.440  34.646  29.545  1.00  0.00     0.029 A 
ATOM     65  C   UNL A   1      41.070  34.330  30.751  1.00  0.00     0.049 A 
ATOM     66  H   UNL A   1      40.090  34.390  32.614  1.00  0.00     0.167 HD
ATOM     67  C   UNL A   1      42.880  33.344  32.155  1.00  0.00     0.074 A 
ATOM     68  C   UNL A   1      42.138  32.698  33.237  1.00  0.00     0.031 C 
ATOM     69  C   UNL A   1      42.456  34.076  31.081  1.00  0.00     0.034 A 
BRANCH  56  70
ATOM     70  C   UNL A   1      37.535  32.877  32.909  1.00  0.00     0.023 A 
ATOM     71  C   UNL A   1      36.535  33.852  33.095  1.00  0.00     0.012 A 
ATOM     72  C   UNL A   1      38.078  32.281  34.072  1.00  0.00     0.148 A 
ATOM     73  C   UNL A   1      36.135  34.249  34.374  1.00  0.00     0.002 A 
ATOM     74  C   UNL A   1      37.613  32.613  35.336  1.00  0.00     0.091 A 
ATOM     75  F   UNL A   1      39.156  31.496  33.993  1.00  0.00    -0.205 F 
ATOM     76  C   UNL A   1      36.665  33.622  35.495  1.00  0.00     0.022 A 
BRANCH  74  77
ATOM     77  S   UNL A   1      38.237  31.785  36.804  1.00  0.00     0.127 S 
ATOM     78  O   UNL A   1      38.211  30.388  36.385  1.00  0.00    -0.237 OA
ATOM     79  O   UNL A   1      39.572  32.372  36.933  1.00  0.00    -0.237 OA
ATOM     80  O   UNL A   1      37.322  32.155  37.878  1.00  0.00    -0.744 OA
ENDBRANCH  74  77
ENDBRANCH  56  70
BRANCH  57  81
ATOM     81  C   UNL A   1      45.387  29.598  33.566  1.00  0.00     0.023 A 
ATOM     82  C   UNL A   1      46.725  29.965  33.812  1.00  0.00     0.012 A 
ATOM     83  C   UNL A   1      44.769  28.700  34.466  1.00  0.00     0.148 A 
ATOM     84  C   UNL A   1      47.413  29.481  34.932  1.00  0.00     0.002 A 
ATOM     85  C   UNL A   1      45.460  28.211  35.571  1.00  0.00     0.091 A 
ATOM     86  F   UNL A   1      43.475  28.399  34.296  1.00  0.00    -0.205 F 
ATOM     87  C   UNL A   1      46.779  28.611  35.815  1.00  0.00     0.022 A 
BRANCH  85  88
ATOM     88  S   UNL A   1      44.698  27.099  36.762  1.00  0.00     0.127 S 
ATOM     89  O   UNL A   1      43.611  27.923  37.294  1.00  0.00    -0.237 OA
ATOM     90  O   UNL A   1      44.266  25.994  35.912  1.00  0.00    -0.237 OA
ATOM     91  O   UNL A   1      45.738  26.784  37.733  1.00  0.00    -0.744 OA
ENDBRANCH  85  88
ENDBRANCH  57  81
BRANCH  69  92
ATOM     92  C   UNL A   1      43.464  34.428  30.016  1.00  0.00     0.023 A 
ATOM     93  C   UNL A   1      44.325  35.540  30.128  1.00  0.00     0.012 A 
ATOM     94  C   UNL A   1      43.679  33.507  28.975  1.00  0.00     0.148 A 
ATOM     95  C   UNL A   1      45.363  35.739  29.213  1.00  0.00     0.002 A 
ATOM     96  C   UNL A   1      44.740  33.683  28.096  1.00  0.00     0.091 A 
ATOM     97  F   UNL A   1      42.857  32.452  28.885  1.00  0.00    -0.205 F 
ATOM     98  C   UNL A   1      45.580  34.802  28.205  1.00  0.00     0.022 A 
BRANCH  96  99
ATOM     99  S   UNL A   1      45.148  32.445  26.863  1.00  0.00     0.127 S 
ATOM    100  O   UNL A   1      46.311  33.039  26.207  1.00  0.00    -0.237 OA
ATOM    101  O   UNL A   1      45.442  31.269  27.683  1.00  0.00    -0.237 OA
ATOM    102  O   UNL A   1      43.960  32.305  26.030  1.00  0.00    -0.744 OA
ENDBRANCH  96  99
ENDBRANCH  69  92
ENDBRANCH  43  44
ENDBRANCH  36  38
ENDBRANCH  35  36
ENDBRANCH  34  35
ENDBRANCH  33  34
ENDBRANCH  32  33
ENDBRANCH  31  32
ENDBRANCH   1  31
TORSDOF 24
ENDMDL
