MODEL 1
REMARK VINA RESULT:     -10.3      0.000      0.000
REMARK SMILES CCc1cc(OC(F)(F)F)cc2c1O[C@H](C(F)(F)F)C(C(=O)OCCOCCOCCOC(=O)c1ccc(-c3c4nc(c(-c5cccc(S(=O)(=O)[O-])c5F)c5ccc([nH]5)c(-c5cccc(S(=O)(=O)[O-])c5F)c5nc(c(-c6cccc(S(=O)(=O)[O-])c6F)c6ccc3[nH]6)C=C5)C=C4)cc1)=C2
REMARK SMILES IDX 28 1 27 2 26 3 25 4 24 5 23 6 21 7 22 8 20 9 3 10 4 11 13 12
REMARK SMILES IDX 5 13 12 14 14 15 11 16 98 17 15 18 2 19 1 20 6 21 7 22 8 23
REMARK SMILES IDX 9 24 10 25 16 26 17 27 18 28 19 29 29 30 30 31 31 32 32 33
REMARK SMILES IDX 33 34 34 35 35 36 36 37 97 38 37 39 96 40 38 41 39 42 40 43
REMARK SMILES IDX 90 44 41 45 95 46 89 47 91 48 42 49 94 50 88 51 87 52 43 54
REMARK SMILES IDX 75 55 55 56 74 57 56 58 59 59 73 60 92 61 57 62 58 63 72 65
REMARK SMILES IDX 93 66 60 67 44 68 45 69 53 70 46 71 48 72 54 73 47 74 49 75
REMARK SMILES IDX 50 76 51 77 52 78 76 79 77 80 85 81 78 82 80 83 86 84 79 85
REMARK SMILES IDX 81 86 82 87 83 88 84 89 61 90 62 91 70 92 63 93 65 94 71 95
REMARK SMILES IDX 64 96 66 97 67 98 68 99 69 100
REMARK H PARENT 91 53 59 64
REMARK Flexibility Score: inf
ROOT
ATOM      1  C   UNL A   1      35.430  21.158  24.604  1.00  0.00     0.188 C 
ENDROOT
BRANCH   1   2
ATOM      2  C   UNL A   1      33.991  20.896  25.095  1.00  0.00     0.188 C 
BRANCH   2   3
ATOM      3  O   UNL A   1      33.710  20.892  26.490  1.00  0.00    -0.376 OA
BRANCH   3   4
ATOM      4  C   UNL A   1      33.659  22.113  27.211  1.00  0.00     0.202 C 
BRANCH   4   5
ATOM      5  C   UNL A   1      32.415  22.429  28.051  1.00  0.00     0.261 C 
BRANCH   5   6
ATOM      6  O   UNL A   1      31.675  23.592  27.634  1.00  0.00    -0.460 OA
BRANCH   6   7
ATOM      7  C   UNL A   1      31.203  23.540  26.365  1.00  0.00     0.338 C 
ATOM      8  O   UNL A   1      30.643  22.588  25.846  1.00  0.00    -0.246 OA
BRANCH   7   9
ATOM      9  C   UNL A   1      31.336  24.827  25.658  1.00  0.00     0.087 C 
ATOM     10  C   UNL A   1      31.551  28.913  24.851  1.00  0.00    -0.002 A 
ATOM     11  C   UNL A   1      30.806  29.426  23.772  1.00  0.00     0.054 A 
ATOM     12  C   UNL A   1      31.424  27.549  25.131  1.00  0.00     0.131 A 
ATOM     13  C   UNL A   1      29.960  28.611  23.010  1.00  0.00     0.130 A 
ATOM     14  C   UNL A   1      30.588  26.704  24.370  1.00  0.00     0.021 A 
ATOM     15  O   UNL A   1      32.092  27.054  26.217  1.00  0.00    -0.475 OA
ATOM     16  C   UNL A   1      29.869  27.244  23.304  1.00  0.00     0.058 A 
ATOM     17  C   UNL A   1      30.426  25.302  24.790  1.00  0.00     0.027 C 
ATOM     18  C   UNL A   1      32.510  25.680  26.077  1.00  0.00     0.316 C 
BRANCH  10  19
ATOM     19  C   UNL A   1      32.410  29.900  25.622  1.00  0.00     0.036 C 
ATOM     20  C   UNL A   1      32.042  30.286  27.052  1.00  0.00     0.009 C 
ENDBRANCH  10  19
BRANCH  13  21
ATOM     21  O   UNL A   1      29.179  29.029  21.968  1.00  0.00    -0.406 OA
BRANCH  21  22
ATOM     22  C   UNL A   1      28.013  29.773  22.287  1.00  0.00     0.573 C 
ATOM     23  F   UNL A   1      28.245  30.651  23.287  1.00  0.00    -0.132 F 
ATOM     24  F   UNL A   1      27.545  30.433  21.206  1.00  0.00    -0.132 F 
ATOM     25  F   UNL A   1      27.053  28.916  22.702  1.00  0.00    -0.132 F 
ENDBRANCH  21  22
ENDBRANCH  13  21
BRANCH  18  26
ATOM     26  C   UNL A   1      33.734  25.552  25.139  1.00  0.00     0.430 C 
ATOM     27  F   UNL A   1      33.460  24.845  24.015  1.00  0.00    -0.167 F 
ATOM     28  F   UNL A   1      34.210  26.752  24.733  1.00  0.00    -0.167 F 
ATOM     29  F   UNL A   1      34.758  24.916  25.753  1.00  0.00    -0.167 F 
ENDBRANCH  18  26
ENDBRANCH   7   9
ENDBRANCH   6   7
ENDBRANCH   5   6
ENDBRANCH   4   5
ENDBRANCH   3   4
ENDBRANCH   2   3
ENDBRANCH   1   2
BRANCH   1  30
ATOM     30  O   UNL A   1      36.417  20.669  25.484  1.00  0.00    -0.376 OA
BRANCH  30  31
ATOM     31  C   UNL A   1      37.743  20.522  25.018  1.00  0.00     0.202 C 
BRANCH  31  32
ATOM     32  C   UNL A   1      38.919  21.327  25.602  1.00  0.00     0.261 C 
BRANCH  32  33
ATOM     33  O   UNL A   1      38.619  22.395  26.505  1.00  0.00    -0.460 OA
BRANCH  33  34
ATOM     34  C   UNL A   1      38.361  23.606  25.976  1.00  0.00     0.338 C 
ATOM     35  O   UNL A   1      37.553  23.859  25.082  1.00  0.00    -0.246 OA
BRANCH  34  36
ATOM     36  C   UNL A   1      39.100  24.621  26.747  1.00  0.00     0.060 A 
ATOM     37  C   UNL A   1      38.914  24.698  28.133  1.00  0.00     0.016 A 
ATOM     38  C   UNL A   1      39.967  25.506  26.100  1.00  0.00     0.016 A 
ATOM     39  C   UNL A   1      39.581  25.676  28.875  1.00  0.00     0.010 A 
ATOM     40  C   UNL A   1      40.618  26.497  26.843  1.00  0.00     0.010 A 
ATOM     41  C   UNL A   1      40.409  26.604  28.230  1.00  0.00    -0.014 A 
BRANCH  41  42
ATOM     42  C   UNL A   1      40.924  27.792  28.957  1.00  0.00     0.031 A 
ATOM     43  C   UNL A   1      39.938  28.832  29.416  1.00  0.00     0.074 A 
ATOM     44  C   UNL A   1      42.239  27.966  29.183  1.00  0.00     0.049 A 
ATOM     45  N   UNL A   1      40.155  30.001  29.957  1.00  0.00    -0.248 NA
ATOM     46  C   UNL A   1      38.513  28.506  29.237  1.00  0.00     0.031 C 
ATOM     47  C   UNL A   1      43.293  27.019  28.822  1.00  0.00     0.029 A 
ATOM     48  N   UNL A   1      42.914  29.024  29.743  1.00  0.00    -0.354 N 
ATOM     49  C   UNL A   1      38.900  30.565  30.156  1.00  0.00     0.074 A 
ATOM     50  C   UNL A   1      37.925  29.609  29.676  1.00  0.00     0.031 C 
ATOM     51  C   UNL A   1      44.486  27.556  29.136  1.00  0.00     0.029 A 
ATOM     52  C   UNL A   1      44.282  28.896  29.685  1.00  0.00     0.049 A 
ATOM     53  H   UNL A   1      42.461  29.799  30.148  1.00  0.00     0.167 HD
ATOM     54  C   UNL A   1      38.584  31.766  30.694  1.00  0.00     0.034 A 
ATOM     55  C   UNL A   1      45.255  29.774  30.006  1.00  0.00     0.034 A 
ATOM     56  C   UNL A   1      39.552  32.712  31.179  1.00  0.00     0.049 A 
ATOM     57  C   UNL A   1      44.878  31.129  30.554  1.00  0.00     0.074 A 
ATOM     58  C   UNL A   1      39.328  33.952  31.751  1.00  0.00     0.029 A 
ATOM     59  N   UNL A   1      40.925  32.528  31.141  1.00  0.00    -0.354 N 
ATOM     60  N   UNL A   1      43.687  31.616  30.810  1.00  0.00    -0.248 NA
ATOM     61  C   UNL A   1      45.980  32.048  30.881  1.00  0.00     0.031 C 
ATOM     62  C   UNL A   1      40.569  34.528  32.038  1.00  0.00     0.029 A 
ATOM     63  C   UNL A   1      41.563  33.632  31.677  1.00  0.00     0.049 A 
ATOM     64  H   UNL A   1      41.378  31.729  30.786  1.00  0.00     0.167 HD
ATOM     65  C   UNL A   1      43.900  32.871  31.374  1.00  0.00     0.074 A 
ATOM     66  C   UNL A   1      45.332  33.069  31.429  1.00  0.00     0.031 C 
ATOM     67  C   UNL A   1      42.990  33.782  31.798  1.00  0.00     0.034 A 
BRANCH  54  68
ATOM     68  C   UNL A   1      37.127  32.123  30.801  1.00  0.00     0.023 A 
ATOM     69  C   UNL A   1      36.447  31.916  32.019  1.00  0.00     0.012 A 
ATOM     70  C   UNL A   1      36.448  32.718  29.720  1.00  0.00     0.148 A 
ATOM     71  C   UNL A   1      35.104  32.269  32.149  1.00  0.00     0.002 A 
ATOM     72  C   UNL A   1      35.123  33.107  29.872  1.00  0.00     0.091 A 
ATOM     73  F   UNL A   1      37.108  32.885  28.566  1.00  0.00    -0.205 F 
ATOM     74  C   UNL A   1      34.447  32.874  31.082  1.00  0.00     0.022 A 
BRANCH  72  75
ATOM     75  S   UNL A   1      34.211  33.961  28.582  1.00  0.00     0.127 S 
ATOM     76  O   UNL A   1      35.053  35.135  28.354  1.00  0.00    -0.237 OA
ATOM     77  O   UNL A   1      34.224  32.981  27.496  1.00  0.00    -0.237 OA
ATOM     78  O   UNL A   1      32.893  34.238  29.135  1.00  0.00    -0.744 OA
ENDBRANCH  72  75
ENDBRANCH  54  68
BRANCH  55  79
ATOM     79  C   UNL A   1      46.692  29.406  29.837  1.00  0.00     0.023 A 
ATOM     80  C   UNL A   1      47.433  28.969  30.953  1.00  0.00     0.012 A 
ATOM     81  C   UNL A   1      47.333  29.507  28.587  1.00  0.00     0.148 A 
ATOM     82  C   UNL A   1      48.794  28.676  30.835  1.00  0.00     0.002 A 
ATOM     83  C   UNL A   1      48.674  29.162  28.465  1.00  0.00     0.091 A 
ATOM     84  F   UNL A   1      46.619  29.947  27.541  1.00  0.00    -0.205 F 
ATOM     85  C   UNL A   1      49.411  28.764  29.591  1.00  0.00     0.022 A 
BRANCH  83  86
ATOM     86  S   UNL A   1      49.523  29.137  26.881  1.00  0.00     0.127 S 
ATOM     87  O   UNL A   1      49.530  30.553  26.523  1.00  0.00    -0.237 OA
ATOM     88  O   UNL A   1      50.829  28.587  27.248  1.00  0.00    -0.237 OA
ATOM     89  O   UNL A   1      48.727  28.270  26.024  1.00  0.00    -0.744 OA
ENDBRANCH  83  86
ENDBRANCH  55  79
BRANCH  67  90
ATOM     90  C   UNL A   1      43.495  35.053  32.433  1.00  0.00     0.023 A 
ATOM     91  C   UNL A   1      43.731  36.194  31.643  1.00  0.00     0.012 A 
ATOM     92  C   UNL A   1      43.630  35.141  33.833  1.00  0.00     0.148 A 
ATOM     93  C   UNL A   1      44.117  37.397  32.234  1.00  0.00     0.002 A 
ATOM     94  C   UNL A   1      43.965  36.355  34.420  1.00  0.00     0.091 A 
ATOM     95  F   UNL A   1      43.416  34.038  34.567  1.00  0.00    -0.205 F 
ATOM     96  C   UNL A   1      44.220  37.481  33.621  1.00  0.00     0.022 A 
BRANCH  94  97
ATOM     97  S   UNL A   1      44.023  36.583  36.201  1.00  0.00     0.127 S 
ATOM     98  O   UNL A   1      42.629  36.353  36.576  1.00  0.00    -0.237 OA
ATOM     99  O   UNL A   1      44.949  35.530  36.619  1.00  0.00    -0.237 OA
ATOM    100  O   UNL A   1      44.512  37.938  36.419  1.00  0.00    -0.744 OA
ENDBRANCH  94  97
ENDBRANCH  67  90
ENDBRANCH  41  42
ENDBRANCH  34  36
ENDBRANCH  33  34
ENDBRANCH  32  33
ENDBRANCH  31  32
ENDBRANCH  30  31
ENDBRANCH   1  30
TORSDOF 24
ENDMDL
MODEL 2
REMARK VINA RESULT:     -10.2      2.637      7.897
REMARK SMILES CCc1cc(OC(F)(F)F)cc2c1O[C@H](C(F)(F)F)C(C(=O)OCCOCCOCCOC(=O)c1ccc(-c3c4nc(c(-c5cccc(S(=O)(=O)[O-])c5F)c5ccc([nH]5)c(-c5cccc(S(=O)(=O)[O-])c5F)c5nc(c(-c6cccc(S(=O)(=O)[O-])c6F)c6ccc3[nH]6)C=C5)C=C4)cc1)=C2
REMARK SMILES IDX 28 1 27 2 26 3 25 4 24 5 23 6 21 7 22 8 20 9 3 10 4 11 13 12
REMARK SMILES IDX 5 13 12 14 14 15 11 16 98 17 15 18 2 19 1 20 6 21 7 22 8 23
REMARK SMILES IDX 9 24 10 25 16 26 17 27 18 28 19 29 29 30 30 31 31 32 32 33
REMARK SMILES IDX 33 34 34 35 35 36 36 37 97 38 37 39 96 40 38 41 39 42 40 43
REMARK SMILES IDX 90 44 41 45 95 46 89 47 91 48 42 49 94 50 88 51 87 52 43 54
REMARK SMILES IDX 75 55 55 56 74 57 56 58 59 59 73 60 92 61 57 62 58 63 72 65
REMARK SMILES IDX 93 66 60 67 44 68 45 69 53 70 46 71 48 72 54 73 47 74 49 75
REMARK SMILES IDX 50 76 51 77 52 78 76 79 77 80 85 81 78 82 80 83 86 84 79 85
REMARK SMILES IDX 81 86 82 87 83 88 84 89 61 90 62 91 70 92 63 93 65 94 71 95
REMARK SMILES IDX 64 96 66 97 67 98 68 99 69 100
REMARK H PARENT 91 53 59 64
REMARK Flexibility Score: inf
ROOT
ATOM      1  C   UNL A   1      33.544  20.720  26.362  1.00  0.00     0.188 C 
ENDROOT
BRANCH   1   2
ATOM      2  C   UNL A   1      32.754  21.566  25.341  1.00  0.00     0.188 C 
BRANCH   2   3
ATOM      3  O   UNL A   1      32.686  21.151  23.982  1.00  0.00    -0.376 OA
BRANCH   3   4
ATOM      4  C   UNL A   1      32.073  21.985  23.012  1.00  0.00     0.202 C 
BRANCH   4   5
ATOM      5  C   UNL A   1      32.960  22.732  22.007  1.00  0.00     0.261 C 
BRANCH   5   6
ATOM      6  O   UNL A   1      33.636  23.890  22.531  1.00  0.00    -0.460 OA
BRANCH   6   7
ATOM      7  C   UNL A   1      33.259  25.068  21.976  1.00  0.00     0.338 C 
ATOM      8  O   UNL A   1      33.198  25.312  20.782  1.00  0.00    -0.246 OA
BRANCH   7   9
ATOM      9  C   UNL A   1      32.809  26.049  22.981  1.00  0.00     0.087 C 
ATOM     10  C   UNL A   1      31.598  29.600  24.802  1.00  0.00    -0.002 A 
ATOM     11  C   UNL A   1      32.183  29.960  26.031  1.00  0.00     0.054 A 
ATOM     12  C   UNL A   1      32.057  28.430  24.188  1.00  0.00     0.131 A 
ATOM     13  C   UNL A   1      33.192  29.186  26.618  1.00  0.00     0.130 A 
ATOM     14  C   UNL A   1      33.062  27.627  24.766  1.00  0.00     0.021 A 
ATOM     15  O   UNL A   1      31.542  28.108  22.963  1.00  0.00    -0.475 OA
ATOM     16  C   UNL A   1      33.616  28.009  25.988  1.00  0.00     0.058 A 
ATOM     17  C   UNL A   1      33.565  26.467  24.010  1.00  0.00     0.027 C 
ATOM     18  C   UNL A   1      31.468  26.690  22.709  1.00  0.00     0.316 C 
BRANCH  10  19
ATOM     19  C   UNL A   1      30.536  30.534  24.249  1.00  0.00     0.036 C 
ATOM     20  C   UNL A   1      29.311  29.970  23.537  1.00  0.00     0.009 C 
ENDBRANCH  10  19
BRANCH  13  21
ATOM     21  O   UNL A   1      33.835  29.474  27.791  1.00  0.00    -0.406 OA
BRANCH  21  22
ATOM     22  C   UNL A   1      35.006  30.271  27.711  1.00  0.00     0.573 C 
ATOM     23  F   UNL A   1      35.943  29.697  26.925  1.00  0.00    -0.132 F 
ATOM     24  F   UNL A   1      34.726  31.508  27.248  1.00  0.00    -0.132 F 
ATOM     25  F   UNL A   1      35.529  30.398  28.952  1.00  0.00    -0.132 F 
ENDBRANCH  21  22
ENDBRANCH  13  21
BRANCH  18  26
ATOM     26  C   UNL A   1      30.300  26.034  23.483  1.00  0.00     0.430 C 
ATOM     27  F   UNL A   1      30.190  24.705  23.237  1.00  0.00    -0.167 F 
ATOM     28  F   UNL A   1      30.421  26.169  24.823  1.00  0.00    -0.167 F 
ATOM     29  F   UNL A   1      29.113  26.587  23.142  1.00  0.00    -0.167 F 
ENDBRANCH  18  26
ENDBRANCH   7   9
ENDBRANCH   6   7
ENDBRANCH   5   6
ENDBRANCH   4   5
ENDBRANCH   3   4
ENDBRANCH   2   3
ENDBRANCH   1   2
BRANCH   1  30
ATOM     30  O   UNL A   1      34.643  21.406  26.921  1.00  0.00    -0.376 OA
BRANCH  30  31
ATOM     31  C   UNL A   1      35.618  21.959  26.060  1.00  0.00     0.202 C 
BRANCH  31  32
ATOM     32  C   UNL A   1      36.556  21.088  25.205  1.00  0.00     0.261 C 
BRANCH  32  33
ATOM     33  O   UNL A   1      37.883  21.566  24.964  1.00  0.00    -0.460 OA
BRANCH  33  34
ATOM     34  C   UNL A   1      38.823  21.290  25.888  1.00  0.00     0.338 C 
ATOM     35  O   UNL A   1      39.294  20.183  26.148  1.00  0.00    -0.246 OA
BRANCH  34  36
ATOM     36  C   UNL A   1      39.316  22.561  26.449  1.00  0.00     0.060 A 
ATOM     37  C   UNL A   1      38.684  23.758  26.090  1.00  0.00     0.016 A 
ATOM     38  C   UNL A   1      40.409  22.572  27.320  1.00  0.00     0.016 A 
ATOM     39  C   UNL A   1      39.159  24.975  26.586  1.00  0.00     0.010 A 
ATOM     40  C   UNL A   1      40.894  23.793  27.798  1.00  0.00     0.010 A 
ATOM     41  C   UNL A   1      40.289  25.004  27.414  1.00  0.00    -0.014 A 
BRANCH  41  42
ATOM     42  C   UNL A   1      40.951  26.291  27.745  1.00  0.00     0.031 A 
ATOM     43  C   UNL A   1      42.384  26.484  27.331  1.00  0.00     0.074 A 
ATOM     44  C   UNL A   1      40.311  27.259  28.426  1.00  0.00     0.049 A 
ATOM     45  N   UNL A   1      43.206  27.461  27.609  1.00  0.00    -0.248 NA
ATOM     46  C   UNL A   1      42.970  25.428  26.487  1.00  0.00     0.031 C 
ATOM     47  C   UNL A   1      38.913  27.212  28.854  1.00  0.00     0.029 A 
ATOM     48  N   UNL A   1      40.770  28.463  28.905  1.00  0.00    -0.354 N 
ATOM     49  C   UNL A   1      44.411  27.126  27.005  1.00  0.00     0.074 A 
ATOM     50  C   UNL A   1      44.215  25.854  26.343  1.00  0.00     0.031 C 
ATOM     51  C   UNL A   1      38.640  28.320  29.566  1.00  0.00     0.029 A 
ATOM     52  C   UNL A   1      39.849  29.135  29.674  1.00  0.00     0.049 A 
ATOM     53  H   UNL A   1      41.671  28.810  28.715  1.00  0.00     0.167 HD
ATOM     54  C   UNL A   1      45.576  27.816  26.994  1.00  0.00     0.034 A 
ATOM     55  C   UNL A   1      39.980  30.260  30.408  1.00  0.00     0.034 A 
ATOM     56  C   UNL A   1      45.769  29.084  27.643  1.00  0.00     0.049 A 
ATOM     57  C   UNL A   1      41.305  30.983  30.424  1.00  0.00     0.074 A 
ATOM     58  C   UNL A   1      46.910  29.865  27.680  1.00  0.00     0.029 A 
ATOM     59  N   UNL A   1      44.801  29.751  28.376  1.00  0.00    -0.354 N 
ATOM     60  N   UNL A   1      42.413  30.696  29.783  1.00  0.00    -0.248 NA
ATOM     61  C   UNL A   1      41.393  32.200  31.247  1.00  0.00     0.031 C 
ATOM     62  C   UNL A   1      46.639  30.996  28.456  1.00  0.00     0.029 A 
ATOM     63  C   UNL A   1      45.318  30.935  28.872  1.00  0.00     0.049 A 
ATOM     64  H   UNL A   1      43.881  29.432  28.522  1.00  0.00     0.167 HD
ATOM     65  C   UNL A   1      43.306  31.721  30.082  1.00  0.00     0.074 A 
ATOM     66  C   UNL A   1      42.611  32.640  30.958  1.00  0.00     0.031 C 
ATOM     67  C   UNL A   1      44.590  31.880  29.677  1.00  0.00     0.034 A 
BRANCH  54  68
ATOM     68  C   UNL A   1      46.735  27.220  26.242  1.00  0.00     0.023 A 
ATOM     69  C   UNL A   1      47.462  26.155  26.813  1.00  0.00     0.012 A 
ATOM     70  C   UNL A   1      47.066  27.671  24.950  1.00  0.00     0.148 A 
ATOM     71  C   UNL A   1      48.519  25.567  26.119  1.00  0.00     0.002 A 
ATOM     72  C   UNL A   1      48.092  27.052  24.248  1.00  0.00     0.091 A 
ATOM     73  F   UNL A   1      46.376  28.699  24.437  1.00  0.00    -0.205 F 
ATOM     74  C   UNL A   1      48.826  26.007  24.835  1.00  0.00     0.022 A 
BRANCH  72  75
ATOM     75  S   UNL A   1      48.515  27.495  22.560  1.00  0.00     0.127 S 
ATOM     76  O   UNL A   1      49.790  28.187  22.747  1.00  0.00    -0.237 OA
ATOM     77  O   UNL A   1      48.622  26.186  21.916  1.00  0.00    -0.237 OA
ATOM     78  O   UNL A   1      47.422  28.324  22.074  1.00  0.00    -0.744 OA
ENDBRANCH  72  75
ENDBRANCH  54  68
BRANCH  55  79
ATOM     79  C   UNL A   1      38.824  30.795  31.185  1.00  0.00     0.023 A 
ATOM     80  C   UNL A   1      38.647  30.403  32.527  1.00  0.00     0.012 A 
ATOM     81  C   UNL A   1      37.889  31.671  30.599  1.00  0.00     0.148 A 
ATOM     82  C   UNL A   1      37.541  30.841  33.258  1.00  0.00     0.002 A 
ATOM     83  C   UNL A   1      36.819  32.147  31.349  1.00  0.00     0.091 A 
ATOM     84  F   UNL A   1      38.059  32.015  29.315  1.00  0.00    -0.205 F 
ATOM     85  C   UNL A   1      36.634  31.720  32.673  1.00  0.00     0.022 A 
BRANCH  83  86
ATOM     86  S   UNL A   1      35.664  33.368  30.714  1.00  0.00     0.127 S 
ATOM     87  O   UNL A   1      36.080  33.476  29.318  1.00  0.00    -0.237 OA
ATOM     88  O   UNL A   1      34.378  32.704  30.926  1.00  0.00    -0.237 OA
ATOM     89  O   UNL A   1      35.866  34.559  31.529  1.00  0.00    -0.744 OA
ENDBRANCH  83  86
ENDBRANCH  55  79
BRANCH  67  90
ATOM     90  C   UNL A   1      45.323  33.127  30.104  1.00  0.00     0.023 A 
ATOM     91  C   UNL A   1      45.254  34.292  29.317  1.00  0.00     0.012 A 
ATOM     92  C   UNL A   1      45.989  33.168  31.345  1.00  0.00     0.148 A 
ATOM     93  C   UNL A   1      45.859  35.474  29.747  1.00  0.00     0.002 A 
ATOM     94  C   UNL A   1      46.546  34.360  31.791  1.00  0.00     0.091 A 
ATOM     95  F   UNL A   1      46.056  32.043  32.072  1.00  0.00    -0.205 F 
ATOM     96  C   UNL A   1      46.491  35.511  30.989  1.00  0.00     0.022 A 
BRANCH  94  97
ATOM     97  S   UNL A   1      47.290  34.529  33.417  1.00  0.00     0.127 S 
ATOM     98  O   UNL A   1      46.182  34.153  34.293  1.00  0.00    -0.237 OA
ATOM     99  O   UNL A   1      48.382  33.556  33.361  1.00  0.00    -0.237 OA
ATOM    100  O   UNL A   1      47.724  35.916  33.521  1.00  0.00    -0.744 OA
ENDBRANCH  94  97
ENDBRANCH  67  90
ENDBRANCH  41  42
ENDBRANCH  34  36
ENDBRANCH  33  34
ENDBRANCH  32  33
ENDBRANCH  31  32
ENDBRANCH  30  31
ENDBRANCH   1  30
TORSDOF 24
ENDMDL
MODEL 3
REMARK VINA RESULT:     -10.1      1.503      7.305
REMARK SMILES CCc1cc(OC(F)(F)F)cc2c1O[C@H](C(F)(F)F)C(C(=O)OCCOCCOCCOC(=O)c1ccc(-c3c4nc(c(-c5cccc(S(=O)(=O)[O-])c5F)c5ccc([nH]5)c(-c5cccc(S(=O)(=O)[O-])c5F)c5nc(c(-c6cccc(S(=O)(=O)[O-])c6F)c6ccc3[nH]6)C=C5)C=C4)cc1)=C2
REMARK SMILES IDX 28 1 27 2 26 3 25 4 24 5 23 6 21 7 22 8 20 9 3 10 4 11 13 12
REMARK SMILES IDX 5 13 12 14 14 15 11 16 98 17 15 18 2 19 1 20 6 21 7 22 8 23
REMARK SMILES IDX 9 24 10 25 16 26 17 27 18 28 19 29 29 30 30 31 31 32 32 33
REMARK SMILES IDX 33 34 34 35 35 36 36 37 97 38 37 39 96 40 38 41 39 42 40 43
REMARK SMILES IDX 90 44 41 45 95 46 89 47 91 48 42 49 94 50 88 51 87 52 43 54
REMARK SMILES IDX 75 55 55 56 74 57 56 58 59 59 73 60 92 61 57 62 58 63 72 65
REMARK SMILES IDX 93 66 60 67 44 68 45 69 53 70 46 71 48 72 54 73 47 74 49 75
REMARK SMILES IDX 50 76 51 77 52 78 76 79 77 80 85 81 78 82 80 83 86 84 79 85
REMARK SMILES IDX 81 86 82 87 83 88 84 89 61 90 62 91 70 92 63 93 65 94 71 95
REMARK SMILES IDX 64 96 66 97 67 98 68 99 69 100
REMARK H PARENT 91 53 59 64
REMARK Flexibility Score: inf
ROOT
ATOM      1  C   UNL A   1      35.895  21.251  24.752  1.00  0.00     0.188 C 
ENDROOT
BRANCH   1   2
ATOM      2  C   UNL A   1      34.464  20.920  25.225  1.00  0.00     0.188 C 
BRANCH   2   3
ATOM      3  O   UNL A   1      34.164  20.907  26.616  1.00  0.00    -0.376 OA
BRANCH   3   4
ATOM      4  C   UNL A   1      33.879  22.118  27.296  1.00  0.00     0.202 C 
BRANCH   4   5
ATOM      5  C   UNL A   1      32.530  22.271  28.011  1.00  0.00     0.261 C 
BRANCH   5   6
ATOM      6  O   UNL A   1      31.816  23.485  27.716  1.00  0.00    -0.460 OA
BRANCH   6   7
ATOM      7  C   UNL A   1      31.169  23.489  26.525  1.00  0.00     0.338 C 
ATOM      8  O   UNL A   1      30.441  22.607  26.100  1.00  0.00    -0.246 OA
BRANCH   7   9
ATOM      9  C   UNL A   1      31.344  24.756  25.790  1.00  0.00     0.087 C 
ATOM     10  C   UNL A   1      31.745  28.810  24.899  1.00  0.00    -0.002 A 
ATOM     11  C   UNL A   1      30.989  29.344  23.838  1.00  0.00     0.054 A 
ATOM     12  C   UNL A   1      31.556  27.459  25.209  1.00  0.00     0.131 A 
ATOM     13  C   UNL A   1      30.074  28.562  23.122  1.00  0.00     0.130 A 
ATOM     14  C   UNL A   1      30.650  26.648  24.494  1.00  0.00     0.021 A 
ATOM     15  O   UNL A   1      32.237  26.948  26.279  1.00  0.00    -0.475 OA
ATOM     16  C   UNL A   1      29.921  27.207  23.445  1.00  0.00     0.058 A 
ATOM     17  C   UNL A   1      30.429  25.263  24.945  1.00  0.00     0.027 C 
ATOM     18  C   UNL A   1      32.576  25.552  26.150  1.00  0.00     0.316 C 
BRANCH  10  19
ATOM     19  C   UNL A   1      32.682  29.763  25.621  1.00  0.00     0.036 C 
ATOM     20  C   UNL A   1      32.279  30.367  26.962  1.00  0.00     0.009 C 
ENDBRANCH  10  19
BRANCH  13  21
ATOM     21  O   UNL A   1      29.279  29.004  22.100  1.00  0.00    -0.406 OA
BRANCH  21  22
ATOM     22  C   UNL A   1      28.001  29.516  22.446  1.00  0.00     0.573 C 
ATOM     23  F   UNL A   1      27.446  30.194  21.418  1.00  0.00    -0.132 F 
ATOM     24  F   UNL A   1      27.168  28.529  22.838  1.00  0.00    -0.132 F 
ATOM     25  F   UNL A   1      28.145  30.377  23.480  1.00  0.00    -0.132 F 
ENDBRANCH  21  22
ENDBRANCH  13  21
BRANCH  18  26
ATOM     26  C   UNL A   1      33.757  25.342  25.172  1.00  0.00     0.430 C 
ATOM     27  F   UNL A   1      33.450  24.500  24.155  1.00  0.00    -0.167 F 
ATOM     28  F   UNL A   1      34.175  26.497  24.604  1.00  0.00    -0.167 F 
ATOM     29  F   UNL A   1      34.828  24.809  25.803  1.00  0.00    -0.167 F 
ENDBRANCH  18  26
ENDBRANCH   7   9
ENDBRANCH   6   7
ENDBRANCH   5   6
ENDBRANCH   4   5
ENDBRANCH   3   4
ENDBRANCH   2   3
ENDBRANCH   1   2
BRANCH   1  30
ATOM     30  O   UNL A   1      36.888  20.868  25.677  1.00  0.00    -0.376 OA
BRANCH  30  31
ATOM     31  C   UNL A   1      38.227  20.749  25.238  1.00  0.00     0.202 C 
BRANCH  31  32
ATOM     32  C   UNL A   1      39.390  21.493  25.919  1.00  0.00     0.261 C 
BRANCH  32  33
ATOM     33  O   UNL A   1      39.074  22.602  26.766  1.00  0.00    -0.460 OA
BRANCH  33  34
ATOM     34  C   UNL A   1      38.667  23.742  26.177  1.00  0.00     0.338 C 
ATOM     35  O   UNL A   1      37.845  23.845  25.266  1.00  0.00    -0.246 OA
BRANCH  34  36
ATOM     36  C   UNL A   1      39.257  24.881  26.902  1.00  0.00     0.060 A 
ATOM     37  C   UNL A   1      39.006  25.024  28.272  1.00  0.00     0.016 A 
ATOM     38  C   UNL A   1      40.050  25.814  26.228  1.00  0.00     0.016 A 
ATOM     39  C   UNL A   1      39.531  26.117  28.969  1.00  0.00     0.010 A 
ATOM     40  C   UNL A   1      40.557  26.916  26.923  1.00  0.00     0.010 A 
ATOM     41  C   UNL A   1      40.279  27.088  28.291  1.00  0.00    -0.014 A 
BRANCH  41  42
ATOM     42  C   UNL A   1      40.631  28.370  28.954  1.00  0.00     0.031 A 
ATOM     43  C   UNL A   1      42.075  28.629  29.286  1.00  0.00     0.074 A 
ATOM     44  C   UNL A   1      39.691  29.274  29.285  1.00  0.00     0.049 A 
ATOM     45  N   UNL A   1      42.609  29.610  29.965  1.00  0.00    -0.248 NA
ATOM     46  C   UNL A   1      43.050  27.646  28.781  1.00  0.00     0.031 C 
ATOM     47  C   UNL A   1      38.264  29.160  28.989  1.00  0.00     0.029 A 
ATOM     48  N   UNL A   1      39.799  30.457  29.977  1.00  0.00    -0.354 N 
ATOM     49  C   UNL A   1      43.973  29.348  29.999  1.00  0.00     0.074 A 
ATOM     50  C   UNL A   1      44.187  28.116  29.271  1.00  0.00     0.031 C 
ATOM     51  C   UNL A   1      37.623  30.212  29.530  1.00  0.00     0.029 A 
ATOM     52  C   UNL A   1      38.587  31.053  30.239  1.00  0.00     0.049 A 
ATOM     53  H   UNL A   1      40.660  30.841  30.257  1.00  0.00     0.167 HD
ATOM     54  C   UNL A   1      44.962  30.070  30.577  1.00  0.00     0.034 A 
ATOM     55  C   UNL A   1      38.289  32.131  30.993  1.00  0.00     0.034 A 
ATOM     56  C   UNL A   1      44.751  31.299  31.292  1.00  0.00     0.049 A 
ATOM     57  C   UNL A   1      39.404  32.889  31.673  1.00  0.00     0.074 A 
ATOM     58  C   UNL A   1      45.692  32.108  31.904  1.00  0.00     0.029 A 
ATOM     59  N   UNL A   1      43.515  31.890  31.499  1.00  0.00    -0.354 N 
ATOM     60  N   UNL A   1      40.698  32.675  31.629  1.00  0.00    -0.248 NA
ATOM     61  C   UNL A   1      39.021  34.053  32.488  1.00  0.00     0.031 C 
ATOM     62  C   UNL A   1      45.021  33.178  32.503  1.00  0.00     0.029 A 
ATOM     63  C   UNL A   1      43.668  33.053  32.233  1.00  0.00     0.049 A 
ATOM     64  H   UNL A   1      42.657  31.536  31.173  1.00  0.00     0.167 HD
ATOM     65  C   UNL A   1      41.282  33.703  32.363  1.00  0.00     0.074 A 
ATOM     66  C   UNL A   1      40.204  34.545  32.837  1.00  0.00     0.031 C 
ATOM     67  C   UNL A   1      42.593  33.925  32.630  1.00  0.00     0.034 A 
BRANCH  54  68
ATOM     68  C   UNL A   1      46.370  29.556  30.447  1.00  0.00     0.023 A 
ATOM     69  C   UNL A   1      47.186  30.017  29.394  1.00  0.00     0.012 A 
ATOM     70  C   UNL A   1      46.904  28.667  31.399  1.00  0.00     0.148 A 
ATOM     71  C   UNL A   1      48.504  29.578  29.274  1.00  0.00     0.002 A 
ATOM     72  C   UNL A   1      48.231  28.268  31.298  1.00  0.00     0.091 A 
ATOM     73  F   UNL A   1      46.104  28.225  32.379  1.00  0.00    -0.205 F 
ATOM     74  C   UNL A   1      49.029  28.714  30.231  1.00  0.00     0.022 A 
BRANCH  72  75
ATOM     75  S   UNL A   1      49.022  27.217  32.521  1.00  0.00     0.127 S 
ATOM     76  O   UNL A   1      48.834  27.996  33.745  1.00  0.00    -0.237 OA
ATOM     77  O   UNL A   1      48.218  25.997  32.445  1.00  0.00    -0.237 OA
ATOM     78  O   UNL A   1      50.403  27.063  32.088  1.00  0.00    -0.744 OA
ENDBRANCH  72  75
ENDBRANCH  54  68
BRANCH  55  79
ATOM     79  C   UNL A   1      36.875  32.582  31.143  1.00  0.00     0.023 A 
ATOM     80  C   UNL A   1      36.217  32.408  32.377  1.00  0.00     0.012 A 
ATOM     81  C   UNL A   1      36.172  33.162  30.069  1.00  0.00     0.148 A 
ATOM     82  C   UNL A   1      34.875  32.767  32.527  1.00  0.00     0.002 A 
ATOM     83  C   UNL A   1      34.853  33.568  30.241  1.00  0.00     0.091 A 
ATOM     84  F   UNL A   1      36.805  33.300  28.896  1.00  0.00    -0.205 F 
ATOM     85  C   UNL A   1      34.198  33.354  31.463  1.00  0.00     0.022 A 
BRANCH  83  86
ATOM     86  S   UNL A   1      33.937  34.434  28.961  1.00  0.00     0.127 S 
ATOM     87  O   UNL A   1      32.729  34.836  29.678  1.00  0.00    -0.237 OA
ATOM     88  O   UNL A   1      34.848  35.529  28.627  1.00  0.00    -0.237 OA
ATOM     89  O   UNL A   1      33.746  33.465  27.891  1.00  0.00    -0.744 OA
ENDBRANCH  83  86
ENDBRANCH  55  79
BRANCH  67  90
ATOM     90  C   UNL A   1      42.963  35.162  33.408  1.00  0.00     0.023 A 
ATOM     91  C   UNL A   1      43.249  36.363  32.733  1.00  0.00     0.012 A 
ATOM     92  C   UNL A   1      42.918  35.154  34.816  1.00  0.00     0.148 A 
ATOM     93  C   UNL A   1      43.509  37.533  33.448  1.00  0.00     0.002 A 
ATOM     94  C   UNL A   1      43.129  36.332  35.522  1.00  0.00     0.091 A 
ATOM     95  F   UNL A   1      42.659  33.994  35.441  1.00  0.00    -0.205 F 
ATOM     96  C   UNL A   1      43.435  37.520  34.840  1.00  0.00     0.022 A 
BRANCH  94  97
ATOM     97  S   UNL A   1      42.954  36.433  37.307  1.00  0.00     0.127 S 
ATOM     98  O   UNL A   1      41.541  36.105  37.487  1.00  0.00    -0.237 OA
ATOM     99  O   UNL A   1      43.884  35.401  37.768  1.00  0.00    -0.237 OA
ATOM    100  O   UNL A   1      43.330  37.792  37.673  1.00  0.00    -0.744 OA
ENDBRANCH  94  97
ENDBRANCH  67  90
ENDBRANCH  41  42
ENDBRANCH  34  36
ENDBRANCH  33  34
ENDBRANCH  32  33
ENDBRANCH  31  32
ENDBRANCH  30  31
ENDBRANCH   1  30
TORSDOF 24
ENDMDL
