MODEL 1
REMARK VINA RESULT:     -12.1      0.000      0.000
REMARK SMILES O=C(OCCOCCOCCOC(=O)[C@H]1CCCC[C@H]1C(=O)Nc1ccc(Cl)cc1F)c1ccc(-c2c3nc(c(-c4cccc(S(=O)(=O)[O-])c4F)c4ccc([nH]4)c(-c4cccc(S(=O)(=O)[O-])c4F)c4nc(c(-c5cccc(S(=O)(=O)[O-])c5F)c5ccc2[nH]5)C=C4)C=C3)cc1
REMARK SMILES IDX 7 1 6 2 5 3 4 4 3 5 2 6 1 7 32 8 33 9 94 10 34 11 93 12
REMARK SMILES IDX 35 13 36 14 37 15 87 16 38 17 92 18 86 19 88 20 39 21 91 22
REMARK SMILES IDX 85 23 84 24 40 26 72 27 52 28 71 29 53 30 56 31 70 32 89 33
REMARK SMILES IDX 54 34 55 35 69 37 90 38 57 39 41 40 42 41 50 42 43 43 45 44
REMARK SMILES IDX 51 45 44 46 46 47 47 48 48 49 49 50 73 51 74 52 82 53 75 54
REMARK SMILES IDX 77 55 83 56 76 57 78 58 79 59 80 60 81 61 58 62 59 63 67 64
REMARK SMILES IDX 60 65 62 66 68 67 61 68 63 69 64 70 65 71 66 72 8 73 9 74
REMARK SMILES IDX 10 75 11 76 12 77 13 78 14 79 15 80 16 81 20 82 17 83 19 84
REMARK SMILES IDX 18 85 21 86 22 87 23 88 24 90 25 91 30 92 26 93 29 94 31 95
REMARK SMILES IDX 27 96 28 97
REMARK H PARENT 88 25 56 36 23 89
REMARK Flexibility Score: inf
ROOT
ATOM      1  C   UNL A   1      38.421  21.570  25.775  1.00  0.00     0.188 C 
ENDROOT
BRANCH   1   2
ATOM      2  O   UNL A   1      39.729  20.987  25.683  1.00  0.00    -0.376 OA
BRANCH   2   3
ATOM      3  C   UNL A   1      39.908  19.673  26.227  1.00  0.00     0.202 C 
BRANCH   3   4
ATOM      4  C   UNL A   1      41.305  19.055  26.126  1.00  0.00     0.261 C 
BRANCH   4   5
ATOM      5  O   UNL A   1      42.118  19.596  25.079  1.00  0.00    -0.460 OA
BRANCH   5   6
ATOM      6  C   UNL A   1      43.338  20.020  25.487  1.00  0.00     0.338 C 
ATOM      7  O   UNL A   1      44.345  19.335  25.460  1.00  0.00    -0.246 OA
BRANCH   6   8
ATOM      8  C   UNL A   1      43.227  21.406  26.021  1.00  0.00     0.060 A 
ATOM      9  C   UNL A   1      43.296  22.514  25.160  1.00  0.00     0.016 A 
ATOM     10  C   UNL A   1      42.941  21.593  27.375  1.00  0.00     0.016 A 
ATOM     11  C   UNL A   1      42.994  23.786  25.626  1.00  0.00     0.010 A 
ATOM     12  C   UNL A   1      42.729  22.886  27.868  1.00  0.00     0.010 A 
ATOM     13  C   UNL A   1      42.762  23.987  26.994  1.00  0.00    -0.014 A 
BRANCH  13  14
ATOM     14  C   UNL A   1      42.997  25.359  27.499  1.00  0.00     0.031 A 
ATOM     15  C   UNL A   1      44.388  25.867  27.265  1.00  0.00     0.074 A 
ATOM     16  C   UNL A   1      42.064  26.164  28.037  1.00  0.00     0.049 A 
ATOM     17  N   UNL A   1      44.810  27.097  27.237  1.00  0.00    -0.248 NA
ATOM     18  C   UNL A   1      45.409  24.863  26.905  1.00  0.00     0.031 C 
ATOM     19  C   UNL A   1      40.669  25.836  28.256  1.00  0.00     0.029 A 
ATOM     20  N   UNL A   1      42.153  27.446  28.514  1.00  0.00    -0.354 N 
ATOM     21  C   UNL A   1      46.108  27.018  26.762  1.00  0.00     0.074 A 
ATOM     22  C   UNL A   1      46.418  25.628  26.531  1.00  0.00     0.031 C 
ATOM     23  C   UNL A   1      40.038  26.829  28.893  1.00  0.00     0.029 A 
ATOM     24  C   UNL A   1      40.992  27.900  29.098  1.00  0.00     0.049 A 
ATOM     25  H   UNL A   1      42.970  27.990  28.445  1.00  0.00     0.167 HD
ATOM     26  C   UNL A   1      46.971  28.029  26.539  1.00  0.00     0.034 A 
ATOM     27  C   UNL A   1      40.720  29.060  29.718  1.00  0.00     0.034 A 
ATOM     28  C   UNL A   1      46.721  29.367  26.977  1.00  0.00     0.049 A 
ATOM     29  C   UNL A   1      41.781  30.115  29.672  1.00  0.00     0.074 A 
ATOM     30  C   UNL A   1      47.560  30.459  26.933  1.00  0.00     0.029 A 
ATOM     31  N   UNL A   1      45.562  29.763  27.634  1.00  0.00    -0.354 N 
ATOM     32  N   UNL A   1      42.944  30.078  29.064  1.00  0.00    -0.248 NA
ATOM     33  C   UNL A   1      41.480  31.388  30.333  1.00  0.00     0.031 C 
ATOM     34  C   UNL A   1      46.934  31.502  27.625  1.00  0.00     0.029 A 
ATOM     35  C   UNL A   1      45.683  31.074  28.050  1.00  0.00     0.049 A 
ATOM     36  H   UNL A   1      44.774  29.194  27.782  1.00  0.00     0.167 HD
ATOM     37  C   UNL A   1      43.496  31.337  29.225  1.00  0.00     0.074 A 
ATOM     38  C   UNL A   1      42.533  32.114  29.985  1.00  0.00     0.031 C 
ATOM     39  C   UNL A   1      44.686  31.813  28.783  1.00  0.00     0.034 A 
BRANCH  26  40
ATOM     40  C   UNL A   1      48.260  27.655  25.876  1.00  0.00     0.023 A 
ATOM     41  C   UNL A   1      49.412  27.457  26.668  1.00  0.00     0.012 A 
ATOM     42  C   UNL A   1      48.359  27.610  24.475  1.00  0.00     0.148 A 
ATOM     43  C   UNL A   1      50.653  27.252  26.069  1.00  0.00     0.002 A 
ATOM     44  C   UNL A   1      49.594  27.377  23.888  1.00  0.00     0.091 A 
ATOM     45  F   UNL A   1      47.260  27.859  23.751  1.00  0.00    -0.205 F 
ATOM     46  C   UNL A   1      50.743  27.208  24.679  1.00  0.00     0.022 A 
BRANCH  44  47
ATOM     47  S   UNL A   1      49.812  27.289  22.110  1.00  0.00     0.127 S 
ATOM     48  O   UNL A   1      49.505  28.662  21.708  1.00  0.00    -0.237 OA
ATOM     49  O   UNL A   1      51.223  26.919  21.995  1.00  0.00    -0.237 OA
ATOM     50  O   UNL A   1      48.877  26.279  21.638  1.00  0.00    -0.744 OA
ENDBRANCH  44  47
ENDBRANCH  26  40
BRANCH  27  51
ATOM     51  C   UNL A   1      39.392  29.291  30.354  1.00  0.00     0.023 A 
ATOM     52  C   UNL A   1      39.085  28.676  31.582  1.00  0.00     0.012 A 
ATOM     53  C   UNL A   1      38.433  30.134  29.752  1.00  0.00     0.148 A 
ATOM     54  C   UNL A   1      37.836  28.862  32.180  1.00  0.00     0.002 A 
ATOM     55  C   UNL A   1      37.205  30.345  30.370  1.00  0.00     0.091 A 
ATOM     56  F   UNL A   1      38.743  30.714  28.584  1.00  0.00    -0.205 F 
ATOM     57  C   UNL A   1      36.898  29.698  31.577  1.00  0.00     0.022 A 
BRANCH  55  58
ATOM     58  S   UNL A   1      35.969  31.473  29.717  1.00  0.00     0.127 S 
ATOM     59  O   UNL A   1      36.797  32.574  29.230  1.00  0.00    -0.237 OA
ATOM     60  O   UNL A   1      35.345  30.663  28.670  1.00  0.00    -0.237 OA
ATOM     61  O   UNL A   1      35.093  31.791  30.836  1.00  0.00    -0.744 OA
ENDBRANCH  55  58
ENDBRANCH  27  51
BRANCH  39  62
ATOM     62  C   UNL A   1      45.005  33.244  29.093  1.00  0.00     0.023 A 
ATOM     63  C   UNL A   1      45.576  33.583  30.334  1.00  0.00     0.012 A 
ATOM     64  C   UNL A   1      44.841  34.230  28.103  1.00  0.00     0.148 A 
ATOM     65  C   UNL A   1      45.962  34.895  30.592  1.00  0.00     0.002 A 
ATOM     66  C   UNL A   1      45.285  35.520  28.345  1.00  0.00     0.091 A 
ATOM     67  F   UNL A   1      44.272  33.881  26.940  1.00  0.00    -0.205 F 
ATOM     68  C   UNL A   1      45.833  35.858  29.593  1.00  0.00     0.022 A 
BRANCH  66  69
ATOM     69  S   UNL A   1      45.269  36.786  27.073  1.00  0.00     0.127 S 
ATOM     70  O   UNL A   1      46.070  37.841  27.693  1.00  0.00    -0.237 OA
ATOM     71  O   UNL A   1      45.918  36.104  25.952  1.00  0.00    -0.237 OA
ATOM     72  O   UNL A   1      43.868  37.113  26.848  1.00  0.00    -0.744 OA
ENDBRANCH  66  69
ENDBRANCH  39  62
ENDBRANCH  13  14
ENDBRANCH   6   8
ENDBRANCH   5   6
ENDBRANCH   4   5
ENDBRANCH   3   4
ENDBRANCH   2   3
ENDBRANCH   1   2
BRANCH   1  73
ATOM     73  C   UNL A   1      37.207  21.234  24.598  1.00  0.00     0.188 C 
BRANCH  73  74
ATOM     74  O   UNL A   1      35.486  22.160  24.122  1.00  0.00    -0.376 OA
BRANCH  74  75
ATOM     75  C   UNL A   1      34.681  23.003  23.011  1.00  0.00     0.202 C 
BRANCH  75  76
ATOM     76  C   UNL A   1      33.567  24.096  23.325  1.00  0.00     0.261 C 
BRANCH  76  77
ATOM     77  O   UNL A   1      34.148  25.401  23.432  1.00  0.00    -0.463 OA
BRANCH  77  78
ATOM     78  C   UNL A   1      33.817  26.443  24.214  1.00  0.00     0.309 C 
ATOM     79  O   UNL A   1      33.966  27.545  23.670  1.00  0.00    -0.252 OA
BRANCH  78  80
ATOM     80  C   UNL A   1      33.179  26.390  25.658  1.00  0.00     0.111 C 
ATOM     81  C   UNL A   1      33.922  27.542  26.461  1.00  0.00     0.016 C 
ATOM     82  C   UNL A   1      31.691  26.381  26.222  1.00  0.00     0.093 C 
ATOM     83  C   UNL A   1      33.299  28.924  26.265  1.00  0.00     0.001 C 
ATOM     84  C   UNL A   1      31.064  27.717  26.760  1.00  0.00     0.014 C 
ATOM     85  C   UNL A   1      31.927  28.970  26.917  1.00  0.00     0.001 C 
BRANCH  82  86
ATOM     86  C   UNL A   1      30.479  25.555  25.736  1.00  0.00     0.228 C 
ATOM     87  O   UNL A   1      29.978  24.731  26.510  1.00  0.00    -0.274 OA
ATOM     88  N   UNL A   1      29.674  25.707  24.676  1.00  0.00    -0.323 N 
ATOM     89  H   UNL A   1      29.235  24.889  24.349  1.00  0.00     0.170 HD
BRANCH  88  90
ATOM     90  C   UNL A   1      29.382  26.863  23.988  1.00  0.00     0.077 A 
ATOM     91  C   UNL A   1      30.703  27.801  23.124  1.00  0.00     0.031 A 
ATOM     92  C   UNL A   1      27.685  27.479  23.865  1.00  0.00     0.148 A 
ATOM     93  C   UNL A   1      30.240  29.222  22.107  1.00  0.00     0.023 A 
ATOM     94  C   UNL A   1      27.266  28.886  22.895  1.00  0.00     0.062 A 
ATOM     95  F   UNL A   1      26.681  26.890  24.443  1.00  0.00    -0.205 F 
ATOM     96  C   UNL A   1      28.533  29.753  22.038  1.00  0.00     0.044 A 
ATOM     97  Cl  UNL A   1      28.068  31.116  21.103  1.00  0.00    -0.084 Cl
ENDBRANCH  88  90
ENDBRANCH  82  86
ENDBRANCH  78  80
ENDBRANCH  77  78
ENDBRANCH  76  77
ENDBRANCH  75  76
ENDBRANCH  74  75
ENDBRANCH  73  74
ENDBRANCH   1  73
TORSDOF 22
ENDMDL
MODEL 2
REMARK VINA RESULT:     -11.9      1.618      2.424
REMARK SMILES O=C(OCCOCCOCCOC(=O)[C@H]1CCCC[C@H]1C(=O)Nc1ccc(Cl)cc1F)c1ccc(-c2c3nc(c(-c4cccc(S(=O)(=O)[O-])c4F)c4ccc([nH]4)c(-c4cccc(S(=O)(=O)[O-])c4F)c4nc(c(-c5cccc(S(=O)(=O)[O-])c5F)c5ccc2[nH]5)C=C4)C=C3)cc1
REMARK SMILES IDX 7 1 6 2 5 3 4 4 3 5 2 6 1 7 32 8 33 9 94 10 34 11 93 12
REMARK SMILES IDX 35 13 36 14 37 15 87 16 38 17 92 18 86 19 88 20 39 21 91 22
REMARK SMILES IDX 85 23 84 24 40 26 72 27 52 28 71 29 53 30 56 31 70 32 89 33
REMARK SMILES IDX 54 34 55 35 69 37 90 38 57 39 41 40 42 41 50 42 43 43 45 44
REMARK SMILES IDX 51 45 44 46 46 47 47 48 48 49 49 50 73 51 74 52 82 53 75 54
REMARK SMILES IDX 77 55 83 56 76 57 78 58 79 59 80 60 81 61 58 62 59 63 67 64
REMARK SMILES IDX 60 65 62 66 68 67 61 68 63 69 64 70 65 71 66 72 8 73 9 74
REMARK SMILES IDX 10 75 11 76 12 77 13 78 14 79 15 80 16 81 20 82 17 83 19 84
REMARK SMILES IDX 18 85 21 86 22 87 23 88 24 90 25 91 30 92 26 93 29 94 31 95
REMARK SMILES IDX 27 96 28 97
REMARK H PARENT 88 25 56 36 23 89
REMARK Flexibility Score: inf
ROOT
ATOM      1  C   UNL A   1      39.727  21.706  26.188  1.00  0.00     0.188 C 
ENDROOT
BRANCH   1   2
ATOM      2  O   UNL A   1      40.328  20.929  27.233  1.00  0.00    -0.376 OA
BRANCH   2   3
ATOM      3  C   UNL A   1      40.594  19.547  26.961  1.00  0.00     0.202 C 
BRANCH   3   4
ATOM      4  C   UNL A   1      41.483  19.227  25.756  1.00  0.00     0.261 C 
BRANCH   4   5
ATOM      5  O   UNL A   1      42.888  19.317  26.016  1.00  0.00    -0.460 OA
BRANCH   5   6
ATOM      6  C   UNL A   1      43.540  20.216  25.240  1.00  0.00     0.338 C 
ATOM      7  O   UNL A   1      44.188  19.924  24.251  1.00  0.00    -0.246 OA
BRANCH   6   8
ATOM      8  C   UNL A   1      43.387  21.577  25.825  1.00  0.00     0.060 A 
ATOM      9  C   UNL A   1      43.055  22.674  25.012  1.00  0.00     0.016 A 
ATOM     10  C   UNL A   1      43.465  21.735  27.211  1.00  0.00     0.016 A 
ATOM     11  C   UNL A   1      42.718  23.894  25.582  1.00  0.00     0.010 A 
ATOM     12  C   UNL A   1      43.218  22.989  27.781  1.00  0.00     0.010 A 
ATOM     13  C   UNL A   1      42.850  24.074  26.966  1.00  0.00    -0.014 A 
BRANCH  13  14
ATOM     14  C   UNL A   1      43.020  25.471  27.427  1.00  0.00     0.031 A 
ATOM     15  C   UNL A   1      44.396  26.024  27.211  1.00  0.00     0.074 A 
ATOM     16  C   UNL A   1      42.042  26.258  27.911  1.00  0.00     0.049 A 
ATOM     17  N   UNL A   1      44.772  27.268  27.149  1.00  0.00    -0.248 NA
ATOM     18  C   UNL A   1      45.464  25.048  26.914  1.00  0.00     0.031 C 
ATOM     19  C   UNL A   1      40.655  25.884  28.105  1.00  0.00     0.029 A 
ATOM     20  N   UNL A   1      42.070  27.558  28.344  1.00  0.00    -0.354 N 
ATOM     21  C   UNL A   1      46.085  27.222  26.712  1.00  0.00     0.074 A 
ATOM     22  C   UNL A   1      46.453  25.838  26.539  1.00  0.00     0.031 C 
ATOM     23  C   UNL A   1      39.970  26.874  28.689  1.00  0.00     0.029 A 
ATOM     24  C   UNL A   1      40.877  27.988  28.880  1.00  0.00     0.049 A 
ATOM     25  H   UNL A   1      42.867  28.131  28.276  1.00  0.00     0.167 HD
ATOM     26  C   UNL A   1      46.915  28.257  26.474  1.00  0.00     0.034 A 
ATOM     27  C   UNL A   1      40.545  29.157  29.451  1.00  0.00     0.034 A 
ATOM     28  C   UNL A   1      46.602  29.599  26.857  1.00  0.00     0.049 A 
ATOM     29  C   UNL A   1      41.566  30.250  29.394  1.00  0.00     0.074 A 
ATOM     30  C   UNL A   1      47.401  30.720  26.795  1.00  0.00     0.029 A 
ATOM     31  N   UNL A   1      45.412  29.973  27.469  1.00  0.00    -0.354 N 
ATOM     32  N   UNL A   1      42.745  30.237  28.818  1.00  0.00    -0.248 NA
ATOM     33  C   UNL A   1      41.199  31.533  30.000  1.00  0.00     0.031 C 
ATOM     34  C   UNL A   1      46.717  31.762  27.433  1.00  0.00     0.029 A 
ATOM     35  C   UNL A   1      45.471  31.301  27.840  1.00  0.00     0.049 A 
ATOM     36  H   UNL A   1      44.642  29.379  27.617  1.00  0.00     0.167 HD
ATOM     37  C   UNL A   1      43.245  31.521  28.948  1.00  0.00     0.074 A 
ATOM     38  C   UNL A   1      42.233  32.287  29.654  1.00  0.00     0.031 C 
ATOM     39  C   UNL A   1      44.428  32.026  28.520  1.00  0.00     0.034 A 
BRANCH  26  40
ATOM     40  C   UNL A   1      48.234  27.910  25.860  1.00  0.00     0.023 A 
ATOM     41  C   UNL A   1      49.377  27.818  26.683  1.00  0.00     0.012 A 
ATOM     42  C   UNL A   1      48.366  27.787  24.466  1.00  0.00     0.148 A 
ATOM     43  C   UNL A   1      50.640  27.641  26.120  1.00  0.00     0.002 A 
ATOM     44  C   UNL A   1      49.623  27.582  23.916  1.00  0.00     0.091 A 
ATOM     45  F   UNL A   1      47.271  27.936  23.708  1.00  0.00    -0.205 F 
ATOM     46  C   UNL A   1      50.762  27.520  24.738  1.00  0.00     0.022 A 
BRANCH  44  47
ATOM     47  S   UNL A   1      49.883  27.400  22.151  1.00  0.00     0.127 S 
ATOM     48  O   UNL A   1      51.289  26.999  22.100  1.00  0.00    -0.237 OA
ATOM     49  O   UNL A   1      48.932  26.341  21.813  1.00  0.00    -0.237 OA
ATOM     50  O   UNL A   1      49.585  28.698  21.564  1.00  0.00    -0.744 OA
ENDBRANCH  44  47
ENDBRANCH  26  40
BRANCH  27  51
ATOM     51  C   UNL A   1      39.192  29.359  30.043  1.00  0.00     0.023 A 
ATOM     52  C   UNL A   1      38.910  28.872  31.333  1.00  0.00     0.012 A 
ATOM     53  C   UNL A   1      38.183  30.048  29.337  1.00  0.00     0.148 A 
ATOM     54  C   UNL A   1      37.640  29.031  31.894  1.00  0.00     0.002 A 
ATOM     55  C   UNL A   1      36.932  30.235  29.914  1.00  0.00     0.091 A 
ATOM     56  F   UNL A   1      38.468  30.508  28.110  1.00  0.00    -0.205 F 
ATOM     57  C   UNL A   1      36.653  29.714  31.187  1.00  0.00     0.022 A 
BRANCH  55  58
ATOM     58  S   UNL A   1      35.625  31.180  29.120  1.00  0.00     0.127 S 
ATOM     59  O   UNL A   1      34.732  30.121  28.655  1.00  0.00    -0.237 OA
ATOM     60  O   UNL A   1      35.109  31.975  30.234  1.00  0.00    -0.237 OA
ATOM     61  O   UNL A   1      36.279  31.957  28.076  1.00  0.00    -0.744 OA
ENDBRANCH  55  58
ENDBRANCH  27  51
BRANCH  39  62
ATOM     62  C   UNL A   1      44.685  33.479  28.786  1.00  0.00     0.023 A 
ATOM     63  C   UNL A   1      44.278  34.447  27.849  1.00  0.00     0.012 A 
ATOM     64  C   UNL A   1      45.227  33.880  30.021  1.00  0.00     0.148 A 
ATOM     65  C   UNL A   1      44.427  35.802  28.132  1.00  0.00     0.002 A 
ATOM     66  C   UNL A   1      45.315  35.231  30.320  1.00  0.00     0.091 A 
ATOM     67  F   UNL A   1      45.627  32.935  30.882  1.00  0.00    -0.205 F 
ATOM     68  C   UNL A   1      44.928  36.193  29.373  1.00  0.00     0.022 A 
BRANCH  66  69
ATOM     69  S   UNL A   1      45.831  35.815  31.936  1.00  0.00     0.127 S 
ATOM     70  O   UNL A   1      44.849  35.175  32.811  1.00  0.00    -0.237 OA
ATOM     71  O   UNL A   1      47.187  35.274  32.042  1.00  0.00    -0.237 OA
ATOM     72  O   UNL A   1      45.765  37.269  31.878  1.00  0.00    -0.744 OA
ENDBRANCH  66  69
ENDBRANCH  39  62
ENDBRANCH  13  14
ENDBRANCH   6   8
ENDBRANCH   5   6
ENDBRANCH   4   5
ENDBRANCH   3   4
ENDBRANCH   2   3
ENDBRANCH   1   2
BRANCH   1  73
ATOM     73  C   UNL A   1      38.842  23.144  26.537  1.00  0.00     0.188 C 
BRANCH  73  74
ATOM     74  O   UNL A   1      37.237  23.993  25.671  1.00  0.00    -0.376 OA
BRANCH  74  75
ATOM     75  C   UNL A   1      35.836  23.749  24.915  1.00  0.00     0.202 C 
BRANCH  75  76
ATOM     76  C   UNL A   1      34.730  24.865  24.664  1.00  0.00     0.261 C 
BRANCH  76  77
ATOM     77  O   UNL A   1      34.046  24.636  23.426  1.00  0.00    -0.463 OA
BRANCH  77  78
ATOM     78  C   UNL A   1      32.740  24.725  23.120  1.00  0.00     0.309 C 
ATOM     79  O   UNL A   1      32.473  25.630  22.319  1.00  0.00    -0.252 OA
BRANCH  78  80
ATOM     80  C   UNL A   1      31.581  23.756  23.582  1.00  0.00     0.111 C 
ATOM     81  C   UNL A   1      31.828  22.421  22.759  1.00  0.00     0.016 C 
ATOM     82  C   UNL A   1      31.020  23.280  24.993  1.00  0.00     0.093 C 
ATOM     83  C   UNL A   1      32.840  21.478  23.412  1.00  0.00     0.001 C 
ATOM     84  C   UNL A   1      31.459  21.882  25.564  1.00  0.00     0.014 C 
ATOM     85  C   UNL A   1      32.262  20.910  24.697  1.00  0.00     0.001 C 
BRANCH  82  86
ATOM     86  C   UNL A   1      30.713  24.128  26.248  1.00  0.00     0.228 C 
ATOM     87  O   UNL A   1      31.211  23.787  27.327  1.00  0.00    -0.274 OA
ATOM     88  N   UNL A   1      30.172  25.345  26.380  1.00  0.00    -0.323 N 
ATOM     89  H   UNL A   1      29.723  25.526  27.237  1.00  0.00     0.170 HD
BRANCH  88  90
ATOM     90  C   UNL A   1      30.164  26.377  25.469  1.00  0.00     0.077 A 
ATOM     91  C   UNL A   1      31.594  27.522  25.335  1.00  0.00     0.031 A 
ATOM     92  C   UNL A   1      28.773  26.621  24.336  1.00  0.00     0.148 A 
ATOM     93  C   UNL A   1      31.598  28.760  24.018  1.00  0.00     0.023 A 
ATOM     94  C   UNL A   1      28.789  27.857  23.085  1.00  0.00     0.062 A 
ATOM     95  F   UNL A   1      27.714  25.868  24.354  1.00  0.00    -0.205 F 
ATOM     96  C   UNL A   1      30.181  28.922  22.938  1.00  0.00     0.044 A 
ATOM     97  Cl  UNL A   1      30.145  30.107  21.696  1.00  0.00    -0.084 Cl
ENDBRANCH  88  90
ENDBRANCH  82  86
ENDBRANCH  78  80
ENDBRANCH  77  78
ENDBRANCH  76  77
ENDBRANCH  75  76
ENDBRANCH  74  75
ENDBRANCH  73  74
ENDBRANCH   1  73
TORSDOF 22
ENDMDL
MODEL 3
REMARK VINA RESULT:     -11.9      2.491      3.251
REMARK SMILES O=C(OCCOCCOCCOC(=O)[C@H]1CCCC[C@H]1C(=O)Nc1ccc(Cl)cc1F)c1ccc(-c2c3nc(c(-c4cccc(S(=O)(=O)[O-])c4F)c4ccc([nH]4)c(-c4cccc(S(=O)(=O)[O-])c4F)c4nc(c(-c5cccc(S(=O)(=O)[O-])c5F)c5ccc2[nH]5)C=C4)C=C3)cc1
REMARK SMILES IDX 7 1 6 2 5 3 4 4 3 5 2 6 1 7 32 8 33 9 94 10 34 11 93 12
REMARK SMILES IDX 35 13 36 14 37 15 87 16 38 17 92 18 86 19 88 20 39 21 91 22
REMARK SMILES IDX 85 23 84 24 40 26 72 27 52 28 71 29 53 30 56 31 70 32 89 33
REMARK SMILES IDX 54 34 55 35 69 37 90 38 57 39 41 40 42 41 50 42 43 43 45 44
REMARK SMILES IDX 51 45 44 46 46 47 47 48 48 49 49 50 73 51 74 52 82 53 75 54
REMARK SMILES IDX 77 55 83 56 76 57 78 58 79 59 80 60 81 61 58 62 59 63 67 64
REMARK SMILES IDX 60 65 62 66 68 67 61 68 63 69 64 70 65 71 66 72 8 73 9 74
REMARK SMILES IDX 10 75 11 76 12 77 13 78 14 79 15 80 16 81 20 82 17 83 19 84
REMARK SMILES IDX 18 85 21 86 22 87 23 88 24 90 25 91 30 92 26 93 29 94 31 95
REMARK SMILES IDX 27 96 28 97
REMARK H PARENT 88 25 56 36 23 89
REMARK Flexibility Score: inf
ROOT
ATOM      1  C   UNL A   1      39.294  21.805  26.232  1.00  0.00     0.188 C 
ENDROOT
BRANCH   1   2
ATOM      2  O   UNL A   1      40.252  20.932  25.618  1.00  0.00    -0.376 OA
BRANCH   2   3
ATOM      3  C   UNL A   1      40.487  19.664  26.243  1.00  0.00     0.202 C 
BRANCH   3   4
ATOM      4  C   UNL A   1      41.873  19.038  26.063  1.00  0.00     0.261 C 
BRANCH   4   5
ATOM      5  O   UNL A   1      42.633  19.582  24.978  1.00  0.00    -0.460 OA
BRANCH   5   6
ATOM      6  C   UNL A   1      43.831  20.098  25.344  1.00  0.00     0.338 C 
ATOM      7  O   UNL A   1      44.887  19.496  25.267  1.00  0.00    -0.246 OA
BRANCH   6   8
ATOM      8  C   UNL A   1      43.633  21.464  25.902  1.00  0.00     0.060 A 
ATOM      9  C   UNL A   1      43.587  22.585  25.056  1.00  0.00     0.016 A 
ATOM     10  C   UNL A   1      43.379  21.612  27.268  1.00  0.00     0.016 A 
ATOM     11  C   UNL A   1      43.204  23.824  25.551  1.00  0.00     0.010 A 
ATOM     12  C   UNL A   1      43.086  22.878  27.787  1.00  0.00     0.010 A 
ATOM     13  C   UNL A   1      43.005  23.989  26.930  1.00  0.00    -0.014 A 
BRANCH  13  14
ATOM     14  C   UNL A   1      43.151  25.369  27.447  1.00  0.00     0.031 A 
ATOM     15  C   UNL A   1      44.549  25.905  27.373  1.00  0.00     0.074 A 
ATOM     16  C   UNL A   1      42.145  26.157  27.866  1.00  0.00     0.049 A 
ATOM     17  N   UNL A   1      44.946  27.144  27.383  1.00  0.00    -0.248 NA
ATOM     18  C   UNL A   1      45.625  24.921  27.142  1.00  0.00     0.031 C 
ATOM     19  C   UNL A   1      40.742  25.801  27.923  1.00  0.00     0.029 A 
ATOM     20  N   UNL A   1      42.151  27.443  28.339  1.00  0.00    -0.354 N 
ATOM     21  C   UNL A   1      46.292  27.090  27.064  1.00  0.00     0.074 A 
ATOM     22  C   UNL A   1      46.655  25.705  26.881  1.00  0.00     0.031 C 
ATOM     23  C   UNL A   1      40.020  26.784  28.474  1.00  0.00     0.029 A 
ATOM     24  C   UNL A   1      40.921  27.876  28.780  1.00  0.00     0.049 A 
ATOM     25  H   UNL A   1      42.960  28.004  28.362  1.00  0.00     0.167 HD
ATOM     26  C   UNL A   1      47.155  28.117  26.934  1.00  0.00     0.034 A 
ATOM     27  C   UNL A   1      40.555  29.033  29.355  1.00  0.00     0.034 A 
ATOM     28  C   UNL A   1      46.827  29.452  27.330  1.00  0.00     0.049 A 
ATOM     29  C   UNL A   1      41.592  30.110  29.424  1.00  0.00     0.074 A 
ATOM     30  C   UNL A   1      47.644  30.561  27.374  1.00  0.00     0.029 A 
ATOM     31  N   UNL A   1      45.592  29.828  27.844  1.00  0.00    -0.354 N 
ATOM     32  N   UNL A   1      42.819  30.095  28.956  1.00  0.00    -0.248 NA
ATOM     33  C   UNL A   1      41.190  31.381  30.034  1.00  0.00     0.031 C 
ATOM     34  C   UNL A   1      46.920  31.595  27.980  1.00  0.00     0.029 A 
ATOM     35  C   UNL A   1      45.636  31.143  28.259  1.00  0.00     0.049 A 
ATOM     36  H   UNL A   1      44.803  29.242  27.903  1.00  0.00     0.167 HD
ATOM     37  C   UNL A   1      43.322  31.366  29.169  1.00  0.00     0.074 A 
ATOM     38  C   UNL A   1      42.262  32.127  29.806  1.00  0.00     0.031 C 
ATOM     39  C   UNL A   1      44.546  31.865  28.865  1.00  0.00     0.034 A 
BRANCH  26  40
ATOM     40  C   UNL A   1      48.519  27.767  26.430  1.00  0.00     0.023 A 
ATOM     41  C   UNL A   1      48.710  27.547  25.048  1.00  0.00     0.012 A 
ATOM     42  C   UNL A   1      49.579  27.545  27.325  1.00  0.00     0.148 A 
ATOM     43  C   UNL A   1      49.932  27.079  24.570  1.00  0.00     0.002 A 
ATOM     44  C   UNL A   1      50.802  27.107  26.837  1.00  0.00     0.091 A 
ATOM     45  F   UNL A   1      49.351  27.708  28.635  1.00  0.00    -0.205 F 
ATOM     46  C   UNL A   1      50.978  26.862  25.464  1.00  0.00     0.022 A 
BRANCH  44  47
ATOM     47  S   UNL A   1      52.213  26.811  27.903  1.00  0.00     0.127 S 
ATOM     48  O   UNL A   1      51.688  25.792  28.811  1.00  0.00    -0.237 OA
ATOM     49  O   UNL A   1      53.214  26.327  26.953  1.00  0.00    -0.237 OA
ATOM     50  O   UNL A   1      52.527  28.092  28.521  1.00  0.00    -0.744 OA
ENDBRANCH  44  47
ENDBRANCH  26  40
BRANCH  27  51
ATOM     51  C   UNL A   1      39.157  29.239  29.829  1.00  0.00     0.023 A 
ATOM     52  C   UNL A   1      38.797  28.865  31.137  1.00  0.00     0.012 A 
ATOM     53  C   UNL A   1      38.182  29.823  28.992  1.00  0.00     0.148 A 
ATOM     54  C   UNL A   1      37.486  29.029  31.590  1.00  0.00     0.002 A 
ATOM     55  C   UNL A   1      36.888  30.017  29.461  1.00  0.00     0.091 A 
ATOM     56  F   UNL A   1      38.543  30.177  27.750  1.00  0.00    -0.205 F 
ATOM     57  C   UNL A   1      36.533  29.607  30.755  1.00  0.00     0.022 A 
BRANCH  55  58
ATOM     58  S   UNL A   1      35.615  30.836  28.491  1.00  0.00     0.127 S 
ATOM     59  O   UNL A   1      34.775  31.420  29.534  1.00  0.00    -0.237 OA
ATOM     60  O   UNL A   1      36.398  31.800  27.719  1.00  0.00    -0.237 OA
ATOM     61  O   UNL A   1      34.992  29.788  27.693  1.00  0.00    -0.744 OA
ENDBRANCH  55  58
ENDBRANCH  27  51
BRANCH  39  62
ATOM     62  C   UNL A   1      44.797  33.304  29.199  1.00  0.00     0.023 A 
ATOM     63  C   UNL A   1      45.383  33.647  30.432  1.00  0.00     0.012 A 
ATOM     64  C   UNL A   1      44.554  34.300  28.235  1.00  0.00     0.148 A 
ATOM     65  C   UNL A   1      45.706  34.972  30.709  1.00  0.00     0.002 A 
ATOM     66  C   UNL A   1      44.935  35.607  28.495  1.00  0.00     0.091 A 
ATOM     67  F   UNL A   1      43.972  33.946  27.080  1.00  0.00    -0.205 F 
ATOM     68  C   UNL A   1      45.499  35.948  29.735  1.00  0.00     0.022 A 
BRANCH  66  69
ATOM     69  S   UNL A   1      44.818  36.896  27.251  1.00  0.00     0.127 S 
ATOM     70  O   UNL A   1      45.136  38.091  28.032  1.00  0.00    -0.237 OA
ATOM     71  O   UNL A   1      45.851  36.497  26.295  1.00  0.00    -0.237 OA
ATOM     72  O   UNL A   1      43.458  36.831  26.732  1.00  0.00    -0.744 OA
ENDBRANCH  66  69
ENDBRANCH  39  62
ENDBRANCH  13  14
ENDBRANCH   6   8
ENDBRANCH   5   6
ENDBRANCH   4   5
ENDBRANCH   3   4
ENDBRANCH   2   3
ENDBRANCH   1   2
BRANCH   1  73
ATOM     73  C   UNL A   1      37.698  21.968  25.601  1.00  0.00     0.188 C 
BRANCH  73  74
ATOM     74  O   UNL A   1      36.479  23.554  25.387  1.00  0.00    -0.376 OA
BRANCH  74  75
ATOM     75  C   UNL A   1      35.233  24.189  24.588  1.00  0.00     0.202 C 
BRANCH  75  76
ATOM     76  C   UNL A   1      34.795  23.786  23.112  1.00  0.00     0.261 C 
BRANCH  76  77
ATOM     77  O   UNL A   1      33.883  24.748  22.570  1.00  0.00    -0.463 OA
BRANCH  77  78
ATOM     78  C   UNL A   1      32.993  25.548  23.181  1.00  0.00     0.309 C 
ATOM     79  O   UNL A   1      31.911  25.644  22.586  1.00  0.00    -0.252 OA
BRANCH  78  80
ATOM     80  C   UNL A   1      33.151  26.260  24.583  1.00  0.00     0.111 C 
ATOM     81  C   UNL A   1      33.921  27.610  24.257  1.00  0.00     0.016 C 
ATOM     82  C   UNL A   1      32.154  26.623  25.769  1.00  0.00     0.093 C 
ATOM     83  C   UNL A   1      33.001  28.748  23.814  1.00  0.00     0.001 C 
ATOM     84  C   UNL A   1      31.591  28.086  25.881  1.00  0.00     0.014 C 
ATOM     85  C   UNL A   1      32.134  29.196  24.978  1.00  0.00     0.001 C 
BRANCH  82  86
ATOM     86  C   UNL A   1      31.066  25.741  26.421  1.00  0.00     0.228 C 
ATOM     87  O   UNL A   1      29.894  26.136  26.400  1.00  0.00    -0.274 OA
ATOM     88  N   UNL A   1      31.091  24.467  26.832  1.00  0.00    -0.323 N 
ATOM     89  H   UNL A   1      30.451  24.232  27.543  1.00  0.00     0.170 HD
BRANCH  88  90
ATOM     90  C   UNL A   1      31.896  23.444  26.386  1.00  0.00     0.077 A 
ATOM     91  C   UNL A   1      33.260  22.797  27.432  1.00  0.00     0.031 A 
ATOM     92  C   UNL A   1      31.619  22.664  24.776  1.00  0.00     0.148 A 
ATOM     93  C   UNL A   1      34.184  21.352  26.863  1.00  0.00     0.023 A 
ATOM     94  C   UNL A   1      32.557  21.279  24.231  1.00  0.00     0.062 A 
ATOM     95  F   UNL A   1      30.684  23.051  23.961  1.00  0.00    -0.205 F 
ATOM     96  C   UNL A   1      33.833  20.640  25.259  1.00  0.00     0.044 A 
ATOM     97  Cl  UNL A   1      34.714  19.284  24.680  1.00  0.00    -0.084 Cl
ENDBRANCH  88  90
ENDBRANCH  82  86
ENDBRANCH  78  80
ENDBRANCH  77  78
ENDBRANCH  76  77
ENDBRANCH  75  76
ENDBRANCH  74  75
ENDBRANCH  73  74
ENDBRANCH   1  73
TORSDOF 22
ENDMDL
