MODEL 1
REMARK VINA RESULT:     -10.9      0.000      0.000
REMARK SMILES Cc1cc(C(=O)N[C@](C)(C(=O)OCCOCCOCCOC(=O)c2ccc(-c3c4nc(c(-c5cccc(S(=O)(=O)[O-])c5F)c5ccc([nH]5)c(-c5cccc(S(=O)(=O)[O-])c5F)c5nc(c(-c6cccc(S(=O)(=O)[O-])c6F)c6ccc3[nH]6)C=C5)C=C4)cc2)C(F)(F)F)no1
REMARK SMILES IDX 17 1 16 2 15 3 14 4 13 5 12 6 10 7 11 8 8 9 9 10 7 11 5 12
REMARK SMILES IDX 6 13 4 15 1 16 2 17 3 18 92 19 91 20 87 21 88 22 89 23 90 24
REMARK SMILES IDX 18 25 19 26 20 27 21 28 22 29 23 30 24 31 25 32 86 33 26 34
REMARK SMILES IDX 85 35 27 36 28 37 29 38 79 39 30 40 84 41 78 42 80 43 31 44
REMARK SMILES IDX 83 45 77 46 76 47 32 49 64 50 44 51 63 52 45 53 48 54 62 55
REMARK SMILES IDX 81 56 46 57 47 58 61 60 82 61 49 62 33 63 34 64 42 65 35 66
REMARK SMILES IDX 37 67 43 68 36 69 38 70 39 71 40 72 41 73 65 74 66 75 74 76
REMARK SMILES IDX 67 77 69 78 75 79 68 80 70 81 71 82 72 83 73 84 50 85 51 86
REMARK SMILES IDX 59 87 52 88 54 89 60 90 53 91 55 92 56 93 57 94 58 95
REMARK H PARENT 7 14 80 48 48 59
REMARK Flexibility Score: inf
ROOT
ATOM      1  C   UNL A   1      33.945  20.941  24.949  1.00  0.00     0.188 C 
ENDROOT
BRANCH   1   2
ATOM      2  C   UNL A   1      32.456  20.836  25.348  1.00  0.00     0.188 C 
BRANCH   2   3
ATOM      3  O   UNL A   1      31.738  22.024  25.638  1.00  0.00    -0.376 OA
BRANCH   3   4
ATOM      4  C   UNL A   1      32.380  23.002  26.431  1.00  0.00     0.202 C 
BRANCH   4   5
ATOM      5  C   UNL A   1      32.754  24.323  25.767  1.00  0.00     0.261 C 
BRANCH   5   6
ATOM      6  O   UNL A   1      32.660  25.523  26.560  1.00  0.00    -0.461 OA
BRANCH   6   7
ATOM      7  C   UNL A   1      31.650  26.386  26.240  1.00  0.00     0.341 C 
ATOM      8  O   UNL A   1      30.465  26.076  26.247  1.00  0.00    -0.249 OA
BRANCH   7   9
ATOM      9  C   UNL A   1      32.157  27.728  25.711  1.00  0.00     0.231 C 
ATOM     10  C   UNL A   1      33.646  27.788  25.331  1.00  0.00     0.058 C 
BRANCH   9  11
ATOM     11  N   UNL A   1      31.341  28.190  24.536  1.00  0.00    -0.328 N 
ATOM     12  C   UNL A   1      31.581  28.066  23.185  1.00  0.00     0.274 C 
ATOM     13  O   UNL A   1      31.123  28.935  22.443  1.00  0.00    -0.267 OA
ATOM     14  H   UNL A   1      30.505  28.654  24.768  1.00  0.00     0.165 HD
BRANCH  12  15
ATOM     15  C   UNL A   1      32.284  26.897  22.668  1.00  0.00     0.171 A 
ATOM     16  C   UNL A   1      33.166  23.402  21.931  1.00  0.00     0.091 C 
ATOM     17  C   UNL A   1      32.870  24.842  22.088  1.00  0.00     0.134 A 
ATOM     18  C   UNL A   1      31.835  25.548  22.650  1.00  0.00     0.082 A 
ATOM     19  O   UNL A   1      33.847  25.714  21.717  1.00  0.00    -0.361 OA
ATOM     20  N   UNL A   1      33.483  27.002  22.072  1.00  0.00    -0.074 NA
ENDBRANCH  12  15
ENDBRANCH   9  11
BRANCH   9  21
ATOM     21  C   UNL A   1      31.955  28.660  26.930  1.00  0.00     0.422 C 
ATOM     22  F   UNL A   1      31.116  28.126  27.846  1.00  0.00    -0.168 F 
ATOM     23  F   UNL A   1      33.146  28.861  27.557  1.00  0.00    -0.168 F 
ATOM     24  F   UNL A   1      31.496  29.883  26.595  1.00  0.00    -0.168 F 
ENDBRANCH   9  21
ENDBRANCH   7   9
ENDBRANCH   6   7
ENDBRANCH   5   6
ENDBRANCH   4   5
ENDBRANCH   3   4
ENDBRANCH   2   3
ENDBRANCH   1   2
BRANCH   1  25
ATOM     25  O   UNL A   1      34.629  19.711  24.757  1.00  0.00    -0.376 OA
BRANCH  25  26
ATOM     26  C   UNL A   1      36.051  19.785  24.849  1.00  0.00     0.202 C 
BRANCH  26  27
ATOM     27  C   UNL A   1      36.605  21.056  25.510  1.00  0.00     0.261 C 
BRANCH  27  28
ATOM     28  O   UNL A   1      37.922  21.444  25.085  1.00  0.00    -0.460 OA
BRANCH  28  29
ATOM     29  C   UNL A   1      38.973  21.049  25.845  1.00  0.00     0.338 C 
ATOM     30  O   UNL A   1      39.471  19.947  25.885  1.00  0.00    -0.246 OA
BRANCH  29  31
ATOM     31  C   UNL A   1      39.583  22.283  26.403  1.00  0.00     0.060 A 
ATOM     32  C   UNL A   1      39.050  23.525  26.022  1.00  0.00     0.016 A 
ATOM     33  C   UNL A   1      40.587  22.214  27.372  1.00  0.00     0.016 A 
ATOM     34  C   UNL A   1      39.529  24.700  26.604  1.00  0.00     0.010 A 
ATOM     35  C   UNL A   1      41.094  23.393  27.922  1.00  0.00     0.010 A 
ATOM     36  C   UNL A   1      40.590  24.641  27.517  1.00  0.00    -0.014 A 
BRANCH  36  37
ATOM     37  C   UNL A   1      41.377  25.864  27.797  1.00  0.00     0.031 A 
ATOM     38  C   UNL A   1      40.673  26.967  28.542  1.00  0.00     0.074 A 
ATOM     39  C   UNL A   1      42.652  26.018  27.397  1.00  0.00     0.049 A 
ATOM     40  N   UNL A   1      41.101  28.155  28.871  1.00  0.00    -0.248 NA
ATOM     41  C   UNL A   1      39.288  26.687  28.968  1.00  0.00     0.031 C 
ATOM     42  C   UNL A   1      43.449  25.023  26.684  1.00  0.00     0.029 A 
ATOM     43  N   UNL A   1      43.490  27.099  27.517  1.00  0.00    -0.354 N 
ATOM     44  C   UNL A   1      40.039  28.767  29.526  1.00  0.00     0.074 A 
ATOM     45  C   UNL A   1      38.941  27.828  29.536  1.00  0.00     0.031 C 
ATOM     46  C   UNL A   1      44.654  25.553  26.400  1.00  0.00     0.029 A 
ATOM     47  C   UNL A   1      44.704  26.931  26.890  1.00  0.00     0.049 A 
ATOM     48  H   UNL A   1      43.247  27.919  28.005  1.00  0.00     0.167 HD
ATOM     49  C   UNL A   1      39.980  29.997  30.083  1.00  0.00     0.034 A 
ATOM     50  C   UNL A   1      45.721  27.801  26.718  1.00  0.00     0.034 A 
ATOM     51  C   UNL A   1      41.062  30.938  30.065  1.00  0.00     0.049 A 
ATOM     52  C   UNL A   1      45.610  29.191  27.301  1.00  0.00     0.074 A 
ATOM     53  C   UNL A   1      41.108  32.205  30.612  1.00  0.00     0.029 A 
ATOM     54  N   UNL A   1      42.285  30.718  29.451  1.00  0.00    -0.354 N 
ATOM     55  N   UNL A   1      44.644  29.716  28.018  1.00  0.00    -0.248 NA
ATOM     56  C   UNL A   1      46.745  30.101  27.075  1.00  0.00     0.031 C 
ATOM     57  C   UNL A   1      42.354  32.764  30.308  1.00  0.00     0.029 A 
ATOM     58  C   UNL A   1      43.092  31.831  29.597  1.00  0.00     0.049 A 
ATOM     59  H   UNL A   1      42.541  29.892  28.978  1.00  0.00     0.167 HD
ATOM     60  C   UNL A   1      45.072  30.995  28.361  1.00  0.00     0.074 A 
ATOM     61  C   UNL A   1      46.392  31.161  27.789  1.00  0.00     0.031 C 
ATOM     62  C   UNL A   1      44.429  31.953  29.075  1.00  0.00     0.034 A 
BRANCH  49  63
ATOM     63  C   UNL A   1      38.700  30.380  30.771  1.00  0.00     0.023 A 
ATOM     64  C   UNL A   1      38.503  30.021  32.121  1.00  0.00     0.012 A 
ATOM     65  C   UNL A   1      37.704  31.108  30.095  1.00  0.00     0.148 A 
ATOM     66  C   UNL A   1      37.322  30.356  32.778  1.00  0.00     0.002 A 
ATOM     67  C   UNL A   1      36.547  31.477  30.770  1.00  0.00     0.091 A 
ATOM     68  F   UNL A   1      37.898  31.409  28.803  1.00  0.00    -0.205 F 
ATOM     69  C   UNL A   1      36.350  31.093  32.106  1.00  0.00     0.022 A 
BRANCH  67  70
ATOM     70  S   UNL A   1      35.267  32.484  30.016  1.00  0.00     0.127 S 
ATOM     71  O   UNL A   1      34.814  31.619  28.928  1.00  0.00    -0.237 OA
ATOM     72  O   UNL A   1      34.311  32.637  31.113  1.00  0.00    -0.237 OA
ATOM     73  O   UNL A   1      35.919  33.719  29.601  1.00  0.00    -0.744 OA
ENDBRANCH  67  70
ENDBRANCH  49  63
BRANCH  50  74
ATOM     74  C   UNL A   1      46.955  27.390  25.985  1.00  0.00     0.023 A 
ATOM     75  C   UNL A   1      47.983  26.723  26.680  1.00  0.00     0.012 A 
ATOM     76  C   UNL A   1      47.129  27.678  24.617  1.00  0.00     0.148 A 
ATOM     77  C   UNL A   1      49.174  26.381  26.037  1.00  0.00     0.002 A 
ATOM     78  C   UNL A   1      48.296  27.288  23.969  1.00  0.00     0.091 A 
ATOM     79  F   UNL A   1      46.152  28.335  23.978  1.00  0.00    -0.205 F 
ATOM     80  C   UNL A   1      49.328  26.655  24.680  1.00  0.00     0.022 A 
BRANCH  78  81
ATOM     81  S   UNL A   1      48.537  27.503  22.202  1.00  0.00     0.127 S 
ATOM     82  O   UNL A   1      49.730  28.345  22.162  1.00  0.00    -0.237 OA
ATOM     83  O   UNL A   1      48.742  26.124  21.756  1.00  0.00    -0.237 OA
ATOM     84  O   UNL A   1      47.312  28.118  21.710  1.00  0.00    -0.744 OA
ENDBRANCH  78  81
ENDBRANCH  50  74
BRANCH  62  85
ATOM     85  C   UNL A   1      45.148  33.253  29.326  1.00  0.00     0.023 A 
ATOM     86  C   UNL A   1      45.962  33.398  30.466  1.00  0.00     0.012 A 
ATOM     87  C   UNL A   1      45.090  34.297  28.381  1.00  0.00     0.148 A 
ATOM     88  C   UNL A   1      46.684  34.574  30.677  1.00  0.00     0.002 A 
ATOM     89  C   UNL A   1      45.850  35.444  28.572  1.00  0.00     0.091 A 
ATOM     90  F   UNL A   1      44.298  34.146  27.308  1.00  0.00    -0.205 F 
ATOM     91  C   UNL A   1      46.638  35.589  29.725  1.00  0.00     0.022 A 
BRANCH  89  92
ATOM     92  S   UNL A   1      45.932  36.759  27.350  1.00  0.00     0.127 S 
ATOM     93  O   UNL A   1      46.365  36.032  26.158  1.00  0.00    -0.237 OA
ATOM     94  O   UNL A   1      44.547  37.232  27.307  1.00  0.00    -0.237 OA
ATOM     95  O   UNL A   1      46.884  37.731  27.869  1.00  0.00    -0.744 OA
ENDBRANCH  89  92
ENDBRANCH  62  85
ENDBRANCH  36  37
ENDBRANCH  29  31
ENDBRANCH  28  29
ENDBRANCH  27  28
ENDBRANCH  26  27
ENDBRANCH  25  26
ENDBRANCH   1  25
TORSDOF 23
ENDMDL
MODEL 2
REMARK VINA RESULT:     -10.3      1.181      7.496
REMARK SMILES Cc1cc(C(=O)N[C@](C)(C(=O)OCCOCCOCCOC(=O)c2ccc(-c3c4nc(c(-c5cccc(S(=O)(=O)[O-])c5F)c5ccc([nH]5)c(-c5cccc(S(=O)(=O)[O-])c5F)c5nc(c(-c6cccc(S(=O)(=O)[O-])c6F)c6ccc3[nH]6)C=C5)C=C4)cc2)C(F)(F)F)no1
REMARK SMILES IDX 17 1 16 2 15 3 14 4 13 5 12 6 10 7 11 8 8 9 9 10 7 11 5 12
REMARK SMILES IDX 6 13 4 15 1 16 2 17 3 18 92 19 91 20 87 21 88 22 89 23 90 24
REMARK SMILES IDX 18 25 19 26 20 27 21 28 22 29 23 30 24 31 25 32 86 33 26 34
REMARK SMILES IDX 85 35 27 36 28 37 29 38 79 39 30 40 84 41 78 42 80 43 31 44
REMARK SMILES IDX 83 45 77 46 76 47 32 49 64 50 44 51 63 52 45 53 48 54 62 55
REMARK SMILES IDX 81 56 46 57 47 58 61 60 82 61 49 62 33 63 34 64 42 65 35 66
REMARK SMILES IDX 37 67 43 68 36 69 38 70 39 71 40 72 41 73 65 74 66 75 74 76
REMARK SMILES IDX 67 77 69 78 75 79 68 80 70 81 71 82 72 83 73 84 50 85 51 86
REMARK SMILES IDX 59 87 52 88 54 89 60 90 53 91 55 92 56 93 57 94 58 95
REMARK H PARENT 7 14 80 48 48 59
REMARK Flexibility Score: inf
ROOT
ATOM      1  C   UNL A   1      34.907  21.418  24.992  1.00  0.00     0.188 C 
ENDROOT
BRANCH   1   2
ATOM      2  C   UNL A   1      33.424  21.340  25.417  1.00  0.00     0.188 C 
BRANCH   2   3
ATOM      3  O   UNL A   1      32.845  22.443  26.093  1.00  0.00    -0.376 OA
BRANCH   3   4
ATOM      4  C   UNL A   1      33.710  23.467  26.541  1.00  0.00     0.202 C 
BRANCH   4   5
ATOM      5  C   UNL A   1      33.822  24.727  25.690  1.00  0.00     0.261 C 
BRANCH   5   6
ATOM      6  O   UNL A   1      33.537  25.991  26.322  1.00  0.00    -0.461 OA
BRANCH   6   7
ATOM      7  C   UNL A   1      32.280  26.493  26.139  1.00  0.00     0.341 C 
ATOM      8  O   UNL A   1      31.258  25.832  26.280  1.00  0.00    -0.249 OA
BRANCH   7   9
ATOM      9  C   UNL A   1      32.281  27.915  25.578  1.00  0.00     0.231 C 
ATOM     10  C   UNL A   1      33.614  28.416  24.999  1.00  0.00     0.058 C 
BRANCH   9  11
ATOM     11  N   UNL A   1      31.209  28.089  24.538  1.00  0.00    -0.328 N 
ATOM     12  C   UNL A   1      31.234  27.828  23.186  1.00  0.00     0.274 C 
ATOM     13  O   UNL A   1      30.511  28.511  22.460  1.00  0.00    -0.267 OA
ATOM     14  H   UNL A   1      30.355  28.444  24.876  1.00  0.00     0.165 HD
BRANCH  12  15
ATOM     15  C   UNL A   1      32.034  26.725  22.665  1.00  0.00     0.171 A 
ATOM     16  C   UNL A   1      33.272  23.324  22.005  1.00  0.00     0.091 C 
ATOM     17  C   UNL A   1      32.819  24.726  22.126  1.00  0.00     0.134 A 
ATOM     18  C   UNL A   1      31.748  25.333  22.735  1.00  0.00     0.082 A 
ATOM     19  O   UNL A   1      33.657  25.685  21.649  1.00  0.00    -0.361 OA
ATOM     20  N   UNL A   1      33.168  26.938  21.978  1.00  0.00    -0.074 NA
ENDBRANCH  12  15
ENDBRANCH   9  11
BRANCH   9  21
ATOM     21  C   UNL A   1      31.978  28.766  26.836  1.00  0.00     0.422 C 
ATOM     22  F   UNL A   1      31.027  28.201  27.615  1.00  0.00    -0.168 F 
ATOM     23  F   UNL A   1      33.099  28.873  27.599  1.00  0.00    -0.168 F 
ATOM     24  F   UNL A   1      31.598  30.026  26.548  1.00  0.00    -0.168 F 
ENDBRANCH   9  21
ENDBRANCH   7   9
ENDBRANCH   6   7
ENDBRANCH   5   6
ENDBRANCH   4   5
ENDBRANCH   3   4
ENDBRANCH   2   3
ENDBRANCH   1   2
BRANCH   1  25
ATOM     25  O   UNL A   1      35.564  20.176  24.782  1.00  0.00    -0.376 OA
BRANCH  25  26
ATOM     26  C   UNL A   1      36.989  20.228  24.819  1.00  0.00     0.202 C 
BRANCH  26  27
ATOM     27  C   UNL A   1      37.587  21.289  25.756  1.00  0.00     0.261 C 
BRANCH  27  28
ATOM     28  O   UNL A   1      38.931  21.695  25.445  1.00  0.00    -0.460 OA
BRANCH  28  29
ATOM     29  C   UNL A   1      39.868  21.577  26.419  1.00  0.00     0.338 C 
ATOM     30  O   UNL A   1      40.546  20.607  26.665  1.00  0.00    -0.246 OA
BRANCH  29  31
ATOM     31  C   UNL A   1      40.112  22.946  26.942  1.00  0.00     0.060 A 
ATOM     32  C   UNL A   1      39.280  23.989  26.503  1.00  0.00     0.016 A 
ATOM     33  C   UNL A   1      41.069  23.177  27.933  1.00  0.00     0.016 A 
ATOM     34  C   UNL A   1      39.412  25.267  27.049  1.00  0.00     0.010 A 
ATOM     35  C   UNL A   1      41.229  24.465  28.448  1.00  0.00     0.010 A 
ATOM     36  C   UNL A   1      40.424  25.520  27.985  1.00  0.00    -0.014 A 
BRANCH  36  37
ATOM     37  C   UNL A   1      40.850  26.917  28.235  1.00  0.00     0.031 A 
ATOM     38  C   UNL A   1      42.290  27.248  27.944  1.00  0.00     0.074 A 
ATOM     39  C   UNL A   1      40.019  27.858  28.720  1.00  0.00     0.049 A 
ATOM     40  N   UNL A   1      42.939  28.367  28.118  1.00  0.00    -0.248 NA
ATOM     41  C   UNL A   1      43.110  26.157  27.382  1.00  0.00     0.031 C 
ATOM     42  C   UNL A   1      38.604  27.670  29.027  1.00  0.00     0.029 A 
ATOM     43  N   UNL A   1      40.269  29.163  29.064  1.00  0.00    -0.354 N 
ATOM     44  C   UNL A   1      44.241  28.111  27.704  1.00  0.00     0.074 A 
ATOM     45  C   UNL A   1      44.297  26.730  27.284  1.00  0.00     0.031 C 
ATOM     46  C   UNL A   1      38.116  28.812  29.547  1.00  0.00     0.029 A 
ATOM     47  C   UNL A   1      39.190  29.803  29.630  1.00  0.00     0.049 A 
ATOM     48  H   UNL A   1      41.139  29.602  28.920  1.00  0.00     0.167 HD
ATOM     49  C   UNL A   1      45.299  28.951  27.664  1.00  0.00     0.034 A 
ATOM     50  C   UNL A   1      39.096  31.036  30.170  1.00  0.00     0.034 A 
ATOM     51  C   UNL A   1      45.253  30.319  28.092  1.00  0.00     0.049 A 
ATOM     52  C   UNL A   1      40.309  31.938  30.165  1.00  0.00     0.074 A 
ATOM     53  C   UNL A   1      46.267  31.258  28.079  1.00  0.00     0.029 A 
ATOM     54  N   UNL A   1      44.135  30.938  28.627  1.00  0.00    -0.354 N 
ATOM     55  N   UNL A   1      41.502  31.722  29.664  1.00  0.00    -0.248 NA
ATOM     56  C   UNL A   1      40.151  33.269  30.775  1.00  0.00     0.031 C 
ATOM     57  C   UNL A   1      45.767  32.442  28.631  1.00  0.00     0.029 A 
ATOM     58  C   UNL A   1      44.435  32.247  28.958  1.00  0.00     0.049 A 
ATOM     59  H   UNL A   1      43.257  30.510  28.754  1.00  0.00     0.167 HD
ATOM     60  C   UNL A   1      42.220  32.898  29.861  1.00  0.00     0.074 A 
ATOM     61  C   UNL A   1      41.323  33.831  30.511  1.00  0.00     0.031 C 
ATOM     62  C   UNL A   1      43.508  33.181  29.545  1.00  0.00     0.034 A 
BRANCH  49  63
ATOM     63  C   UNL A   1      46.590  28.405  27.121  1.00  0.00     0.023 A 
ATOM     64  C   UNL A   1      47.620  28.041  28.013  1.00  0.00     0.012 A 
ATOM     65  C   UNL A   1      46.778  28.234  25.736  1.00  0.00     0.148 A 
ATOM     66  C   UNL A   1      48.828  27.542  27.533  1.00  0.00     0.002 A 
ATOM     67  C   UNL A   1      47.969  27.694  25.269  1.00  0.00     0.091 A 
ATOM     68  F   UNL A   1      45.799  28.619  24.906  1.00  0.00    -0.205 F 
ATOM     69  C   UNL A   1      48.999  27.358  26.163  1.00  0.00     0.022 A 
BRANCH  67  70
ATOM     70  S   UNL A   1      48.260  27.355  23.531  1.00  0.00     0.127 S 
ATOM     71  O   UNL A   1      47.238  28.184  22.893  1.00  0.00    -0.237 OA
ATOM     72  O   UNL A   1      49.631  27.830  23.350  1.00  0.00    -0.237 OA
ATOM     73  O   UNL A   1      48.089  25.917  23.367  1.00  0.00    -0.744 OA
ENDBRANCH  67  70
ENDBRANCH  49  63
BRANCH  50  74
ATOM     74  C   UNL A   1      37.803  31.518  30.741  1.00  0.00     0.023 A 
ATOM     75  C   UNL A   1      37.499  31.250  32.089  1.00  0.00     0.012 A 
ATOM     76  C   UNL A   1      36.866  32.215  29.953  1.00  0.00     0.148 A 
ATOM     77  C   UNL A   1      36.272  31.634  32.634  1.00  0.00     0.002 A 
ATOM     78  C   UNL A   1      35.668  32.642  30.515  1.00  0.00     0.091 A 
ATOM     79  F   UNL A   1      37.162  32.440  28.665  1.00  0.00    -0.205 F 
ATOM     80  C   UNL A   1      35.360  32.337  31.851  1.00  0.00     0.022 A 
BRANCH  78  81
ATOM     81  S   UNL A   1      34.482  33.645  29.615  1.00  0.00     0.127 S 
ATOM     82  O   UNL A   1      33.824  32.649  28.773  1.00  0.00    -0.237 OA
ATOM     83  O   UNL A   1      33.655  34.180  30.697  1.00  0.00    -0.237 OA
ATOM     84  O   UNL A   1      35.270  34.648  28.909  1.00  0.00    -0.744 OA
ENDBRANCH  78  81
ENDBRANCH  50  74
BRANCH  62  85
ATOM     85  C   UNL A   1      44.026  34.563  29.848  1.00  0.00     0.023 A 
ATOM     86  C   UNL A   1      44.690  34.814  31.065  1.00  0.00     0.012 A 
ATOM     87  C   UNL A   1      43.937  35.588  28.884  1.00  0.00     0.148 A 
ATOM     88  C   UNL A   1      45.230  36.074  31.330  1.00  0.00     0.002 A 
ATOM     89  C   UNL A   1      44.522  36.823  29.135  1.00  0.00     0.091 A 
ATOM     90  F   UNL A   1      43.290  35.333  27.737  1.00  0.00    -0.205 F 
ATOM     91  C   UNL A   1      45.158  37.072  30.362  1.00  0.00     0.022 A 
BRANCH  89  92
ATOM     92  S   UNL A   1      44.566  38.134  27.906  1.00  0.00     0.127 S 
ATOM     93  O   UNL A   1      44.307  39.318  28.724  1.00  0.00    -0.237 OA
ATOM     94  O   UNL A   1      45.934  38.034  27.394  1.00  0.00    -0.237 OA
ATOM     95  O   UNL A   1      43.533  37.807  26.933  1.00  0.00    -0.744 OA
ENDBRANCH  89  92
ENDBRANCH  62  85
ENDBRANCH  36  37
ENDBRANCH  29  31
ENDBRANCH  28  29
ENDBRANCH  27  28
ENDBRANCH  26  27
ENDBRANCH  25  26
ENDBRANCH   1  25
TORSDOF 23
ENDMDL
MODEL 3
REMARK VINA RESULT:     -10.1      2.600      8.565
REMARK SMILES Cc1cc(C(=O)N[C@](C)(C(=O)OCCOCCOCCOC(=O)c2ccc(-c3c4nc(c(-c5cccc(S(=O)(=O)[O-])c5F)c5ccc([nH]5)c(-c5cccc(S(=O)(=O)[O-])c5F)c5nc(c(-c6cccc(S(=O)(=O)[O-])c6F)c6ccc3[nH]6)C=C5)C=C4)cc2)C(F)(F)F)no1
REMARK SMILES IDX 17 1 16 2 15 3 14 4 13 5 12 6 10 7 11 8 8 9 9 10 7 11 5 12
REMARK SMILES IDX 6 13 4 15 1 16 2 17 3 18 92 19 91 20 87 21 88 22 89 23 90 24
REMARK SMILES IDX 18 25 19 26 20 27 21 28 22 29 23 30 24 31 25 32 86 33 26 34
REMARK SMILES IDX 85 35 27 36 28 37 29 38 79 39 30 40 84 41 78 42 80 43 31 44
REMARK SMILES IDX 83 45 77 46 76 47 32 49 64 50 44 51 63 52 45 53 48 54 62 55
REMARK SMILES IDX 81 56 46 57 47 58 61 60 82 61 49 62 33 63 34 64 42 65 35 66
REMARK SMILES IDX 37 67 43 68 36 69 38 70 39 71 40 72 41 73 65 74 66 75 74 76
REMARK SMILES IDX 67 77 69 78 75 79 68 80 70 81 71 82 72 83 73 84 50 85 51 86
REMARK SMILES IDX 59 87 52 88 54 89 60 90 53 91 55 92 56 93 57 94 58 95
REMARK H PARENT 7 14 80 48 48 59
REMARK Flexibility Score: inf
ROOT
ATOM      1  C   UNL A   1      34.012  33.501  28.041  1.00  0.00     0.188 C 
ENDROOT
BRANCH   1   2
ATOM      2  C   UNL A   1      34.514  32.079  27.708  1.00  0.00     0.188 C 
BRANCH   2   3
ATOM      3  O   UNL A   1      33.695  30.968  28.031  1.00  0.00    -0.376 OA
BRANCH   3   4
ATOM      4  C   UNL A   1      33.412  30.040  27.003  1.00  0.00     0.202 C 
BRANCH   4   5
ATOM      5  C   UNL A   1      33.138  28.595  27.404  1.00  0.00     0.261 C 
BRANCH   5   6
ATOM      6  O   UNL A   1      33.612  27.553  26.528  1.00  0.00    -0.461 OA
BRANCH   6   7
ATOM      7  C   UNL A   1      32.700  26.605  26.162  1.00  0.00     0.341 C 
ATOM      8  O   UNL A   1      31.740  26.283  26.852  1.00  0.00    -0.249 OA
BRANCH   7   9
ATOM      9  C   UNL A   1      33.088  25.867  24.880  1.00  0.00     0.231 C 
ATOM     10  C   UNL A   1      31.952  25.132  24.150  1.00  0.00     0.058 C 
BRANCH   9  11
ATOM     11  N   UNL A   1      33.767  26.790  23.907  1.00  0.00    -0.328 N 
ATOM     12  C   UNL A   1      33.233  27.590  22.922  1.00  0.00     0.274 C 
ATOM     13  O   UNL A   1      33.930  27.821  21.934  1.00  0.00    -0.267 OA
ATOM     14  H   UNL A   1      34.748  26.828  23.986  1.00  0.00     0.165 HD
BRANCH  12  15
ATOM     15  C   UNL A   1      31.919  28.198  23.102  1.00  0.00     0.171 A 
ATOM     16  C   UNL A   1      28.394  29.106  22.567  1.00  0.00     0.091 C 
ATOM     17  C   UNL A   1      29.782  28.751  22.934  1.00  0.00     0.134 A 
ATOM     18  C   UNL A   1      30.711  27.881  22.421  1.00  0.00     0.082 A 
ATOM     19  O   UNL A   1      30.365  29.490  23.917  1.00  0.00    -0.361 OA
ATOM     20  N   UNL A   1      31.701  29.144  24.030  1.00  0.00    -0.074 NA
ENDBRANCH  12  15
ENDBRANCH   9  11
BRANCH   9  21
ATOM     21  C   UNL A   1      34.070  24.791  25.404  1.00  0.00     0.422 C 
ATOM     22  F   UNL A   1      34.181  23.745  24.553  1.00  0.00    -0.168 F 
ATOM     23  F   UNL A   1      35.313  25.327  25.533  1.00  0.00    -0.168 F 
ATOM     24  F   UNL A   1      33.739  24.315  26.621  1.00  0.00    -0.168 F 
ENDBRANCH   9  21
ENDBRANCH   7   9
ENDBRANCH   6   7
ENDBRANCH   5   6
ENDBRANCH   4   5
ENDBRANCH   3   4
ENDBRANCH   2   3
ENDBRANCH   1   2
BRANCH   1  25
ATOM     25  O   UNL A   1      33.491  33.691  29.349  1.00  0.00    -0.376 OA
BRANCH  25  26
ATOM     26  C   UNL A   1      33.942  34.867  30.018  1.00  0.00     0.202 C 
BRANCH  26  27
ATOM     27  C   UNL A   1      34.444  34.659  31.455  1.00  0.00     0.261 C 
BRANCH  27  28
ATOM     28  O   UNL A   1      35.798  34.188  31.570  1.00  0.00    -0.460 OA
BRANCH  28  29
ATOM     29  C   UNL A   1      36.036  33.147  32.406  1.00  0.00     0.338 C 
ATOM     30  O   UNL A   1      35.417  32.858  33.404  1.00  0.00    -0.246 OA
BRANCH  29  31
ATOM     31  C   UNL A   1      37.012  32.263  31.719  1.00  0.00     0.060 A 
ATOM     32  C   UNL A   1      37.800  31.401  32.498  1.00  0.00     0.016 A 
ATOM     33  C   UNL A   1      37.066  32.202  30.324  1.00  0.00     0.016 A 
ATOM     34  C   UNL A   1      38.653  30.484  31.882  1.00  0.00     0.010 A 
ATOM     35  C   UNL A   1      37.951  31.314  29.709  1.00  0.00     0.010 A 
ATOM     36  C   UNL A   1      38.770  30.475  30.486  1.00  0.00    -0.014 A 
BRANCH  36  37
ATOM     37  C   UNL A   1      39.953  29.839  29.859  1.00  0.00     0.031 A 
ATOM     38  C   UNL A   1      41.216  30.658  29.813  1.00  0.00     0.074 A 
ATOM     39  C   UNL A   1      39.922  28.603  29.329  1.00  0.00     0.049 A 
ATOM     40  N   UNL A   1      42.374  30.373  29.282  1.00  0.00    -0.248 NA
ATOM     41  C   UNL A   1      41.157  31.986  30.453  1.00  0.00     0.031 C 
ATOM     42  C   UNL A   1      38.769  27.706  29.323  1.00  0.00     0.029 A 
ATOM     43  N   UNL A   1      40.898  27.904  28.663  1.00  0.00    -0.354 N 
ATOM     44  C   UNL A   1      43.173  31.487  29.509  1.00  0.00     0.074 A 
ATOM     45  C   UNL A   1      42.368  32.459  30.212  1.00  0.00     0.031 C 
ATOM     46  C   UNL A   1      39.096  26.583  28.655  1.00  0.00     0.029 A 
ATOM     47  C   UNL A   1      40.470  26.694  28.166  1.00  0.00     0.049 A 
ATOM     48  H   UNL A   1      41.818  28.236  28.552  1.00  0.00     0.167 HD
ATOM     49  C   UNL A   1      44.467  31.685  29.175  1.00  0.00     0.034 A 
ATOM     50  C   UNL A   1      41.113  25.798  27.389  1.00  0.00     0.034 A 
ATOM     51  C   UNL A   1      45.268  30.730  28.467  1.00  0.00     0.049 A 
ATOM     52  C   UNL A   1      42.543  26.067  26.980  1.00  0.00     0.074 A 
ATOM     53  C   UNL A   1      46.594  30.829  28.092  1.00  0.00     0.029 A 
ATOM     54  N   UNL A   1      44.809  29.504  28.010  1.00  0.00    -0.354 N 
ATOM     55  N   UNL A   1      43.323  27.073  27.300  1.00  0.00    -0.248 NA
ATOM     56  C   UNL A   1      43.193  25.060  26.125  1.00  0.00     0.031 C 
ATOM     57  C   UNL A   1      46.932  29.670  27.385  1.00  0.00     0.029 A 
ATOM     58  C   UNL A   1      45.824  28.839  27.348  1.00  0.00     0.049 A 
ATOM     59  H   UNL A   1      43.896  29.159  28.137  1.00  0.00     0.167 HD
ATOM     60  C   UNL A   1      44.560  26.800  26.723  1.00  0.00     0.074 A 
ATOM     61  C   UNL A   1      44.432  25.526  26.048  1.00  0.00     0.031 C 
ATOM     62  C   UNL A   1      45.696  27.540  26.738  1.00  0.00     0.034 A 
BRANCH  49  63
ATOM     63  C   UNL A   1      45.094  32.987  29.592  1.00  0.00     0.023 A 
ATOM     64  C   UNL A   1      45.750  33.073  30.837  1.00  0.00     0.012 A 
ATOM     65  C   UNL A   1      45.052  34.113  28.750  1.00  0.00     0.148 A 
ATOM     66  C   UNL A   1      46.331  34.270  31.251  1.00  0.00     0.002 A 
ATOM     67  C   UNL A   1      45.671  35.290  29.151  1.00  0.00     0.091 A 
ATOM     68  F   UNL A   1      44.393  34.018  27.587  1.00  0.00    -0.205 F 
ATOM     69  C   UNL A   1      46.300  35.374  30.403  1.00  0.00     0.022 A 
BRANCH  67  70
ATOM     70  S   UNL A   1      45.747  36.746  28.103  1.00  0.00     0.127 S 
ATOM     71  O   UNL A   1      44.373  36.828  27.611  1.00  0.00    -0.237 OA
ATOM     72  O   UNL A   1      46.116  37.792  29.058  1.00  0.00    -0.237 OA
ATOM     73  O   UNL A   1      46.757  36.463  27.093  1.00  0.00    -0.744 OA
ENDBRANCH  67  70
ENDBRANCH  49  63
BRANCH  50  74
ATOM     74  C   UNL A   1      40.434  24.540  26.959  1.00  0.00     0.023 A 
ATOM     75  C   UNL A   1      39.201  24.614  26.283  1.00  0.00     0.012 A 
ATOM     76  C   UNL A   1      40.986  23.273  27.238  1.00  0.00     0.148 A 
ATOM     77  C   UNL A   1      38.513  23.454  25.924  1.00  0.00     0.002 A 
ATOM     78  C   UNL A   1      40.321  22.122  26.831  1.00  0.00     0.091 A 
ATOM     79  F   UNL A   1      42.148  23.221  27.905  1.00  0.00    -0.205 F 
ATOM     80  C   UNL A   1      39.076  22.209  26.190  1.00  0.00     0.022 A 
BRANCH  78  81
ATOM     81  S   UNL A   1      41.021  20.480  27.034  1.00  0.00     0.127 S 
ATOM     82  O   UNL A   1      40.767  20.220  28.449  1.00  0.00    -0.237 OA
ATOM     83  O   UNL A   1      40.210  19.689  26.108  1.00  0.00    -0.237 OA
ATOM     84  O   UNL A   1      42.422  20.600  26.654  1.00  0.00    -0.744 OA
ENDBRANCH  78  81
ENDBRANCH  50  74
BRANCH  62  85
ATOM     85  C   UNL A   1      46.914  26.983  26.048  1.00  0.00     0.023 A 
ATOM     86  C   UNL A   1      47.054  27.114  24.652  1.00  0.00     0.012 A 
ATOM     87  C   UNL A   1      47.964  26.413  26.797  1.00  0.00     0.148 A 
ATOM     88  C   UNL A   1      48.207  26.660  24.010  1.00  0.00     0.002 A 
ATOM     89  C   UNL A   1      49.129  26.009  26.157  1.00  0.00     0.091 A 
ATOM     90  F   UNL A   1      47.806  26.284  28.123  1.00  0.00    -0.205 F 
ATOM     91  C   UNL A   1      49.247  26.120  24.762  1.00  0.00     0.022 A 
BRANCH  89  92
ATOM     92  S   UNL A   1      50.559  25.398  27.056  1.00  0.00     0.127 S 
ATOM     93  O   UNL A   1      49.989  24.268  27.789  1.00  0.00    -0.237 OA
ATOM     94  O   UNL A   1      51.472  25.025  25.974  1.00  0.00    -0.237 OA
ATOM     95  O   UNL A   1      51.021  26.508  27.879  1.00  0.00    -0.744 OA
ENDBRANCH  89  92
ENDBRANCH  62  85
ENDBRANCH  36  37
ENDBRANCH  29  31
ENDBRANCH  28  29
ENDBRANCH  27  28
ENDBRANCH  26  27
ENDBRANCH  25  26
ENDBRANCH   1  25
TORSDOF 23
ENDMDL
