MODEL 1
REMARK VINA RESULT:     -12.9      0.000      0.000
REMARK SMILES Cc1ccc(-c2nc(C)cc(N3CCCC[C@H]3C(=O)OCCOCCOCCOC(=O)c3ccc(-c4c5nc(c(-c6cccc(S(=O)(=O)[O-])c6F)c6ccc([nH]6)c(-c6cccc(S(=O)(=O)[O-])c6F)c6nc(c(-c7cccc(S(=O)(=O)[O-])c7F)c7ccc4[nH]7)C=C6)C=C5)cc3)n2)cc1
REMARK SMILES IDX 25 1 24 2 23 3 22 4 21 5 20 6 18 7 19 8 17 9 12 10 13 11
REMARK SMILES IDX 14 12 16 13 15 14 11 15 6 16 7 17 95 18 8 19 9 20 10 21 5 22
REMARK SMILES IDX 1 23 2 24 3 25 97 26 4 27 96 28 26 29 27 30 28 31 29 32
REMARK SMILES IDX 30 33 31 34 32 35 33 36 94 37 34 38 93 39 35 40 36 41 37 42
REMARK SMILES IDX 87 43 38 44 92 45 86 46 88 47 39 48 91 49 85 50 84 51 40 53
REMARK SMILES IDX 72 54 52 55 71 56 53 57 56 58 70 59 89 60 54 61 55 62 69 64
REMARK SMILES IDX 90 65 57 66 41 67 42 68 50 69 43 70 45 71 51 72 44 73 46 74
REMARK SMILES IDX 47 75 48 76 49 77 73 78 74 79 82 80 75 81 77 82 83 83 76 84
REMARK SMILES IDX 78 85 79 86 80 87 81 88 58 89 59 90 67 91 60 92 62 93 68 94
REMARK SMILES IDX 61 95 63 96 64 97 65 98 66 99
REMARK H PARENT 88 52 56 63
REMARK Flexibility Score: inf
ROOT
ATOM      1  C   UNL A   1      34.604  31.754  27.651  1.00  0.00     0.188 C 
ENDROOT
BRANCH   1   2
ATOM      2  C   UNL A   1      33.271  31.025  27.492  1.00  0.00     0.188 C 
BRANCH   2   3
ATOM      3  O   UNL A   1      33.091  29.730  26.879  1.00  0.00    -0.376 OA
BRANCH   3   4
ATOM      4  C   UNL A   1      32.417  28.591  27.470  1.00  0.00     0.202 C 
BRANCH   4   5
ATOM      5  C   UNL A   1      31.497  27.344  26.700  1.00  0.00     0.261 C 
BRANCH   5   6
ATOM      6  O   UNL A   1      31.427  25.572  26.943  1.00  0.00    -0.462 OA
BRANCH   6   7
ATOM      7  C   UNL A   1      30.665  24.365  26.555  1.00  0.00     0.328 C 
ATOM      8  O   UNL A   1      29.765  23.791  27.180  1.00  0.00    -0.250 OA
BRANCH   7   9
ATOM      9  C   UNL A   1      31.062  23.526  25.354  1.00  0.00     0.193 C 
ATOM     10  N   UNL A   1      32.111  24.193  24.554  1.00  0.00    -0.343 N 
ATOM     11  C   UNL A   1      33.399  24.302  25.224  1.00  0.00     0.119 C 
ATOM     12  C   UNL A   1      33.861  22.910  25.658  1.00  0.00     0.022 C 
ATOM     13  C   UNL A   1      31.472  22.114  25.693  1.00  0.00     0.037 C 
ATOM     14  C   UNL A   1      32.806  22.108  26.419  1.00  0.00     0.005 C 
BRANCH  10  15
ATOM     15  C   UNL A   1      31.975  25.018  23.453  1.00  0.00     0.133 A 
ATOM     16  C   UNL A   1      30.851  26.883  22.654  1.00  0.00     0.161 A 
ATOM     17  N   UNL A   1      31.295  26.790  21.401  1.00  0.00    -0.233 NA
ATOM     18  N   UNL A   1      31.163  26.063  23.672  1.00  0.00    -0.211 NA
ATOM     19  C   UNL A   1      32.114  25.742  21.172  1.00  0.00     0.043 A 
ATOM     20  C   UNL A   1      32.533  25.578  19.735  1.00  0.00     0.067 C 
ATOM     21  C   UNL A   1      32.520  24.856  22.188  1.00  0.00     0.070 A 
BRANCH  16  22
ATOM     22  C   UNL A   1      30.064  28.045  23.044  1.00  0.00     0.019 A 
ATOM     23  C   UNL A   1      27.663  31.580  23.626  1.00  0.00     0.044 C 
ATOM     24  C   UNL A   1      28.488  30.340  23.471  1.00  0.00    -0.051 A 
ATOM     25  C   UNL A   1      29.836  30.321  23.859  1.00  0.00     0.004 A 
ATOM     26  C   UNL A   1      27.923  29.196  22.903  1.00  0.00     0.004 A 
ATOM     27  C   UNL A   1      30.619  29.177  23.654  1.00  0.00     0.012 A 
ATOM     28  C   UNL A   1      28.705  28.068  22.694  1.00  0.00     0.012 A 
ENDBRANCH  16  22
ENDBRANCH  10  15
ENDBRANCH   7   9
ENDBRANCH   6   7
ENDBRANCH   5   6
ENDBRANCH   4   5
ENDBRANCH   3   4
ENDBRANCH   2   3
ENDBRANCH   1   2
BRANCH   1  29
ATOM     29  O   UNL A   1      34.478  32.871  28.496  1.00  0.00    -0.376 OA
BRANCH  29  30
ATOM     30  C   UNL A   1      33.668  33.917  27.999  1.00  0.00     0.202 C 
BRANCH  30  31
ATOM     31  C   UNL A   1      33.423  35.055  29.005  1.00  0.00     0.261 C 
BRANCH  31  32
ATOM     32  O   UNL A   1      33.105  34.542  30.315  1.00  0.00    -0.460 OA
BRANCH  32  33
ATOM     33  C   UNL A   1      33.660  35.224  31.376  1.00  0.00     0.338 C 
ATOM     34  O   UNL A   1      33.374  36.377  31.656  1.00  0.00    -0.246 OA
BRANCH  33  35
ATOM     35  C   UNL A   1      34.763  34.403  31.968  1.00  0.00     0.060 A 
ATOM     36  C   UNL A   1      35.961  34.854  32.550  1.00  0.00     0.016 A 
ATOM     37  C   UNL A   1      34.694  33.077  31.708  1.00  0.00     0.016 A 
ATOM     38  C   UNL A   1      37.157  34.012  32.645  1.00  0.00     0.010 A 
ATOM     39  C   UNL A   1      35.881  32.357  31.708  1.00  0.00     0.010 A 
ATOM     40  C   UNL A   1      37.227  32.720  32.104  1.00  0.00    -0.014 A 
BRANCH  40  41
ATOM     41  C   UNL A   1      38.709  31.785  31.896  1.00  0.00     0.031 A 
ATOM     42  C   UNL A   1      39.084  30.167  31.221  1.00  0.00     0.074 A 
ATOM     43  C   UNL A   1      39.841  32.318  32.407  1.00  0.00     0.049 A 
ATOM     44  N   UNL A   1      40.163  29.461  31.511  1.00  0.00    -0.248 NA
ATOM     45  C   UNL A   1      38.313  29.261  30.235  1.00  0.00     0.031 C 
ATOM     46  C   UNL A   1      41.212  31.969  32.051  1.00  0.00     0.029 A 
ATOM     47  N   UNL A   1      39.993  33.278  33.411  1.00  0.00    -0.354 N 
ATOM     48  C   UNL A   1      40.228  28.385  30.604  1.00  0.00     0.074 A 
ATOM     49  C   UNL A   1      38.935  28.101  30.156  1.00  0.00     0.031 C 
ATOM     50  C   UNL A   1      42.035  32.459  32.987  1.00  0.00     0.029 A 
ATOM     51  C   UNL A   1      41.200  32.977  34.050  1.00  0.00     0.049 A 
ATOM     52  H   UNL A   1      39.377  34.015  33.625  1.00  0.00     0.167 HD
ATOM     53  C   UNL A   1      41.373  27.989  29.989  1.00  0.00     0.034 A 
ATOM     54  C   UNL A   1      41.230  32.647  35.369  1.00  0.00     0.034 A 
ATOM     55  C   UNL A   1      42.490  28.336  30.823  1.00  0.00     0.049 A 
ATOM     56  C   UNL A   1      41.928  31.329  35.622  1.00  0.00     0.074 A 
ATOM     57  C   UNL A   1      43.514  29.251  30.756  1.00  0.00     0.029 A 
ATOM     58  N   UNL A   1      42.448  27.866  32.125  1.00  0.00    -0.354 N 
ATOM     59  N   UNL A   1      42.464  30.592  34.682  1.00  0.00    -0.248 NA
ATOM     60  C   UNL A   1      42.109  30.727  36.938  1.00  0.00     0.031 C 
ATOM     61  C   UNL A   1      43.971  29.455  32.096  1.00  0.00     0.029 A 
ATOM     62  C   UNL A   1      43.268  28.611  32.946  1.00  0.00     0.049 A 
ATOM     63  H   UNL A   1      41.904  27.102  32.425  1.00  0.00     0.167 HD
ATOM     64  C   UNL A   1      42.878  29.392  35.190  1.00  0.00     0.074 A 
ATOM     65  C   UNL A   1      42.734  29.576  36.625  1.00  0.00     0.031 C 
ATOM     66  C   UNL A   1      43.225  28.337  34.383  1.00  0.00     0.034 A 
BRANCH  53  67
ATOM     67  C   UNL A   1      41.449  27.361  28.583  1.00  0.00     0.023 A 
ATOM     68  C   UNL A   1      40.837  28.067  27.530  1.00  0.00     0.012 A 
ATOM     69  C   UNL A   1      41.977  26.074  28.229  1.00  0.00     0.148 A 
ATOM     70  C   UNL A   1      40.762  27.553  26.221  1.00  0.00     0.002 A 
ATOM     71  C   UNL A   1      41.982  25.605  26.905  1.00  0.00     0.091 A 
ATOM     72  F   UNL A   1      42.390  25.227  29.183  1.00  0.00    -0.205 F 
ATOM     73  C   UNL A   1      41.355  26.338  25.900  1.00  0.00     0.022 A 
BRANCH  71  74
ATOM     74  S   UNL A   1      42.811  24.072  26.410  1.00  0.00     0.127 S 
ATOM     75  O   UNL A   1      44.211  24.358  26.718  1.00  0.00    -0.237 OA
ATOM     76  O   UNL A   1      42.192  23.073  27.284  1.00  0.00    -0.237 OA
ATOM     77  O   UNL A   1      42.504  23.894  24.995  1.00  0.00    -0.744 OA
ENDBRANCH  71  74
ENDBRANCH  53  67
BRANCH  54  78
ATOM     78  C   UNL A   1      40.188  33.386  36.162  1.00  0.00     0.023 A 
ATOM     79  C   UNL A   1      38.976  32.671  36.378  1.00  0.00     0.012 A 
ATOM     80  C   UNL A   1      40.445  34.492  36.994  1.00  0.00     0.148 A 
ATOM     81  C   UNL A   1      38.117  32.961  37.442  1.00  0.00     0.002 A 
ATOM     82  C   UNL A   1      39.558  34.794  38.047  1.00  0.00     0.091 A 
ATOM     83  F   UNL A   1      41.567  35.200  36.805  1.00  0.00    -0.205 F 
ATOM     84  C   UNL A   1      38.421  34.010  38.292  1.00  0.00     0.022 A 
BRANCH  82  85
ATOM     85  S   UNL A   1      39.924  36.085  39.249  1.00  0.00     0.127 S 
ATOM     86  O   UNL A   1      41.294  35.760  39.633  1.00  0.00    -0.237 OA
ATOM     87  O   UNL A   1      39.783  37.321  38.475  1.00  0.00    -0.237 OA
ATOM     88  O   UNL A   1      38.895  35.903  40.257  1.00  0.00    -0.744 OA
ENDBRANCH  82  85
ENDBRANCH  54  78
BRANCH  66  89
ATOM     89  C   UNL A   1      43.437  26.895  34.842  1.00  0.00     0.023 A 
ATOM     90  C   UNL A   1      42.373  26.032  35.155  1.00  0.00     0.012 A 
ATOM     91  C   UNL A   1      44.730  26.300  34.798  1.00  0.00     0.148 A 
ATOM     92  C   UNL A   1      42.572  24.680  35.464  1.00  0.00     0.002 A 
ATOM     93  C   UNL A   1      44.904  24.927  34.965  1.00  0.00     0.091 A 
ATOM     94  F   UNL A   1      45.817  27.057  34.592  1.00  0.00    -0.205 F 
ATOM     95  C   UNL A   1      43.835  24.118  35.341  1.00  0.00     0.022 A 
BRANCH  93  96
ATOM     96  S   UNL A   1      46.462  24.157  34.490  1.00  0.00     0.127 S 
ATOM     97  O   UNL A   1      46.043  22.816  34.095  1.00  0.00    -0.237 OA
ATOM     98  O   UNL A   1      46.917  25.001  33.383  1.00  0.00    -0.237 OA
ATOM     99  O   UNL A   1      47.285  24.259  35.689  1.00  0.00    -0.744 OA
ENDBRANCH  93  96
ENDBRANCH  66  89
ENDBRANCH  40  41
ENDBRANCH  33  35
ENDBRANCH  32  33
ENDBRANCH  31  32
ENDBRANCH  30  31
ENDBRANCH  29  30
ENDBRANCH   1  29
TORSDOF 22
ENDMDL
MODEL 2
REMARK VINA RESULT:     -12.8      5.114     11.413
REMARK SMILES Cc1ccc(-c2nc(C)cc(N3CCCC[C@H]3C(=O)OCCOCCOCCOC(=O)c3ccc(-c4c5nc(c(-c6cccc(S(=O)(=O)[O-])c6F)c6ccc([nH]6)c(-c6cccc(S(=O)(=O)[O-])c6F)c6nc(c(-c7cccc(S(=O)(=O)[O-])c7F)c7ccc4[nH]7)C=C6)C=C5)cc3)n2)cc1
REMARK SMILES IDX 25 1 24 2 23 3 22 4 21 5 20 6 18 7 19 8 17 9 12 10 13 11
REMARK SMILES IDX 14 12 16 13 15 14 11 15 6 16 7 17 95 18 8 19 9 20 10 21 5 22
REMARK SMILES IDX 1 23 2 24 3 25 97 26 4 27 96 28 26 29 27 30 28 31 29 32
REMARK SMILES IDX 30 33 31 34 32 35 33 36 94 37 34 38 93 39 35 40 36 41 37 42
REMARK SMILES IDX 87 43 38 44 92 45 86 46 88 47 39 48 91 49 85 50 84 51 40 53
REMARK SMILES IDX 72 54 52 55 71 56 53 57 56 58 70 59 89 60 54 61 55 62 69 64
REMARK SMILES IDX 90 65 57 66 41 67 42 68 50 69 43 70 45 71 51 72 44 73 46 74
REMARK SMILES IDX 47 75 48 76 49 77 73 78 74 79 82 80 75 81 77 82 83 83 76 84
REMARK SMILES IDX 78 85 79 86 80 87 81 88 58 89 59 90 67 91 60 92 62 93 68 94
REMARK SMILES IDX 61 95 63 96 64 97 65 98 66 99
REMARK H PARENT 88 52 56 63
REMARK Flexibility Score: inf
ROOT
ATOM      1  C   UNL A   1      39.395  21.311  26.326  1.00  0.00     0.188 C 
ENDROOT
BRANCH   1   2
ATOM      2  C   UNL A   1      38.912  22.679  25.849  1.00  0.00     0.188 C 
BRANCH   2   3
ATOM      3  O   UNL A   1      37.559  23.002  25.460  1.00  0.00    -0.376 OA
BRANCH   3   4
ATOM      4  C   UNL A   1      36.790  22.346  24.421  1.00  0.00     0.202 C 
BRANCH   4   5
ATOM      5  C   UNL A   1      35.724  23.039  23.247  1.00  0.00     0.261 C 
BRANCH   5   6
ATOM      6  O   UNL A   1      34.890  24.620  23.160  1.00  0.00    -0.462 OA
BRANCH   6   7
ATOM      7  C   UNL A   1      33.728  25.300  22.547  1.00  0.00     0.328 C 
ATOM      8  O   UNL A   1      33.594  25.693  21.382  1.00  0.00    -0.250 OA
BRANCH   7   9
ATOM      9  C   UNL A   1      32.565  25.799  23.386  1.00  0.00     0.193 C 
ATOM     10  N   UNL A   1      32.631  25.273  24.766  1.00  0.00    -0.343 N 
ATOM     11  C   UNL A   1      33.747  25.783  25.549  1.00  0.00     0.119 C 
ATOM     12  C   UNL A   1      33.698  27.312  25.562  1.00  0.00     0.022 C 
ATOM     13  C   UNL A   1      32.408  27.300  23.398  1.00  0.00     0.037 C 
ATOM     14  C   UNL A   1      33.540  27.945  24.180  1.00  0.00     0.005 C 
BRANCH  10  15
ATOM     15  C   UNL A   1      32.036  24.145  25.298  1.00  0.00     0.133 A 
ATOM     16  C   UNL A   1      31.946  21.833  25.128  1.00  0.00     0.161 A 
ATOM     17  N   UNL A   1      30.934  21.667  25.979  1.00  0.00    -0.233 NA
ATOM     18  N   UNL A   1      32.514  23.002  24.784  1.00  0.00    -0.211 NA
ATOM     19  C   UNL A   1      30.447  22.813  26.502  1.00  0.00     0.043 A 
ATOM     20  C   UNL A   1      29.239  22.634  27.383  1.00  0.00     0.067 C 
ATOM     21  C   UNL A   1      31.005  24.075  26.224  1.00  0.00     0.070 A 
BRANCH  16  22
ATOM     22  C   UNL A   1      32.630  20.660  24.602  1.00  0.00     0.019 A 
ATOM     23  C   UNL A   1      34.212  16.877  23.266  1.00  0.00     0.044 C 
ATOM     24  C   UNL A   1      33.693  18.213  23.698  1.00  0.00    -0.051 A 
ATOM     25  C   UNL A   1      34.370  18.968  24.668  1.00  0.00     0.004 A 
ATOM     26  C   UNL A   1      32.503  18.704  23.157  1.00  0.00     0.004 A 
ATOM     27  C   UNL A   1      33.847  20.189  25.112  1.00  0.00     0.012 A 
ATOM     28  C   UNL A   1      31.983  19.911  23.607  1.00  0.00     0.012 A 
ENDBRANCH  16  22
ENDBRANCH  10  15
ENDBRANCH   7   9
ENDBRANCH   6   7
ENDBRANCH   5   6
ENDBRANCH   4   5
ENDBRANCH   3   4
ENDBRANCH   2   3
ENDBRANCH   1   2
BRANCH   1  29
ATOM     29  O   UNL A   1      40.587  21.419  27.064  1.00  0.00    -0.376 OA
BRANCH  29  30
ATOM     30  C   UNL A   1      41.183  20.192  27.435  1.00  0.00     0.202 C 
BRANCH  30  31
ATOM     31  C   UNL A   1      42.205  19.657  26.417  1.00  0.00     0.261 C 
BRANCH  31  32
ATOM     32  O   UNL A   1      42.399  20.581  25.328  1.00  0.00    -0.460 OA
BRANCH  32  33
ATOM     33  C   UNL A   1      43.707  20.790  24.946  1.00  0.00     0.338 C 
ATOM     34  O   UNL A   1      44.346  19.994  24.275  1.00  0.00    -0.246 OA
BRANCH  33  35
ATOM     35  C   UNL A   1      44.233  22.012  25.634  1.00  0.00     0.060 A 
ATOM     36  C   UNL A   1      44.561  22.166  26.992  1.00  0.00     0.016 A 
ATOM     37  C   UNL A   1      44.170  23.150  24.906  1.00  0.00     0.016 A 
ATOM     38  C   UNL A   1      44.589  23.475  27.652  1.00  0.00     0.010 A 
ATOM     39  C   UNL A   1      44.091  24.352  25.597  1.00  0.00     0.010 A 
ATOM     40  C   UNL A   1      44.226  24.665  27.004  1.00  0.00    -0.014 A 
BRANCH  40  41
ATOM     41  C   UNL A   1      43.927  26.207  27.808  1.00  0.00     0.031 A 
ATOM     42  C   UNL A   1      42.538  27.339  27.866  1.00  0.00     0.074 A 
ATOM     43  C   UNL A   1      44.962  26.750  28.486  1.00  0.00     0.049 A 
ATOM     44  N   UNL A   1      42.623  28.622  28.171  1.00  0.00    -0.248 NA
ATOM     45  C   UNL A   1      41.032  27.134  27.586  1.00  0.00     0.031 C 
ATOM     46  C   UNL A   1      44.888  27.772  29.525  1.00  0.00     0.029 A 
ATOM     47  N   UNL A   1      46.332  26.519  28.345  1.00  0.00    -0.354 N 
ATOM     48  C   UNL A   1      41.314  29.106  28.362  1.00  0.00     0.074 A 
ATOM     49  C   UNL A   1      40.434  28.308  27.627  1.00  0.00     0.031 C 
ATOM     50  C   UNL A   1      46.113  28.279  29.713  1.00  0.00     0.029 A 
ATOM     51  C   UNL A   1      46.961  27.723  28.681  1.00  0.00     0.049 A 
ATOM     52  H   UNL A   1      46.767  25.681  28.065  1.00  0.00     0.167 HD
ATOM     53  C   UNL A   1      40.957  29.929  29.383  1.00  0.00     0.034 A 
ATOM     54  C   UNL A   1      47.719  28.393  27.772  1.00  0.00     0.034 A 
ATOM     55  C   UNL A   1      42.107  30.693  29.783  1.00  0.00     0.049 A 
ATOM     56  C   UNL A   1      47.284  29.832  27.603  1.00  0.00     0.074 A 
ATOM     57  C   UNL A   1      42.929  30.719  30.884  1.00  0.00     0.029 A 
ATOM     58  N   UNL A   1      42.743  31.407  28.782  1.00  0.00    -0.354 N 
ATOM     59  N   UNL A   1      46.301  30.383  28.269  1.00  0.00    -0.248 NA
ATOM     60  C   UNL A   1      47.914  30.787  26.698  1.00  0.00     0.031 C 
ATOM     61  C   UNL A   1      44.161  31.312  30.462  1.00  0.00     0.029 A 
ATOM     62  C   UNL A   1      44.043  31.701  29.135  1.00  0.00     0.049 A 
ATOM     63  H   UNL A   1      42.324  31.669  27.931  1.00  0.00     0.167 HD
ATOM     64  C   UNL A   1      46.041  31.638  27.792  1.00  0.00     0.074 A 
ATOM     65  C   UNL A   1      47.152  31.881  26.888  1.00  0.00     0.031 C 
ATOM     66  C   UNL A   1      44.899  32.325  28.125  1.00  0.00     0.034 A 
BRANCH  53  67
ATOM     67  C   UNL A   1      39.570  29.953  30.054  1.00  0.00     0.023 A 
ATOM     68  C   UNL A   1      39.219  28.843  30.846  1.00  0.00     0.012 A 
ATOM     69  C   UNL A   1      38.533  30.930  29.880  1.00  0.00     0.148 A 
ATOM     70  C   UNL A   1      37.948  28.709  31.435  1.00  0.00     0.002 A 
ATOM     71  C   UNL A   1      37.298  30.838  30.544  1.00  0.00     0.091 A 
ATOM     72  F   UNL A   1      38.677  31.916  28.983  1.00  0.00    -0.205 F 
ATOM     73  C   UNL A   1      36.997  29.714  31.309  1.00  0.00     0.022 A 
BRANCH  71  74
ATOM     74  S   UNL A   1      36.053  32.153  30.486  1.00  0.00     0.127 S 
ATOM     75  O   UNL A   1      35.187  31.814  31.614  1.00  0.00    -0.237 OA
ATOM     76  O   UNL A   1      36.853  33.364  30.680  1.00  0.00    -0.237 OA
ATOM     77  O   UNL A   1      35.434  32.054  29.169  1.00  0.00    -0.744 OA
ENDBRANCH  71  74
ENDBRANCH  53  67
BRANCH  54  78
ATOM     78  C   UNL A   1      48.449  27.462  26.844  1.00  0.00     0.023 A 
ATOM     79  C   UNL A   1      47.882  27.342  25.543  1.00  0.00     0.012 A 
ATOM     80  C   UNL A   1      49.781  27.039  27.012  1.00  0.00     0.148 A 
ATOM     81  C   UNL A   1      48.633  26.936  24.437  1.00  0.00     0.002 A 
ATOM     82  C   UNL A   1      50.522  26.604  25.895  1.00  0.00     0.091 A 
ATOM     83  F   UNL A   1      50.339  27.120  28.228  1.00  0.00    -0.205 F 
ATOM     84  C   UNL A   1      49.961  26.589  24.609  1.00  0.00     0.022 A 
BRANCH  82  85
ATOM     85  S   UNL A   1      52.277  26.220  26.017  1.00  0.00     0.127 S 
ATOM     86  O   UNL A   1      52.729  26.431  24.646  1.00  0.00    -0.237 OA
ATOM     87  O   UNL A   1      52.774  27.203  26.983  1.00  0.00    -0.237 OA
ATOM     88  O   UNL A   1      52.285  24.855  26.512  1.00  0.00    -0.744 OA
ENDBRANCH  82  85
ENDBRANCH  54  78
BRANCH  66  89
ATOM     89  C   UNL A   1      44.394  33.597  27.445  1.00  0.00     0.023 A 
ATOM     90  C   UNL A   1      43.840  33.600  26.153  1.00  0.00     0.012 A 
ATOM     91  C   UNL A   1      44.293  34.818  28.169  1.00  0.00     0.148 A 
ATOM     92  C   UNL A   1      43.275  34.749  25.585  1.00  0.00     0.002 A 
ATOM     93  C   UNL A   1      43.604  35.914  27.654  1.00  0.00     0.091 A 
ATOM     94  F   UNL A   1      44.866  34.939  29.376  1.00  0.00    -0.205 F 
ATOM     95  C   UNL A   1      43.129  35.901  26.345  1.00  0.00     0.022 A 
BRANCH  93  96
ATOM     96  S   UNL A   1      43.135  37.271  28.742  1.00  0.00     0.127 S 
ATOM     97  O   UNL A   1      42.061  37.918  27.995  1.00  0.00    -0.237 OA
ATOM     98  O   UNL A   1      42.697  36.577  29.955  1.00  0.00    -0.237 OA
ATOM     99  O   UNL A   1      44.367  38.032  28.908  1.00  0.00    -0.744 OA
ENDBRANCH  93  96
ENDBRANCH  66  89
ENDBRANCH  40  41
ENDBRANCH  33  35
ENDBRANCH  32  33
ENDBRANCH  31  32
ENDBRANCH  30  31
ENDBRANCH  29  30
ENDBRANCH   1  29
TORSDOF 22
ENDMDL
MODEL 3
REMARK VINA RESULT:     -12.5      5.970     10.618
REMARK SMILES Cc1ccc(-c2nc(C)cc(N3CCCC[C@H]3C(=O)OCCOCCOCCOC(=O)c3ccc(-c4c5nc(c(-c6cccc(S(=O)(=O)[O-])c6F)c6ccc([nH]6)c(-c6cccc(S(=O)(=O)[O-])c6F)c6nc(c(-c7cccc(S(=O)(=O)[O-])c7F)c7ccc4[nH]7)C=C6)C=C5)cc3)n2)cc1
REMARK SMILES IDX 25 1 24 2 23 3 22 4 21 5 20 6 18 7 19 8 17 9 12 10 13 11
REMARK SMILES IDX 14 12 16 13 15 14 11 15 6 16 7 17 95 18 8 19 9 20 10 21 5 22
REMARK SMILES IDX 1 23 2 24 3 25 97 26 4 27 96 28 26 29 27 30 28 31 29 32
REMARK SMILES IDX 30 33 31 34 32 35 33 36 94 37 34 38 93 39 35 40 36 41 37 42
REMARK SMILES IDX 87 43 38 44 92 45 86 46 88 47 39 48 91 49 85 50 84 51 40 53
REMARK SMILES IDX 72 54 52 55 71 56 53 57 56 58 70 59 89 60 54 61 55 62 69 64
REMARK SMILES IDX 90 65 57 66 41 67 42 68 50 69 43 70 45 71 51 72 44 73 46 74
REMARK SMILES IDX 47 75 48 76 49 77 73 78 74 79 82 80 75 81 77 82 83 83 76 84
REMARK SMILES IDX 78 85 79 86 80 87 81 88 58 89 59 90 67 91 60 92 62 93 68 94
REMARK SMILES IDX 61 95 63 96 64 97 65 98 66 99
REMARK H PARENT 88 52 56 63
REMARK Flexibility Score: inf
ROOT
ATOM      1  C   UNL A   1      34.021  32.042  27.662  1.00  0.00     0.188 C 
ENDROOT
BRANCH   1   2
ATOM      2  C   UNL A   1      33.007  30.977  27.250  1.00  0.00     0.188 C 
BRANCH   2   3
ATOM      3  O   UNL A   1      33.247  29.914  26.302  1.00  0.00    -0.376 OA
BRANCH   3   4
ATOM      4  C   UNL A   1      32.262  29.319  25.420  1.00  0.00     0.202 C 
BRANCH   4   5
ATOM      5  C   UNL A   1      32.339  29.061  23.710  1.00  0.00     0.261 C 
BRANCH   5   6
ATOM      6  O   UNL A   1      32.154  27.594  22.702  1.00  0.00    -0.462 OA
BRANCH   6   7
ATOM      7  C   UNL A   1      32.769  26.278  22.423  1.00  0.00     0.328 C 
ATOM      8  O   UNL A   1      33.654  26.002  21.604  1.00  0.00    -0.250 OA
BRANCH   7   9
ATOM      9  C   UNL A   1      32.210  24.997  23.015  1.00  0.00     0.193 C 
ATOM     10  N   UNL A   1      32.753  24.746  24.368  1.00  0.00    -0.343 N 
ATOM     11  C   UNL A   1      32.319  25.703  25.375  1.00  0.00     0.119 C 
ATOM     12  C   UNL A   1      30.790  25.740  25.411  1.00  0.00     0.022 C 
ATOM     13  C   UNL A   1      30.702  24.928  23.028  1.00  0.00     0.037 C 
ATOM     14  C   UNL A   1      30.135  25.908  24.042  1.00  0.00     0.005 C 
BRANCH  10  15
ATOM     15  C   UNL A   1      33.848  23.991  24.740  1.00  0.00     0.133 A 
ATOM     16  C   UNL A   1      34.553  21.823  25.169  1.00  0.00     0.161 A 
ATOM     17  N   UNL A   1      35.758  22.153  25.629  1.00  0.00    -0.233 NA
ATOM     18  N   UNL A   1      33.611  22.670  24.720  1.00  0.00    -0.211 NA
ATOM     19  C   UNL A   1      36.005  23.480  25.653  1.00  0.00     0.043 A 
ATOM     20  C   UNL A   1      37.327  23.860  26.269  1.00  0.00     0.067 C 
ATOM     21  C   UNL A   1      35.090  24.434  25.169  1.00  0.00     0.070 A 
BRANCH  16  22
ATOM     22  C   UNL A   1      34.227  20.415  24.981  1.00  0.00     0.019 A 
ATOM     23  C   UNL A   1      33.507  16.304  23.895  1.00  0.00     0.044 C 
ATOM     24  C   UNL A   1      33.750  17.719  24.320  1.00  0.00    -0.051 A 
ATOM     25  C   UNL A   1      32.678  18.603  24.518  1.00  0.00     0.004 A 
ATOM     26  C   UNL A   1      35.057  18.180  24.488  1.00  0.00     0.004 A 
ATOM     27  C   UNL A   1      32.914  19.942  24.855  1.00  0.00     0.012 A 
ATOM     28  C   UNL A   1      35.287  19.510  24.813  1.00  0.00     0.012 A 
ENDBRANCH  16  22
ENDBRANCH  10  15
ENDBRANCH   7   9
ENDBRANCH   6   7
ENDBRANCH   5   6
ENDBRANCH   4   5
ENDBRANCH   3   4
ENDBRANCH   2   3
ENDBRANCH   1   2
BRANCH   1  29
ATOM     29  O   UNL A   1      34.418  31.879  29.001  1.00  0.00    -0.376 OA
BRANCH  29  30
ATOM     30  C   UNL A   1      35.814  31.845  29.219  1.00  0.00     0.202 C 
BRANCH  30  31
ATOM     31  C   UNL A   1      36.279  30.704  30.141  1.00  0.00     0.261 C 
BRANCH  31  32
ATOM     32  O   UNL A   1      36.795  29.591  29.384  1.00  0.00    -0.460 OA
BRANCH  32  33
ATOM     33  C   UNL A   1      37.865  28.929  29.947  1.00  0.00     0.338 C 
ATOM     34  O   UNL A   1      37.774  28.236  30.949  1.00  0.00    -0.246 OA
BRANCH  33  35
ATOM     35  C   UNL A   1      39.126  29.353  29.260  1.00  0.00     0.060 A 
ATOM     36  C   UNL A   1      39.644  28.887  28.039  1.00  0.00     0.016 A 
ATOM     37  C   UNL A   1      39.964  30.103  30.012  1.00  0.00     0.016 A 
ATOM     38  C   UNL A   1      41.067  28.981  27.699  1.00  0.00     0.010 A 
ATOM     39  C   UNL A   1      41.317  30.062  29.703  1.00  0.00     0.010 A 
ATOM     40  C   UNL A   1      42.033  29.476  28.588  1.00  0.00    -0.014 A 
BRANCH  40  41
ATOM     41  C   UNL A   1      43.779  29.322  28.378  1.00  0.00     0.031 A 
ATOM     42  C   UNL A   1      45.046  30.352  27.639  1.00  0.00     0.074 A 
ATOM     43  C   UNL A   1      44.337  28.156  28.771  1.00  0.00     0.049 A 
ATOM     44  N   UNL A   1      46.215  29.914  27.204  1.00  0.00    -0.248 NA
ATOM     45  C   UNL A   1      45.092  31.866  27.334  1.00  0.00     0.031 C 
ATOM     46  C   UNL A   1      45.745  27.916  29.067  1.00  0.00     0.029 A 
ATOM     47  N   UNL A   1      43.743  26.904  28.947  1.00  0.00    -0.354 N 
ATOM     48  C   UNL A   1      47.022  31.038  26.938  1.00  0.00     0.074 A 
ATOM     49  C   UNL A   1      46.191  32.125  26.655  1.00  0.00     0.031 C 
ATOM     50  C   UNL A   1      45.957  26.594  29.097  1.00  0.00     0.029 A 
ATOM     51  C   UNL A   1      44.734  25.963  28.648  1.00  0.00     0.049 A 
ATOM     52  H   UNL A   1      42.817  26.721  29.225  1.00  0.00     0.167 HD
ATOM     53  C   UNL A   1      48.331  31.124  27.293  1.00  0.00     0.034 A 
ATOM     54  C   UNL A   1      44.577  25.085  27.622  1.00  0.00     0.034 A 
ATOM     55  C   UNL A   1      48.883  29.799  27.350  1.00  0.00     0.049 A 
ATOM     56  C   UNL A   1      45.731  25.123  26.644  1.00  0.00     0.074 A 
ATOM     57  C   UNL A   1      49.317  28.962  28.350  1.00  0.00     0.029 A 
ATOM     58  N   UNL A   1      48.738  29.029  26.208  1.00  0.00    -0.354 N 
ATOM     59  N   UNL A   1      46.778  25.898  26.776  1.00  0.00    -0.248 NA
ATOM     60  C   UNL A   1      45.833  24.291  25.451  1.00  0.00     0.031 C 
ATOM     61  C   UNL A   1      49.255  27.632  27.828  1.00  0.00     0.029 A 
ATOM     62  C   UNL A   1      48.854  27.686  26.500  1.00  0.00     0.049 A 
ATOM     63  H   UNL A   1      48.573  29.391  25.308  1.00  0.00     0.167 HD
ATOM     64  C   UNL A   1      47.571  25.827  25.665  1.00  0.00     0.074 A 
ATOM     65  C   UNL A   1      46.992  24.723  24.918  1.00  0.00     0.031 C 
ATOM     66  C   UNL A   1      48.579  26.730  25.427  1.00  0.00     0.034 A 
BRANCH  53  67
ATOM     67  C   UNL A   1      49.060  32.430  27.667  1.00  0.00     0.023 A 
ATOM     68  C   UNL A   1      48.708  33.036  28.888  1.00  0.00     0.012 A 
ATOM     69  C   UNL A   1      49.985  33.174  26.862  1.00  0.00     0.148 A 
ATOM     70  C   UNL A   1      49.238  34.275  29.296  1.00  0.00     0.002 A 
ATOM     71  C   UNL A   1      50.581  34.364  27.312  1.00  0.00     0.091 A 
ATOM     72  F   UNL A   1      50.230  32.805  25.596  1.00  0.00    -0.205 F 
ATOM     73  C   UNL A   1      50.192  34.927  28.524  1.00  0.00     0.022 A 
BRANCH  71  74
ATOM     74  S   UNL A   1      51.890  35.214  26.392  1.00  0.00     0.127 S 
ATOM     75  O   UNL A   1      52.324  36.241  27.338  1.00  0.00    -0.237 OA
ATOM     76  O   UNL A   1      52.870  34.149  26.164  1.00  0.00    -0.237 OA
ATOM     77  O   UNL A   1      51.259  35.712  25.174  1.00  0.00    -0.744 OA
ENDBRANCH  71  74
ENDBRANCH  53  67
BRANCH  54  78
ATOM     78  C   UNL A   1      43.144  24.665  27.448  1.00  0.00     0.023 A 
ATOM     79  C   UNL A   1      42.297  25.644  26.856  1.00  0.00     0.012 A 
ATOM     80  C   UNL A   1      42.690  23.332  27.453  1.00  0.00     0.148 A 
ATOM     81  C   UNL A   1      41.113  25.305  26.194  1.00  0.00     0.002 A 
ATOM     82  C   UNL A   1      41.480  23.005  26.807  1.00  0.00     0.091 A 
ATOM     83  F   UNL A   1      43.454  22.389  28.020  1.00  0.00    -0.205 F 
ATOM     84  C   UNL A   1      40.717  23.980  26.149  1.00  0.00     0.022 A 
BRANCH  82  85
ATOM     85  S   UNL A   1      40.939  21.297  26.628  1.00  0.00     0.127 S 
ATOM     86  O   UNL A   1      39.703  21.449  25.868  1.00  0.00    -0.237 OA
ATOM     87  O   UNL A   1      42.036  20.666  25.890  1.00  0.00    -0.237 OA
ATOM     88  O   UNL A   1      40.817  20.840  28.001  1.00  0.00    -0.744 OA
ENDBRANCH  82  85
ENDBRANCH  54  78
BRANCH  66  89
ATOM     89  C   UNL A   1      49.333  26.897  24.109  1.00  0.00     0.023 A 
ATOM     90  C   UNL A   1      48.717  27.366  22.935  1.00  0.00     0.012 A 
ATOM     91  C   UNL A   1      50.749  26.758  24.056  1.00  0.00     0.148 A 
ATOM     92  C   UNL A   1      49.440  27.625  21.763  1.00  0.00     0.002 A 
ATOM     93  C   UNL A   1      51.477  27.154  22.936  1.00  0.00     0.091 A 
ATOM     94  F   UNL A   1      51.416  26.239  25.097  1.00  0.00    -0.205 F 
ATOM     95  C   UNL A   1      50.826  27.548  21.770  1.00  0.00     0.022 A 
BRANCH  93  96
ATOM     96  S   UNL A   1      53.262  27.361  23.056  1.00  0.00     0.127 S 
ATOM     97  O   UNL A   1      53.429  27.885  24.408  1.00  0.00    -0.237 OA
ATOM     98  O   UNL A   1      53.762  25.997  22.868  1.00  0.00    -0.237 OA
ATOM     99  O   UNL A   1      53.586  28.267  21.960  1.00  0.00    -0.744 OA
ENDBRANCH  93  96
ENDBRANCH  66  89
ENDBRANCH  40  41
ENDBRANCH  33  35
ENDBRANCH  32  33
ENDBRANCH  31  32
ENDBRANCH  30  31
ENDBRANCH  29  30
ENDBRANCH   1  29
TORSDOF 22
ENDMDL
