MODEL 1
REMARK VINA RESULT:     -11.3      0.000      0.000
REMARK SMILES CCn1nc(C(=O)OCCOCCOCCOC(=O)c2ccc(-c3c4nc(c(-c5cccc(S(=O)(=O)[O-])c5F)c5ccc([nH]5)c(-c5cccc(S(=O)(=O)[O-])c5F)c5nc(c(-c6cccc(S(=O)(=O)[O-])c6F)c6ccc3[nH]6)C=C5)C=C4)cc2)c2c1CC[C@H]([NH2+]Cc1nn(CC)c3ccccc13)C2
REMARK SMILES IDX 12 1 11 2 10 3 9 4 8 5 6 6 7 7 5 8 3 9 4 10 84 11 83 12
REMARK SMILES IDX 85 13 101 14 86 15 87 16 2 17 1 18 88 19 89 22 90 23 91 24
REMARK SMILES IDX 100 25 92 26 95 27 99 28 96 29 98 30 97 31 93 32 94 33 13 34
REMARK SMILES IDX 14 35 15 36 16 37 17 38 18 39 19 40 20 41 21 42 82 43 22 44
REMARK SMILES IDX 81 45 23 46 24 47 25 48 75 49 26 50 80 51 74 52 76 53 27 54
REMARK SMILES IDX 79 55 73 56 72 57 28 59 60 60 40 61 59 62 41 63 44 64 58 65
REMARK SMILES IDX 77 66 42 67 43 68 57 70 78 71 45 72 29 73 30 74 38 75 31 76
REMARK SMILES IDX 33 77 39 78 32 79 34 80 35 81 36 82 37 83 61 84 62 85 70 86
REMARK SMILES IDX 63 87 65 88 71 89 64 90 66 91 67 92 68 93 69 94 46 95 47 96
REMARK SMILES IDX 55 97 48 98 50 99 56 100 49 101 51 102 52 103 53 104 54 105
REMARK H PARENT 88 20 88 21 76 58 44 69
REMARK Flexibility Score: inf
ROOT
ATOM      1  C   UNL A   1      41.545  19.102  26.810  1.00  0.00     0.188 C 
ENDROOT
BRANCH   1   2
ATOM      2  O   UNL A   1      40.664  19.179  25.703  1.00  0.00    -0.376 OA
BRANCH   2   3
ATOM      3  C   UNL A   1      39.672  20.195  25.829  1.00  0.00     0.202 C 
BRANCH   3   4
ATOM      4  C   UNL A   1      38.373  19.878  25.114  1.00  0.00     0.261 C 
BRANCH   4   5
ATOM      5  O   UNL A   1      37.638  20.997  24.617  1.00  0.00    -0.458 OA
BRANCH   5   6
ATOM      6  C   UNL A   1      36.696  21.735  25.262  1.00  0.00     0.359 C 
ATOM      7  O   UNL A   1      36.935  22.663  26.016  1.00  0.00    -0.244 OA
BRANCH   6   8
ATOM      8  C   UNL A   1      35.361  21.196  24.904  1.00  0.00     0.174 A 
ATOM      9  N   UNL A   1      33.669  19.938  24.500  1.00  0.00    -0.269 N 
ATOM     10  N   UNL A   1      34.975  19.907  24.899  1.00  0.00    -0.165 NA
ATOM     11  C   UNL A   1      33.258  21.190  24.128  1.00  0.00     0.043 A 
ATOM     12  C   UNL A   1      34.284  22.013  24.486  1.00  0.00     0.014 A 
ATOM     13  C   UNL A   1      32.037  21.679  23.439  1.00  0.00     0.062 C 
ATOM     14  C   UNL A   1      34.323  23.459  24.260  1.00  0.00     0.105 C 
ATOM     15  C   UNL A   1      32.395  22.978  22.632  1.00  0.00     0.072 C 
ATOM     16  C   UNL A   1      33.193  24.058  23.437  1.00  0.00     0.187 C 
BRANCH   9  17
ATOM     17  C   UNL A   1      32.940  18.685  24.448  1.00  0.00     0.141 C 
ATOM     18  C   UNL A   1      33.360  17.770  23.309  1.00  0.00     0.029 C 
ENDBRANCH   9  17
BRANCH  16  19
ATOM     19  N   UNL A   1      33.755  25.132  22.558  1.00  0.00    -0.338 N 
ATOM     20  H   UNL A   1      34.452  24.712  21.944  1.00  0.00     0.346 HD
ATOM     21  H   UNL A   1      34.153  25.841  23.174  1.00  0.00     0.346 HD
BRANCH  19  22
ATOM     22  C   UNL A   1      32.732  25.818  21.709  1.00  0.00     0.320 C 
BRANCH  22  23
ATOM     23  C   UNL A   1      31.972  26.981  22.371  1.00  0.00     0.124 A 
ATOM     24  N   UNL A   1      30.765  27.427  21.957  1.00  0.00    -0.171 NA
ATOM     25  C   UNL A   1      32.432  27.743  23.494  1.00  0.00     0.029 A 
ATOM     26  N   UNL A   1      30.532  28.534  22.721  1.00  0.00    -0.265 N 
ATOM     27  C   UNL A   1      31.410  28.651  23.774  1.00  0.00     0.069 A 
ATOM     28  C   UNL A   1      33.599  27.779  24.284  1.00  0.00     0.012 A 
ATOM     29  C   UNL A   1      31.451  29.513  24.881  1.00  0.00     0.028 A 
ATOM     30  C   UNL A   1      33.686  28.697  25.340  1.00  0.00     0.001 A 
ATOM     31  C   UNL A   1      32.616  29.531  25.649  1.00  0.00     0.002 A 
BRANCH  26  32
ATOM     32  C   UNL A   1      29.453  29.455  22.371  1.00  0.00     0.141 C 
ATOM     33  C   UNL A   1      28.031  29.128  22.856  1.00  0.00     0.029 C 
ENDBRANCH  26  32
ENDBRANCH  22  23
ENDBRANCH  19  22
ENDBRANCH  16  19
ENDBRANCH   6   8
ENDBRANCH   5   6
ENDBRANCH   4   5
ENDBRANCH   3   4
ENDBRANCH   2   3
ENDBRANCH   1   2
BRANCH   1  34
ATOM     34  C   UNL A   1      42.792  18.213  26.585  1.00  0.00     0.188 C 
BRANCH  34  35
ATOM     35  O   UNL A   1      43.500  18.158  25.346  1.00  0.00    -0.376 OA
BRANCH  35  36
ATOM     36  C   UNL A   1      44.837  18.618  25.165  1.00  0.00     0.202 C 
BRANCH  36  37
ATOM     37  C   UNL A   1      45.274  19.216  23.837  1.00  0.00     0.261 C 
BRANCH  37  38
ATOM     38  O   UNL A   1      44.632  20.459  23.654  1.00  0.00    -0.460 OA
BRANCH  38  39
ATOM     39  C   UNL A   1      45.197  21.456  24.353  1.00  0.00     0.338 C 
ATOM     40  O   UNL A   1      46.385  21.655  24.537  1.00  0.00    -0.246 OA
BRANCH  39  41
ATOM     41  C   UNL A   1      44.134  22.328  24.848  1.00  0.00     0.060 A 
ATOM     42  C   UNL A   1      44.281  23.682  24.553  1.00  0.00     0.016 A 
ATOM     43  C   UNL A   1      43.173  21.842  25.750  1.00  0.00     0.016 A 
ATOM     44  C   UNL A   1      43.751  24.566  25.445  1.00  0.00     0.010 A 
ATOM     45  C   UNL A   1      42.640  22.726  26.643  1.00  0.00     0.010 A 
ATOM     46  C   UNL A   1      43.086  24.037  26.553  1.00  0.00    -0.014 A 
BRANCH  46  47
ATOM     47  C   UNL A   1      43.061  24.874  27.719  1.00  0.00     0.031 A 
ATOM     48  C   UNL A   1      42.017  25.896  27.674  1.00  0.00     0.074 A 
ATOM     49  C   UNL A   1      43.970  24.704  28.695  1.00  0.00     0.049 A 
ATOM     50  N   UNL A   1      42.169  27.161  27.482  1.00  0.00    -0.248 NA
ATOM     51  C   UNL A   1      40.629  25.422  27.639  1.00  0.00     0.031 C 
ATOM     52  C   UNL A   1      44.857  23.553  28.917  1.00  0.00     0.029 A 
ATOM     53  N   UNL A   1      44.185  25.478  29.786  1.00  0.00    -0.354 N 
ATOM     54  C   UNL A   1      40.886  27.676  27.566  1.00  0.00     0.074 A 
ATOM     55  C   UNL A   1      39.981  26.565  27.427  1.00  0.00     0.031 C 
ATOM     56  C   UNL A   1      45.300  23.586  30.193  1.00  0.00     0.029 A 
ATOM     57  C   UNL A   1      44.835  24.814  30.815  1.00  0.00     0.049 A 
ATOM     58  H   UNL A   1      43.906  26.421  29.844  1.00  0.00     0.167 HD
ATOM     59  C   UNL A   1      40.673  28.921  28.061  1.00  0.00     0.034 A 
ATOM     60  C   UNL A   1      44.870  25.211  32.107  1.00  0.00     0.034 A 
ATOM     61  C   UNL A   1      41.865  29.727  28.037  1.00  0.00     0.049 A 
ATOM     62  C   UNL A   1      44.541  26.658  32.135  1.00  0.00     0.074 A 
ATOM     63  C   UNL A   1      42.740  30.141  27.052  1.00  0.00     0.029 A 
ATOM     64  N   UNL A   1      42.515  29.924  29.232  1.00  0.00    -0.354 N 
ATOM     65  N   UNL A   1      45.312  27.588  31.640  1.00  0.00    -0.248 NA
ATOM     66  C   UNL A   1      43.154  27.047  32.339  1.00  0.00     0.031 C 
ATOM     67  C   UNL A   1      44.022  30.165  27.674  1.00  0.00     0.029 A 
ATOM     68  C   UNL A   1      43.859  29.789  29.010  1.00  0.00     0.049 A 
ATOM     69  H   UNL A   1      42.088  30.125  30.096  1.00  0.00     0.167 HD
ATOM     70  C   UNL A   1      44.437  28.508  31.071  1.00  0.00     0.074 A 
ATOM     71  C   UNL A   1      43.132  28.189  31.644  1.00  0.00     0.031 C 
ATOM     72  C   UNL A   1      44.794  29.242  29.974  1.00  0.00     0.034 A 
BRANCH  59  73
ATOM     73  C   UNL A   1      39.485  29.262  28.920  1.00  0.00     0.023 A 
ATOM     74  C   UNL A   1      38.589  30.231  28.430  1.00  0.00     0.012 A 
ATOM     75  C   UNL A   1      39.344  28.877  30.275  1.00  0.00     0.148 A 
ATOM     76  C   UNL A   1      37.621  30.808  29.257  1.00  0.00     0.002 A 
ATOM     77  C   UNL A   1      38.319  29.379  31.062  1.00  0.00     0.091 A 
ATOM     78  F   UNL A   1      40.284  28.136  30.872  1.00  0.00    -0.205 F 
ATOM     79  C   UNL A   1      37.472  30.369  30.568  1.00  0.00     0.022 A 
BRANCH  77  80
ATOM     80  S   UNL A   1      38.061  28.772  32.733  1.00  0.00     0.127 S 
ATOM     81  O   UNL A   1      36.753  29.333  33.051  1.00  0.00    -0.237 OA
ATOM     82  O   UNL A   1      38.084  27.322  32.536  1.00  0.00    -0.237 OA
ATOM     83  O   UNL A   1      39.193  29.281  33.499  1.00  0.00    -0.744 OA
ENDBRANCH  77  80
ENDBRANCH  59  73
BRANCH  60  84
ATOM     84  C   UNL A   1      44.880  24.365  33.322  1.00  0.00     0.023 A 
ATOM     85  C   UNL A   1      43.710  23.681  33.698  1.00  0.00     0.012 A 
ATOM     86  C   UNL A   1      46.089  24.032  33.979  1.00  0.00     0.148 A 
ATOM     87  C   UNL A   1      43.745  22.684  34.681  1.00  0.00     0.002 A 
ATOM     88  C   UNL A   1      46.115  23.056  34.969  1.00  0.00     0.091 A 
ATOM     89  F   UNL A   1      47.230  24.604  33.571  1.00  0.00    -0.205 F 
ATOM     90  C   UNL A   1      44.945  22.370  35.314  1.00  0.00     0.022 A 
BRANCH  88  91
ATOM     91  S   UNL A   1      47.629  22.603  35.828  1.00  0.00     0.127 S 
ATOM     92  O   UNL A   1      47.113  21.885  36.995  1.00  0.00    -0.237 OA
ATOM     93  O   UNL A   1      48.300  21.762  34.841  1.00  0.00    -0.237 OA
ATOM     94  O   UNL A   1      48.296  23.859  36.149  1.00  0.00    -0.744 OA
ENDBRANCH  88  91
ENDBRANCH  60  84
BRANCH  72  95
ATOM     95  C   UNL A   1      46.247  29.237  29.557  1.00  0.00     0.023 A 
ATOM     96  C   UNL A   1      47.183  30.128  30.126  1.00  0.00     0.012 A 
ATOM     97  C   UNL A   1      46.716  28.201  28.730  1.00  0.00     0.148 A 
ATOM     98  C   UNL A   1      48.548  30.004  29.857  1.00  0.00     0.002 A 
ATOM     99  C   UNL A   1      48.080  28.053  28.502  1.00  0.00     0.091 A 
ATOM    100  F   UNL A   1      45.819  27.353  28.205  1.00  0.00    -0.205 F 
ATOM    101  C   UNL A   1      48.998  28.959  29.056  1.00  0.00     0.022 A 
BRANCH  99 102
ATOM    102  S   UNL A   1      48.741  26.652  27.593  1.00  0.00     0.127 S 
ATOM    103  O   UNL A   1      50.158  26.697  27.948  1.00  0.00    -0.237 OA
ATOM    104  O   UNL A   1      48.003  25.526  28.167  1.00  0.00    -0.237 OA
ATOM    105  O   UNL A   1      48.437  26.906  26.190  1.00  0.00    -0.744 OA
ENDBRANCH  99 102
ENDBRANCH  72  95
ENDBRANCH  46  47
ENDBRANCH  39  41
ENDBRANCH  38  39
ENDBRANCH  37  38
ENDBRANCH  36  37
ENDBRANCH  35  36
ENDBRANCH  34  35
ENDBRANCH   1  34
TORSDOF 25
ENDMDL
MODEL 2
REMARK VINA RESULT:     -10.1      8.576     15.128
REMARK SMILES CCn1nc(C(=O)OCCOCCOCCOC(=O)c2ccc(-c3c4nc(c(-c5cccc(S(=O)(=O)[O-])c5F)c5ccc([nH]5)c(-c5cccc(S(=O)(=O)[O-])c5F)c5nc(c(-c6cccc(S(=O)(=O)[O-])c6F)c6ccc3[nH]6)C=C5)C=C4)cc2)c2c1CC[C@H]([NH2+]Cc1nn(CC)c3ccccc13)C2
REMARK SMILES IDX 12 1 11 2 10 3 9 4 8 5 6 6 7 7 5 8 3 9 4 10 84 11 83 12
REMARK SMILES IDX 85 13 101 14 86 15 87 16 2 17 1 18 88 19 89 22 90 23 91 24
REMARK SMILES IDX 100 25 92 26 95 27 99 28 96 29 98 30 97 31 93 32 94 33 13 34
REMARK SMILES IDX 14 35 15 36 16 37 17 38 18 39 19 40 20 41 21 42 82 43 22 44
REMARK SMILES IDX 81 45 23 46 24 47 25 48 75 49 26 50 80 51 74 52 76 53 27 54
REMARK SMILES IDX 79 55 73 56 72 57 28 59 60 60 40 61 59 62 41 63 44 64 58 65
REMARK SMILES IDX 77 66 42 67 43 68 57 70 78 71 45 72 29 73 30 74 38 75 31 76
REMARK SMILES IDX 33 77 39 78 32 79 34 80 35 81 36 82 37 83 61 84 62 85 70 86
REMARK SMILES IDX 63 87 65 88 71 89 64 90 66 91 67 92 68 93 69 94 46 95 47 96
REMARK SMILES IDX 55 97 48 98 50 99 56 100 49 101 51 102 52 103 53 104 54 105
REMARK H PARENT 88 20 88 21 76 58 44 69
REMARK Flexibility Score: inf
ROOT
ATOM      1  C   UNL A   1      36.474  34.097  35.154  1.00  0.00     0.188 C 
ENDROOT
BRANCH   1   2
ATOM      2  O   UNL A   1      36.561  32.683  35.145  1.00  0.00    -0.376 OA
BRANCH   2   3
ATOM      3  C   UNL A   1      37.579  32.166  35.998  1.00  0.00     0.202 C 
BRANCH   3   4
ATOM      4  C   UNL A   1      37.589  32.779  37.385  1.00  0.00     0.261 C 
BRANCH   4   5
ATOM      5  O   UNL A   1      36.708  32.187  38.342  1.00  0.00    -0.458 OA
BRANCH   5   6
ATOM      6  C   UNL A   1      36.798  30.960  38.919  1.00  0.00     0.359 C 
ATOM      7  O   UNL A   1      36.709  29.901  38.320  1.00  0.00    -0.244 OA
BRANCH   6   8
ATOM      8  C   UNL A   1      36.995  31.147  40.376  1.00  0.00     0.174 A 
ATOM      9  N   UNL A   1      37.655  31.028  42.416  1.00  0.00    -0.269 N 
ATOM     10  N   UNL A   1      37.862  30.497  41.174  1.00  0.00    -0.165 NA
ATOM     11  C   UNL A   1      36.598  31.898  42.451  1.00  0.00     0.043 A 
ATOM     12  C   UNL A   1      36.244  32.068  41.146  1.00  0.00     0.014 A 
ATOM     13  C   UNL A   1      35.867  32.540  43.573  1.00  0.00     0.062 C 
ATOM     14  C   UNL A   1      35.131  32.894  40.675  1.00  0.00     0.105 C 
ATOM     15  C   UNL A   1      34.383  32.799  43.130  1.00  0.00     0.072 C 
ATOM     16  C   UNL A   1      34.220  33.492  41.736  1.00  0.00     0.187 C 
BRANCH   9  17
ATOM     17  C   UNL A   1      38.493  30.565  43.506  1.00  0.00     0.141 C 
ATOM     18  C   UNL A   1      39.978  30.537  43.179  1.00  0.00     0.029 C 
ENDBRANCH   9  17
BRANCH  16  19
ATOM     19  N   UNL A   1      32.810  33.454  41.236  1.00  0.00    -0.338 N 
ATOM     20  H   UNL A   1      32.645  32.541  40.810  1.00  0.00     0.346 HD
ATOM     21  H   UNL A   1      32.711  34.220  40.569  1.00  0.00     0.346 HD
BRANCH  19  22
ATOM     22  C   UNL A   1      31.782  33.670  42.301  1.00  0.00     0.320 C 
BRANCH  22  23
ATOM     23  C   UNL A   1      31.327  35.124  42.518  1.00  0.00     0.124 A 
ATOM     24  N   UNL A   1      31.681  36.153  41.716  1.00  0.00    -0.171 NA
ATOM     25  C   UNL A   1      30.486  35.582  43.583  1.00  0.00     0.029 A 
ATOM     26  N   UNL A   1      31.181  37.258  42.342  1.00  0.00    -0.265 N 
ATOM     27  C   UNL A   1      30.305  36.947  43.357  1.00  0.00     0.069 A 
ATOM     28  C   UNL A   1      29.880  35.002  44.716  1.00  0.00     0.012 A 
ATOM     29  C   UNL A   1      29.450  37.734  44.144  1.00  0.00     0.028 A 
ATOM     30  C   UNL A   1      29.093  35.799  45.559  1.00  0.00     0.001 A 
ATOM     31  C   UNL A   1      28.861  37.139  45.260  1.00  0.00     0.002 A 
BRANCH  26  32
ATOM     32  C   UNL A   1      31.603  38.593  41.926  1.00  0.00     0.141 C 
ATOM     33  C   UNL A   1      32.062  38.791  40.471  1.00  0.00     0.029 C 
ENDBRANCH  26  32
ENDBRANCH  22  23
ENDBRANCH  19  22
ENDBRANCH  16  19
ENDBRANCH   6   8
ENDBRANCH   5   6
ENDBRANCH   4   5
ENDBRANCH   3   4
ENDBRANCH   2   3
ENDBRANCH   1   2
BRANCH   1  34
ATOM     34  C   UNL A   1      35.142  34.668  34.613  1.00  0.00     0.188 C 
BRANCH  34  35
ATOM     35  O   UNL A   1      35.075  35.760  33.694  1.00  0.00    -0.376 OA
BRANCH  35  36
ATOM     36  C   UNL A   1      33.928  36.587  33.513  1.00  0.00     0.202 C 
BRANCH  36  37
ATOM     37  C   UNL A   1      33.304  36.749  32.136  1.00  0.00     0.261 C 
BRANCH  37  38
ATOM     38  O   UNL A   1      34.146  36.158  31.172  1.00  0.00    -0.460 OA
BRANCH  38  39
ATOM     39  C   UNL A   1      33.477  35.635  30.132  1.00  0.00     0.338 C 
ATOM     40  O   UNL A   1      32.541  36.128  29.526  1.00  0.00    -0.246 OA
BRANCH  39  41
ATOM     41  C   UNL A   1      34.087  34.352  29.792  1.00  0.00     0.060 A 
ATOM     42  C   UNL A   1      34.413  33.536  30.874  1.00  0.00     0.016 A 
ATOM     43  C   UNL A   1      34.515  34.089  28.481  1.00  0.00     0.016 A 
ATOM     44  C   UNL A   1      35.480  32.701  30.715  1.00  0.00     0.010 A 
ATOM     45  C   UNL A   1      35.581  33.252  28.318  1.00  0.00     0.010 A 
ATOM     46  C   UNL A   1      36.126  32.718  29.477  1.00  0.00    -0.014 A 
BRANCH  46  47
ATOM     47  C   UNL A   1      37.509  32.331  29.495  1.00  0.00     0.031 A 
ATOM     48  C   UNL A   1      37.716  30.914  29.202  1.00  0.00     0.074 A 
ATOM     49  C   UNL A   1      38.460  33.230  29.804  1.00  0.00     0.049 A 
ATOM     50  N   UNL A   1      38.047  29.985  30.032  1.00  0.00    -0.248 NA
ATOM     51  C   UNL A   1      37.312  30.449  27.872  1.00  0.00     0.031 C 
ATOM     52  C   UNL A   1      38.344  34.694  29.848  1.00  0.00     0.029 A 
ATOM     53  N   UNL A   1      39.783  33.017  30.006  1.00  0.00    -0.354 N 
ATOM     54  C   UNL A   1      38.145  28.847  29.248  1.00  0.00     0.074 A 
ATOM     55  C   UNL A   1      37.468  29.134  28.010  1.00  0.00     0.031 C 
ATOM     56  C   UNL A   1      39.583  35.230  29.792  1.00  0.00     0.029 A 
ATOM     57  C   UNL A   1      40.557  34.155  29.841  1.00  0.00     0.049 A 
ATOM     58  H   UNL A   1      40.159  32.138  30.246  1.00  0.00     0.167 HD
ATOM     59  C   UNL A   1      39.045  27.878  29.547  1.00  0.00     0.034 A 
ATOM     60  C   UNL A   1      41.894  34.172  29.640  1.00  0.00     0.034 A 
ATOM     61  C   UNL A   1      39.496  27.957  30.912  1.00  0.00     0.049 A 
ATOM     62  C   UNL A   1      42.430  32.868  30.108  1.00  0.00     0.074 A 
ATOM     63  C   UNL A   1      38.875  27.926  32.145  1.00  0.00     0.029 A 
ATOM     64  N   UNL A   1      40.752  28.471  31.130  1.00  0.00    -0.354 N 
ATOM     65  N   UNL A   1      42.439  32.493  31.358  1.00  0.00    -0.248 NA
ATOM     66  C   UNL A   1      42.574  31.794  29.137  1.00  0.00     0.031 C 
ATOM     67  C   UNL A   1      39.629  28.814  32.967  1.00  0.00     0.029 A 
ATOM     68  C   UNL A   1      40.682  29.320  32.202  1.00  0.00     0.049 A 
ATOM     69  H   UNL A   1      41.560  28.265  30.606  1.00  0.00     0.167 HD
ATOM     70  C   UNL A   1      42.153  31.133  31.321  1.00  0.00     0.074 A 
ATOM     71  C   UNL A   1      42.375  30.739  29.933  1.00  0.00     0.031 C 
ATOM     72  C   UNL A   1      41.481  30.522  32.344  1.00  0.00     0.034 A 
BRANCH  59  73
ATOM     73  C   UNL A   1      39.797  27.112  28.493  1.00  0.00     0.023 A 
ATOM     74  C   UNL A   1      39.737  25.706  28.547  1.00  0.00     0.012 A 
ATOM     75  C   UNL A   1      40.755  27.685  27.621  1.00  0.00     0.148 A 
ATOM     76  C   UNL A   1      40.607  24.913  27.793  1.00  0.00     0.002 A 
ATOM     77  C   UNL A   1      41.545  26.894  26.802  1.00  0.00     0.091 A 
ATOM     78  F   UNL A   1      41.025  28.993  27.676  1.00  0.00    -0.205 F 
ATOM     79  C   UNL A   1      41.499  25.505  26.905  1.00  0.00     0.022 A 
BRANCH  77  80
ATOM     80  S   UNL A   1      42.649  27.637  25.595  1.00  0.00     0.127 S 
ATOM     81  O   UNL A   1      41.832  28.733  25.085  1.00  0.00    -0.237 OA
ATOM     82  O   UNL A   1      43.782  28.042  26.429  1.00  0.00    -0.237 OA
ATOM     83  O   UNL A   1      42.961  26.565  24.657  1.00  0.00    -0.744 OA
ENDBRANCH  77  80
ENDBRANCH  59  73
BRANCH  60  84
ATOM     84  C   UNL A   1      42.681  35.115  28.814  1.00  0.00     0.023 A 
ATOM     85  C   UNL A   1      42.460  35.168  27.426  1.00  0.00     0.012 A 
ATOM     86  C   UNL A   1      43.473  36.129  29.402  1.00  0.00     0.148 A 
ATOM     87  C   UNL A   1      42.991  36.206  26.652  1.00  0.00     0.002 A 
ATOM     88  C   UNL A   1      44.016  37.148  28.627  1.00  0.00     0.091 A 
ATOM     89  F   UNL A   1      43.619  36.151  30.735  1.00  0.00    -0.205 F 
ATOM     90  C   UNL A   1      43.766  37.197  27.251  1.00  0.00     0.022 A 
BRANCH  88  91
ATOM     91  S   UNL A   1      45.028  38.456  29.335  1.00  0.00     0.127 S 
ATOM     92  O   UNL A   1      45.437  39.202  28.145  1.00  0.00    -0.237 OA
ATOM     93  O   UNL A   1      44.072  39.149  30.193  1.00  0.00    -0.237 OA
ATOM     94  O   UNL A   1      46.124  37.784  30.021  1.00  0.00    -0.744 OA
ENDBRANCH  88  91
ENDBRANCH  60  84
BRANCH  72  95
ATOM     95  C   UNL A   1      41.298  31.289  33.634  1.00  0.00     0.023 A 
ATOM     96  C   UNL A   1      41.910  30.872  34.835  1.00  0.00     0.012 A 
ATOM     97  C   UNL A   1      40.667  32.545  33.597  1.00  0.00     0.148 A 
ATOM     98  C   UNL A   1      41.872  31.675  35.978  1.00  0.00     0.002 A 
ATOM     99  C   UNL A   1      40.670  33.362  34.722  1.00  0.00     0.091 A 
ATOM    100  F   UNL A   1      40.099  32.936  32.445  1.00  0.00    -0.205 F 
ATOM    101  C   UNL A   1      41.263  32.925  35.918  1.00  0.00     0.022 A 
BRANCH  99 102
ATOM    102  S   UNL A   1      40.026  35.037  34.677  1.00  0.00     0.127 S 
ATOM    103  O   UNL A   1      41.206  35.810  34.293  1.00  0.00    -0.237 OA
ATOM    104  O   UNL A   1      38.990  34.950  33.647  1.00  0.00    -0.237 OA
ATOM    105  O   UNL A   1      39.510  35.303  36.016  1.00  0.00    -0.744 OA
ENDBRANCH  99 102
ENDBRANCH  72  95
ENDBRANCH  46  47
ENDBRANCH  39  41
ENDBRANCH  38  39
ENDBRANCH  37  38
ENDBRANCH  36  37
ENDBRANCH  35  36
ENDBRANCH  34  35
ENDBRANCH   1  34
TORSDOF 25
ENDMDL
MODEL 3
REMARK VINA RESULT:      -9.9      1.635      2.304
REMARK SMILES CCn1nc(C(=O)OCCOCCOCCOC(=O)c2ccc(-c3c4nc(c(-c5cccc(S(=O)(=O)[O-])c5F)c5ccc([nH]5)c(-c5cccc(S(=O)(=O)[O-])c5F)c5nc(c(-c6cccc(S(=O)(=O)[O-])c6F)c6ccc3[nH]6)C=C5)C=C4)cc2)c2c1CC[C@H]([NH2+]Cc1nn(CC)c3ccccc13)C2
REMARK SMILES IDX 12 1 11 2 10 3 9 4 8 5 6 6 7 7 5 8 3 9 4 10 84 11 83 12
REMARK SMILES IDX 85 13 101 14 86 15 87 16 2 17 1 18 88 19 89 22 90 23 91 24
REMARK SMILES IDX 100 25 92 26 95 27 99 28 96 29 98 30 97 31 93 32 94 33 13 34
REMARK SMILES IDX 14 35 15 36 16 37 17 38 18 39 19 40 20 41 21 42 82 43 22 44
REMARK SMILES IDX 81 45 23 46 24 47 25 48 75 49 26 50 80 51 74 52 76 53 27 54
REMARK SMILES IDX 79 55 73 56 72 57 28 59 60 60 40 61 59 62 41 63 44 64 58 65
REMARK SMILES IDX 77 66 42 67 43 68 57 70 78 71 45 72 29 73 30 74 38 75 31 76
REMARK SMILES IDX 33 77 39 78 32 79 34 80 35 81 36 82 37 83 61 84 62 85 70 86
REMARK SMILES IDX 63 87 65 88 71 89 64 90 66 91 67 92 68 93 69 94 46 95 47 96
REMARK SMILES IDX 55 97 48 98 50 99 56 100 49 101 51 102 52 103 53 104 54 105
REMARK H PARENT 88 20 88 21 76 58 44 69
REMARK Flexibility Score: inf
ROOT
ATOM      1  C   UNL A   1      42.349  18.549  26.109  1.00  0.00     0.188 C 
ENDROOT
BRANCH   1   2
ATOM      2  O   UNL A   1      41.470  19.428  25.430  1.00  0.00    -0.376 OA
BRANCH   2   3
ATOM      3  C   UNL A   1      41.191  20.628  26.147  1.00  0.00     0.202 C 
BRANCH   3   4
ATOM      4  C   UNL A   1      39.723  20.823  26.472  1.00  0.00     0.261 C 
BRANCH   4   5
ATOM      5  O   UNL A   1      38.812  20.680  25.381  1.00  0.00    -0.458 OA
BRANCH   5   6
ATOM      6  C   UNL A   1      37.724  21.441  25.092  1.00  0.00     0.359 C 
ATOM      7  O   UNL A   1      37.740  22.652  24.946  1.00  0.00    -0.244 OA
BRANCH   6   8
ATOM      8  C   UNL A   1      36.541  20.549  25.016  1.00  0.00     0.174 A 
ATOM      9  N   UNL A   1      35.204  18.890  24.751  1.00  0.00    -0.269 N 
ATOM     10  N   UNL A   1      36.518  19.252  24.661  1.00  0.00    -0.165 NA
ATOM     11  C   UNL A   1      34.381  19.950  25.025  1.00  0.00     0.043 A 
ATOM     12  C   UNL A   1      35.225  20.982  25.306  1.00  0.00     0.014 A 
ATOM     13  C   UNL A   1      32.904  20.102  25.005  1.00  0.00     0.062 C 
ATOM     14  C   UNL A   1      34.810  22.347  25.632  1.00  0.00     0.105 C 
ATOM     15  C   UNL A   1      32.551  21.594  24.667  1.00  0.00     0.072 C 
ATOM     16  C   UNL A   1      33.327  22.664  25.507  1.00  0.00     0.187 C 
BRANCH   9  17
ATOM     17  C   UNL A   1      34.854  17.509  24.479  1.00  0.00     0.141 C 
ATOM     18  C   UNL A   1      33.959  17.323  23.264  1.00  0.00     0.029 C 
ENDBRANCH   9  17
BRANCH  16  19
ATOM     19  N   UNL A   1      33.175  24.048  24.957  1.00  0.00    -0.338 N 
ATOM     20  H   UNL A   1      33.122  23.985  23.940  1.00  0.00     0.346 HD
ATOM     21  H   UNL A   1      33.984  24.583  25.274  1.00  0.00     0.346 HD
BRANCH  19  22
ATOM     22  C   UNL A   1      31.959  24.766  25.448  1.00  0.00     0.320 C 
BRANCH  22  23
ATOM     23  C   UNL A   1      31.888  26.271  25.134  1.00  0.00     0.124 A 
ATOM     24  N   UNL A   1      32.848  27.159  25.475  1.00  0.00    -0.171 NA
ATOM     25  C   UNL A   1      30.812  26.930  24.455  1.00  0.00     0.029 A 
ATOM     26  N   UNL A   1      32.325  28.373  25.135  1.00  0.00    -0.265 N 
ATOM     27  C   UNL A   1      31.195  28.268  24.356  1.00  0.00     0.069 A 
ATOM     28  C   UNL A   1      29.558  26.548  23.936  1.00  0.00     0.012 A 
ATOM     29  C   UNL A   1      30.435  29.218  23.658  1.00  0.00     0.028 A 
ATOM     30  C   UNL A   1      28.751  27.510  23.312  1.00  0.00     0.001 A 
ATOM     31  C   UNL A   1      29.197  28.819  23.153  1.00  0.00     0.002 A 
BRANCH  26  32
ATOM     32  C   UNL A   1      32.952  29.604  25.610  1.00  0.00     0.141 C 
ATOM     33  C   UNL A   1      32.180  30.472  26.618  1.00  0.00     0.029 C 
ENDBRANCH  26  32
ENDBRANCH  22  23
ENDBRANCH  19  22
ENDBRANCH  16  19
ENDBRANCH   6   8
ENDBRANCH   5   6
ENDBRANCH   4   5
ENDBRANCH   3   4
ENDBRANCH   2   3
ENDBRANCH   1   2
BRANCH   1  34
ATOM     34  C   UNL A   1      43.840  18.696  25.721  1.00  0.00     0.188 C 
BRANCH  34  35
ATOM     35  O   UNL A   1      44.309  19.650  24.766  1.00  0.00    -0.376 OA
BRANCH  35  36
ATOM     36  C   UNL A   1      45.295  20.642  25.042  1.00  0.00     0.202 C 
BRANCH  36  37
ATOM     37  C   UNL A   1      45.011  21.755  26.038  1.00  0.00     0.261 C 
BRANCH  37  38
ATOM     38  O   UNL A   1      44.999  22.992  25.362  1.00  0.00    -0.460 OA
BRANCH  38  39
ATOM     39  C   UNL A   1      43.873  23.204  24.664  1.00  0.00     0.338 C 
ATOM     40  O   UNL A   1      43.492  22.615  23.667  1.00  0.00    -0.246 OA
BRANCH  39  41
ATOM     41  C   UNL A   1      43.116  24.265  25.326  1.00  0.00     0.060 A 
ATOM     42  C   UNL A   1      43.651  25.547  25.210  1.00  0.00     0.016 A 
ATOM     43  C   UNL A   1      42.064  23.952  26.202  1.00  0.00     0.016 A 
ATOM     44  C   UNL A   1      43.411  26.408  26.240  1.00  0.00     0.010 A 
ATOM     45  C   UNL A   1      41.821  24.813  27.233  1.00  0.00     0.010 A 
ATOM     46  C   UNL A   1      42.630  25.938  27.298  1.00  0.00    -0.014 A 
BRANCH  46  47
ATOM     47  C   UNL A   1      42.862  26.570  28.567  1.00  0.00     0.031 A 
ATOM     48  C   UNL A   1      42.082  27.791  28.756  1.00  0.00     0.074 A 
ATOM     49  C   UNL A   1      43.758  26.054  29.427  1.00  0.00     0.049 A 
ATOM     50  N   UNL A   1      42.513  29.006  28.728  1.00  0.00    -0.248 NA
ATOM     51  C   UNL A   1      40.623  27.646  28.777  1.00  0.00     0.031 C 
ATOM     52  C   UNL A   1      44.365  24.716  29.409  1.00  0.00     0.029 A 
ATOM     53  N   UNL A   1      44.205  26.582  30.592  1.00  0.00    -0.354 N 
ATOM     54  C   UNL A   1      41.390  29.772  28.995  1.00  0.00     0.074 A 
ATOM     55  C   UNL A   1      40.246  28.923  28.783  1.00  0.00     0.031 C 
ATOM     56  C   UNL A   1      44.872  24.452  30.633  1.00  0.00     0.029 A 
ATOM     57  C   UNL A   1      44.738  25.640  31.458  1.00  0.00     0.049 A 
ATOM     58  H   UNL A   1      44.155  27.543  30.803  1.00  0.00     0.167 HD
ATOM     59  C   UNL A   1      41.497  30.941  29.675  1.00  0.00     0.034 A 
ATOM     60  C   UNL A   1      44.933  25.815  32.784  1.00  0.00     0.034 A 
ATOM     61  C   UNL A   1      42.840  31.458  29.658  1.00  0.00     0.049 A 
ATOM     62  C   UNL A   1      44.950  27.277  33.041  1.00  0.00     0.074 A 
ATOM     63  C   UNL A   1      43.733  31.816  28.667  1.00  0.00     0.029 A 
ATOM     64  N   UNL A   1      43.581  31.319  30.808  1.00  0.00    -0.354 N 
ATOM     65  N   UNL A   1      45.887  28.079  32.614  1.00  0.00    -0.248 NA
ATOM     66  C   UNL A   1      43.703  27.926  33.418  1.00  0.00     0.031 C 
ATOM     67  C   UNL A   1      45.017  31.460  29.172  1.00  0.00     0.029 A 
ATOM     68  C   UNL A   1      44.844  30.927  30.452  1.00  0.00     0.049 A 
ATOM     69  H   UNL A   1      43.259  31.473  31.725  1.00  0.00     0.167 HD
ATOM     70  C   UNL A   1      45.219  29.246  32.257  1.00  0.00     0.074 A 
ATOM     71  C   UNL A   1      43.909  29.138  32.893  1.00  0.00     0.031 C 
ATOM     72  C   UNL A   1      45.677  30.044  31.246  1.00  0.00     0.034 A 
BRANCH  59  73
ATOM     73  C   UNL A   1      40.469  31.398  30.673  1.00  0.00     0.023 A 
ATOM     74  C   UNL A   1      40.037  32.736  30.591  1.00  0.00     0.012 A 
ATOM     75  C   UNL A   1      40.101  30.670  31.831  1.00  0.00     0.148 A 
ATOM     76  C   UNL A   1      39.303  33.326  31.624  1.00  0.00     0.002 A 
ATOM     77  C   UNL A   1      39.288  31.230  32.804  1.00  0.00     0.091 A 
ATOM     78  F   UNL A   1      40.651  29.479  32.086  1.00  0.00    -0.205 F 
ATOM     79  C   UNL A   1      38.910  32.569  32.723  1.00  0.00     0.022 A 
BRANCH  77  80
ATOM     80  S   UNL A   1      38.708  30.249  34.192  1.00  0.00     0.127 S 
ATOM     81  O   UNL A   1      37.976  29.184  33.515  1.00  0.00    -0.237 OA
ATOM     82  O   UNL A   1      39.964  29.838  34.820  1.00  0.00    -0.237 OA
ATOM     83  O   UNL A   1      37.917  31.170  35.002  1.00  0.00    -0.744 OA
ENDBRANCH  77  80
ENDBRANCH  59  73
BRANCH  60  84
ATOM     84  C   UNL A   1      44.813  24.810  33.865  1.00  0.00     0.023 A 
ATOM     85  C   UNL A   1      43.536  24.436  34.322  1.00  0.00     0.012 A 
ATOM     86  C   UNL A   1      45.924  24.040  34.283  1.00  0.00     0.148 A 
ATOM     87  C   UNL A   1      43.368  23.321  35.152  1.00  0.00     0.002 A 
ATOM     88  C   UNL A   1      45.755  22.945  35.124  1.00  0.00     0.091 A 
ATOM     89  F   UNL A   1      47.136  24.321  33.785  1.00  0.00    -0.205 F 
ATOM     90  C   UNL A   1      44.475  22.574  35.550  1.00  0.00     0.022 A 
BRANCH  88  91
ATOM     91  S   UNL A   1      47.139  21.941  35.679  1.00  0.00     0.127 S 
ATOM     92  O   UNL A   1      46.466  20.734  36.161  1.00  0.00    -0.237 OA
ATOM     93  O   UNL A   1      47.902  21.764  34.447  1.00  0.00    -0.237 OA
ATOM     94  O   UNL A   1      47.797  22.712  36.726  1.00  0.00    -0.744 OA
ENDBRANCH  88  91
ENDBRANCH  60  84
BRANCH  72  95
ATOM     95  C   UNL A   1      47.065  29.783  30.706  1.00  0.00     0.023 A 
ATOM     96  C   UNL A   1      48.211  30.340  31.314  1.00  0.00     0.012 A 
ATOM     97  C   UNL A   1      47.236  28.815  29.701  1.00  0.00     0.148 A 
ATOM     98  C   UNL A   1      49.494  29.961  30.911  1.00  0.00     0.002 A 
ATOM     99  C   UNL A   1      48.514  28.406  29.335  1.00  0.00     0.091 A 
ATOM    100  F   UNL A   1      46.139  28.283  29.140  1.00  0.00    -0.205 F 
ATOM    101  C   UNL A   1      49.646  28.984  29.931  1.00  0.00     0.022 A 
BRANCH  99 102
ATOM    102  S   UNL A   1      48.781  27.058  28.179  1.00  0.00     0.127 S 
ATOM    103  O   UNL A   1      49.229  27.765  26.981  1.00  0.00    -0.237 OA
ATOM    104  O   UNL A   1      49.817  26.269  28.847  1.00  0.00    -0.237 OA
ATOM    105  O   UNL A   1      47.498  26.373  28.060  1.00  0.00    -0.744 OA
ENDBRANCH  99 102
ENDBRANCH  72  95
ENDBRANCH  46  47
ENDBRANCH  39  41
ENDBRANCH  38  39
ENDBRANCH  37  38
ENDBRANCH  36  37
ENDBRANCH  35  36
ENDBRANCH  34  35
ENDBRANCH   1  34
TORSDOF 25
ENDMDL
