MODEL 1
REMARK VINA RESULT:     -12.2      0.000      0.000
REMARK SMILES Cc1ccc(C(=O)c2cccc(C)c2C(=O)OCCOCCOCCOC(=O)c2ccc(-c3c4nc(c(-c5cccc(S(=O)(=O)[O-])c5F)c5ccc([nH]5)c(-c5cccc(S(=O)(=O)[O-])c5F)c5nc(c(-c6cccc(S(=O)(=O)[O-])c6F)c6ccc3[nH]6)C=C5)C=C4)cc2)c(C)c1
REMARK SMILES IDX 22 1 21 2 20 3 19 4 18 5 17 6 15 7 16 8 14 9 8 10 9 11 10 12
REMARK SMILES IDX 12 13 11 14 13 15 6 16 7 17 5 18 1 19 2 20 3 21 94 22 4 23
REMARK SMILES IDX 92 24 93 25 23 26 24 27 25 28 26 29 27 30 28 31 29 32 30 33
REMARK SMILES IDX 91 34 31 35 90 36 32 37 33 38 34 39 84 40 35 41 89 42 83 43
REMARK SMILES IDX 85 44 36 45 88 46 82 47 81 48 37 50 69 51 49 52 68 53 50 54
REMARK SMILES IDX 53 55 67 56 86 57 51 58 52 59 66 61 87 62 54 63 38 64 39 65
REMARK SMILES IDX 47 66 40 67 42 68 48 69 41 70 43 71 44 72 45 73 46 74 70 75
REMARK SMILES IDX 71 76 79 77 72 78 74 79 80 80 73 81 75 82 76 83 77 84 78 85
REMARK SMILES IDX 55 86 56 87 64 88 57 89 59 90 65 91 58 92 60 93 61 94 62 95
REMARK SMILES IDX 63 96
REMARK H PARENT 85 49 53 60
REMARK Flexibility Score: inf
ROOT
ATOM      1  C   UNL A   1      43.832  21.944  26.131  1.00  0.00     0.188 C 
ENDROOT
BRANCH   1   2
ATOM      2  C   UNL A   1      42.364  21.609  25.873  1.00  0.00     0.188 C 
BRANCH   2   3
ATOM      3  O   UNL A   1      41.601  21.541  27.067  1.00  0.00    -0.376 OA
BRANCH   3   4
ATOM      4  C   UNL A   1      40.364  22.211  26.927  1.00  0.00     0.202 C 
BRANCH   4   5
ATOM      5  C   UNL A   1      39.235  21.497  26.082  1.00  0.00     0.261 C 
BRANCH   5   6
ATOM      6  O   UNL A   1      37.590  21.910  25.853  1.00  0.00    -0.460 OA
BRANCH   6   7
ATOM      7  C   UNL A   1      36.633  22.142  24.683  1.00  0.00     0.339 C 
ATOM      8  O   UNL A   1      37.173  22.646  23.691  1.00  0.00    -0.246 OA
BRANCH   7   9
ATOM      9  C   UNL A   1      35.048  21.590  24.351  1.00  0.00     0.074 A 
ATOM     10  C   UNL A   1      33.764  22.206  23.731  1.00  0.00     0.037 A 
ATOM     11  C   UNL A   1      32.585  21.443  23.758  1.00  0.00     0.013 A 
ATOM     12  C   UNL A   1      32.537  20.171  24.297  1.00  0.00     0.001 A 
ATOM     13  C   UNL A   1      34.946  20.197  24.700  1.00  0.00    -0.036 A 
ATOM     14  C   UNL A   1      33.696  19.552  24.722  1.00  0.00     0.004 A 
ATOM     15  C   UNL A   1      36.112  19.270  25.001  1.00  0.00     0.045 C 
BRANCH  10  16
ATOM     16  C   UNL A   1      33.511  23.465  22.786  1.00  0.00     0.194 C 
ATOM     17  O   UNL A   1      33.290  23.272  21.610  1.00  0.00    -0.289 OA
BRANCH  16  18
ATOM     18  C   UNL A   1      33.226  24.933  22.958  1.00  0.00     0.025 A 
ATOM     19  C   UNL A   1      33.148  29.251  23.161  1.00  0.00     0.044 C 
ATOM     20  C   UNL A   1      33.036  27.760  23.142  1.00  0.00    -0.051 A 
ATOM     21  C   UNL A   1      32.358  27.049  22.146  1.00  0.00     0.004 A 
ATOM     22  C   UNL A   1      33.694  27.055  24.136  1.00  0.00     0.007 A 
ATOM     23  C   UNL A   1      32.439  25.647  22.061  1.00  0.00     0.013 A 
ATOM     24  C   UNL A   1      33.735  25.657  24.113  1.00  0.00    -0.040 A 
ATOM     25  C   UNL A   1      34.346  25.073  25.384  1.00  0.00     0.045 C 
ENDBRANCH  16  18
ENDBRANCH  10  16
ENDBRANCH   7   9
ENDBRANCH   6   7
ENDBRANCH   5   6
ENDBRANCH   4   5
ENDBRANCH   3   4
ENDBRANCH   2   3
ENDBRANCH   1   2
BRANCH   1  26
ATOM     26  O   UNL A   1      44.137  23.318  25.890  1.00  0.00    -0.376 OA
BRANCH  26  27
ATOM     27  C   UNL A   1      43.159  24.052  25.171  1.00  0.00     0.202 C 
BRANCH  27  28
ATOM     28  C   UNL A   1      42.592  25.207  25.993  1.00  0.00     0.261 C 
BRANCH  28  29
ATOM     29  O   UNL A   1      42.351  26.297  25.085  1.00  0.00    -0.460 OA
BRANCH  29  30
ATOM     30  C   UNL A   1      43.192  27.348  25.286  1.00  0.00     0.338 C 
ATOM     31  O   UNL A   1      44.365  27.345  25.011  1.00  0.00    -0.246 OA
BRANCH  30  32
ATOM     32  C   UNL A   1      42.486  28.390  26.103  1.00  0.00     0.060 A 
ATOM     33  C   UNL A   1      43.312  29.173  26.847  1.00  0.00     0.016 A 
ATOM     34  C   UNL A   1      41.102  28.461  26.379  1.00  0.00     0.016 A 
ATOM     35  C   UNL A   1      42.754  29.819  27.961  1.00  0.00     0.010 A 
ATOM     36  C   UNL A   1      40.554  29.158  27.520  1.00  0.00     0.010 A 
ATOM     37  C   UNL A   1      41.369  29.798  28.465  1.00  0.00    -0.014 A 
BRANCH  37  38
ATOM     38  C   UNL A   1      40.649  30.221  30.024  1.00  0.00     0.031 A 
ATOM     39  C   UNL A   1      39.882  31.546  30.341  1.00  0.00     0.074 A 
ATOM     40  C   UNL A   1      40.613  29.450  31.190  1.00  0.00     0.049 A 
ATOM     41  N   UNL A   1      38.644  31.525  30.749  1.00  0.00    -0.248 NA
ATOM     42  C   UNL A   1      40.397  32.960  30.290  1.00  0.00     0.031 C 
ATOM     43  C   UNL A   1      39.562  29.279  32.193  1.00  0.00     0.029 A 
ATOM     44  N   UNL A   1      41.617  28.677  31.793  1.00  0.00    -0.354 N 
ATOM     45  C   UNL A   1      38.233  32.825  30.911  1.00  0.00     0.074 A 
ATOM     46  C   UNL A   1      39.309  33.692  30.524  1.00  0.00     0.031 C 
ATOM     47  C   UNL A   1      40.008  28.543  33.237  1.00  0.00     0.029 A 
ATOM     48  C   UNL A   1      41.436  28.312  33.097  1.00  0.00     0.049 A 
ATOM     49  H   UNL A   1      42.421  28.408  31.294  1.00  0.00     0.167 HD
ATOM     50  C   UNL A   1      37.335  33.203  31.843  1.00  0.00     0.034 A 
ATOM     51  C   UNL A   1      42.477  28.353  33.985  1.00  0.00     0.034 A 
ATOM     52  C   UNL A   1      37.520  32.453  33.080  1.00  0.00     0.049 A 
ATOM     53  C   UNL A   1      42.133  29.423  34.984  1.00  0.00     0.074 A 
ATOM     54  C   UNL A   1      37.031  31.272  33.613  1.00  0.00     0.029 A 
ATOM     55  N   UNL A   1      38.613  32.799  33.865  1.00  0.00    -0.354 N 
ATOM     56  N   UNL A   1      41.040  30.127  34.879  1.00  0.00    -0.248 NA
ATOM     57  C   UNL A   1      42.897  29.794  36.167  1.00  0.00     0.031 C 
ATOM     58  C   UNL A   1      37.902  30.880  34.682  1.00  0.00     0.029 A 
ATOM     59  C   UNL A   1      38.891  31.843  34.831  1.00  0.00     0.049 A 
ATOM     60  H   UNL A   1      39.132  33.628  33.749  1.00  0.00     0.167 HD
ATOM     61  C   UNL A   1      40.975  31.082  35.828  1.00  0.00     0.074 A 
ATOM     62  C   UNL A   1      42.133  30.789  36.663  1.00  0.00     0.031 C 
ATOM     63  C   UNL A   1      40.012  32.050  35.766  1.00  0.00     0.034 A 
BRANCH  50  64
ATOM     64  C   UNL A   1      36.048  33.652  31.176  1.00  0.00     0.023 A 
ATOM     65  C   UNL A   1      35.855  33.314  29.830  1.00  0.00     0.012 A 
ATOM     66  C   UNL A   1      35.050  34.478  31.789  1.00  0.00     0.148 A 
ATOM     67  C   UNL A   1      34.779  33.823  29.096  1.00  0.00     0.002 A 
ATOM     68  C   UNL A   1      33.987  34.998  31.049  1.00  0.00     0.091 A 
ATOM     69  F   UNL A   1      35.120  34.752  33.100  1.00  0.00    -0.205 F 
ATOM     70  C   UNL A   1      33.858  34.677  29.695  1.00  0.00     0.022 A 
BRANCH  68  71
ATOM     71  S   UNL A   1      32.777  36.156  31.728  1.00  0.00     0.127 S 
ATOM     72  O   UNL A   1      31.868  35.272  32.463  1.00  0.00    -0.237 OA
ATOM     73  O   UNL A   1      33.603  37.009  32.582  1.00  0.00    -0.237 OA
ATOM     74  O   UNL A   1      32.156  36.824  30.591  1.00  0.00    -0.744 OA
ENDBRANCH  68  71
ENDBRANCH  50  64
BRANCH  51  75
ATOM     75  C   UNL A   1      43.860  27.842  33.552  1.00  0.00     0.023 A 
ATOM     76  C   UNL A   1      44.744  28.817  33.025  1.00  0.00     0.012 A 
ATOM     77  C   UNL A   1      44.454  26.587  33.860  1.00  0.00     0.148 A 
ATOM     78  C   UNL A   1      46.117  28.574  32.828  1.00  0.00     0.002 A 
ATOM     79  C   UNL A   1      45.856  26.401  33.816  1.00  0.00     0.091 A 
ATOM     80  F   UNL A   1      43.655  25.549  34.127  1.00  0.00    -0.205 F 
ATOM     81  C   UNL A   1      46.678  27.377  33.249  1.00  0.00     0.022 A 
BRANCH  79  82
ATOM     82  S   UNL A   1      46.747  25.112  34.761  1.00  0.00     0.127 S 
ATOM     83  O   UNL A   1      48.141  25.523  34.622  1.00  0.00    -0.237 OA
ATOM     84  O   UNL A   1      46.204  25.267  36.115  1.00  0.00    -0.237 OA
ATOM     85  O   UNL A   1      46.394  23.840  34.152  1.00  0.00    -0.744 OA
ENDBRANCH  79  82
ENDBRANCH  51  75
BRANCH  63  86
ATOM     86  C   UNL A   1      40.102  33.344  36.535  1.00  0.00     0.023 A 
ATOM     87  C   UNL A   1      39.400  33.546  37.739  1.00  0.00     0.012 A 
ATOM     88  C   UNL A   1      41.066  34.317  36.185  1.00  0.00     0.148 A 
ATOM     89  C   UNL A   1      39.600  34.679  38.528  1.00  0.00     0.002 A 
ATOM     90  C   UNL A   1      41.374  35.353  37.056  1.00  0.00     0.091 A 
ATOM     91  F   UNL A   1      41.702  34.246  35.007  1.00  0.00    -0.205 F 
ATOM     92  C   UNL A   1      40.616  35.567  38.206  1.00  0.00     0.022 A 
BRANCH  90  93
ATOM     93  S   UNL A   1      42.903  36.272  36.843  1.00  0.00     0.127 S 
ATOM     94  O   UNL A   1      43.911  35.224  36.971  1.00  0.00    -0.237 OA
ATOM     95  O   UNL A   1      42.756  36.819  35.493  1.00  0.00    -0.237 OA
ATOM     96  O   UNL A   1      42.868  37.280  37.896  1.00  0.00    -0.744 OA
ENDBRANCH  90  93
ENDBRANCH  63  86
ENDBRANCH  37  38
ENDBRANCH  30  32
ENDBRANCH  29  30
ENDBRANCH  28  29
ENDBRANCH  27  28
ENDBRANCH  26  27
ENDBRANCH   1  26
TORSDOF 22
ENDMDL
MODEL 2
REMARK VINA RESULT:     -12.1      1.880      2.444
REMARK SMILES Cc1ccc(C(=O)c2cccc(C)c2C(=O)OCCOCCOCCOC(=O)c2ccc(-c3c4nc(c(-c5cccc(S(=O)(=O)[O-])c5F)c5ccc([nH]5)c(-c5cccc(S(=O)(=O)[O-])c5F)c5nc(c(-c6cccc(S(=O)(=O)[O-])c6F)c6ccc3[nH]6)C=C5)C=C4)cc2)c(C)c1
REMARK SMILES IDX 22 1 21 2 20 3 19 4 18 5 17 6 15 7 16 8 14 9 8 10 9 11 10 12
REMARK SMILES IDX 12 13 11 14 13 15 6 16 7 17 5 18 1 19 2 20 3 21 94 22 4 23
REMARK SMILES IDX 92 24 93 25 23 26 24 27 25 28 26 29 27 30 28 31 29 32 30 33
REMARK SMILES IDX 91 34 31 35 90 36 32 37 33 38 34 39 84 40 35 41 89 42 83 43
REMARK SMILES IDX 85 44 36 45 88 46 82 47 81 48 37 50 69 51 49 52 68 53 50 54
REMARK SMILES IDX 53 55 67 56 86 57 51 58 52 59 66 61 87 62 54 63 38 64 39 65
REMARK SMILES IDX 47 66 40 67 42 68 48 69 41 70 43 71 44 72 45 73 46 74 70 75
REMARK SMILES IDX 71 76 79 77 72 78 74 79 80 80 73 81 75 82 76 83 77 84 78 85
REMARK SMILES IDX 55 86 56 87 64 88 57 89 59 90 65 91 58 92 60 93 61 94 62 95
REMARK SMILES IDX 63 96
REMARK H PARENT 85 49 53 60
REMARK Flexibility Score: inf
ROOT
ATOM      1  C   UNL A   1      40.159  23.041  27.298  1.00  0.00     0.188 C 
ENDROOT
BRANCH   1   2
ATOM      2  C   UNL A   1      40.034  21.660  26.656  1.00  0.00     0.188 C 
BRANCH   2   3
ATOM      3  O   UNL A   1      39.251  21.676  25.473  1.00  0.00    -0.376 OA
BRANCH   3   4
ATOM      4  C   UNL A   1      37.903  21.999  25.752  1.00  0.00     0.202 C 
BRANCH   4   5
ATOM      5  C   UNL A   1      37.422  23.472  25.439  1.00  0.00     0.261 C 
BRANCH   5   6
ATOM      6  O   UNL A   1      35.920  24.236  25.737  1.00  0.00    -0.460 OA
BRANCH   6   7
ATOM      7  C   UNL A   1      34.570  24.392  25.036  1.00  0.00     0.339 C 
ATOM      8  O   UNL A   1      34.658  24.794  23.870  1.00  0.00    -0.246 OA
BRANCH   7   9
ATOM      9  C   UNL A   1      32.991  23.857  25.421  1.00  0.00     0.074 A 
ATOM     10  C   UNL A   1      31.702  24.514  25.986  1.00  0.00     0.037 A 
ATOM     11  C   UNL A   1      30.617  23.679  26.298  1.00  0.00     0.013 A 
ATOM     12  C   UNL A   1      30.653  22.311  26.103  1.00  0.00     0.001 A 
ATOM     13  C   UNL A   1      32.861  22.467  25.068  1.00  0.00    -0.036 A 
ATOM     14  C   UNL A   1      31.734  21.727  25.470  1.00  0.00     0.004 A 
ATOM     15  C   UNL A   1      33.827  21.677  24.202  1.00  0.00     0.045 C 
BRANCH  10  16
ATOM     16  C   UNL A   1      31.195  26.023  26.060  1.00  0.00     0.194 C 
ATOM     17  O   UNL A   1      31.408  26.658  27.070  1.00  0.00    -0.289 OA
BRANCH  16  18
ATOM     18  C   UNL A   1      30.676  27.060  25.100  1.00  0.00     0.025 A 
ATOM     19  C   UNL A   1      29.815  29.829  21.892  1.00  0.00     0.044 C 
ATOM     20  C   UNL A   1      29.989  28.920  23.067  1.00  0.00    -0.051 A 
ATOM     21  C   UNL A   1      29.270  27.733  23.239  1.00  0.00     0.004 A 
ATOM     22  C   UNL A   1      30.961  29.253  23.996  1.00  0.00     0.007 A 
ATOM     23  C   UNL A   1      29.598  26.816  24.254  1.00  0.00     0.013 A 
ATOM     24  C   UNL A   1      31.264  28.390  25.054  1.00  0.00    -0.040 A 
ATOM     25  C   UNL A   1      32.225  29.019  26.060  1.00  0.00     0.045 C 
ENDBRANCH  16  18
ENDBRANCH  10  16
ENDBRANCH   7   9
ENDBRANCH   6   7
ENDBRANCH   5   6
ENDBRANCH   4   5
ENDBRANCH   3   4
ENDBRANCH   2   3
ENDBRANCH   1   2
BRANCH   1  26
ATOM     26  O   UNL A   1      41.478  23.581  27.198  1.00  0.00    -0.376 OA
BRANCH  26  27
ATOM     27  C   UNL A   1      42.249  23.130  26.096  1.00  0.00     0.202 C 
BRANCH  27  28
ATOM     28  C   UNL A   1      42.999  24.273  25.417  1.00  0.00     0.261 C 
BRANCH  28  29
ATOM     29  O   UNL A   1      42.043  25.320  25.170  1.00  0.00    -0.460 OA
BRANCH  29  30
ATOM     30  C   UNL A   1      42.580  26.565  25.296  1.00  0.00     0.338 C 
ATOM     31  O   UNL A   1      43.710  26.854  24.997  1.00  0.00    -0.246 OA
BRANCH  30  32
ATOM     32  C   UNL A   1      41.629  27.430  26.070  1.00  0.00     0.060 A 
ATOM     33  C   UNL A   1      42.028  28.724  26.199  1.00  0.00     0.016 A 
ATOM     34  C   UNL A   1      40.551  27.001  26.876  1.00  0.00     0.016 A 
ATOM     35  C   UNL A   1      41.486  29.462  27.263  1.00  0.00     0.010 A 
ATOM     36  C   UNL A   1      39.995  27.795  27.949  1.00  0.00     0.010 A 
ATOM     37  C   UNL A   1      40.512  29.053  28.291  1.00  0.00    -0.014 A 
BRANCH  37  38
ATOM     38  C   UNL A   1      40.069  29.727  29.865  1.00  0.00     0.031 A 
ATOM     39  C   UNL A   1      39.462  31.147  30.107  1.00  0.00     0.074 A 
ATOM     40  C   UNL A   1      40.151  29.109  31.116  1.00  0.00     0.049 A 
ATOM     41  N   UNL A   1      38.301  31.293  30.682  1.00  0.00    -0.248 NA
ATOM     42  C   UNL A   1      40.069  32.489  29.797  1.00  0.00     0.031 C 
ATOM     43  C   UNL A   1      39.253  29.159  32.270  1.00  0.00     0.029 A 
ATOM     44  N   UNL A   1      41.172  28.323  31.670  1.00  0.00    -0.354 N 
ATOM     45  C   UNL A   1      38.020  32.635  30.726  1.00  0.00     0.074 A 
ATOM     46  C   UNL A   1      39.087  33.344  30.082  1.00  0.00     0.031 C 
ATOM     47  C   UNL A   1      39.793  28.516  33.330  1.00  0.00     0.029 A 
ATOM     48  C   UNL A   1      41.163  28.136  33.023  1.00  0.00     0.049 A 
ATOM     49  H   UNL A   1      41.870  27.921  31.104  1.00  0.00     0.167 HD
ATOM     50  C   UNL A   1      37.303  33.206  31.716  1.00  0.00     0.034 A 
ATOM     51  C   UNL A   1      42.326  28.184  33.744  1.00  0.00     0.034 A 
ATOM     52  C   UNL A   1      37.615  32.596  33.004  1.00  0.00     0.049 A 
ATOM     53  C   UNL A   1      42.219  29.394  34.630  1.00  0.00     0.074 A 
ATOM     54  C   UNL A   1      37.124  31.540  33.752  1.00  0.00     0.029 A 
ATOM     55  N   UNL A   1      38.838  32.930  33.576  1.00  0.00    -0.354 N 
ATOM     56  N   UNL A   1      41.178  30.181  34.587  1.00  0.00    -0.248 NA
ATOM     57  C   UNL A   1      43.178  29.831  35.635  1.00  0.00     0.031 C 
ATOM     58  C   UNL A   1      38.113  31.199  34.731  1.00  0.00     0.029 A 
ATOM     59  C   UNL A   1      39.184  32.075  34.611  1.00  0.00     0.049 A 
ATOM     60  H   UNL A   1      39.394  33.686  33.279  1.00  0.00     0.167 HD
ATOM     61  C   UNL A   1      41.330  31.245  35.399  1.00  0.00     0.074 A 
ATOM     62  C   UNL A   1      42.575  30.947  36.097  1.00  0.00     0.031 C 
ATOM     63  C   UNL A   1      40.445  32.285  35.345  1.00  0.00     0.034 A 
BRANCH  50  64
ATOM     64  C   UNL A   1      35.969  33.692  31.182  1.00  0.00     0.023 A 
ATOM     65  C   UNL A   1      35.534  33.188  29.948  1.00  0.00     0.012 A 
ATOM     66  C   UNL A   1      35.155  34.699  31.797  1.00  0.00     0.148 A 
ATOM     67  C   UNL A   1      34.401  33.700  29.309  1.00  0.00     0.002 A 
ATOM     68  C   UNL A   1      34.035  35.220  31.146  1.00  0.00     0.091 A 
ATOM     69  F   UNL A   1      35.458  35.149  33.023  1.00  0.00    -0.205 F 
ATOM     70  C   UNL A   1      33.664  34.725  29.894  1.00  0.00     0.022 A 
BRANCH  68  71
ATOM     71  S   UNL A   1      33.053  36.587  31.804  1.00  0.00     0.127 S 
ATOM     72  O   UNL A   1      32.840  37.425  30.619  1.00  0.00    -0.237 OA
ATOM     73  O   UNL A   1      31.849  35.909  32.280  1.00  0.00    -0.237 OA
ATOM     74  O   UNL A   1      33.862  37.223  32.836  1.00  0.00    -0.744 OA
ENDBRANCH  68  71
ENDBRANCH  50  64
BRANCH  51  75
ATOM     75  C   UNL A   1      43.585  27.497  33.193  1.00  0.00     0.023 A 
ATOM     76  C   UNL A   1      44.477  28.325  32.469  1.00  0.00     0.012 A 
ATOM     77  C   UNL A   1      44.094  26.216  33.546  1.00  0.00     0.148 A 
ATOM     78  C   UNL A   1      45.783  27.923  32.126  1.00  0.00     0.002 A 
ATOM     79  C   UNL A   1      45.455  25.881  33.346  1.00  0.00     0.091 A 
ATOM     80  F   UNL A   1      43.246  25.294  34.010  1.00  0.00    -0.205 F 
ATOM     81  C   UNL A   1      46.281  26.714  32.589  1.00  0.00     0.022 A 
BRANCH  79  82
ATOM     82  S   UNL A   1      46.341  24.591  34.293  1.00  0.00     0.127 S 
ATOM     83  O   UNL A   1      45.736  23.359  33.796  1.00  0.00    -0.237 OA
ATOM     84  O   UNL A   1      47.736  24.786  33.883  1.00  0.00    -0.237 OA
ATOM     85  O   UNL A   1      46.119  24.889  35.698  1.00  0.00    -0.744 OA
ENDBRANCH  79  82
ENDBRANCH  51  75
BRANCH  63  86
ATOM     86  C   UNL A   1      40.748  33.648  35.915  1.00  0.00     0.023 A 
ATOM     87  C   UNL A   1      41.099  34.738  35.095  1.00  0.00     0.012 A 
ATOM     88  C   UNL A   1      40.478  33.930  37.274  1.00  0.00     0.148 A 
ATOM     89  C   UNL A   1      41.230  36.031  35.603  1.00  0.00     0.002 A 
ATOM     90  C   UNL A   1      40.450  35.240  37.733  1.00  0.00     0.091 A 
ATOM     91  F   UNL A   1      40.236  32.933  38.137  1.00  0.00    -0.205 F 
ATOM     92  C   UNL A   1      40.869  36.290  36.916  1.00  0.00     0.022 A 
BRANCH  90  93
ATOM     93  S   UNL A   1      39.640  35.623  39.290  1.00  0.00     0.127 S 
ATOM     94  O   UNL A   1      39.116  36.962  39.041  1.00  0.00    -0.237 OA
ATOM     95  O   UNL A   1      38.622  34.574  39.382  1.00  0.00    -0.237 OA
ATOM     96  O   UNL A   1      40.698  35.508  40.286  1.00  0.00    -0.744 OA
ENDBRANCH  90  93
ENDBRANCH  63  86
ENDBRANCH  37  38
ENDBRANCH  30  32
ENDBRANCH  29  30
ENDBRANCH  28  29
ENDBRANCH  27  28
ENDBRANCH  26  27
ENDBRANCH   1  26
TORSDOF 22
ENDMDL
MODEL 3
REMARK VINA RESULT:     -11.6      3.457     10.268
REMARK SMILES Cc1ccc(C(=O)c2cccc(C)c2C(=O)OCCOCCOCCOC(=O)c2ccc(-c3c4nc(c(-c5cccc(S(=O)(=O)[O-])c5F)c5ccc([nH]5)c(-c5cccc(S(=O)(=O)[O-])c5F)c5nc(c(-c6cccc(S(=O)(=O)[O-])c6F)c6ccc3[nH]6)C=C5)C=C4)cc2)c(C)c1
REMARK SMILES IDX 22 1 21 2 20 3 19 4 18 5 17 6 15 7 16 8 14 9 8 10 9 11 10 12
REMARK SMILES IDX 12 13 11 14 13 15 6 16 7 17 5 18 1 19 2 20 3 21 94 22 4 23
REMARK SMILES IDX 92 24 93 25 23 26 24 27 25 28 26 29 27 30 28 31 29 32 30 33
REMARK SMILES IDX 91 34 31 35 90 36 32 37 33 38 34 39 84 40 35 41 89 42 83 43
REMARK SMILES IDX 85 44 36 45 88 46 82 47 81 48 37 50 69 51 49 52 68 53 50 54
REMARK SMILES IDX 53 55 67 56 86 57 51 58 52 59 66 61 87 62 54 63 38 64 39 65
REMARK SMILES IDX 47 66 40 67 42 68 48 69 41 70 43 71 44 72 45 73 46 74 70 75
REMARK SMILES IDX 71 76 79 77 72 78 74 79 80 80 73 81 75 82 76 83 77 84 78 85
REMARK SMILES IDX 55 86 56 87 64 88 57 89 59 90 65 91 58 92 60 93 61 94 62 95
REMARK SMILES IDX 63 96
REMARK H PARENT 85 49 53 60
REMARK Flexibility Score: inf
ROOT
ATOM      1  C   UNL A   1      33.985  30.833  27.326  1.00  0.00     0.188 C 
ENDROOT
BRANCH   1   2
ATOM      2  C   UNL A   1      32.880  30.288  26.424  1.00  0.00     0.188 C 
BRANCH   2   3
ATOM      3  O   UNL A   1      33.350  29.302  25.519  1.00  0.00    -0.376 OA
BRANCH   3   4
ATOM      4  C   UNL A   1      34.031  28.264  26.197  1.00  0.00     0.202 C 
BRANCH   4   5
ATOM      5  C   UNL A   1      33.637  26.775  25.842  1.00  0.00     0.261 C 
BRANCH   5   6
ATOM      6  O   UNL A   1      34.534  25.325  25.984  1.00  0.00    -0.460 OA
BRANCH   6   7
ATOM      7  C   UNL A   1      35.321  24.385  25.070  1.00  0.00     0.339 C 
ATOM      8  O   UNL A   1      35.189  24.637  23.866  1.00  0.00    -0.246 OA
BRANCH   7   9
ATOM      9  C   UNL A   1      36.566  23.250  25.365  1.00  0.00     0.074 A 
ATOM     10  C   UNL A   1      38.009  23.306  25.936  1.00  0.00     0.037 A 
ATOM     11  C   UNL A   1      38.786  22.137  25.887  1.00  0.00     0.013 A 
ATOM     12  C   UNL A   1      38.306  20.949  25.368  1.00  0.00     0.001 A 
ATOM     13  C   UNL A   1      36.093  21.930  25.036  1.00  0.00    -0.036 A 
ATOM     14  C   UNL A   1      36.983  20.840  24.988  1.00  0.00     0.004 A 
ATOM     15  C   UNL A   1      34.646  21.542  24.786  1.00  0.00     0.045 C 
BRANCH  10  16
ATOM     16  C   UNL A   1      38.773  24.364  26.852  1.00  0.00     0.194 C 
ATOM     17  O   UNL A   1      38.604  24.322  28.051  1.00  0.00    -0.289 OA
BRANCH  16  18
ATOM     18  C   UNL A   1      39.902  25.347  26.693  1.00  0.00     0.025 A 
ATOM     19  C   UNL A   1      42.949  28.155  25.459  1.00  0.00     0.044 C 
ATOM     20  C   UNL A   1      41.944  27.204  26.025  1.00  0.00    -0.051 A 
ATOM     21  C   UNL A   1      40.774  27.612  26.673  1.00  0.00     0.004 A 
ATOM     22  C   UNL A   1      42.165  25.850  25.836  1.00  0.00     0.007 A 
ATOM     23  C   UNL A   1      39.766  26.693  27.018  1.00  0.00     0.013 A 
ATOM     24  C   UNL A   1      41.209  24.908  26.229  1.00  0.00    -0.040 A 
ATOM     25  C   UNL A   1      41.719  23.474  26.102  1.00  0.00     0.045 C 
ENDBRANCH  16  18
ENDBRANCH  10  16
ENDBRANCH   7   9
ENDBRANCH   6   7
ENDBRANCH   5   6
ENDBRANCH   4   5
ENDBRANCH   3   4
ENDBRANCH   2   3
ENDBRANCH   1   2
BRANCH   1  26
ATOM     26  O   UNL A   1      33.554  31.936  28.127  1.00  0.00    -0.376 OA
BRANCH  26  27
ATOM     27  C   UNL A   1      34.387  33.083  28.099  1.00  0.00     0.202 C 
BRANCH  27  28
ATOM     28  C   UNL A   1      35.031  33.355  29.456  1.00  0.00     0.261 C 
BRANCH  28  29
ATOM     29  O   UNL A   1      36.394  32.900  29.379  1.00  0.00    -0.460 OA
BRANCH  29  30
ATOM     30  C   UNL A   1      36.606  31.748  30.073  1.00  0.00     0.338 C 
ATOM     31  O   UNL A   1      35.928  31.373  30.995  1.00  0.00    -0.246 OA
BRANCH  30  32
ATOM     32  C   UNL A   1      37.928  31.167  29.663  1.00  0.00     0.060 A 
ATOM     33  C   UNL A   1      37.915  29.819  29.483  1.00  0.00     0.016 A 
ATOM     34  C   UNL A   1      39.189  31.804  29.710  1.00  0.00     0.016 A 
ATOM     35  C   UNL A   1      39.143  29.147  29.574  1.00  0.00     0.010 A 
ATOM     36  C   UNL A   1      40.440  31.084  29.775  1.00  0.00     0.010 A 
ATOM     37  C   UNL A   1      40.493  29.683  29.827  1.00  0.00    -0.014 A 
BRANCH  37  38
ATOM     38  C   UNL A   1      42.008  28.933  30.350  1.00  0.00     0.031 A 
ATOM     39  C   UNL A   1      42.523  27.525  29.909  1.00  0.00     0.074 A 
ATOM     40  C   UNL A   1      42.986  29.472  31.190  1.00  0.00     0.049 A 
ATOM     41  N   UNL A   1      43.668  27.388  29.301  1.00  0.00    -0.248 NA
ATOM     42  C   UNL A   1      41.880  26.182  30.131  1.00  0.00     0.031 C 
ATOM     43  C   UNL A   1      44.445  29.386  31.139  1.00  0.00     0.029 A 
ATOM     44  N   UNL A   1      42.852  30.185  32.391  1.00  0.00    -0.354 N 
ATOM     45  C   UNL A   1      43.834  26.057  29.012  1.00  0.00     0.074 A 
ATOM     46  C   UNL A   1      42.665  25.349  29.450  1.00  0.00     0.031 C 
ATOM     47  C   UNL A   1      45.000  29.945  32.239  1.00  0.00     0.029 A 
ATOM     48  C   UNL A   1      43.955  30.291  33.189  1.00  0.00     0.049 A 
ATOM     49  H   UNL A   1      41.995  30.594  32.648  1.00  0.00     0.167 HD
ATOM     50  C   UNL A   1      45.040  25.455  28.977  1.00  0.00     0.034 A 
ATOM     51  C   UNL A   1      43.851  30.157  34.548  1.00  0.00     0.034 A 
ATOM     52  C   UNL A   1      45.913  25.975  30.025  1.00  0.00     0.049 A 
ATOM     53  C   UNL A   1      44.598  28.901  34.903  1.00  0.00     0.074 A 
ATOM     54  C   UNL A   1      46.834  27.002  30.136  1.00  0.00     0.029 A 
ATOM     55  N   UNL A   1      45.645  25.563  31.325  1.00  0.00    -0.354 N 
ATOM     56  N   UNL A   1      45.155  28.158  33.987  1.00  0.00    -0.248 NA
ATOM     57  C   UNL A   1      44.832  28.370  36.238  1.00  0.00     0.031 C 
ATOM     58  C   UNL A   1      47.051  27.247  31.531  1.00  0.00     0.029 A 
ATOM     59  C   UNL A   1      46.300  26.341  32.268  1.00  0.00     0.049 A 
ATOM     60  H   UNL A   1      45.058  24.805  31.551  1.00  0.00     0.167 HD
ATOM     61  C   UNL A   1      45.694  27.042  34.516  1.00  0.00     0.074 A 
ATOM     62  C   UNL A   1      45.531  27.252  35.950  1.00  0.00     0.031 C 
ATOM     63  C   UNL A   1      46.144  26.041  33.703  1.00  0.00     0.034 A 
BRANCH  50  64
ATOM     64  C   UNL A   1      45.382  25.052  27.555  1.00  0.00     0.023 A 
ATOM     65  C   UNL A   1      45.716  26.067  26.649  1.00  0.00     0.012 A 
ATOM     66  C   UNL A   1      45.302  23.718  27.038  1.00  0.00     0.148 A 
ATOM     67  C   UNL A   1      45.886  25.802  25.286  1.00  0.00     0.002 A 
ATOM     68  C   UNL A   1      45.455  23.460  25.674  1.00  0.00     0.091 A 
ATOM     69  F   UNL A   1      45.089  22.688  27.870  1.00  0.00    -0.205 F 
ATOM     70  C   UNL A   1      45.738  24.509  24.795  1.00  0.00     0.022 A 
BRANCH  68  71
ATOM     71  S   UNL A   1      45.225  21.825  24.941  1.00  0.00     0.127 S 
ATOM     72  O   UNL A   1      45.212  22.119  23.505  1.00  0.00    -0.237 OA
ATOM     73  O   UNL A   1      46.416  21.107  25.393  1.00  0.00    -0.237 OA
ATOM     74  O   UNL A   1      43.957  21.315  25.448  1.00  0.00    -0.744 OA
ENDBRANCH  68  71
ENDBRANCH  50  64
BRANCH  51  75
ATOM     75  C   UNL A   1      42.683  30.829  35.286  1.00  0.00     0.023 A 
ATOM     76  C   UNL A   1      42.824  32.216  35.537  1.00  0.00     0.012 A 
ATOM     77  C   UNL A   1      41.380  30.301  35.504  1.00  0.00     0.148 A 
ATOM     78  C   UNL A   1      41.753  33.027  35.962  1.00  0.00     0.002 A 
ATOM     79  C   UNL A   1      40.275  31.144  35.769  1.00  0.00     0.091 A 
ATOM     80  F   UNL A   1      41.221  28.974  35.526  1.00  0.00    -0.205 F 
ATOM     81  C   UNL A   1      40.474  32.498  36.050  1.00  0.00     0.022 A 
BRANCH  79  82
ATOM     82  S   UNL A   1      38.535  30.686  35.440  1.00  0.00     0.127 S 
ATOM     83  O   UNL A   1      38.095  30.159  36.729  1.00  0.00    -0.237 OA
ATOM     84  O   UNL A   1      37.924  31.968  35.072  1.00  0.00    -0.237 OA
ATOM     85  O   UNL A   1      38.562  29.737  34.339  1.00  0.00    -0.744 OA
ENDBRANCH  79  82
ENDBRANCH  51  75
BRANCH  63  86
ATOM     86  C   UNL A   1      46.390  24.636  34.193  1.00  0.00     0.023 A 
ATOM     87  C   UNL A   1      45.389  23.646  34.151  1.00  0.00     0.012 A 
ATOM     88  C   UNL A   1      47.700  24.208  34.509  1.00  0.00     0.148 A 
ATOM     89  C   UNL A   1      45.658  22.312  34.461  1.00  0.00     0.002 A 
ATOM     90  C   UNL A   1      47.988  22.859  34.654  1.00  0.00     0.091 A 
ATOM     91  F   UNL A   1      48.685  25.105  34.666  1.00  0.00    -0.205 F 
ATOM     92  C   UNL A   1      46.967  21.910  34.676  1.00  0.00     0.022 A 
BRANCH  90  93
ATOM     93  S   UNL A   1      49.692  22.296  34.560  1.00  0.00     0.127 S 
ATOM     94  O   UNL A   1      50.111  22.800  33.256  1.00  0.00    -0.237 OA
ATOM     95  O   UNL A   1      50.309  22.968  35.705  1.00  0.00    -0.237 OA
ATOM     96  O   UNL A   1      49.602  20.847  34.705  1.00  0.00    -0.744 OA
ENDBRANCH  90  93
ENDBRANCH  63  86
ENDBRANCH  37  38
ENDBRANCH  30  32
ENDBRANCH  29  30
ENDBRANCH  28  29
ENDBRANCH  27  28
ENDBRANCH  26  27
ENDBRANCH   1  26
TORSDOF 22
ENDMDL
