MODEL 1
REMARK VINA RESULT:     -11.9      0.000      0.000
REMARK SMILES C[C@]12C(=O)N(c3ccc(C(=O)OCCOCCOCCOC(=O)c4ccc(-c5c6nc(c(-c7cccc(S(=O)(=O)[O-])c7F)c7ccc([nH]7)c(-c7cccc(S(=O)(=O)[O-])c7F)c7nc(c(-c8cccc(S(=O)(=O)[O-])c8F)c8ccc5[nH]8)C=C7)C=C6)cc4)cc3)C(=O)[C@H]1[C@H]1c3ccccc3[C@@H]2c2ccccc21
REMARK SMILES IDX 17 1 16 2 15 3 14 4 13 5 12 6 10 7 11 8 9 9 6 10 7 11 88 12
REMARK SMILES IDX 8 13 87 14 5 15 1 16 2 17 3 18 91 19 99 20 4 21 89 22 92 23
REMARK SMILES IDX 98 24 100 25 90 26 93 27 105 28 97 29 101 30 94 31 104 32
REMARK SMILES IDX 96 33 102 34 95 35 103 36 18 37 19 38 20 39 21 40 22 41
REMARK SMILES IDX 23 42 24 43 25 44 86 45 26 46 85 47 27 48 28 49 29 50 79 51
REMARK SMILES IDX 30 52 84 53 78 54 80 55 31 56 83 57 77 58 76 59 32 61 64 62
REMARK SMILES IDX 44 63 63 64 45 65 48 66 62 67 81 68 46 69 47 70 61 72 82 73
REMARK SMILES IDX 49 74 33 75 34 76 42 77 35 78 37 79 43 80 36 81 38 82 39 83
REMARK SMILES IDX 40 84 41 85 65 86 66 87 74 88 67 89 69 90 75 91 68 92 70 93
REMARK SMILES IDX 71 94 72 95 73 96 50 97 51 98 59 99 52 100 54 101 60 102
REMARK SMILES IDX 53 103 55 104 56 105 57 106 58 107
REMARK H PARENT 80 60 48 71
REMARK Flexibility Score: inf
ROOT
ATOM      1  C   UNL A   1      34.304  33.117  29.489  1.00  0.00     0.188 C 
ENDROOT
BRANCH   1   2
ATOM      2  C   UNL A   1      35.368  32.783  28.418  1.00  0.00     0.188 C 
BRANCH   2   3
ATOM      3  O   UNL A   1      35.221  31.626  27.612  1.00  0.00    -0.376 OA
BRANCH   3   4
ATOM      4  C   UNL A   1      33.962  30.957  27.588  1.00  0.00     0.202 C 
BRANCH   4   5
ATOM      5  C   UNL A   1      33.810  29.751  26.661  1.00  0.00     0.261 C 
BRANCH   5   6
ATOM      6  O   UNL A   1      32.532  29.117  26.850  1.00  0.00    -0.460 OA
BRANCH   6   7
ATOM      7  C   UNL A   1      31.834  28.908  25.707  1.00  0.00     0.338 C 
ATOM      8  O   UNL A   1      31.196  29.730  25.076  1.00  0.00    -0.246 OA
BRANCH   7   9
ATOM      9  C   UNL A   1      32.147  27.561  25.195  1.00  0.00     0.060 A 
ATOM     10  C   UNL A   1      32.707  25.023  24.080  1.00  0.00     0.052 A 
ATOM     11  C   UNL A   1      32.661  26.192  23.287  1.00  0.00     0.028 A 
ATOM     12  C   UNL A   1      32.486  25.166  25.456  1.00  0.00     0.028 A 
ATOM     13  C   UNL A   1      32.352  27.439  23.826  1.00  0.00     0.018 A 
ATOM     14  C   UNL A   1      32.239  26.435  26.019  1.00  0.00     0.018 A 
BRANCH  10  15
ATOM     15  N   UNL A   1      32.785  23.752  23.428  1.00  0.00    -0.250 N 
ATOM     16  C   UNL A   1      32.111  20.762  22.265  1.00  0.00     0.024 C 
ATOM     17  C   UNL A   1      32.505  21.439  23.592  1.00  0.00     0.071 C 
ATOM     18  C   UNL A   1      31.828  22.780  23.631  1.00  0.00     0.241 C 
ATOM     19  C   UNL A   1      34.021  21.807  23.617  1.00  0.00     0.107 C 
ATOM     20  C   UNL A   1      32.138  20.611  24.863  1.00  0.00     0.066 C 
ATOM     21  O   UNL A   1      30.620  22.924  23.761  1.00  0.00    -0.273 OA
ATOM     22  C   UNL A   1      33.974  23.178  22.941  1.00  0.00     0.238 C 
ATOM     23  C   UNL A   1      34.772  20.830  24.609  1.00  0.00     0.063 C 
ATOM     24  C   UNL A   1      32.809  21.283  26.075  1.00  0.00    -0.036 A 
ATOM     25  C   UNL A   1      32.843  19.273  24.692  1.00  0.00    -0.036 A 
ATOM     26  O   UNL A   1      34.845  23.666  22.241  1.00  0.00    -0.274 OA
ATOM     27  C   UNL A   1      34.238  21.325  26.000  1.00  0.00    -0.036 A 
ATOM     28  C   UNL A   1      34.249  19.388  24.512  1.00  0.00    -0.036 A 
ATOM     29  C   UNL A   1      32.141  21.951  27.090  1.00  0.00     0.005 A 
ATOM     30  C   UNL A   1      32.220  18.037  24.814  1.00  0.00     0.005 A 
ATOM     31  C   UNL A   1      34.982  22.054  26.920  1.00  0.00     0.004 A 
ATOM     32  C   UNL A   1      35.027  18.236  24.486  1.00  0.00     0.004 A 
ATOM     33  C   UNL A   1      32.894  22.685  28.010  1.00  0.00     0.000 A 
ATOM     34  C   UNL A   1      33.007  16.891  24.776  1.00  0.00     0.000 A 
ATOM     35  C   UNL A   1      34.296  22.739  27.923  1.00  0.00     0.000 A 
ATOM     36  C   UNL A   1      34.398  16.989  24.618  1.00  0.00     0.000 A 
ENDBRANCH  10  15
ENDBRANCH   7   9
ENDBRANCH   6   7
ENDBRANCH   5   6
ENDBRANCH   4   5
ENDBRANCH   3   4
ENDBRANCH   2   3
ENDBRANCH   1   2
BRANCH   1  37
ATOM     37  O   UNL A   1      34.200  34.430  30.012  1.00  0.00    -0.376 OA
BRANCH  37  38
ATOM     38  C   UNL A   1      35.199  34.886  30.913  1.00  0.00     0.202 C 
BRANCH  38  39
ATOM     39  C   UNL A   1      35.260  34.267  32.309  1.00  0.00     0.261 C 
BRANCH  39  40
ATOM     40  O   UNL A   1      36.597  33.919  32.696  1.00  0.00    -0.460 OA
BRANCH  40  41
ATOM     41  C   UNL A   1      36.758  32.667  33.191  1.00  0.00     0.338 C 
ATOM     42  O   UNL A   1      36.095  32.123  34.058  1.00  0.00    -0.246 OA
BRANCH  41  43
ATOM     43  C   UNL A   1      37.782  31.981  32.386  1.00  0.00     0.060 A 
ATOM     44  C   UNL A   1      37.826  32.164  31.003  1.00  0.00     0.016 A 
ATOM     45  C   UNL A   1      38.707  31.151  33.031  1.00  0.00     0.016 A 
ATOM     46  C   UNL A   1      38.812  31.514  30.260  1.00  0.00     0.010 A 
ATOM     47  C   UNL A   1      39.681  30.488  32.283  1.00  0.00     0.010 A 
ATOM     48  C   UNL A   1      39.745  30.674  30.894  1.00  0.00    -0.014 A 
BRANCH  48  49
ATOM     49  C   UNL A   1      40.863  30.098  30.114  1.00  0.00     0.031 A 
ATOM     50  C   UNL A   1      40.733  28.784  29.409  1.00  0.00     0.074 A 
ATOM     51  C   UNL A   1      42.019  30.787  30.057  1.00  0.00     0.049 A 
ATOM     52  N   UNL A   1      41.594  28.191  28.623  1.00  0.00    -0.248 NA
ATOM     53  C   UNL A   1      39.483  28.035  29.609  1.00  0.00     0.031 C 
ATOM     54  C   UNL A   1      42.273  32.054  30.743  1.00  0.00     0.029 A 
ATOM     55  N   UNL A   1      43.190  30.518  29.400  1.00  0.00    -0.354 N 
ATOM     56  C   UNL A   1      40.997  27.001  28.231  1.00  0.00     0.074 A 
ATOM     57  C   UNL A   1      39.704  26.945  28.881  1.00  0.00     0.031 C 
ATOM     58  C   UNL A   1      43.524  32.455  30.470  1.00  0.00     0.029 A 
ATOM     59  C   UNL A   1      44.159  31.471  29.596  1.00  0.00     0.049 A 
ATOM     60  H   UNL A   1      43.326  29.717  28.843  1.00  0.00     0.167 HD
ATOM     61  C   UNL A   1      41.479  26.057  27.387  1.00  0.00     0.034 A 
ATOM     62  C   UNL A   1      45.416  31.552  29.121  1.00  0.00     0.034 A 
ATOM     63  C   UNL A   1      42.760  26.125  26.732  1.00  0.00     0.049 A 
ATOM     64  C   UNL A   1      45.921  30.492  28.187  1.00  0.00     0.074 A 
ATOM     65  C   UNL A   1      43.298  25.243  25.810  1.00  0.00     0.029 A 
ATOM     66  N   UNL A   1      43.707  27.115  26.937  1.00  0.00    -0.354 N 
ATOM     67  N   UNL A   1      45.290  29.446  27.714  1.00  0.00    -0.248 NA
ATOM     68  C   UNL A   1      47.300  30.638  27.696  1.00  0.00     0.031 C 
ATOM     69  C   UNL A   1      44.577  25.693  25.469  1.00  0.00     0.029 A 
ATOM     70  C   UNL A   1      44.831  26.860  26.169  1.00  0.00     0.049 A 
ATOM     71  H   UNL A   1      43.597  27.886  27.538  1.00  0.00     0.167 HD
ATOM     72  C   UNL A   1      46.186  28.814  26.862  1.00  0.00     0.074 A 
ATOM     73  C   UNL A   1      47.398  29.608  26.865  1.00  0.00     0.031 C 
ATOM     74  C   UNL A   1      46.021  27.670  26.154  1.00  0.00     0.034 A 
BRANCH  61  75
ATOM     75  C   UNL A   1      40.596  24.885  27.058  1.00  0.00     0.023 A 
ATOM     76  C   UNL A   1      39.314  25.127  26.525  1.00  0.00     0.012 A 
ATOM     77  C   UNL A   1      41.073  23.564  27.153  1.00  0.00     0.148 A 
ATOM     78  C   UNL A   1      38.516  24.069  26.095  1.00  0.00     0.002 A 
ATOM     79  C   UNL A   1      40.281  22.516  26.697  1.00  0.00     0.091 A 
ATOM     80  F   UNL A   1      42.292  23.361  27.672  1.00  0.00    -0.205 F 
ATOM     81  C   UNL A   1      39.003  22.767  26.170  1.00  0.00     0.022 A 
BRANCH  79  82
ATOM     82  S   UNL A   1      40.831  20.806  26.696  1.00  0.00     0.127 S 
ATOM     83  O   UNL A   1      42.077  20.897  25.936  1.00  0.00    -0.237 OA
ATOM     84  O   UNL A   1      41.004  20.539  28.124  1.00  0.00    -0.237 OA
ATOM     85  O   UNL A   1      39.771  20.042  26.053  1.00  0.00    -0.744 OA
ENDBRANCH  79  82
ENDBRANCH  61  75
BRANCH  62  86
ATOM     86  C   UNL A   1      46.249  32.730  29.477  1.00  0.00     0.023 A 
ATOM     87  C   UNL A   1      47.155  32.632  30.548  1.00  0.00     0.012 A 
ATOM     88  C   UNL A   1      46.203  33.909  28.710  1.00  0.00     0.148 A 
ATOM     89  C   UNL A   1      48.002  33.696  30.857  1.00  0.00     0.002 A 
ATOM     90  C   UNL A   1      47.074  34.951  28.999  1.00  0.00     0.091 A 
ATOM     91  F   UNL A   1      45.328  33.973  27.697  1.00  0.00    -0.205 F 
ATOM     92  C   UNL A   1      47.969  34.851  30.077  1.00  0.00     0.022 A 
BRANCH  90  93
ATOM     93  S   UNL A   1      47.177  36.437  27.995  1.00  0.00     0.127 S 
ATOM     94  O   UNL A   1      45.833  36.990  28.142  1.00  0.00    -0.237 OA
ATOM     95  O   UNL A   1      48.231  37.186  28.680  1.00  0.00    -0.237 OA
ATOM     96  O   UNL A   1      47.525  35.988  26.654  1.00  0.00    -0.744 OA
ENDBRANCH  90  93
ENDBRANCH  62  86
BRANCH  74  97
ATOM     97  C   UNL A   1      47.182  27.186  25.327  1.00  0.00     0.023 A 
ATOM     98  C   UNL A   1      48.002  26.158  25.829  1.00  0.00     0.012 A 
ATOM     99  C   UNL A   1      47.402  27.679  24.025  1.00  0.00     0.148 A 
ATOM    100  C   UNL A   1      49.037  25.635  25.054  1.00  0.00     0.002 A 
ATOM    101  C   UNL A   1      48.414  27.130  23.246  1.00  0.00     0.091 A 
ATOM    102  F   UNL A   1      46.616  28.667  23.575  1.00  0.00    -0.205 F 
ATOM    103  C   UNL A   1      49.235  26.113  23.761  1.00  0.00     0.022 A 
BRANCH 101 104
ATOM    104  S   UNL A   1      48.705  27.630  21.545  1.00  0.00     0.127 S 
ATOM    105  O   UNL A   1      48.311  29.037  21.577  1.00  0.00    -0.237 OA
ATOM    106  O   UNL A   1      50.143  27.403  21.397  1.00  0.00    -0.237 OA
ATOM    107  O   UNL A   1      47.868  26.767  20.722  1.00  0.00    -0.744 OA
ENDBRANCH 101 104
ENDBRANCH  74  97
ENDBRANCH  48  49
ENDBRANCH  41  43
ENDBRANCH  40  41
ENDBRANCH  39  40
ENDBRANCH  38  39
ENDBRANCH  37  38
ENDBRANCH   1  37
TORSDOF 21
ENDMDL
MODEL 2
REMARK VINA RESULT:     -11.6      5.094     11.288
REMARK SMILES C[C@]12C(=O)N(c3ccc(C(=O)OCCOCCOCCOC(=O)c4ccc(-c5c6nc(c(-c7cccc(S(=O)(=O)[O-])c7F)c7ccc([nH]7)c(-c7cccc(S(=O)(=O)[O-])c7F)c7nc(c(-c8cccc(S(=O)(=O)[O-])c8F)c8ccc5[nH]8)C=C7)C=C6)cc4)cc3)C(=O)[C@H]1[C@H]1c3ccccc3[C@@H]2c2ccccc21
REMARK SMILES IDX 17 1 16 2 15 3 14 4 13 5 12 6 10 7 11 8 9 9 6 10 7 11 88 12
REMARK SMILES IDX 8 13 87 14 5 15 1 16 2 17 3 18 91 19 99 20 4 21 89 22 92 23
REMARK SMILES IDX 98 24 100 25 90 26 93 27 105 28 97 29 101 30 94 31 104 32
REMARK SMILES IDX 96 33 102 34 95 35 103 36 18 37 19 38 20 39 21 40 22 41
REMARK SMILES IDX 23 42 24 43 25 44 86 45 26 46 85 47 27 48 28 49 29 50 79 51
REMARK SMILES IDX 30 52 84 53 78 54 80 55 31 56 83 57 77 58 76 59 32 61 64 62
REMARK SMILES IDX 44 63 63 64 45 65 48 66 62 67 81 68 46 69 47 70 61 72 82 73
REMARK SMILES IDX 49 74 33 75 34 76 42 77 35 78 37 79 43 80 36 81 38 82 39 83
REMARK SMILES IDX 40 84 41 85 65 86 66 87 74 88 67 89 69 90 75 91 68 92 70 93
REMARK SMILES IDX 71 94 72 95 73 96 50 97 51 98 59 99 52 100 54 101 60 102
REMARK SMILES IDX 53 103 55 104 56 105 57 106 58 107
REMARK H PARENT 80 60 48 71
REMARK Flexibility Score: inf
ROOT
ATOM      1  C   UNL A   1      42.547  19.863  26.226  1.00  0.00     0.188 C 
ENDROOT
BRANCH   1   2
ATOM      2  C   UNL A   1      41.083  20.332  26.386  1.00  0.00     0.188 C 
BRANCH   2   3
ATOM      3  O   UNL A   1      40.671  20.967  27.585  1.00  0.00    -0.376 OA
BRANCH   3   4
ATOM      4  C   UNL A   1      40.793  22.383  27.693  1.00  0.00     0.202 C 
BRANCH   4   5
ATOM      5  C   UNL A   1      39.648  23.244  27.159  1.00  0.00     0.261 C 
BRANCH   5   6
ATOM      6  O   UNL A   1      39.739  24.589  27.664  1.00  0.00    -0.460 OA
BRANCH   6   7
ATOM      7  C   UNL A   1      40.214  25.493  26.774  1.00  0.00     0.338 C 
ATOM      8  O   UNL A   1      40.493  25.296  25.606  1.00  0.00    -0.246 OA
BRANCH   7   9
ATOM      9  C   UNL A   1      40.131  26.839  27.369  1.00  0.00     0.060 A 
ATOM     10  C   UNL A   1      39.858  29.377  28.588  1.00  0.00     0.052 A 
ATOM     11  C   UNL A   1      39.304  28.211  29.163  1.00  0.00     0.028 A 
ATOM     12  C   UNL A   1      40.574  29.232  27.393  1.00  0.00     0.028 A 
ATOM     13  C   UNL A   1      39.407  26.963  28.549  1.00  0.00     0.018 A 
ATOM     14  C   UNL A   1      40.740  27.962  26.801  1.00  0.00     0.018 A 
BRANCH  10  15
ATOM     15  N   UNL A   1      39.506  30.649  29.139  1.00  0.00    -0.250 N 
ATOM     16  C   UNL A   1      39.571  33.534  30.696  1.00  0.00     0.024 C 
ATOM     17  C   UNL A   1      39.467  32.031  31.021  1.00  0.00     0.071 C 
ATOM     18  C   UNL A   1      40.330  31.297  30.035  1.00  0.00     0.241 C 
ATOM     19  C   UNL A   1      38.039  31.479  30.722  1.00  0.00     0.107 C 
ATOM     20  C   UNL A   1      39.883  31.667  32.481  1.00  0.00     0.066 C 
ATOM     21  O   UNL A   1      41.553  31.349  30.036  1.00  0.00    -0.273 OA
ATOM     22  C   UNL A   1      38.191  31.139  29.239  1.00  0.00     0.238 C 
ATOM     23  C   UNL A   1      37.299  31.195  32.091  1.00  0.00     0.063 C 
ATOM     24  C   UNL A   1      39.491  30.198  32.731  1.00  0.00    -0.036 A 
ATOM     25  C   UNL A   1      38.974  32.494  33.379  1.00  0.00    -0.036 A 
ATOM     26  O   UNL A   1      37.311  31.186  28.396  1.00  0.00    -0.274 OA
ATOM     27  C   UNL A   1      38.087  29.943  32.619  1.00  0.00    -0.036 A 
ATOM     28  C   UNL A   1      37.588  32.276  33.145  1.00  0.00    -0.036 A 
ATOM     29  C   UNL A   1      40.383  29.149  32.888  1.00  0.00     0.005 A 
ATOM     30  C   UNL A   1      39.422  33.301  34.418  1.00  0.00     0.005 A 
ATOM     31  C   UNL A   1      37.592  28.645  32.635  1.00  0.00     0.004 A 
ATOM     32  C   UNL A   1      36.655  32.862  33.992  1.00  0.00     0.004 A 
ATOM     33  C   UNL A   1      39.879  27.845  32.900  1.00  0.00     0.000 A 
ATOM     34  C   UNL A   1      38.479  33.891  35.253  1.00  0.00     0.000 A 
ATOM     35  C   UNL A   1      38.502  27.597  32.771  1.00  0.00     0.000 A 
ATOM     36  C   UNL A   1      37.108  33.670  35.045  1.00  0.00     0.000 A 
ENDBRANCH  10  15
ENDBRANCH   7   9
ENDBRANCH   6   7
ENDBRANCH   5   6
ENDBRANCH   4   5
ENDBRANCH   3   4
ENDBRANCH   2   3
ENDBRANCH   1   2
BRANCH   1  37
ATOM     37  O   UNL A   1      42.997  19.320  24.997  1.00  0.00    -0.376 OA
BRANCH  37  38
ATOM     38  C   UNL A   1      44.347  18.893  24.894  1.00  0.00     0.202 C 
BRANCH  38  39
ATOM     39  C   UNL A   1      45.325  19.752  24.091  1.00  0.00     0.261 C 
BRANCH  39  40
ATOM     40  O   UNL A   1      45.594  21.011  24.725  1.00  0.00    -0.460 OA
BRANCH  40  41
ATOM     41  C   UNL A   1      44.994  22.090  24.162  1.00  0.00     0.338 C 
ATOM     42  O   UNL A   1      44.434  22.146  23.081  1.00  0.00    -0.246 OA
BRANCH  41  43
ATOM     43  C   UNL A   1      44.976  23.177  25.155  1.00  0.00     0.060 A 
ATOM     44  C   UNL A   1      43.770  23.778  25.516  1.00  0.00     0.016 A 
ATOM     45  C   UNL A   1      46.185  23.589  25.730  1.00  0.00     0.016 A 
ATOM     46  C   UNL A   1      43.774  24.799  26.468  1.00  0.00     0.010 A 
ATOM     47  C   UNL A   1      46.189  24.622  26.668  1.00  0.00     0.010 A 
ATOM     48  C   UNL A   1      44.981  25.225  27.050  1.00  0.00    -0.014 A 
BRANCH  48  49
ATOM     49  C   UNL A   1      44.956  26.213  28.151  1.00  0.00     0.031 A 
ATOM     50  C   UNL A   1      44.882  25.789  29.586  1.00  0.00     0.074 A 
ATOM     51  C   UNL A   1      44.992  27.521  27.833  1.00  0.00     0.049 A 
ATOM     52  N   UNL A   1      44.934  26.532  30.660  1.00  0.00    -0.248 NA
ATOM     53  C   UNL A   1      44.730  24.350  29.853  1.00  0.00     0.031 C 
ATOM     54  C   UNL A   1      45.018  28.050  26.469  1.00  0.00     0.029 A 
ATOM     55  N   UNL A   1      45.010  28.636  28.628  1.00  0.00    -0.354 N 
ATOM     56  C   UNL A   1      44.821  25.660  31.734  1.00  0.00     0.074 A 
ATOM     57  C   UNL A   1      44.680  24.329  31.181  1.00  0.00     0.031 C 
ATOM     58  C   UNL A   1      45.049  29.391  26.521  1.00  0.00     0.029 A 
ATOM     59  C   UNL A   1      45.040  29.813  27.920  1.00  0.00     0.049 A 
ATOM     60  H   UNL A   1      45.000  28.599  29.612  1.00  0.00     0.167 HD
ATOM     61  C   UNL A   1      44.857  25.946  33.057  1.00  0.00     0.034 A 
ATOM     62  C   UNL A   1      45.065  31.090  28.345  1.00  0.00     0.034 A 
ATOM     63  C   UNL A   1      45.012  27.271  33.601  1.00  0.00     0.049 A 
ATOM     64  C   UNL A   1      45.107  31.377  29.818  1.00  0.00     0.074 A 
ATOM     65  C   UNL A   1      45.124  27.643  34.931  1.00  0.00     0.029 A 
ATOM     66  N   UNL A   1      45.061  28.438  32.855  1.00  0.00    -0.354 N 
ATOM     67  N   UNL A   1      45.143  30.531  30.817  1.00  0.00    -0.248 NA
ATOM     68  C   UNL A   1      45.139  32.790  30.221  1.00  0.00     0.031 C 
ATOM     69  C   UNL A   1      45.226  29.036  34.988  1.00  0.00     0.029 A 
ATOM     70  C   UNL A   1      45.189  29.531  33.695  1.00  0.00     0.049 A 
ATOM     71  H   UNL A   1      45.013  28.482  31.873  1.00  0.00     0.167 HD
ATOM     72  C   UNL A   1      45.216  31.306  31.968  1.00  0.00     0.074 A 
ATOM     73  C   UNL A   1      45.241  32.690  31.540  1.00  0.00     0.031 C 
ATOM     74  C   UNL A   1      45.243  30.903  33.261  1.00  0.00     0.034 A 
BRANCH  61  75
ATOM     75  C   UNL A   1      44.794  24.803  34.032  1.00  0.00     0.023 A 
ATOM     76  C   UNL A   1      43.532  24.324  34.437  1.00  0.00     0.012 A 
ATOM     77  C   UNL A   1      45.960  24.129  34.442  1.00  0.00     0.148 A 
ATOM     78  C   UNL A   1      43.432  23.190  35.242  1.00  0.00     0.002 A 
ATOM     79  C   UNL A   1      45.850  22.983  35.222  1.00  0.00     0.091 A 
ATOM     80  F   UNL A   1      47.148  24.612  34.050  1.00  0.00    -0.205 F 
ATOM     81  C   UNL A   1      44.587  22.515  35.624  1.00  0.00     0.022 A 
BRANCH  79  82
ATOM     82  S   UNL A   1      47.270  22.006  35.726  1.00  0.00     0.127 S 
ATOM     83  O   UNL A   1      48.078  22.009  34.507  1.00  0.00    -0.237 OA
ATOM     84  O   UNL A   1      47.817  22.802  36.825  1.00  0.00    -0.237 OA
ATOM     85  O   UNL A   1      46.746  20.704  36.115  1.00  0.00    -0.744 OA
ENDBRANCH  79  82
ENDBRANCH  61  75
BRANCH  62  86
ATOM     86  C   UNL A   1      45.126  32.184  27.342  1.00  0.00     0.023 A 
ATOM     87  C   UNL A   1      43.954  32.557  26.661  1.00  0.00     0.012 A 
ATOM     88  C   UNL A   1      46.316  32.904  27.125  1.00  0.00     0.148 A 
ATOM     89  C   UNL A   1      43.965  33.629  25.769  1.00  0.00     0.002 A 
ATOM     90  C   UNL A   1      46.312  33.994  26.265  1.00  0.00     0.091 A 
ATOM     91  F   UNL A   1      47.416  32.524  27.789  1.00  0.00    -0.205 F 
ATOM     92  C   UNL A   1      45.140  34.354  25.579  1.00  0.00     0.022 A 
BRANCH  90  93
ATOM     93  S   UNL A   1      47.747  35.049  26.029  1.00  0.00     0.127 S 
ATOM     94  O   UNL A   1      47.126  36.319  25.660  1.00  0.00    -0.237 OA
ATOM     95  O   UNL A   1      48.356  35.024  27.359  1.00  0.00    -0.237 OA
ATOM     96  O   UNL A   1      48.539  34.415  24.985  1.00  0.00    -0.744 OA
ENDBRANCH  90  93
ENDBRANCH  62  86
BRANCH  74  97
ATOM     97  C   UNL A   1      45.290  31.967  34.325  1.00  0.00     0.023 A 
ATOM     98  C   UNL A   1      46.528  32.543  34.667  1.00  0.00     0.012 A 
ATOM     99  C   UNL A   1      44.107  32.460  34.912  1.00  0.00     0.148 A 
ATOM    100  C   UNL A   1      46.594  33.584  35.591  1.00  0.00     0.002 A 
ATOM    101  C   UNL A   1      44.177  33.521  35.808  1.00  0.00     0.091 A 
ATOM    102  F   UNL A   1      42.942  31.887  34.579  1.00  0.00    -0.205 F 
ATOM    103  C   UNL A   1      45.419  34.080  36.152  1.00  0.00     0.022 A 
BRANCH 101 104
ATOM    104  S   UNL A   1      42.715  34.274  36.531  1.00  0.00     0.127 S 
ATOM    105  O   UNL A   1      43.285  35.005  37.661  1.00  0.00    -0.237 OA
ATOM    106  O   UNL A   1      42.230  35.120  35.440  1.00  0.00    -0.237 OA
ATOM    107  O   UNL A   1      41.828  33.175  36.885  1.00  0.00    -0.744 OA
ENDBRANCH 101 104
ENDBRANCH  74  97
ENDBRANCH  48  49
ENDBRANCH  41  43
ENDBRANCH  40  41
ENDBRANCH  39  40
ENDBRANCH  38  39
ENDBRANCH  37  38
ENDBRANCH   1  37
TORSDOF 21
ENDMDL
MODEL 3
REMARK VINA RESULT:     -11.6      6.133      8.480
REMARK SMILES C[C@]12C(=O)N(c3ccc(C(=O)OCCOCCOCCOC(=O)c4ccc(-c5c6nc(c(-c7cccc(S(=O)(=O)[O-])c7F)c7ccc([nH]7)c(-c7cccc(S(=O)(=O)[O-])c7F)c7nc(c(-c8cccc(S(=O)(=O)[O-])c8F)c8ccc5[nH]8)C=C7)C=C6)cc4)cc3)C(=O)[C@H]1[C@H]1c3ccccc3[C@@H]2c2ccccc21
REMARK SMILES IDX 17 1 16 2 15 3 14 4 13 5 12 6 10 7 11 8 9 9 6 10 7 11 88 12
REMARK SMILES IDX 8 13 87 14 5 15 1 16 2 17 3 18 91 19 99 20 4 21 89 22 92 23
REMARK SMILES IDX 98 24 100 25 90 26 93 27 105 28 97 29 101 30 94 31 104 32
REMARK SMILES IDX 96 33 102 34 95 35 103 36 18 37 19 38 20 39 21 40 22 41
REMARK SMILES IDX 23 42 24 43 25 44 86 45 26 46 85 47 27 48 28 49 29 50 79 51
REMARK SMILES IDX 30 52 84 53 78 54 80 55 31 56 83 57 77 58 76 59 32 61 64 62
REMARK SMILES IDX 44 63 63 64 45 65 48 66 62 67 81 68 46 69 47 70 61 72 82 73
REMARK SMILES IDX 49 74 33 75 34 76 42 77 35 78 37 79 43 80 36 81 38 82 39 83
REMARK SMILES IDX 40 84 41 85 65 86 66 87 74 88 67 89 69 90 75 91 68 92 70 93
REMARK SMILES IDX 71 94 72 95 73 96 50 97 51 98 59 99 52 100 54 101 60 102
REMARK SMILES IDX 53 103 55 104 56 105 57 106 58 107
REMARK H PARENT 80 60 48 71
REMARK Flexibility Score: inf
ROOT
ATOM      1  C   UNL A   1      38.585  28.271  28.045  1.00  0.00     0.188 C 
ENDROOT
BRANCH   1   2
ATOM      2  C   UNL A   1      39.416  26.997  28.317  1.00  0.00     0.188 C 
BRANCH   2   3
ATOM      3  O   UNL A   1      39.549  26.010  27.308  1.00  0.00    -0.376 OA
BRANCH   3   4
ATOM      4  C   UNL A   1      39.324  24.643  27.644  1.00  0.00     0.202 C 
BRANCH   4   5
ATOM      5  C   UNL A   1      38.703  23.737  26.581  1.00  0.00     0.261 C 
BRANCH   5   6
ATOM      6  O   UNL A   1      37.375  24.175  26.244  1.00  0.00    -0.460 OA
BRANCH   6   7
ATOM      7  C   UNL A   1      36.685  23.320  25.452  1.00  0.00     0.338 C 
ATOM      8  O   UNL A   1      37.064  22.245  25.026  1.00  0.00    -0.246 OA
BRANCH   7   9
ATOM      9  C   UNL A   1      35.286  23.779  25.357  1.00  0.00     0.060 A 
ATOM     10  C   UNL A   1      32.652  24.780  25.108  1.00  0.00     0.052 A 
ATOM     11  C   UNL A   1      33.703  25.231  24.277  1.00  0.00     0.028 A 
ATOM     12  C   UNL A   1      32.955  23.793  26.056  1.00  0.00     0.028 A 
ATOM     13  C   UNL A   1      35.009  24.766  24.418  1.00  0.00     0.018 A 
ATOM     14  C   UNL A   1      34.261  23.269  26.159  1.00  0.00     0.018 A 
BRANCH  10  15
ATOM     15  N   UNL A   1      31.402  25.472  25.073  1.00  0.00    -0.250 N 
ATOM     16  C   UNL A   1      28.487  26.667  24.162  1.00  0.00     0.024 C 
ATOM     17  C   UNL A   1      29.986  26.912  23.899  1.00  0.00     0.071 C 
ATOM     18  C   UNL A   1      30.669  25.574  23.909  1.00  0.00     0.241 C 
ATOM     19  C   UNL A   1      30.660  27.662  25.090  1.00  0.00     0.107 C 
ATOM     20  C   UNL A   1      30.283  27.662  22.562  1.00  0.00     0.066 C 
ATOM     21  O   UNL A   1      30.517  24.731  23.035  1.00  0.00    -0.273 OA
ATOM     22  C   UNL A   1      31.019  26.475  25.983  1.00  0.00     0.238 C 
ATOM     23  C   UNL A   1      30.973  29.149  24.651  1.00  0.00     0.063 C 
ATOM     24  C   UNL A   1      31.773  28.053  22.561  1.00  0.00    -0.036 A 
ATOM     25  C   UNL A   1      29.514  28.972  22.653  1.00  0.00    -0.036 A 
ATOM     26  O   UNL A   1      31.062  26.478  27.202  1.00  0.00    -0.274 OA
ATOM     27  C   UNL A   1      32.144  28.934  23.627  1.00  0.00    -0.036 A 
ATOM     28  C   UNL A   1      29.849  29.753  23.794  1.00  0.00    -0.036 A 
ATOM     29  C   UNL A   1      32.742  27.506  21.735  1.00  0.00     0.005 A 
ATOM     30  C   UNL A   1      28.650  29.444  21.672  1.00  0.00     0.005 A 
ATOM     31  C   UNL A   1      33.478  29.235  23.875  1.00  0.00     0.004 A 
ATOM     32  C   UNL A   1      29.322  31.033  23.919  1.00  0.00     0.004 A 
ATOM     33  C   UNL A   1      34.082  27.810  21.991  1.00  0.00     0.000 A 
ATOM     34  C   UNL A   1      28.120  30.722  21.814  1.00  0.00     0.000 A 
ATOM     35  C   UNL A   1      34.445  28.660  23.050  1.00  0.00     0.000 A 
ATOM     36  C   UNL A   1      28.457  31.511  22.924  1.00  0.00     0.000 A 
ENDBRANCH  10  15
ENDBRANCH   7   9
ENDBRANCH   6   7
ENDBRANCH   5   6
ENDBRANCH   4   5
ENDBRANCH   3   4
ENDBRANCH   2   3
ENDBRANCH   1   2
BRANCH   1  37
ATOM     37  O   UNL A   1      38.594  29.346  28.970  1.00  0.00    -0.376 OA
BRANCH  37  38
ATOM     38  C   UNL A   1      37.704  30.432  28.760  1.00  0.00     0.202 C 
BRANCH  38  39
ATOM     39  C   UNL A   1      36.523  30.602  29.716  1.00  0.00     0.261 C 
BRANCH  39  40
ATOM     40  O   UNL A   1      36.578  29.689  30.822  1.00  0.00    -0.460 OA
BRANCH  40  41
ATOM     41  C   UNL A   1      37.048  30.205  31.985  1.00  0.00     0.338 C 
ATOM     42  O   UNL A   1      36.450  30.914  32.776  1.00  0.00    -0.246 OA
BRANCH  41  43
ATOM     43  C   UNL A   1      38.379  29.630  32.240  1.00  0.00     0.060 A 
ATOM     44  C   UNL A   1      38.531  28.251  32.390  1.00  0.00     0.016 A 
ATOM     45  C   UNL A   1      39.483  30.488  32.322  1.00  0.00     0.016 A 
ATOM     46  C   UNL A   1      39.803  27.726  32.619  1.00  0.00     0.010 A 
ATOM     47  C   UNL A   1      40.751  29.962  32.570  1.00  0.00     0.010 A 
ATOM     48  C   UNL A   1      40.920  28.576  32.709  1.00  0.00    -0.014 A 
BRANCH  48  49
ATOM     49  C   UNL A   1      42.276  27.995  32.819  1.00  0.00     0.031 A 
ATOM     50  C   UNL A   1      43.057  27.587  31.607  1.00  0.00     0.074 A 
ATOM     51  C   UNL A   1      42.800  27.833  34.048  1.00  0.00     0.049 A 
ATOM     52  N   UNL A   1      44.284  27.141  31.540  1.00  0.00    -0.248 NA
ATOM     53  C   UNL A   1      42.377  27.687  30.306  1.00  0.00     0.031 C 
ATOM     54  C   UNL A   1      42.113  28.153  35.300  1.00  0.00     0.029 A 
ATOM     55  N   UNL A   1      44.022  27.357  34.446  1.00  0.00    -0.354 N 
ATOM     56  C   UNL A   1      44.530  26.905  30.194  1.00  0.00     0.074 A 
ATOM     57  C   UNL A   1      43.317  27.242  29.479  1.00  0.00     0.031 C 
ATOM     58  C   UNL A   1      42.925  27.865  36.329  1.00  0.00     0.029 A 
ATOM     59  C   UNL A   1      44.184  27.337  35.810  1.00  0.00     0.049 A 
ATOM     60  H   UNL A   1      44.716  27.057  33.815  1.00  0.00     0.167 HD
ATOM     61  C   UNL A   1      45.675  26.472  29.613  1.00  0.00     0.034 A 
ATOM     62  C   UNL A   1      45.230  26.944  36.561  1.00  0.00     0.034 A 
ATOM     63  C   UNL A   1      46.883  26.153  30.328  1.00  0.00     0.049 A 
ATOM     64  C   UNL A   1      46.485  26.470  35.889  1.00  0.00     0.074 A 
ATOM     65  C   UNL A   1      48.109  25.769  29.810  1.00  0.00     0.029 A 
ATOM     66  N   UNL A   1      47.019  26.163  31.707  1.00  0.00    -0.354 N 
ATOM     67  N   UNL A   1      46.749  26.389  34.608  1.00  0.00    -0.248 NA
ATOM     68  C   UNL A   1      47.595  26.061  36.761  1.00  0.00     0.031 C 
ATOM     69  C   UNL A   1      48.981  25.533  30.877  1.00  0.00     0.029 A 
ATOM     70  C   UNL A   1      48.302  25.781  32.058  1.00  0.00     0.049 A 
ATOM     71  H   UNL A   1      46.308  26.407  32.342  1.00  0.00     0.167 HD
ATOM     72  C   UNL A   1      48.058  25.934  34.519  1.00  0.00     0.074 A 
ATOM     73  C   UNL A   1      48.541  25.776  35.876  1.00  0.00     0.031 C 
ATOM     74  C   UNL A   1      48.785  25.656  33.409  1.00  0.00     0.034 A 
BRANCH  61  75
ATOM     75  C   UNL A   1      45.714  26.374  28.113  1.00  0.00     0.023 A 
ATOM     76  C   UNL A   1      46.086  27.509  27.366  1.00  0.00     0.012 A 
ATOM     77  C   UNL A   1      45.510  25.144  27.457  1.00  0.00     0.148 A 
ATOM     78  C   UNL A   1      46.251  27.423  25.985  1.00  0.00     0.002 A 
ATOM     79  C   UNL A   1      45.702  25.061  26.083  1.00  0.00     0.091 A 
ATOM     80  F   UNL A   1      45.146  24.082  28.190  1.00  0.00    -0.205 F 
ATOM     81  C   UNL A   1      46.070  26.200  25.346  1.00  0.00     0.022 A 
BRANCH  79  82
ATOM     82  S   UNL A   1      45.550  23.523  25.167  1.00  0.00     0.127 S 
ATOM     83  O   UNL A   1      46.247  22.586  26.047  1.00  0.00    -0.237 OA
ATOM     84  O   UNL A   1      44.099  23.343  25.108  1.00  0.00    -0.237 OA
ATOM     85  O   UNL A   1      46.191  23.755  23.880  1.00  0.00    -0.744 OA
ENDBRANCH  79  82
ENDBRANCH  61  75
BRANCH  62  86
ATOM     86  C   UNL A   1      45.141  27.060  38.040  1.00  0.00     0.023 A 
ATOM     87  C   UNL A   1      44.703  25.954  38.790  1.00  0.00     0.012 A 
ATOM     88  C   UNL A   1      45.565  28.227  38.703  1.00  0.00     0.148 A 
ATOM     89  C   UNL A   1      44.680  26.010  40.183  1.00  0.00     0.002 A 
ATOM     90  C   UNL A   1      45.576  28.263  40.091  1.00  0.00     0.091 A 
ATOM     91  F   UNL A   1      45.976  29.264  37.960  1.00  0.00    -0.205 F 
ATOM     92  C   UNL A   1      45.127  27.159  40.834  1.00  0.00     0.022 A 
BRANCH  90  93
ATOM     93  S   UNL A   1      46.224  29.657  41.020  1.00  0.00     0.127 S 
ATOM     94  O   UNL A   1      46.025  29.215  42.398  1.00  0.00    -0.237 OA
ATOM     95  O   UNL A   1      47.618  29.688  40.577  1.00  0.00    -0.237 OA
ATOM     96  O   UNL A   1      45.431  30.809  40.614  1.00  0.00    -0.744 OA
ENDBRANCH  90  93
ENDBRANCH  62  86
BRANCH  74  97
ATOM     97  C   UNL A   1      50.185  25.136  33.603  1.00  0.00     0.023 A 
ATOM     98  C   UNL A   1      51.227  26.049  33.851  1.00  0.00     0.012 A 
ATOM     99  C   UNL A   1      50.449  23.753  33.632  1.00  0.00     0.148 A 
ATOM    100  C   UNL A   1      52.520  25.594  34.111  1.00  0.00     0.002 A 
ATOM    101  C   UNL A   1      51.732  23.305  33.925  1.00  0.00     0.091 A 
ATOM    102  F   UNL A   1      49.442  22.905  33.380  1.00  0.00    -0.205 F 
ATOM    103  C   UNL A   1      52.768  24.224  34.159  1.00  0.00     0.022 A 
BRANCH 101 104
ATOM    104  S   UNL A   1      52.139  21.562  34.077  1.00  0.00     0.127 S 
ATOM    105  O   UNL A   1      51.392  21.186  35.277  1.00  0.00    -0.237 OA
ATOM    106  O   UNL A   1      51.607  21.010  32.831  1.00  0.00    -0.237 OA
ATOM    107  O   UNL A   1      53.588  21.495  34.200  1.00  0.00    -0.744 OA
ENDBRANCH 101 104
ENDBRANCH  74  97
ENDBRANCH  48  49
ENDBRANCH  41  43
ENDBRANCH  40  41
ENDBRANCH  39  40
ENDBRANCH  38  39
ENDBRANCH  37  38
ENDBRANCH   1  37
TORSDOF 21
ENDMDL
