MODEL 1
REMARK VINA RESULT:     -10.0      0.000      0.000
REMARK SMILES CCc1cc([C@H]([NH3+])C(=O)OCCOCCOCCOC(=O)c2ccc(-c3c4nc(c(-c5cccc(S(=O)(=O)[O-])c5F)c5ccc([nH]5)c(-c5cccc(S(=O)(=O)[O-])c5F)c5nc(c(-c6cccc(S(=O)(=O)[O-])c6F)c6ccc3[nH]6)C=C5)C=C4)cc2)cc(CC)c1N
REMARK SMILES IDX 15 1 14 2 13 3 12 4 11 5 10 6 8 7 9 8 6 9 5 10 3 11 4 12
REMARK SMILES IDX 89 13 86 14 85 15 2 16 1 17 90 18 87 21 88 22 7 23 16 27
REMARK SMILES IDX 17 28 18 29 19 30 20 31 21 32 22 33 23 34 84 35 24 36 83 37
REMARK SMILES IDX 25 38 26 39 27 40 77 41 28 42 82 43 76 44 78 45 29 46 81 47
REMARK SMILES IDX 75 48 74 49 30 51 62 52 42 53 61 54 43 55 46 56 60 57 79 58
REMARK SMILES IDX 44 59 45 60 59 62 80 63 47 64 31 65 32 66 40 67 33 68 35 69
REMARK SMILES IDX 41 70 34 71 36 72 37 73 38 74 39 75 63 76 64 77 72 78 65 79
REMARK SMILES IDX 67 80 73 81 66 82 68 83 69 84 70 85 71 86 48 87 49 88 57 89
REMARK SMILES IDX 50 90 52 91 58 92 51 93 53 94 54 95 55 96 56 97
REMARK H PARENT 90 19 90 20 7 24 7 25 7 26 78 50 46 61
REMARK Flexibility Score: inf
ROOT
ATOM      1  C   UNL A   1      31.797  29.181  25.776  1.00  0.00     0.188 C 
ENDROOT
BRANCH   1   2
ATOM      2  C   UNL A   1      31.530  29.005  24.270  1.00  0.00     0.188 C 
BRANCH   2   3
ATOM      3  O   UNL A   1      30.780  27.889  23.812  1.00  0.00    -0.376 OA
BRANCH   3   4
ATOM      4  C   UNL A   1      31.420  26.846  23.095  1.00  0.00     0.202 C 
BRANCH   4   5
ATOM      5  C   UNL A   1      32.517  26.002  23.769  1.00  0.00     0.261 C 
BRANCH   5   6
ATOM      6  O   UNL A   1      32.129  25.217  24.914  1.00  0.00    -0.459 OA
BRANCH   6   7
ATOM      7  C   UNL A   1      31.662  23.968  24.637  1.00  0.00     0.369 C 
ATOM      8  O   UNL A   1      31.058  23.687  23.603  1.00  0.00    -0.245 OA
BRANCH   7   9
ATOM      9  C   UNL A   1      31.864  22.914  25.761  1.00  0.00     0.323 C 
BRANCH   9  10
ATOM     10  C   UNL A   1      33.083  22.097  25.425  1.00  0.00     0.021 A 
ATOM     11  C   UNL A   1      33.950  19.920  24.777  1.00  0.00    -0.024 A 
ATOM     12  C   UNL A   1      32.887  20.818  24.914  1.00  0.00     0.016 A 
ATOM     13  C   UNL A   1      35.263  20.346  25.093  1.00  0.00     0.038 A 
ATOM     14  C   UNL A   1      35.486  21.695  25.454  1.00  0.00    -0.024 A 
ATOM     15  C   UNL A   1      34.380  22.522  25.700  1.00  0.00     0.016 A 
BRANCH  11  16
ATOM     16  C   UNL A   1      33.565  18.508  24.391  1.00  0.00     0.034 C 
ATOM     17  C   UNL A   1      32.453  18.409  23.364  1.00  0.00     0.009 C 
ENDBRANCH  11  16
BRANCH  13  18
ATOM     18  N   UNL A   1      36.327  19.457  24.958  1.00  0.00    -0.398 N 
ATOM     19  H   UNL A   1      36.159  18.526  24.686  1.00  0.00     0.156 HD
ATOM     20  H   UNL A   1      37.247  19.760  25.134  1.00  0.00     0.156 HD
ENDBRANCH  13  18
BRANCH  14  21
ATOM     21  C   UNL A   1      36.850  22.322  25.659  1.00  0.00     0.034 C 
ATOM     22  C   UNL A   1      36.874  23.802  25.275  1.00  0.00     0.009 C 
ENDBRANCH  14  21
ENDBRANCH   9  10
BRANCH   9  23
ATOM     23  N   UNL A   1      30.707  22.059  26.115  1.00  0.00    -0.342 N 
ATOM     24  H   UNL A   1      31.023  21.277  26.687  1.00  0.00     0.345 HD
ATOM     25  H   UNL A   1      30.272  21.704  25.263  1.00  0.00     0.345 HD
ATOM     26  H   UNL A   1      30.025  22.609  26.639  1.00  0.00     0.345 HD
ENDBRANCH   9  23
ENDBRANCH   7   9
ENDBRANCH   6   7
ENDBRANCH   5   6
ENDBRANCH   4   5
ENDBRANCH   3   4
ENDBRANCH   2   3
ENDBRANCH   1   2
BRANCH   1  27
ATOM     27  O   UNL A   1      32.205  30.468  26.158  1.00  0.00    -0.376 OA
BRANCH  27  28
ATOM     28  C   UNL A   1      31.238  31.459  26.401  1.00  0.00     0.202 C 
BRANCH  28  29
ATOM     29  C   UNL A   1      31.595  32.882  26.869  1.00  0.00     0.261 C 
BRANCH  29  30
ATOM     30  O   UNL A   1      32.970  33.288  26.839  1.00  0.00    -0.460 OA
BRANCH  30  31
ATOM     31  C   UNL A   1      33.492  33.796  27.978  1.00  0.00     0.338 C 
ATOM     32  O   UNL A   1      32.997  34.664  28.686  1.00  0.00    -0.246 OA
BRANCH  31  33
ATOM     33  C   UNL A   1      34.663  32.976  28.364  1.00  0.00     0.060 A 
ATOM     34  C   UNL A   1      34.480  31.620  28.676  1.00  0.00     0.016 A 
ATOM     35  C   UNL A   1      35.936  33.544  28.424  1.00  0.00     0.016 A 
ATOM     36  C   UNL A   1      35.564  30.837  29.082  1.00  0.00     0.010 A 
ATOM     37  C   UNL A   1      37.015  32.767  28.854  1.00  0.00     0.010 A 
ATOM     38  C   UNL A   1      36.831  31.419  29.219  1.00  0.00    -0.014 A 
BRANCH  38  39
ATOM     39  C   UNL A   1      37.918  30.702  29.936  1.00  0.00     0.031 A 
ATOM     40  C   UNL A   1      38.192  31.080  31.367  1.00  0.00     0.074 A 
ATOM     41  C   UNL A   1      38.674  29.769  29.331  1.00  0.00     0.049 A 
ATOM     42  N   UNL A   1      39.153  30.689  32.161  1.00  0.00    -0.248 NA
ATOM     43  C   UNL A   1      37.256  32.038  31.981  1.00  0.00     0.031 C 
ATOM     44  C   UNL A   1      38.505  29.297  27.959  1.00  0.00     0.029 A 
ATOM     45  N   UNL A   1      39.769  29.078  29.793  1.00  0.00    -0.354 N 
ATOM     46  C   UNL A   1      38.966  31.384  33.350  1.00  0.00     0.074 A 
ATOM     47  C   UNL A   1      37.801  32.223  33.173  1.00  0.00     0.031 C 
ATOM     48  C   UNL A   1      39.487  28.424  27.675  1.00  0.00     0.029 A 
ATOM     49  C   UNL A   1      40.374  28.301  28.832  1.00  0.00     0.049 A 
ATOM     50  H   UNL A   1      40.089  29.133  30.723  1.00  0.00     0.167 HD
ATOM     51  C   UNL A   1      39.695  31.328  34.491  1.00  0.00     0.034 A 
ATOM     52  C   UNL A   1      41.528  27.604  28.870  1.00  0.00     0.034 A 
ATOM     53  C   UNL A   1      40.845  30.487  34.673  1.00  0.00     0.049 A 
ATOM     54  C   UNL A   1      42.343  27.586  30.141  1.00  0.00     0.074 A 
ATOM     55  C   UNL A   1      41.621  30.326  35.807  1.00  0.00     0.029 A 
ATOM     56  N   UNL A   1      41.400  29.680  33.691  1.00  0.00    -0.354 N 
ATOM     57  N   UNL A   1      42.099  28.166  31.290  1.00  0.00    -0.248 NA
ATOM     58  C   UNL A   1      43.581  26.789  30.127  1.00  0.00     0.031 C 
ATOM     59  C   UNL A   1      42.669  29.454  35.499  1.00  0.00     0.029 A 
ATOM     60  C   UNL A   1      42.516  29.031  34.189  1.00  0.00     0.049 A 
ATOM     61  H   UNL A   1      41.051  29.584  32.775  1.00  0.00     0.167 HD
ATOM     62  C   UNL A   1      43.124  27.770  32.147  1.00  0.00     0.074 A 
ATOM     63  C   UNL A   1      43.985  26.889  31.386  1.00  0.00     0.031 C 
ATOM     64  C   UNL A   1      43.336  28.112  33.442  1.00  0.00     0.034 A 
BRANCH  51  65
ATOM     65  C   UNL A   1      39.263  32.203  35.639  1.00  0.00     0.023 A 
ATOM     66  C   UNL A   1      38.391  31.693  36.623  1.00  0.00     0.012 A 
ATOM     67  C   UNL A   1      39.762  33.513  35.768  1.00  0.00     0.148 A 
ATOM     68  C   UNL A   1      37.995  32.487  37.699  1.00  0.00     0.002 A 
ATOM     69  C   UNL A   1      39.403  34.281  36.869  1.00  0.00     0.091 A 
ATOM     70  F   UNL A   1      40.572  33.987  34.811  1.00  0.00    -0.205 F 
ATOM     71  C   UNL A   1      38.509  33.775  37.828  1.00  0.00     0.022 A 
BRANCH  69  72
ATOM     72  S   UNL A   1      40.074  35.919  37.169  1.00  0.00     0.127 S 
ATOM     73  O   UNL A   1      39.393  36.294  38.408  1.00  0.00    -0.237 OA
ATOM     74  O   UNL A   1      41.502  35.641  37.318  1.00  0.00    -0.237 OA
ATOM     75  O   UNL A   1      39.727  36.718  36.002  1.00  0.00    -0.744 OA
ENDBRANCH  69  72
ENDBRANCH  51  65
BRANCH  52  76
ATOM     76  C   UNL A   1      41.988  26.847  27.670  1.00  0.00     0.023 A 
ATOM     77  C   UNL A   1      42.661  27.526  26.635  1.00  0.00     0.012 A 
ATOM     78  C   UNL A   1      41.757  25.462  27.546  1.00  0.00     0.148 A 
ATOM     79  C   UNL A   1      43.064  26.847  25.483  1.00  0.00     0.002 A 
ATOM     80  C   UNL A   1      42.211  24.783  26.422  1.00  0.00     0.091 A 
ATOM     81  F   UNL A   1      41.099  24.839  28.533  1.00  0.00    -0.205 F 
ATOM     82  C   UNL A   1      42.849  25.477  25.381  1.00  0.00     0.022 A 
BRANCH  80  83
ATOM     83  S   UNL A   1      42.084  22.999  26.252  1.00  0.00     0.127 S 
ATOM     84  O   UNL A   1      42.661  22.784  24.928  1.00  0.00    -0.237 OA
ATOM     85  O   UNL A   1      42.908  22.534  27.368  1.00  0.00    -0.237 OA
ATOM     86  O   UNL A   1      40.666  22.690  26.379  1.00  0.00    -0.744 OA
ENDBRANCH  80  83
ENDBRANCH  52  76
BRANCH  64  87
ATOM     87  C   UNL A   1      44.509  27.487  34.157  1.00  0.00     0.023 A 
ATOM     88  C   UNL A   1      45.781  28.090  34.100  1.00  0.00     0.012 A 
ATOM     89  C   UNL A   1      44.324  26.342  34.959  1.00  0.00     0.148 A 
ATOM     90  C   UNL A   1      46.856  27.543  34.799  1.00  0.00     0.002 A 
ATOM     91  C   UNL A   1      45.387  25.834  35.694  1.00  0.00     0.091 A 
ATOM     92  F   UNL A   1      43.110  25.773  34.989  1.00  0.00    -0.205 F 
ATOM     93  C   UNL A   1      46.658  26.424  35.605  1.00  0.00     0.022 A 
BRANCH  91  94
ATOM     94  S   UNL A   1      45.201  24.459  36.836  1.00  0.00     0.127 S 
ATOM     95  O   UNL A   1      44.082  24.906  37.663  1.00  0.00    -0.237 OA
ATOM     96  O   UNL A   1      44.890  23.349  35.935  1.00  0.00    -0.237 OA
ATOM     97  O   UNL A   1      46.477  24.335  37.529  1.00  0.00    -0.744 OA
ENDBRANCH  91  94
ENDBRANCH  64  87
ENDBRANCH  38  39
ENDBRANCH  31  33
ENDBRANCH  30  31
ENDBRANCH  29  30
ENDBRANCH  28  29
ENDBRANCH  27  28
ENDBRANCH   1  27
TORSDOF 25
ENDMDL
MODEL 2
REMARK VINA RESULT:      -9.7      0.964      7.778
REMARK SMILES CCc1cc([C@H]([NH3+])C(=O)OCCOCCOCCOC(=O)c2ccc(-c3c4nc(c(-c5cccc(S(=O)(=O)[O-])c5F)c5ccc([nH]5)c(-c5cccc(S(=O)(=O)[O-])c5F)c5nc(c(-c6cccc(S(=O)(=O)[O-])c6F)c6ccc3[nH]6)C=C5)C=C4)cc2)cc(CC)c1N
REMARK SMILES IDX 15 1 14 2 13 3 12 4 11 5 10 6 8 7 9 8 6 9 5 10 3 11 4 12
REMARK SMILES IDX 89 13 86 14 85 15 2 16 1 17 90 18 87 21 88 22 7 23 16 27
REMARK SMILES IDX 17 28 18 29 19 30 20 31 21 32 22 33 23 34 84 35 24 36 83 37
REMARK SMILES IDX 25 38 26 39 27 40 77 41 28 42 82 43 76 44 78 45 29 46 81 47
REMARK SMILES IDX 75 48 74 49 30 51 62 52 42 53 61 54 43 55 46 56 60 57 79 58
REMARK SMILES IDX 44 59 45 60 59 62 80 63 47 64 31 65 32 66 40 67 33 68 35 69
REMARK SMILES IDX 41 70 34 71 36 72 37 73 38 74 39 75 63 76 64 77 72 78 65 79
REMARK SMILES IDX 67 80 73 81 66 82 68 83 69 84 70 85 71 86 48 87 49 88 57 89
REMARK SMILES IDX 50 90 52 91 58 92 51 93 53 94 54 95 55 96 56 97
REMARK H PARENT 90 19 90 20 7 24 7 25 7 26 78 50 46 61
REMARK Flexibility Score: inf
ROOT
ATOM      1  C   UNL A   1      29.789  29.761  23.477  1.00  0.00     0.188 C 
ENDROOT
BRANCH   1   2
ATOM      2  C   UNL A   1      30.367  29.311  22.124  1.00  0.00     0.188 C 
BRANCH   2   3
ATOM      3  O   UNL A   1      30.408  27.928  21.798  1.00  0.00    -0.376 OA
BRANCH   3   4
ATOM      4  C   UNL A   1      31.284  27.057  22.495  1.00  0.00     0.202 C 
BRANCH   4   5
ATOM      5  C   UNL A   1      30.747  25.758  23.121  1.00  0.00     0.261 C 
BRANCH   5   6
ATOM      6  O   UNL A   1      31.610  25.071  24.049  1.00  0.00    -0.459 OA
BRANCH   6   7
ATOM      7  C   UNL A   1      31.461  23.718  24.096  1.00  0.00     0.369 C 
ATOM      8  O   UNL A   1      30.953  23.063  23.187  1.00  0.00    -0.245 OA
BRANCH   7   9
ATOM      9  C   UNL A   1      31.897  23.043  25.427  1.00  0.00     0.323 C 
BRANCH   9  10
ATOM     10  C   UNL A   1      33.078  22.155  25.136  1.00  0.00     0.021 A 
ATOM     11  C   UNL A   1      33.896  19.877  24.918  1.00  0.00    -0.024 A 
ATOM     12  C   UNL A   1      32.843  20.793  24.976  1.00  0.00     0.016 A 
ATOM     13  C   UNL A   1      35.230  20.350  24.947  1.00  0.00     0.038 A 
ATOM     14  C   UNL A   1      35.471  21.743  24.942  1.00  0.00    -0.024 A 
ATOM     15  C   UNL A   1      34.391  22.618  25.128  1.00  0.00     0.016 A 
BRANCH  11  16
ATOM     16  C   UNL A   1      33.492  18.418  24.935  1.00  0.00     0.034 C 
ATOM     17  C   UNL A   1      32.631  17.982  23.764  1.00  0.00     0.009 C 
ENDBRANCH  11  16
BRANCH  13  18
ATOM     18  N   UNL A   1      36.285  19.442  24.888  1.00  0.00    -0.398 N 
ATOM     19  H   UNL A   1      37.213  19.761  24.965  1.00  0.00     0.156 HD
ATOM     20  H   UNL A   1      36.103  18.482  24.768  1.00  0.00     0.156 HD
ENDBRANCH  13  18
BRANCH  14  21
ATOM     21  C   UNL A   1      36.837  22.384  24.810  1.00  0.00     0.034 C 
ATOM     22  C   UNL A   1      37.104  23.419  25.904  1.00  0.00     0.009 C 
ENDBRANCH  14  21
ENDBRANCH   9  10
BRANCH   9  23
ATOM     23  N   UNL A   1      30.856  22.339  26.211  1.00  0.00    -0.342 N 
ATOM     24  H   UNL A   1      30.984  22.540  27.203  1.00  0.00     0.345 HD
ATOM     25  H   UNL A   1      30.932  21.334  26.055  1.00  0.00     0.345 HD
ATOM     26  H   UNL A   1      29.933  22.660  25.917  1.00  0.00     0.345 HD
ENDBRANCH   9  23
ENDBRANCH   7   9
ENDBRANCH   6   7
ENDBRANCH   5   6
ENDBRANCH   4   5
ENDBRANCH   3   4
ENDBRANCH   2   3
ENDBRANCH   1   2
BRANCH   1  27
ATOM     27  O   UNL A   1      30.688  29.704  24.553  1.00  0.00    -0.376 OA
BRANCH  27  28
ATOM     28  C   UNL A   1      30.890  30.843  25.352  1.00  0.00     0.202 C 
BRANCH  28  29
ATOM     29  C   UNL A   1      31.681  30.812  26.672  1.00  0.00     0.261 C 
BRANCH  29  30
ATOM     30  O   UNL A   1      33.105  30.978  26.622  1.00  0.00    -0.460 OA
BRANCH  30  31
ATOM     31  C   UNL A   1      33.641  31.973  27.364  1.00  0.00     0.338 C 
ATOM     32  O   UNL A   1      33.083  33.004  27.716  1.00  0.00    -0.246 OA
BRANCH  31  33
ATOM     33  C   UNL A   1      34.952  31.518  27.881  1.00  0.00     0.060 A 
ATOM     34  C   UNL A   1      35.142  30.157  28.170  1.00  0.00     0.016 A 
ATOM     35  C   UNL A   1      35.987  32.430  28.087  1.00  0.00     0.016 A 
ATOM     36  C   UNL A   1      36.358  29.712  28.698  1.00  0.00     0.010 A 
ATOM     37  C   UNL A   1      37.193  31.988  28.638  1.00  0.00     0.010 A 
ATOM     38  C   UNL A   1      37.374  30.633  28.979  1.00  0.00    -0.014 A 
BRANCH  38  39
ATOM     39  C   UNL A   1      38.538  30.241  29.815  1.00  0.00     0.031 A 
ATOM     40  C   UNL A   1      39.546  29.290  29.227  1.00  0.00     0.074 A 
ATOM     41  C   UNL A   1      38.686  30.679  31.079  1.00  0.00     0.049 A 
ATOM     42  N   UNL A   1      40.573  28.712  29.791  1.00  0.00    -0.248 NA
ATOM     43  C   UNL A   1      39.362  28.939  27.808  1.00  0.00     0.031 C 
ATOM     44  C   UNL A   1      37.796  31.613  31.763  1.00  0.00     0.029 A 
ATOM     45  N   UNL A   1      39.629  30.356  32.026  1.00  0.00    -0.354 N 
ATOM     46  C   UNL A   1      41.130  27.896  28.815  1.00  0.00     0.074 A 
ATOM     47  C   UNL A   1      40.327  28.052  27.622  1.00  0.00     0.031 C 
ATOM     48  C   UNL A   1      38.211  31.758  33.034  1.00  0.00     0.029 A 
ATOM     49  C   UNL A   1      39.373  30.900  33.263  1.00  0.00     0.049 A 
ATOM     50  H   UNL A   1      40.412  29.790  31.836  1.00  0.00     0.167 HD
ATOM     51  C   UNL A   1      42.217  27.090  28.898  1.00  0.00     0.034 A 
ATOM     52  C   UNL A   1      39.983  30.699  34.449  1.00  0.00     0.034 A 
ATOM     53  C   UNL A   1      43.023  26.943  30.079  1.00  0.00     0.049 A 
ATOM     54  C   UNL A   1      41.169  29.768  34.527  1.00  0.00     0.074 A 
ATOM     55  C   UNL A   1      44.169  26.188  30.247  1.00  0.00     0.029 A 
ATOM     56  N   UNL A   1      42.758  27.546  31.299  1.00  0.00    -0.354 N 
ATOM     57  N   UNL A   1      41.748  29.083  33.571  1.00  0.00    -0.248 NA
ATOM     58  C   UNL A   1      41.806  29.608  35.845  1.00  0.00     0.031 C 
ATOM     59  C   UNL A   1      44.575  26.301  31.579  1.00  0.00     0.029 A 
ATOM     60  C   UNL A   1      43.711  27.168  32.228  1.00  0.00     0.049 A 
ATOM     61  H   UNL A   1      42.004  28.153  31.477  1.00  0.00     0.167 HD
ATOM     62  C   UNL A   1      42.839  28.447  34.160  1.00  0.00     0.074 A 
ATOM     63  C   UNL A   1      42.848  28.841  35.553  1.00  0.00     0.031 C 
ATOM     64  C   UNL A   1      43.746  27.608  33.599  1.00  0.00     0.034 A 
BRANCH  51  65
ATOM     65  C   UNL A   1      42.600  26.306  27.671  1.00  0.00     0.023 A 
ATOM     66  C   UNL A   1      43.423  26.893  26.688  1.00  0.00     0.012 A 
ATOM     67  C   UNL A   1      42.185  24.969  27.517  1.00  0.00     0.148 A 
ATOM     68  C   UNL A   1      43.798  26.173  25.555  1.00  0.00     0.002 A 
ATOM     69  C   UNL A   1      42.604  24.242  26.409  1.00  0.00     0.091 A 
ATOM     70  F   UNL A   1      41.385  24.435  28.451  1.00  0.00    -0.205 F 
ATOM     71  C   UNL A   1      43.398  24.846  25.421  1.00  0.00     0.022 A 
BRANCH  69  72
ATOM     72  S   UNL A   1      42.211  22.504  26.186  1.00  0.00     0.127 S 
ATOM     73  O   UNL A   1      42.812  21.910  27.379  1.00  0.00    -0.237 OA
ATOM     74  O   UNL A   1      40.748  22.519  26.183  1.00  0.00    -0.237 OA
ATOM     75  O   UNL A   1      42.819  22.111  24.922  1.00  0.00    -0.744 OA
ENDBRANCH  69  72
ENDBRANCH  51  65
BRANCH  52  76
ATOM     76  C   UNL A   1      39.497  31.401  35.672  1.00  0.00     0.023 A 
ATOM     77  C   UNL A   1      38.371  30.906  36.358  1.00  0.00     0.012 A 
ATOM     78  C   UNL A   1      40.139  32.560  36.154  1.00  0.00     0.148 A 
ATOM     79  C   UNL A   1      37.872  31.569  37.481  1.00  0.00     0.002 A 
ATOM     80  C   UNL A   1      39.671  33.183  37.304  1.00  0.00     0.091 A 
ATOM     81  F   UNL A   1      41.197  33.026  35.477  1.00  0.00    -0.205 F 
ATOM     82  C   UNL A   1      38.526  32.700  37.959  1.00  0.00     0.022 A 
BRANCH  80  83
ATOM     83  S   UNL A   1      40.514  34.575  38.063  1.00  0.00     0.127 S 
ATOM     84  O   UNL A   1      40.366  35.607  37.040  1.00  0.00    -0.237 OA
ATOM     85  O   UNL A   1      39.717  34.785  39.272  1.00  0.00    -0.237 OA
ATOM     86  O   UNL A   1      41.877  34.124  38.309  1.00  0.00    -0.744 OA
ENDBRANCH  80  83
ENDBRANCH  52  76
BRANCH  64  87
ATOM     87  C   UNL A   1      44.872  27.100  34.465  1.00  0.00     0.023 A 
ATOM     88  C   UNL A   1      46.051  27.857  34.615  1.00  0.00     0.012 A 
ATOM     89  C   UNL A   1      44.720  25.906  35.200  1.00  0.00     0.148 A 
ATOM     90  C   UNL A   1      47.075  27.414  35.452  1.00  0.00     0.002 A 
ATOM     91  C   UNL A   1      45.721  25.500  36.072  1.00  0.00     0.091 A 
ATOM     92  F   UNL A   1      43.597  25.193  35.033  1.00  0.00    -0.205 F 
ATOM     93  C   UNL A   1      46.906  26.245  36.190  1.00  0.00     0.022 A 
BRANCH  91  94
ATOM     94  S   UNL A   1      45.549  24.063  37.138  1.00  0.00     0.127 S 
ATOM     95  O   UNL A   1      46.937  23.800  37.511  1.00  0.00    -0.237 OA
ATOM     96  O   UNL A   1      44.713  24.580  38.222  1.00  0.00    -0.237 OA
ATOM     97  O   UNL A   1      44.916  23.032  36.326  1.00  0.00    -0.744 OA
ENDBRANCH  91  94
ENDBRANCH  64  87
ENDBRANCH  38  39
ENDBRANCH  31  33
ENDBRANCH  30  31
ENDBRANCH  29  30
ENDBRANCH  28  29
ENDBRANCH  27  28
ENDBRANCH   1  27
TORSDOF 25
ENDMDL
MODEL 3
REMARK VINA RESULT:      -9.6      1.599      2.727
REMARK SMILES CCc1cc([C@H]([NH3+])C(=O)OCCOCCOCCOC(=O)c2ccc(-c3c4nc(c(-c5cccc(S(=O)(=O)[O-])c5F)c5ccc([nH]5)c(-c5cccc(S(=O)(=O)[O-])c5F)c5nc(c(-c6cccc(S(=O)(=O)[O-])c6F)c6ccc3[nH]6)C=C5)C=C4)cc2)cc(CC)c1N
REMARK SMILES IDX 15 1 14 2 13 3 12 4 11 5 10 6 8 7 9 8 6 9 5 10 3 11 4 12
REMARK SMILES IDX 89 13 86 14 85 15 2 16 1 17 90 18 87 21 88 22 7 23 16 27
REMARK SMILES IDX 17 28 18 29 19 30 20 31 21 32 22 33 23 34 84 35 24 36 83 37
REMARK SMILES IDX 25 38 26 39 27 40 77 41 28 42 82 43 76 44 78 45 29 46 81 47
REMARK SMILES IDX 75 48 74 49 30 51 62 52 42 53 61 54 43 55 46 56 60 57 79 58
REMARK SMILES IDX 44 59 45 60 59 62 80 63 47 64 31 65 32 66 40 67 33 68 35 69
REMARK SMILES IDX 41 70 34 71 36 72 37 73 38 74 39 75 63 76 64 77 72 78 65 79
REMARK SMILES IDX 67 80 73 81 66 82 68 83 69 84 70 85 71 86 48 87 49 88 57 89
REMARK SMILES IDX 50 90 52 91 58 92 51 93 53 94 54 95 55 96 56 97
REMARK H PARENT 90 19 90 20 7 24 7 25 7 26 78 50 46 61
REMARK Flexibility Score: inf
ROOT
ATOM      1  C   UNL A   1      33.121  29.380  25.938  1.00  0.00     0.188 C 
ENDROOT
BRANCH   1   2
ATOM      2  C   UNL A   1      33.658  28.503  24.793  1.00  0.00     0.188 C 
BRANCH   2   3
ATOM      3  O   UNL A   1      33.435  27.099  24.816  1.00  0.00    -0.376 OA
BRANCH   3   4
ATOM      4  C   UNL A   1      34.164  26.277  25.713  1.00  0.00     0.202 C 
BRANCH   4   5
ATOM      5  C   UNL A   1      34.720  24.921  25.242  1.00  0.00     0.261 C 
BRANCH   5   6
ATOM      6  O   UNL A   1      35.002  24.780  23.835  1.00  0.00    -0.459 OA
BRANCH   6   7
ATOM      7  C   UNL A   1      34.451  23.689  23.234  1.00  0.00     0.369 C 
ATOM      8  O   UNL A   1      34.967  22.572  23.260  1.00  0.00    -0.245 OA
BRANCH   7   9
ATOM      9  C   UNL A   1      33.152  23.956  22.424  1.00  0.00     0.323 C 
BRANCH   9  10
ATOM     10  C   UNL A   1      32.025  24.163  23.400  1.00  0.00     0.021 A 
ATOM     11  C   UNL A   1      30.180  25.584  24.096  1.00  0.00    -0.024 A 
ATOM     12  C   UNL A   1      31.121  25.188  23.142  1.00  0.00     0.016 A 
ATOM     13  C   UNL A   1      30.094  24.878  25.320  1.00  0.00     0.038 A 
ATOM     14  C   UNL A   1      30.899  23.732  25.517  1.00  0.00    -0.024 A 
ATOM     15  C   UNL A   1      31.912  23.449  24.590  1.00  0.00     0.016 A 
BRANCH  11  16
ATOM     16  C   UNL A   1      29.392  26.831  23.756  1.00  0.00     0.034 C 
ATOM     17  C   UNL A   1      30.202  28.114  23.746  1.00  0.00     0.009 C 
ENDBRANCH  11  16
BRANCH  13  18
ATOM     18  N   UNL A   1      29.157  25.266  26.275  1.00  0.00    -0.398 N 
ATOM     19  H   UNL A   1      28.195  25.172  26.088  1.00  0.00     0.156 HD
ATOM     20  H   UNL A   1      29.457  25.634  27.138  1.00  0.00     0.156 HD
ENDBRANCH  13  18
BRANCH  14  21
ATOM     21  C   UNL A   1      30.794  22.795  26.702  1.00  0.00     0.034 C 
ATOM     22  C   UNL A   1      32.042  22.834  27.587  1.00  0.00     0.009 C 
ENDBRANCH  14  21
ENDBRANCH   9  10
BRANCH   9  23
ATOM     23  N   UNL A   1      32.794  22.985  21.364  1.00  0.00    -0.342 N 
ATOM     24  H   UNL A   1      33.616  22.436  21.114  1.00  0.00     0.345 HD
ATOM     25  H   UNL A   1      32.457  23.486  20.542  1.00  0.00     0.345 HD
ATOM     26  H   UNL A   1      32.062  22.362  21.706  1.00  0.00     0.345 HD
ENDBRANCH   9  23
ENDBRANCH   7   9
ENDBRANCH   6   7
ENDBRANCH   5   6
ENDBRANCH   4   5
ENDBRANCH   3   4
ENDBRANCH   2   3
ENDBRANCH   1   2
BRANCH   1  27
ATOM     27  O   UNL A   1      32.292  30.438  25.533  1.00  0.00    -0.376 OA
BRANCH  27  28
ATOM     28  C   UNL A   1      31.466  31.074  26.476  1.00  0.00     0.202 C 
BRANCH  28  29
ATOM     29  C   UNL A   1      31.602  32.563  26.842  1.00  0.00     0.261 C 
BRANCH  29  30
ATOM     30  O   UNL A   1      32.897  33.174  26.757  1.00  0.00    -0.460 OA
BRANCH  30  31
ATOM     31  C   UNL A   1      33.417  33.689  27.894  1.00  0.00     0.338 C 
ATOM     32  O   UNL A   1      32.916  34.556  28.599  1.00  0.00    -0.246 OA
BRANCH  31  33
ATOM     33  C   UNL A   1      34.592  32.876  28.283  1.00  0.00     0.060 A 
ATOM     34  C   UNL A   1      34.419  31.515  28.582  1.00  0.00     0.016 A 
ATOM     35  C   UNL A   1      35.859  33.456  28.359  1.00  0.00     0.016 A 
ATOM     36  C   UNL A   1      35.507  30.739  28.991  1.00  0.00     0.010 A 
ATOM     37  C   UNL A   1      36.942  32.684  28.792  1.00  0.00     0.010 A 
ATOM     38  C   UNL A   1      36.767  31.332  29.144  1.00  0.00    -0.014 A 
BRANCH  38  39
ATOM     39  C   UNL A   1      37.854  30.619  29.864  1.00  0.00     0.031 A 
ATOM     40  C   UNL A   1      38.121  30.997  31.297  1.00  0.00     0.074 A 
ATOM     41  C   UNL A   1      38.617  29.690  29.261  1.00  0.00     0.049 A 
ATOM     42  N   UNL A   1      39.081  30.610  32.094  1.00  0.00    -0.248 NA
ATOM     43  C   UNL A   1      37.179  31.951  31.908  1.00  0.00     0.031 C 
ATOM     44  C   UNL A   1      38.454  29.219  27.888  1.00  0.00     0.029 A 
ATOM     45  N   UNL A   1      39.713  29.003  29.727  1.00  0.00    -0.354 N 
ATOM     46  C   UNL A   1      38.886  31.302  33.283  1.00  0.00     0.074 A 
ATOM     47  C   UNL A   1      37.719  32.136  33.103  1.00  0.00     0.031 C 
ATOM     48  C   UNL A   1      39.441  28.350  27.607  1.00  0.00     0.029 A 
ATOM     49  C   UNL A   1      40.324  28.230  28.767  1.00  0.00     0.049 A 
ATOM     50  H   UNL A   1      40.029  29.059  30.658  1.00  0.00     0.167 HD
ATOM     51  C   UNL A   1      39.611  31.248  34.427  1.00  0.00     0.034 A 
ATOM     52  C   UNL A   1      41.481  27.538  28.809  1.00  0.00     0.034 A 
ATOM     53  C   UNL A   1      40.765  30.412  34.612  1.00  0.00     0.049 A 
ATOM     54  C   UNL A   1      42.292  27.522  30.082  1.00  0.00     0.074 A 
ATOM     55  C   UNL A   1      41.537  30.253  35.748  1.00  0.00     0.029 A 
ATOM     56  N   UNL A   1      41.327  29.609  33.631  1.00  0.00    -0.354 N 
ATOM     57  N   UNL A   1      42.041  28.100  31.232  1.00  0.00    -0.248 NA
ATOM     58  C   UNL A   1      43.534  26.730  30.072  1.00  0.00     0.031 C 
ATOM     59  C   UNL A   1      42.589  29.386  35.444  1.00  0.00     0.029 A 
ATOM     60  C   UNL A   1      42.443  28.964  34.132  1.00  0.00     0.049 A 
ATOM     61  H   UNL A   1      40.981  29.512  32.714  1.00  0.00     0.167 HD
ATOM     62  C   UNL A   1      43.064  27.708  32.092  1.00  0.00     0.074 A 
ATOM     63  C   UNL A   1      43.932  26.831  31.333  1.00  0.00     0.031 C 
ATOM     64  C   UNL A   1      43.271  28.049  33.388  1.00  0.00     0.034 A 
BRANCH  51  65
ATOM     65  C   UNL A   1      39.172  32.120  35.574  1.00  0.00     0.023 A 
ATOM     66  C   UNL A   1      38.244  31.629  36.516  1.00  0.00     0.012 A 
ATOM     67  C   UNL A   1      39.716  33.407  35.745  1.00  0.00     0.148 A 
ATOM     68  C   UNL A   1      37.840  32.420  37.591  1.00  0.00     0.002 A 
ATOM     69  C   UNL A   1      39.346  34.170  36.846  1.00  0.00     0.091 A 
ATOM     70  F   UNL A   1      40.579  33.864  34.827  1.00  0.00    -0.205 F 
ATOM     71  C   UNL A   1      38.398  33.684  37.762  1.00  0.00     0.022 A 
BRANCH  69  72
ATOM     72  S   UNL A   1      40.069  35.775  37.200  1.00  0.00     0.127 S 
ATOM     73  O   UNL A   1      39.634  36.556  36.043  1.00  0.00    -0.237 OA
ATOM     74  O   UNL A   1      39.414  36.133  38.459  1.00  0.00    -0.237 OA
ATOM     75  O   UNL A   1      41.505  35.558  37.301  1.00  0.00    -0.744 OA
ENDBRANCH  69  72
ENDBRANCH  51  65
BRANCH  52  76
ATOM     76  C   UNL A   1      41.950  26.784  27.609  1.00  0.00     0.023 A 
ATOM     77  C   UNL A   1      42.589  27.473  26.561  1.00  0.00     0.012 A 
ATOM     78  C   UNL A   1      41.758  25.392  27.500  1.00  0.00     0.148 A 
ATOM     79  C   UNL A   1      42.998  26.797  25.410  1.00  0.00     0.002 A 
ATOM     80  C   UNL A   1      42.219  24.716  26.377  1.00  0.00     0.091 A 
ATOM     81  F   UNL A   1      41.132  24.758  28.502  1.00  0.00    -0.205 F 
ATOM     82  C   UNL A   1      42.822  25.419  25.322  1.00  0.00     0.022 A 
BRANCH  80  83
ATOM     83  S   UNL A   1      42.143  22.928  26.225  1.00  0.00     0.127 S 
ATOM     84  O   UNL A   1      42.920  22.497  27.384  1.00  0.00    -0.237 OA
ATOM     85  O   UNL A   1      40.705  22.680  26.318  1.00  0.00    -0.237 OA
ATOM     86  O   UNL A   1      42.727  22.618  24.927  1.00  0.00    -0.744 OA
ENDBRANCH  80  83
ENDBRANCH  52  76
BRANCH  64  87
ATOM     87  C   UNL A   1      44.443  27.428  34.107  1.00  0.00     0.023 A 
ATOM     88  C   UNL A   1      45.680  28.101  34.164  1.00  0.00     0.012 A 
ATOM     89  C   UNL A   1      44.288  26.211  34.800  1.00  0.00     0.148 A 
ATOM     90  C   UNL A   1      46.752  27.554  34.868  1.00  0.00     0.002 A 
ATOM     91  C   UNL A   1      45.343  25.699  35.544  1.00  0.00     0.091 A 
ATOM     92  F   UNL A   1      43.108  25.578  34.723  1.00  0.00    -0.205 F 
ATOM     93  C   UNL A   1      46.581  26.362  35.568  1.00  0.00     0.022 A 
BRANCH  91  94
ATOM     94  S   UNL A   1      45.185  24.224  36.557  1.00  0.00     0.127 S 
ATOM     95  O   UNL A   1      44.156  23.476  35.838  1.00  0.00    -0.237 OA
ATOM     96  O   UNL A   1      46.528  23.647  36.475  1.00  0.00    -0.237 OA
ATOM     97  O   UNL A   1      44.806  24.685  37.886  1.00  0.00    -0.744 OA
ENDBRANCH  91  94
ENDBRANCH  64  87
ENDBRANCH  38  39
ENDBRANCH  31  33
ENDBRANCH  30  31
ENDBRANCH  29  30
ENDBRANCH  28  29
ENDBRANCH  27  28
ENDBRANCH   1  27
TORSDOF 25
ENDMDL
