MODEL 1
REMARK VINA RESULT:      -7.8      0.000      0.000
REMARK SMILES Cc1c(C(=O)OCCOCCOCCOC(=O)c2ccc(-c3c4nc(c(-c5cccc(S(=O)(=O)[O-])c5F)c5ccc([nH]5)c(-c5cccc(S(=O)(=O)[O-])c5F)c5nc(c(-c6cccc(S(=O)(=O)[O-])c6F)c6ccc3[nH]6)C=C5)C=C4)cc2)ccc2c1N[C@@H](c1ccc(S(=O)(=O)N3CCOCC3)cc1)[C@@H]1CC=C[C@H]21
REMARK SMILES IDX 10 1 9 2 8 3 7 4 6 5 4 6 5 7 3 8 1 9 2 10 84 11 81 12 83 13
REMARK SMILES IDX 85 14 82 15 106 16 86 17 102 19 105 20 103 21 104 22 87 23
REMARK SMILES IDX 88 24 101 25 89 26 100 27 90 28 91 29 92 30 93 31 94 32
REMARK SMILES IDX 95 33 99 34 96 35 98 36 97 37 11 38 12 39 13 40 14 41 15 42
REMARK SMILES IDX 16 43 17 44 18 45 19 46 80 47 20 48 79 49 21 50 22 51 23 52
REMARK SMILES IDX 73 53 24 54 78 55 72 56 74 57 25 58 77 59 71 60 70 61 26 63
REMARK SMILES IDX 58 64 38 65 57 66 39 67 42 68 56 69 75 70 40 71 41 72 55 74
REMARK SMILES IDX 76 75 43 76 27 77 28 78 36 79 29 80 31 81 37 82 30 83 32 84
REMARK SMILES IDX 33 85 34 86 35 87 59 88 60 89 68 90 61 91 63 92 69 93 62 94
REMARK SMILES IDX 64 95 65 96 66 97 67 98 44 99 45 100 53 101 46 102 48 103
REMARK SMILES IDX 54 104 47 105 49 106 50 107 51 108 52 109
REMARK H PARENT 85 18 74 62 42 73
REMARK Flexibility Score: inf
ROOT
ATOM      1  C   UNL A   1      48.925  25.127  33.043  1.00  0.00     0.188 C 
ENDROOT
BRANCH   1   2
ATOM      2  O   UNL A   1      48.160  25.947  33.913  1.00  0.00    -0.376 OA
BRANCH   2   3
ATOM      3  C   UNL A   1      46.825  25.580  34.239  1.00  0.00     0.202 C 
BRANCH   3   4
ATOM      4  C   UNL A   1      45.832  26.686  34.586  1.00  0.00     0.261 C 
BRANCH   4   5
ATOM      5  O   UNL A   1      44.996  26.992  33.465  1.00  0.00    -0.460 OA
BRANCH   5   6
ATOM      6  C   UNL A   1      45.516  27.882  32.592  1.00  0.00     0.338 C 
ATOM      7  O   UNL A   1      46.481  28.608  32.774  1.00  0.00    -0.246 OA
BRANCH   6   8
ATOM      8  C   UNL A   1      44.845  27.750  31.282  1.00  0.00     0.065 A 
ATOM      9  C   UNL A   1      45.885  25.474  30.791  1.00  0.00     0.047 C 
ATOM     10  C   UNL A   1      44.962  26.618  30.452  1.00  0.00    -0.013 A 
ATOM     11  C   UNL A   1      44.187  26.562  29.267  1.00  0.00     0.042 A 
ATOM     12  C   UNL A   1      44.023  28.826  30.920  1.00  0.00     0.016 A 
ATOM     13  C   UNL A   1      43.289  27.603  28.974  1.00  0.00    -0.017 A 
ATOM     14  N   UNL A   1      44.209  25.418  28.488  1.00  0.00    -0.377 N 
ATOM     15  C   UNL A   1      43.258  28.757  29.766  1.00  0.00     0.007 A 
ATOM     16  C   UNL A   1      42.263  27.457  27.887  1.00  0.00     0.049 C 
ATOM     17  C   UNL A   1      43.369  25.249  27.314  1.00  0.00     0.114 C 
ATOM     18  H   UNL A   1      44.819  24.689  28.739  1.00  0.00     0.161 HD
ATOM     19  C   UNL A   1      42.023  26.005  27.441  1.00  0.00     0.031 C 
ATOM     20  C   UNL A   1      42.538  28.143  26.577  1.00  0.00    -0.023 C 
ATOM     21  C   UNL A   1      41.308  26.220  26.089  1.00  0.00     0.034 C 
ATOM     22  C   UNL A   1      41.975  27.458  25.571  1.00  0.00    -0.030 C 
BRANCH  17  23
ATOM     23  C   UNL A   1      43.163  23.752  27.093  1.00  0.00    -0.025 A 
ATOM     24  C   UNL A   1      42.681  22.877  28.088  1.00  0.00     0.007 A 
ATOM     25  C   UNL A   1      43.455  23.225  25.837  1.00  0.00     0.007 A 
ATOM     26  C   UNL A   1      42.494  21.512  27.824  1.00  0.00     0.022 A 
ATOM     27  C   UNL A   1      43.221  21.887  25.564  1.00  0.00     0.022 A 
ATOM     28  C   UNL A   1      42.756  21.022  26.545  1.00  0.00     0.082 A 
BRANCH  28  29
ATOM     29  S   UNL A   1      42.491  19.301  26.188  1.00  0.00     0.243 S 
ATOM     30  O   UNL A   1      42.464  18.617  27.463  1.00  0.00    -0.207 OA
ATOM     31  O   UNL A   1      41.376  19.238  25.268  1.00  0.00    -0.207 OA
BRANCH  29  32
ATOM     32  N   UNL A   1      43.865  18.798  25.360  1.00  0.00    -0.193 NA
ATOM     33  C   UNL A   1      45.143  18.513  26.048  1.00  0.00     0.131 C 
ATOM     34  C   UNL A   1      43.908  18.738  23.887  1.00  0.00     0.131 C 
ATOM     35  C   UNL A   1      46.337  19.204  25.365  1.00  0.00     0.177 C 
ATOM     36  C   UNL A   1      45.116  19.506  23.350  1.00  0.00     0.177 C 
ATOM     37  O   UNL A   1      46.337  19.041  23.942  1.00  0.00    -0.379 OA
ENDBRANCH  29  32
ENDBRANCH  28  29
ENDBRANCH  17  23
ENDBRANCH   6   8
ENDBRANCH   5   6
ENDBRANCH   4   5
ENDBRANCH   3   4
ENDBRANCH   2   3
ENDBRANCH   1   2
BRANCH   1  38
ATOM     38  C   UNL A   1      49.601  25.729  31.791  1.00  0.00     0.188 C 
BRANCH  38  39
ATOM     39  O   UNL A   1      50.163  24.888  30.797  1.00  0.00    -0.376 OA
BRANCH  39  40
ATOM     40  C   UNL A   1      50.417  25.436  29.510  1.00  0.00     0.202 C 
BRANCH  40  41
ATOM     41  C   UNL A   1      49.426  25.153  28.381  1.00  0.00     0.261 C 
BRANCH  41  42
ATOM     42  O   UNL A   1      48.973  26.354  27.735  1.00  0.00    -0.460 OA
BRANCH  42  43
ATOM     43  C   UNL A   1      47.638  26.418  27.512  1.00  0.00     0.338 C 
ATOM     44  O   UNL A   1      46.874  25.489  27.317  1.00  0.00    -0.246 OA
BRANCH  43  45
ATOM     45  C   UNL A   1      47.177  27.800  27.722  1.00  0.00     0.060 A 
ATOM     46  C   UNL A   1      46.407  28.400  26.716  1.00  0.00     0.016 A 
ATOM     47  C   UNL A   1      47.561  28.519  28.853  1.00  0.00     0.016 A 
ATOM     48  C   UNL A   1      46.047  29.741  26.822  1.00  0.00     0.010 A 
ATOM     49  C   UNL A   1      47.231  29.872  28.942  1.00  0.00     0.010 A 
ATOM     50  C   UNL A   1      46.507  30.495  27.910  1.00  0.00    -0.014 A 
BRANCH  50  51
ATOM     51  C   UNL A   1      46.432  31.972  27.855  1.00  0.00     0.031 A 
ATOM     52  C   UNL A   1      45.158  32.632  28.305  1.00  0.00     0.074 A 
ATOM     53  C   UNL A   1      47.460  32.709  27.402  1.00  0.00     0.049 A 
ATOM     54  N   UNL A   1      44.840  33.899  28.301  1.00  0.00    -0.248 NA
ATOM     55  C   UNL A   1      44.105  31.747  28.836  1.00  0.00     0.031 C 
ATOM     56  C   UNL A   1      48.752  32.185  26.964  1.00  0.00     0.029 A 
ATOM     57  N   UNL A   1      47.562  34.064  27.215  1.00  0.00    -0.354 N 
ATOM     58  C   UNL A   1      43.550  33.963  28.813  1.00  0.00     0.074 A 
ATOM     59  C   UNL A   1      43.143  32.611  29.123  1.00  0.00     0.031 C 
ATOM     60  C   UNL A   1      49.509  33.208  26.528  1.00  0.00     0.029 A 
ATOM     61  C   UNL A   1      48.747  34.452  26.637  1.00  0.00     0.049 A 
ATOM     62  H   UNL A   1      46.853  34.699  27.469  1.00  0.00     0.167 HD
ATOM     63  C   UNL A   1      42.775  35.051  29.014  1.00  0.00     0.034 A 
ATOM     64  C   UNL A   1      49.157  35.668  26.225  1.00  0.00     0.034 A 
ATOM     65  C   UNL A   1      43.173  36.394  28.705  1.00  0.00     0.049 A 
ATOM     66  C   UNL A   1      48.249  36.857  26.400  1.00  0.00     0.074 A 
ATOM     67  C   UNL A   1      42.459  37.564  28.894  1.00  0.00     0.029 A 
ATOM     68  N   UNL A   1      44.380  36.744  28.125  1.00  0.00    -0.354 N 
ATOM     69  N   UNL A   1      47.069  36.915  26.968  1.00  0.00    -0.248 NA
ATOM     70  C   UNL A   1      48.735  38.150  25.893  1.00  0.00     0.031 C 
ATOM     71  C   UNL A   1      43.234  38.624  28.417  1.00  0.00     0.029 A 
ATOM     72  C   UNL A   1      44.432  38.112  27.940  1.00  0.00     0.049 A 
ATOM     73  H   UNL A   1      45.096  36.113  27.882  1.00  0.00     0.167 HD
ATOM     74  C   UNL A   1      46.678  38.249  26.904  1.00  0.00     0.074 A 
ATOM     75  C   UNL A   1      47.754  38.969  26.254  1.00  0.00     0.031 C 
ATOM     76  C   UNL A   1      45.528  38.821  27.332  1.00  0.00     0.034 A 
BRANCH  63  77
ATOM     77  C   UNL A   1      41.425  34.840  29.631  1.00  0.00     0.023 A 
ATOM     78  C   UNL A   1      40.283  34.864  28.805  1.00  0.00     0.012 A 
ATOM     79  C   UNL A   1      41.290  34.550  31.002  1.00  0.00     0.148 A 
ATOM     80  C   UNL A   1      39.022  34.607  29.337  1.00  0.00     0.002 A 
ATOM     81  C   UNL A   1      40.033  34.269  31.520  1.00  0.00     0.091 A 
ATOM     82  F   UNL A   1      42.391  34.556  31.765  1.00  0.00    -0.205 F 
ATOM     83  C   UNL A   1      38.898  34.301  30.691  1.00  0.00     0.022 A 
BRANCH  81  84
ATOM     84  S   UNL A   1      39.766  33.822  33.238  1.00  0.00     0.127 S 
ATOM     85  O   UNL A   1      38.312  33.671  33.280  1.00  0.00    -0.237 OA
ATOM     86  O   UNL A   1      40.513  32.569  33.346  1.00  0.00    -0.237 OA
ATOM     87  O   UNL A   1      40.295  34.924  34.030  1.00  0.00    -0.744 OA
ENDBRANCH  81  84
ENDBRANCH  63  77
BRANCH  64  88
ATOM     88  C   UNL A   1      50.511  35.825  25.628  1.00  0.00     0.023 A 
ATOM     89  C   UNL A   1      50.642  35.882  24.229  1.00  0.00     0.012 A 
ATOM     90  C   UNL A   1      51.657  35.957  26.437  1.00  0.00     0.148 A 
ATOM     91  C   UNL A   1      51.895  36.058  23.641  1.00  0.00     0.002 A 
ATOM     92  C   UNL A   1      52.896  36.167  25.847  1.00  0.00     0.091 A 
ATOM     93  F   UNL A   1      51.503  35.890  27.767  1.00  0.00    -0.205 F 
ATOM     94  C   UNL A   1      53.019  36.209  24.449  1.00  0.00     0.022 A 
BRANCH  92  95
ATOM     95  S   UNL A   1      54.392  36.455  26.800  1.00  0.00     0.127 S 
ATOM     96  O   UNL A   1      54.318  35.391  27.799  1.00  0.00    -0.237 OA
ATOM     97  O   UNL A   1      55.430  36.276  25.785  1.00  0.00    -0.237 OA
ATOM     98  O   UNL A   1      54.276  37.809  27.322  1.00  0.00    -0.744 OA
ENDBRANCH  92  95
ENDBRANCH  64  88
BRANCH  76  99
ATOM     99  C   UNL A   1      45.345  40.300  27.128  1.00  0.00     0.023 A 
ATOM    100  C   UNL A   1      44.635  40.754  26.001  1.00  0.00     0.012 A 
ATOM    101  C   UNL A   1      45.742  41.218  28.120  1.00  0.00     0.148 A 
ATOM    102  C   UNL A   1      44.323  42.106  25.862  1.00  0.00     0.002 A 
ATOM    103  C   UNL A   1      45.398  42.558  27.991  1.00  0.00     0.091 A 
ATOM    104  F   UNL A   1      46.421  40.757  29.181  1.00  0.00    -0.205 F 
ATOM    105  C   UNL A   1      44.693  43.004  26.861  1.00  0.00     0.022 A 
BRANCH 103 106
ATOM    106  S   UNL A   1      45.756  43.776  29.263  1.00  0.00     0.127 S 
ATOM    107  O   UNL A   1      45.124  43.174  30.437  1.00  0.00    -0.237 OA
ATOM    108  O   UNL A   1      47.219  43.775  29.289  1.00  0.00    -0.237 OA
ATOM    109  O   UNL A   1      45.158  45.024  28.809  1.00  0.00    -0.744 OA
ENDBRANCH 103 106
ENDBRANCH  76  99
ENDBRANCH  50  51
ENDBRANCH  43  45
ENDBRANCH  42  43
ENDBRANCH  41  42
ENDBRANCH  40  41
ENDBRANCH  39  40
ENDBRANCH  38  39
ENDBRANCH   1  38
TORSDOF 23
ENDMDL
MODEL 2
REMARK VINA RESULT:      -7.6      1.474      2.097
REMARK SMILES Cc1c(C(=O)OCCOCCOCCOC(=O)c2ccc(-c3c4nc(c(-c5cccc(S(=O)(=O)[O-])c5F)c5ccc([nH]5)c(-c5cccc(S(=O)(=O)[O-])c5F)c5nc(c(-c6cccc(S(=O)(=O)[O-])c6F)c6ccc3[nH]6)C=C5)C=C4)cc2)ccc2c1N[C@@H](c1ccc(S(=O)(=O)N3CCOCC3)cc1)[C@@H]1CC=C[C@H]21
REMARK SMILES IDX 10 1 9 2 8 3 7 4 6 5 4 6 5 7 3 8 1 9 2 10 84 11 81 12 83 13
REMARK SMILES IDX 85 14 82 15 106 16 86 17 102 19 105 20 103 21 104 22 87 23
REMARK SMILES IDX 88 24 101 25 89 26 100 27 90 28 91 29 92 30 93 31 94 32
REMARK SMILES IDX 95 33 99 34 96 35 98 36 97 37 11 38 12 39 13 40 14 41 15 42
REMARK SMILES IDX 16 43 17 44 18 45 19 46 80 47 20 48 79 49 21 50 22 51 23 52
REMARK SMILES IDX 73 53 24 54 78 55 72 56 74 57 25 58 77 59 71 60 70 61 26 63
REMARK SMILES IDX 58 64 38 65 57 66 39 67 42 68 56 69 75 70 40 71 41 72 55 74
REMARK SMILES IDX 76 75 43 76 27 77 28 78 36 79 29 80 31 81 37 82 30 83 32 84
REMARK SMILES IDX 33 85 34 86 35 87 59 88 60 89 68 90 61 91 63 92 69 93 62 94
REMARK SMILES IDX 64 95 65 96 66 97 67 98 44 99 45 100 53 101 46 102 48 103
REMARK SMILES IDX 54 104 47 105 49 106 50 107 51 108 52 109
REMARK H PARENT 85 18 74 62 42 73
REMARK Flexibility Score: inf
ROOT
ATOM      1  C   UNL A   1      49.490  25.599  32.565  1.00  0.00     0.188 C 
ENDROOT
BRANCH   1   2
ATOM      2  O   UNL A   1      48.577  26.410  33.287  1.00  0.00    -0.376 OA
BRANCH   2   3
ATOM      3  C   UNL A   1      47.397  25.833  33.835  1.00  0.00     0.202 C 
BRANCH   3   4
ATOM      4  C   UNL A   1      46.345  26.760  34.435  1.00  0.00     0.261 C 
BRANCH   4   5
ATOM      5  O   UNL A   1      45.366  27.122  33.455  1.00  0.00    -0.460 OA
BRANCH   5   6
ATOM      6  C   UNL A   1      45.582  28.306  32.842  1.00  0.00     0.338 C 
ATOM      7  O   UNL A   1      46.337  29.193  33.209  1.00  0.00    -0.246 OA
BRANCH   6   8
ATOM      8  C   UNL A   1      44.887  28.331  31.539  1.00  0.00     0.065 A 
ATOM      9  C   UNL A   1      46.464  26.633  30.476  1.00  0.00     0.047 C 
ATOM     10  C   UNL A   1      45.248  27.524  30.442  1.00  0.00    -0.013 A 
ATOM     11  C   UNL A   1      44.440  27.558  29.279  1.00  0.00     0.042 A 
ATOM     12  C   UNL A   1      43.785  29.194  31.466  1.00  0.00     0.016 A 
ATOM     13  C   UNL A   1      43.279  28.350  29.261  1.00  0.00    -0.017 A 
ATOM     14  N   UNL A   1      44.717  26.702  28.227  1.00  0.00    -0.377 N 
ATOM     15  C   UNL A   1      42.992  29.211  30.329  1.00  0.00     0.007 A 
ATOM     16  C   UNL A   1      42.261  28.208  28.167  1.00  0.00     0.049 C 
ATOM     17  C   UNL A   1      43.879  26.611  27.044  1.00  0.00     0.114 C 
ATOM     18  H   UNL A   1      45.516  26.131  28.283  1.00  0.00     0.161 HD
ATOM     19  C   UNL A   1      42.390  26.908  27.354  1.00  0.00     0.031 C 
ATOM     20  C   UNL A   1      42.254  29.252  27.085  1.00  0.00    -0.023 C 
ATOM     21  C   UNL A   1      41.557  27.253  26.101  1.00  0.00     0.034 C 
ATOM     22  C   UNL A   1      41.832  28.716  25.930  1.00  0.00    -0.030 C 
BRANCH  17  23
ATOM     23  C   UNL A   1      44.067  25.223  26.437  1.00  0.00    -0.025 A 
ATOM     24  C   UNL A   1      44.010  24.964  25.052  1.00  0.00     0.007 A 
ATOM     25  C   UNL A   1      44.323  24.156  27.296  1.00  0.00     0.007 A 
ATOM     26  C   UNL A   1      44.209  23.671  24.547  1.00  0.00     0.022 A 
ATOM     27  C   UNL A   1      44.569  22.889  26.791  1.00  0.00     0.022 A 
ATOM     28  C   UNL A   1      44.503  22.632  25.428  1.00  0.00     0.082 A 
BRANCH  28  29
ATOM     29  S   UNL A   1      44.790  20.994  24.799  1.00  0.00     0.243 S 
ATOM     30  O   UNL A   1      44.623  21.071  23.364  1.00  0.00    -0.207 OA
ATOM     31  O   UNL A   1      46.025  20.534  25.396  1.00  0.00    -0.207 OA
BRANCH  29  32
ATOM     32  N   UNL A   1      43.543  20.052  25.417  1.00  0.00    -0.193 NA
ATOM     33  C   UNL A   1      42.304  20.641  25.967  1.00  0.00     0.131 C 
ATOM     34  C   UNL A   1      43.671  18.589  25.561  1.00  0.00     0.131 C 
ATOM     35  C   UNL A   1      41.939  20.051  27.342  1.00  0.00     0.177 C 
ATOM     36  C   UNL A   1      43.326  18.155  26.987  1.00  0.00     0.177 C 
ATOM     37  O   UNL A   1      42.027  18.622  27.375  1.00  0.00    -0.379 OA
ENDBRANCH  29  32
ENDBRANCH  28  29
ENDBRANCH  17  23
ENDBRANCH   6   8
ENDBRANCH   5   6
ENDBRANCH   4   5
ENDBRANCH   3   4
ENDBRANCH   2   3
ENDBRANCH   1   2
BRANCH   1  38
ATOM     38  C   UNL A   1      50.103  26.099  31.238  1.00  0.00     0.188 C 
BRANCH  38  39
ATOM     39  O   UNL A   1      50.583  25.179  30.271  1.00  0.00    -0.376 OA
BRANCH  39  40
ATOM     40  C   UNL A   1      50.875  25.660  28.965  1.00  0.00     0.202 C 
BRANCH  40  41
ATOM     41  C   UNL A   1      49.785  25.591  27.895  1.00  0.00     0.261 C 
BRANCH  41  42
ATOM     42  O   UNL A   1      49.392  26.892  27.428  1.00  0.00    -0.460 OA
BRANCH  42  43
ATOM     43  C   UNL A   1      48.114  26.982  26.986  1.00  0.00     0.338 C 
ATOM     44  O   UNL A   1      47.417  26.085  26.545  1.00  0.00    -0.246 OA
BRANCH  43  45
ATOM     45  C   UNL A   1      47.591  28.325  27.285  1.00  0.00     0.060 A 
ATOM     46  C   UNL A   1      46.776  28.945  26.327  1.00  0.00     0.016 A 
ATOM     47  C   UNL A   1      47.960  28.994  28.451  1.00  0.00     0.016 A 
ATOM     48  C   UNL A   1      46.354  30.258  26.518  1.00  0.00     0.010 A 
ATOM     49  C   UNL A   1      47.567  30.322  28.625  1.00  0.00     0.010 A 
ATOM     50  C   UNL A   1      46.796  30.969  27.642  1.00  0.00    -0.014 A 
BRANCH  50  51
ATOM     51  C   UNL A   1      46.650  32.441  27.677  1.00  0.00     0.031 A 
ATOM     52  C   UNL A   1      45.351  33.010  28.178  1.00  0.00     0.074 A 
ATOM     53  C   UNL A   1      47.635  33.253  27.258  1.00  0.00     0.049 A 
ATOM     54  N   UNL A   1      44.973  34.258  28.254  1.00  0.00    -0.248 NA
ATOM     55  C   UNL A   1      44.349  32.045  28.666  1.00  0.00     0.031 C 
ATOM     56  C   UNL A   1      48.945  32.819  26.777  1.00  0.00     0.029 A 
ATOM     57  N   UNL A   1      47.670  34.620  27.152  1.00  0.00    -0.354 N 
ATOM     58  C   UNL A   1      43.688  34.228  28.781  1.00  0.00     0.074 A 
ATOM     59  C   UNL A   1      43.350  32.843  29.013  1.00  0.00     0.031 C 
ATOM     60  C   UNL A   1      49.647  33.902  26.396  1.00  0.00     0.029 A 
ATOM     61  C   UNL A   1      48.827  35.099  26.587  1.00  0.00     0.049 A 
ATOM     62  H   UNL A   1      46.934  35.203  27.451  1.00  0.00     0.167 HD
ATOM     63  C   UNL A   1      42.864  35.264  29.055  1.00  0.00     0.034 A 
ATOM     64  C   UNL A   1      49.173  36.355  26.244  1.00  0.00     0.034 A 
ATOM     65  C   UNL A   1      43.193  36.640  28.822  1.00  0.00     0.049 A 
ATOM     66  C   UNL A   1      48.211  37.486  26.500  1.00  0.00     0.074 A 
ATOM     67  C   UNL A   1      42.427  37.761  29.088  1.00  0.00     0.029 A 
ATOM     68  N   UNL A   1      44.374  37.083  28.252  1.00  0.00    -0.354 N 
ATOM     69  N   UNL A   1      47.037  37.453  27.082  1.00  0.00    -0.248 NA
ATOM     70  C   UNL A   1      48.627  38.829  26.066  1.00  0.00     0.031 C 
ATOM     71  C   UNL A   1      43.144  38.884  28.668  1.00  0.00     0.029 A 
ATOM     72  C   UNL A   1      44.358  38.461  28.149  1.00  0.00     0.049 A 
ATOM     73  H   UNL A   1      45.117  36.503  27.966  1.00  0.00     0.167 HD
ATOM     74  C   UNL A   1      46.582  38.768  27.101  1.00  0.00     0.074 A 
ATOM     75  C   UNL A   1      47.613  39.577  26.485  1.00  0.00     0.031 C 
ATOM     76  C   UNL A   1      45.411  39.257  27.575  1.00  0.00     0.034 A 
BRANCH  63  77
ATOM     77  C   UNL A   1      41.534  34.951  29.672  1.00  0.00     0.023 A 
ATOM     78  C   UNL A   1      40.391  34.906  28.848  1.00  0.00     0.012 A 
ATOM     79  C   UNL A   1      41.423  34.634  31.039  1.00  0.00     0.148 A 
ATOM     80  C   UNL A   1      39.152  34.554  29.379  1.00  0.00     0.002 A 
ATOM     81  C   UNL A   1      40.190  34.260  31.555  1.00  0.00     0.091 A 
ATOM     82  F   UNL A   1      42.524  34.707  31.800  1.00  0.00    -0.205 F 
ATOM     83  C   UNL A   1      39.054  34.223  30.728  1.00  0.00     0.022 A 
BRANCH  81  84
ATOM     84  S   UNL A   1      39.960  33.772  33.267  1.00  0.00     0.127 S 
ATOM     85  O   UNL A   1      41.034  34.510  33.931  1.00  0.00    -0.237 OA
ATOM     86  O   UNL A   1      38.614  34.271  33.548  1.00  0.00    -0.237 OA
ATOM     87  O   UNL A   1      40.097  32.323  33.297  1.00  0.00    -0.744 OA
ENDBRANCH  81  84
ENDBRANCH  63  77
BRANCH  64  88
ATOM     88  C   UNL A   1      50.509  36.614  25.645  1.00  0.00     0.023 A 
ATOM     89  C   UNL A   1      50.718  36.330  24.283  1.00  0.00     0.012 A 
ATOM     90  C   UNL A   1      51.557  37.172  26.404  1.00  0.00     0.148 A 
ATOM     91  C   UNL A   1      51.952  36.589  23.685  1.00  0.00     0.002 A 
ATOM     92  C   UNL A   1      52.772  37.459  25.795  1.00  0.00     0.091 A 
ATOM     93  F   UNL A   1      51.333  37.424  27.701  1.00  0.00    -0.205 F 
ATOM     94  C   UNL A   1      52.975  37.160  24.438  1.00  0.00     0.022 A 
BRANCH  92  95
ATOM     95  S   UNL A   1      54.124  38.271  26.656  1.00  0.00     0.127 S 
ATOM     96  O   UNL A   1      53.552  39.587  26.934  1.00  0.00    -0.237 OA
ATOM     97  O   UNL A   1      54.289  37.410  27.828  1.00  0.00    -0.237 OA
ATOM     98  O   UNL A   1      55.248  38.262  25.730  1.00  0.00    -0.744 OA
ENDBRANCH  92  95
ENDBRANCH  64  88
BRANCH  76  99
ATOM     99  C   UNL A   1      45.155  40.734  27.462  1.00  0.00     0.023 A 
ATOM    100  C   UNL A   1      45.328  41.549  28.597  1.00  0.00     0.012 A 
ATOM    101  C   UNL A   1      44.894  41.326  26.211  1.00  0.00     0.148 A 
ATOM    102  C   UNL A   1      45.242  42.936  28.488  1.00  0.00     0.002 A 
ATOM    103  C   UNL A   1      44.843  42.711  26.105  1.00  0.00     0.091 A 
ATOM    104  F   UNL A   1      44.729  40.525  25.148  1.00  0.00    -0.205 F 
ATOM    105  C   UNL A   1      45.012  43.516  27.243  1.00  0.00     0.022 A 
BRANCH 103 106
ATOM    106  S   UNL A   1      44.636  43.554  24.531  1.00  0.00     0.127 S 
ATOM    107  O   UNL A   1      45.374  44.796  24.760  1.00  0.00    -0.237 OA
ATOM    108  O   UNL A   1      45.276  42.627  23.597  1.00  0.00    -0.237 OA
ATOM    109  O   UNL A   1      43.201  43.713  24.342  1.00  0.00    -0.744 OA
ENDBRANCH 103 106
ENDBRANCH  76  99
ENDBRANCH  50  51
ENDBRANCH  43  45
ENDBRANCH  42  43
ENDBRANCH  41  42
ENDBRANCH  40  41
ENDBRANCH  39  40
ENDBRANCH  38  39
ENDBRANCH   1  38
TORSDOF 23
ENDMDL
MODEL 3
REMARK VINA RESULT:      -7.5      5.744     12.362
REMARK SMILES Cc1c(C(=O)OCCOCCOCCOC(=O)c2ccc(-c3c4nc(c(-c5cccc(S(=O)(=O)[O-])c5F)c5ccc([nH]5)c(-c5cccc(S(=O)(=O)[O-])c5F)c5nc(c(-c6cccc(S(=O)(=O)[O-])c6F)c6ccc3[nH]6)C=C5)C=C4)cc2)ccc2c1N[C@@H](c1ccc(S(=O)(=O)N3CCOCC3)cc1)[C@@H]1CC=C[C@H]21
REMARK SMILES IDX 10 1 9 2 8 3 7 4 6 5 4 6 5 7 3 8 1 9 2 10 84 11 81 12 83 13
REMARK SMILES IDX 85 14 82 15 106 16 86 17 102 19 105 20 103 21 104 22 87 23
REMARK SMILES IDX 88 24 101 25 89 26 100 27 90 28 91 29 92 30 93 31 94 32
REMARK SMILES IDX 95 33 99 34 96 35 98 36 97 37 11 38 12 39 13 40 14 41 15 42
REMARK SMILES IDX 16 43 17 44 18 45 19 46 80 47 20 48 79 49 21 50 22 51 23 52
REMARK SMILES IDX 73 53 24 54 78 55 72 56 74 57 25 58 77 59 71 60 70 61 26 63
REMARK SMILES IDX 58 64 38 65 57 66 39 67 42 68 56 69 75 70 40 71 41 72 55 74
REMARK SMILES IDX 76 75 43 76 27 77 28 78 36 79 29 80 31 81 37 82 30 83 32 84
REMARK SMILES IDX 33 85 34 86 35 87 59 88 60 89 68 90 61 91 63 92 69 93 62 94
REMARK SMILES IDX 64 95 65 96 66 97 67 98 44 99 45 100 53 101 46 102 48 103
REMARK SMILES IDX 54 104 47 105 49 106 50 107 51 108 52 109
REMARK H PARENT 85 18 74 62 42 73
REMARK Flexibility Score: inf
ROOT
ATOM      1  C   UNL A   1      35.507  33.819  33.639  1.00  0.00     0.188 C 
ENDROOT
BRANCH   1   2
ATOM      2  O   UNL A   1      35.681  32.622  32.896  1.00  0.00    -0.376 OA
BRANCH   2   3
ATOM      3  C   UNL A   1      34.802  32.325  31.817  1.00  0.00     0.202 C 
BRANCH   3   4
ATOM      4  C   UNL A   1      35.381  32.257  30.407  1.00  0.00     0.261 C 
BRANCH   4   5
ATOM      5  O   UNL A   1      34.396  31.800  29.473  1.00  0.00    -0.460 OA
BRANCH   5   6
ATOM      6  C   UNL A   1      34.590  32.201  28.198  1.00  0.00     0.338 C 
ATOM      7  O   UNL A   1      35.396  33.031  27.806  1.00  0.00    -0.246 OA
BRANCH   6   8
ATOM      8  C   UNL A   1      33.786  31.366  27.282  1.00  0.00     0.065 A 
ATOM      9  C   UNL A   1      35.558  29.540  27.123  1.00  0.00     0.047 C 
ATOM     10  C   UNL A   1      34.194  30.103  26.810  1.00  0.00    -0.013 A 
ATOM     11  C   UNL A   1      33.292  29.348  26.022  1.00  0.00     0.042 A 
ATOM     12  C   UNL A   1      32.535  31.894  26.934  1.00  0.00     0.016 A 
ATOM     13  C   UNL A   1      32.002  29.848  25.769  1.00  0.00    -0.017 A 
ATOM     14  N   UNL A   1      33.631  28.065  25.630  1.00  0.00    -0.377 N 
ATOM     15  C   UNL A   1      31.653  31.144  26.172  1.00  0.00     0.007 A 
ATOM     16  C   UNL A   1      30.935  28.974  25.177  1.00  0.00     0.049 C 
ATOM     17  C   UNL A   1      32.721  27.196  24.904  1.00  0.00     0.114 C 
ATOM     18  H   UNL A   1      34.527  27.726  25.854  1.00  0.00     0.161 HD
ATOM     19  C   UNL A   1      31.238  27.468  25.261  1.00  0.00     0.031 C 
ATOM     20  C   UNL A   1      30.627  29.149  23.716  1.00  0.00    -0.023 C 
ATOM     21  C   UNL A   1      30.242  26.903  24.226  1.00  0.00     0.034 C 
ATOM     22  C   UNL A   1      30.212  27.986  23.191  1.00  0.00    -0.030 C 
BRANCH  17  23
ATOM     23  C   UNL A   1      33.119  25.750  25.191  1.00  0.00    -0.025 A 
ATOM     24  C   UNL A   1      34.133  25.067  24.487  1.00  0.00     0.007 A 
ATOM     25  C   UNL A   1      32.454  25.072  26.210  1.00  0.00     0.007 A 
ATOM     26  C   UNL A   1      34.469  23.743  24.805  1.00  0.00     0.022 A 
ATOM     27  C   UNL A   1      32.823  23.782  26.555  1.00  0.00     0.022 A 
ATOM     28  C   UNL A   1      33.814  23.105  25.857  1.00  0.00     0.082 A 
BRANCH  28  29
ATOM     29  S   UNL A   1      34.254  21.438  26.291  1.00  0.00     0.243 S 
ATOM     30  O   UNL A   1      35.551  21.190  25.700  1.00  0.00    -0.207 OA
ATOM     31  O   UNL A   1      34.031  21.311  27.715  1.00  0.00    -0.207 OA
BRANCH  29  32
ATOM     32  N   UNL A   1      33.132  20.460  25.510  1.00  0.00    -0.193 NA
ATOM     33  C   UNL A   1      32.980  19.024  25.826  1.00  0.00     0.131 C 
ATOM     34  C   UNL A   1      32.327  20.952  24.376  1.00  0.00     0.131 C 
ATOM     35  C   UNL A   1      32.968  18.148  24.559  1.00  0.00     0.177 C 
ATOM     36  C   UNL A   1      32.451  20.010  23.177  1.00  0.00     0.177 C 
ATOM     37  O   UNL A   1      32.110  18.663  23.534  1.00  0.00    -0.379 OA
ENDBRANCH  29  32
ENDBRANCH  28  29
ENDBRANCH  17  23
ENDBRANCH   6   8
ENDBRANCH   5   6
ENDBRANCH   4   5
ENDBRANCH   3   4
ENDBRANCH   2   3
ENDBRANCH   1   2
BRANCH   1  38
ATOM     38  C   UNL A   1      36.319  34.065  34.930  1.00  0.00     0.188 C 
BRANCH  38  39
ATOM     39  O   UNL A   1      37.431  34.945  34.929  1.00  0.00    -0.376 OA
BRANCH  39  40
ATOM     40  C   UNL A   1      38.653  34.494  35.499  1.00  0.00     0.202 C 
BRANCH  40  41
ATOM     41  C   UNL A   1      39.829  34.186  34.572  1.00  0.00     0.261 C 
BRANCH  41  42
ATOM     42  O   UNL A   1      39.463  33.312  33.492  1.00  0.00    -0.460 OA
BRANCH  42  43
ATOM     43  C   UNL A   1      39.580  33.848  32.253  1.00  0.00     0.338 C 
ATOM     44  O   UNL A   1      38.844  34.662  31.725  1.00  0.00    -0.246 OA
BRANCH  43  45
ATOM     45  C   UNL A   1      40.866  33.436  31.667  1.00  0.00     0.060 A 
ATOM     46  C   UNL A   1      40.846  32.752  30.443  1.00  0.00     0.016 A 
ATOM     47  C   UNL A   1      42.065  33.650  32.347  1.00  0.00     0.016 A 
ATOM     48  C   UNL A   1      42.028  32.246  29.910  1.00  0.00     0.010 A 
ATOM     49  C   UNL A   1      43.244  33.111  31.830  1.00  0.00     0.010 A 
ATOM     50  C   UNL A   1      43.222  32.376  30.631  1.00  0.00    -0.014 A 
BRANCH  50  51
ATOM     51  C   UNL A   1      44.393  31.552  30.257  1.00  0.00     0.031 A 
ATOM     52  C   UNL A   1      45.481  32.199  29.445  1.00  0.00     0.074 A 
ATOM     53  C   UNL A   1      44.482  30.259  30.610  1.00  0.00     0.049 A 
ATOM     54  N   UNL A   1      46.572  31.670  28.958  1.00  0.00    -0.248 NA
ATOM     55  C   UNL A   1      45.323  33.635  29.149  1.00  0.00     0.031 C 
ATOM     56  C   UNL A   1      43.505  29.531  31.416  1.00  0.00     0.029 A 
ATOM     57  N   UNL A   1      45.439  29.323  30.310  1.00  0.00    -0.354 N 
ATOM     58  C   UNL A   1      47.220  32.700  28.288  1.00  0.00     0.074 A 
ATOM     59  C   UNL A   1      46.408  33.886  28.433  1.00  0.00     0.031 C 
ATOM     60  C   UNL A   1      43.898  28.248  31.521  1.00  0.00     0.029 A 
ATOM     61  C   UNL A   1      45.142  28.064  30.772  1.00  0.00     0.049 A 
ATOM     62  H   UNL A   1      46.261  29.534  29.810  1.00  0.00     0.167 HD
ATOM     63  C   UNL A   1      48.393  32.663  27.617  1.00  0.00     0.034 A 
ATOM     64  C   UNL A   1      45.788  26.896  30.592  1.00  0.00     0.034 A 
ATOM     65  C   UNL A   1      49.200  31.487  27.467  1.00  0.00     0.049 A 
ATOM     66  C   UNL A   1      47.060  26.867  29.785  1.00  0.00     0.074 A 
ATOM     67  C   UNL A   1      50.416  31.360  26.819  1.00  0.00     0.029 A 
ATOM     68  N   UNL A   1      48.866  30.234  27.952  1.00  0.00    -0.354 N 
ATOM     69  N   UNL A   1      47.708  27.865  29.234  1.00  0.00    -0.248 NA
ATOM     70  C   UNL A   1      47.698  25.556  29.587  1.00  0.00     0.031 C 
ATOM     71  C   UNL A   1      50.813  30.023  26.904  1.00  0.00     0.029 A 
ATOM     72  C   UNL A   1      49.848  29.323  27.612  1.00  0.00     0.049 A 
ATOM     73  H   UNL A   1      48.052  30.024  28.464  1.00  0.00     0.167 HD
ATOM     74  C   UNL A   1      48.837  27.308  28.641  1.00  0.00     0.074 A 
ATOM     75  C   UNL A   1      48.793  25.886  28.911  1.00  0.00     0.031 C 
ATOM     76  C   UNL A   1      49.813  27.918  27.927  1.00  0.00     0.034 A 
BRANCH  63  77
ATOM     77  C   UNL A   1      48.894  33.944  27.020  1.00  0.00     0.023 A 
ATOM     78  C   UNL A   1      48.489  34.296  25.718  1.00  0.00     0.012 A 
ATOM     79  C   UNL A   1      49.700  34.825  27.764  1.00  0.00     0.148 A 
ATOM     80  C   UNL A   1      48.884  35.510  25.160  1.00  0.00     0.002 A 
ATOM     81  C   UNL A   1      50.069  36.044  27.212  1.00  0.00     0.091 A 
ATOM     82  F   UNL A   1      50.086  34.452  28.992  1.00  0.00    -0.205 F 
ATOM     83  C   UNL A   1      49.665  36.387  25.909  1.00  0.00     0.022 A 
BRANCH  81  84
ATOM     84  S   UNL A   1      51.037  37.265  28.105  1.00  0.00     0.127 S 
ATOM     85  O   UNL A   1      50.211  37.484  29.292  1.00  0.00    -0.237 OA
ATOM     86  O   UNL A   1      52.283  36.542  28.354  1.00  0.00    -0.237 OA
ATOM     87  O   UNL A   1      51.158  38.412  27.216  1.00  0.00    -0.744 OA
ENDBRANCH  81  84
ENDBRANCH  63  77
BRANCH  64  88
ATOM     88  C   UNL A   1      45.255  25.654  31.214  1.00  0.00     0.023 A 
ATOM     89  C   UNL A   1      44.477  24.776  30.438  1.00  0.00     0.012 A 
ATOM     90  C   UNL A   1      45.545  25.323  32.552  1.00  0.00     0.148 A 
ATOM     91  C   UNL A   1      43.987  23.590  30.986  1.00  0.00     0.002 A 
ATOM     92  C   UNL A   1      45.083  24.125  33.082  1.00  0.00     0.091 A 
ATOM     93  F   UNL A   1      46.281  26.183  33.271  1.00  0.00    -0.205 F 
ATOM     94  C   UNL A   1      44.297  23.261  32.303  1.00  0.00     0.022 A 
BRANCH  92  95
ATOM     95  S   UNL A   1      45.496  23.570  34.740  1.00  0.00     0.127 S 
ATOM     96  O   UNL A   1      46.953  23.479  34.670  1.00  0.00    -0.237 OA
ATOM     97  O   UNL A   1      44.985  24.671  35.557  1.00  0.00    -0.237 OA
ATOM     98  O   UNL A   1      44.800  22.304  34.921  1.00  0.00    -0.744 OA
ENDBRANCH  92  95
ENDBRANCH  64  88
BRANCH  76  99
ATOM     99  C   UNL A   1      50.930  27.075  27.377  1.00  0.00     0.023 A 
ATOM    100  C   UNL A   1      50.733  26.378  26.170  1.00  0.00     0.012 A 
ATOM    101  C   UNL A   1      52.207  27.097  27.970  1.00  0.00     0.148 A 
ATOM    102  C   UNL A   1      51.794  25.710  25.561  1.00  0.00     0.002 A 
ATOM    103  C   UNL A   1      53.267  26.456  27.340  1.00  0.00     0.091 A 
ATOM    104  F   UNL A   1      52.364  27.765  29.122  1.00  0.00    -0.205 F 
ATOM    105  C   UNL A   1      53.061  25.759  26.138  1.00  0.00     0.022 A 
BRANCH 103 106
ATOM    106  S   UNL A   1      54.951  26.532  27.961  1.00  0.00     0.127 S 
ATOM    107  O   UNL A   1      54.864  25.701  29.161  1.00  0.00    -0.237 OA
ATOM    108  O   UNL A   1      55.713  25.939  26.861  1.00  0.00    -0.237 OA
ATOM    109  O   UNL A   1      55.230  27.941  28.202  1.00  0.00    -0.744 OA
ENDBRANCH 103 106
ENDBRANCH  76  99
ENDBRANCH  50  51
ENDBRANCH  43  45
ENDBRANCH  42  43
ENDBRANCH  41  42
ENDBRANCH  40  41
ENDBRANCH  39  40
ENDBRANCH  38  39
ENDBRANCH   1  38
TORSDOF 23
ENDMDL
