MODEL 1
REMARK VINA RESULT:     -12.0      0.000      0.000
REMARK SMILES Cc1cccc(-n2c(C)cc(/C=N\c3ccc(O)c(C(=O)OCCOCCOCCOC(=O)c4ccc(-c5c6nc(c(-c7cccc(S(=O)(=O)[O-])c7F)c7ccc([nH]7)c(-c7cccc(S(=O)(=O)[O-])c7F)c7nc(c(-c8cccc(S(=O)(=O)[O-])c8F)c8ccc5[nH]8)C=C7)C=C6)cc4)c3)c2C)c1
REMARK SMILES IDX 26 1 25 2 24 3 23 4 22 5 20 6 21 7 19 8 14 9 15 10 97 11
REMARK SMILES IDX 16 12 17 13 13 14 12 15 11 16 7 17 8 18 98 19 9 20 10 21
REMARK SMILES IDX 99 22 6 23 1 24 2 25 3 26 100 27 4 28 5 29 18 30 27 32 28 33
REMARK SMILES IDX 29 34 30 35 31 36 32 37 33 38 34 39 35 40 96 41 36 42 95 43
REMARK SMILES IDX 37 44 38 45 39 46 89 47 40 48 94 49 88 50 90 51 41 52 93 53
REMARK SMILES IDX 87 54 86 55 42 57 74 58 54 59 73 60 55 61 58 62 72 63 91 64
REMARK SMILES IDX 56 65 57 66 71 68 92 69 59 70 43 71 44 72 52 73 45 74 47 75
REMARK SMILES IDX 53 76 46 77 48 78 49 79 50 80 51 81 75 82 76 83 84 84 77 85
REMARK SMILES IDX 79 86 85 87 78 88 80 89 81 90 82 91 83 92 60 93 61 94 69 95
REMARK SMILES IDX 62 96 64 97 70 98 63 99 65 100 66 101 67 102 68 103
REMARK H PARENT 18 31 90 56 58 67
REMARK Flexibility Score: inf
ROOT
ATOM      1  C   UNL A   1      33.147  34.113  28.014  1.00  0.00     0.188 C 
ENDROOT
BRANCH   1   2
ATOM      2  O   UNL A   1      32.833  32.797  27.593  1.00  0.00    -0.376 OA
BRANCH   2   3
ATOM      3  C   UNL A   1      33.865  31.846  27.900  1.00  0.00     0.202 C 
BRANCH   3   4
ATOM      4  C   UNL A   1      33.934  30.474  27.125  1.00  0.00     0.261 C 
BRANCH   4   5
ATOM      5  O   UNL A   1      32.674  29.723  26.897  1.00  0.00    -0.460 OA
BRANCH   5   6
ATOM      6  C   UNL A   1      32.005  29.813  25.682  1.00  0.00     0.342 C 
ATOM      7  O   UNL A   1      31.295  30.789  25.451  1.00  0.00    -0.246 OA
BRANCH   6   8
ATOM      8  C   UNL A   1      31.986  28.598  24.592  1.00  0.00     0.103 A 
ATOM      9  C   UNL A   1      31.399  26.289  23.593  1.00  0.00     0.064 A 
ATOM     10  C   UNL A   1      32.288  26.540  22.571  1.00  0.00     0.032 A 
ATOM     11  C   UNL A   1      31.220  27.362  24.515  1.00  0.00     0.048 A 
ATOM     12  C   UNL A   1      33.010  27.748  22.541  1.00  0.00     0.049 A 
ATOM     13  C   UNL A   1      32.889  28.730  23.545  1.00  0.00     0.130 A 
BRANCH   9  14
ATOM     14  N   UNL A   1      30.505  25.192  23.540  1.00  0.00    -0.256 NA
ATOM     15  C   UNL A   1      30.577  23.970  24.008  1.00  0.00     0.121 C 
BRANCH  15  16
ATOM     16  C   UNL A   1      31.562  23.302  24.867  1.00  0.00     0.014 A 
ATOM     17  N   UNL A   1      33.185  21.863  25.526  1.00  0.00    -0.318 N 
ATOM     18  C   UNL A   1      32.884  22.639  26.630  1.00  0.00     0.021 A 
ATOM     19  C   UNL A   1      32.536  22.423  24.443  1.00  0.00     0.029 A 
ATOM     20  C   UNL A   1      33.591  22.453  27.927  1.00  0.00     0.065 C 
ATOM     21  C   UNL A   1      31.915  23.559  26.234  1.00  0.00     0.033 A 
ATOM     22  C   UNL A   1      32.793  21.985  23.077  1.00  0.00     0.065 C 
BRANCH  17  23
ATOM     23  C   UNL A   1      33.751  20.557  25.494  1.00  0.00     0.046 A 
ATOM     24  C   UNL A   1      32.317  17.093  24.855  1.00  0.00     0.044 C 
ATOM     25  C   UNL A   1      33.271  18.242  24.964  1.00  0.00    -0.049 A 
ATOM     26  C   UNL A   1      34.574  18.104  24.464  1.00  0.00     0.003 A 
ATOM     27  C   UNL A   1      32.861  19.476  25.489  1.00  0.00     0.030 A 
ATOM     28  C   UNL A   1      35.481  19.159  24.547  1.00  0.00     0.002 A 
ATOM     29  C   UNL A   1      35.078  20.380  25.083  1.00  0.00     0.026 A 
ENDBRANCH  17  23
ENDBRANCH  15  16
ENDBRANCH   9  14
BRANCH  13  30
ATOM     30  O   UNL A   1      33.700  29.826  23.406  1.00  0.00    -0.507 OA
ATOM     31  H   UNL A   1      33.770  30.448  24.103  1.00  0.00     0.293 HD
ENDBRANCH  13  30
ENDBRANCH   6   8
ENDBRANCH   5   6
ENDBRANCH   4   5
ENDBRANCH   3   4
ENDBRANCH   2   3
ENDBRANCH   1   2
BRANCH   1  32
ATOM     32  C   UNL A   1      34.266  33.989  29.042  1.00  0.00     0.188 C 
BRANCH  32  33
ATOM     33  O   UNL A   1      33.900  34.240  30.400  1.00  0.00    -0.376 OA
BRANCH  33  34
ATOM     34  C   UNL A   1      34.872  33.906  31.385  1.00  0.00     0.202 C 
BRANCH  34  35
ATOM     35  C   UNL A   1      35.231  32.401  31.619  1.00  0.00     0.261 C 
BRANCH  35  36
ATOM     36  O   UNL A   1      36.203  31.888  30.683  1.00  0.00    -0.460 OA
BRANCH  36  37
ATOM     37  C   UNL A   1      36.346  30.525  30.509  1.00  0.00     0.338 C 
ATOM     38  O   UNL A   1      35.813  29.678  31.160  1.00  0.00    -0.246 OA
BRANCH  37  39
ATOM     39  C   UNL A   1      37.449  30.359  29.483  1.00  0.00     0.060 A 
ATOM     40  C   UNL A   1      37.467  29.400  28.477  1.00  0.00     0.016 A 
ATOM     41  C   UNL A   1      38.630  31.000  29.700  1.00  0.00     0.016 A 
ATOM     42  C   UNL A   1      38.710  28.862  27.980  1.00  0.00     0.010 A 
ATOM     43  C   UNL A   1      39.816  30.336  29.348  1.00  0.00     0.010 A 
ATOM     44  C   UNL A   1      39.942  29.154  28.584  1.00  0.00    -0.014 A 
BRANCH  44  45
ATOM     45  C   UNL A   1      41.158  28.101  28.661  1.00  0.00     0.031 A 
ATOM     46  C   UNL A   1      41.325  26.520  28.436  1.00  0.00     0.074 A 
ATOM     47  C   UNL A   1      42.373  28.711  28.731  1.00  0.00     0.049 A 
ATOM     48  N   UNL A   1      42.421  25.951  27.990  1.00  0.00    -0.248 NA
ATOM     49  C   UNL A   1      40.370  25.428  28.617  1.00  0.00     0.031 C 
ATOM     50  C   UNL A   1      43.718  28.173  28.497  1.00  0.00     0.029 A 
ATOM     51  N   UNL A   1      42.684  30.014  29.054  1.00  0.00    -0.354 N 
ATOM     52  C   UNL A   1      42.257  24.589  27.798  1.00  0.00     0.074 A 
ATOM     53  C   UNL A   1      40.914  24.308  28.141  1.00  0.00     0.031 C 
ATOM     54  C   UNL A   1      44.648  29.050  28.889  1.00  0.00     0.029 A 
ATOM     55  C   UNL A   1      43.955  30.071  29.621  1.00  0.00     0.049 A 
ATOM     56  H   UNL A   1      42.095  30.789  28.907  1.00  0.00     0.167 HD
ATOM     57  C   UNL A   1      43.284  23.735  27.557  1.00  0.00     0.034 A 
ATOM     58  C   UNL A   1      44.073  30.247  30.974  1.00  0.00     0.034 A 
ATOM     59  C   UNL A   1      44.467  24.235  28.248  1.00  0.00     0.049 A 
ATOM     60  C   UNL A   1      44.420  28.930  31.702  1.00  0.00     0.074 A 
ATOM     61  C   UNL A   1      45.585  24.983  27.952  1.00  0.00     0.029 A 
ATOM     62  N   UNL A   1      44.394  24.201  29.631  1.00  0.00    -0.354 N 
ATOM     63  N   UNL A   1      44.950  27.863  31.142  1.00  0.00    -0.248 NA
ATOM     64  C   UNL A   1      44.123  28.691  33.114  1.00  0.00     0.031 C 
ATOM     65  C   UNL A   1      46.037  25.572  29.189  1.00  0.00     0.029 A 
ATOM     66  C   UNL A   1      45.218  25.139  30.227  1.00  0.00     0.049 A 
ATOM     67  H   UNL A   1      43.821  23.579  30.135  1.00  0.00     0.167 HD
ATOM     68  C   UNL A   1      44.824  26.786  31.990  1.00  0.00     0.074 A 
ATOM     69  C   UNL A   1      44.368  27.376  33.237  1.00  0.00     0.031 C 
ATOM     70  C   UNL A   1      44.996  25.467  31.643  1.00  0.00     0.034 A 
BRANCH  57  71
ATOM     71  C   UNL A   1      43.176  22.373  26.873  1.00  0.00     0.023 A 
ATOM     72  C   UNL A   1      42.144  21.515  27.313  1.00  0.00     0.012 A 
ATOM     73  C   UNL A   1      44.108  21.804  25.956  1.00  0.00     0.148 A 
ATOM     74  C   UNL A   1      42.041  20.180  26.891  1.00  0.00     0.002 A 
ATOM     75  C   UNL A   1      43.975  20.485  25.495  1.00  0.00     0.091 A 
ATOM     76  F   UNL A   1      45.184  22.506  25.580  1.00  0.00    -0.205 F 
ATOM     77  C   UNL A   1      42.950  19.667  25.977  1.00  0.00     0.022 A 
BRANCH  75  78
ATOM     78  S   UNL A   1      45.098  19.725  24.299  1.00  0.00     0.127 S 
ATOM     79  O   UNL A   1      44.933  18.300  24.586  1.00  0.00    -0.237 OA
ATOM     80  O   UNL A   1      44.530  20.151  23.018  1.00  0.00    -0.237 OA
ATOM     81  O   UNL A   1      46.421  20.266  24.579  1.00  0.00    -0.744 OA
ENDBRANCH  75  78
ENDBRANCH  57  71
BRANCH  58  82
ATOM     82  C   UNL A   1      43.200  31.395  31.404  1.00  0.00     0.023 A 
ATOM     83  C   UNL A   1      43.325  32.569  30.603  1.00  0.00     0.012 A 
ATOM     84  C   UNL A   1      42.075  31.296  32.238  1.00  0.00     0.148 A 
ATOM     85  C   UNL A   1      42.297  33.505  30.497  1.00  0.00     0.002 A 
ATOM     86  C   UNL A   1      41.078  32.279  32.183  1.00  0.00     0.091 A 
ATOM     87  F   UNL A   1      41.915  30.208  32.999  1.00  0.00    -0.205 F 
ATOM     88  C   UNL A   1      41.167  33.354  31.283  1.00  0.00     0.022 A 
BRANCH  86  89
ATOM     89  S   UNL A   1      39.554  32.107  33.133  1.00  0.00     0.127 S 
ATOM     90  O   UNL A   1      40.029  32.365  34.488  1.00  0.00    -0.237 OA
ATOM     91  O   UNL A   1      38.702  33.153  32.569  1.00  0.00    -0.237 OA
ATOM     92  O   UNL A   1      39.102  30.751  32.853  1.00  0.00    -0.744 OA
ENDBRANCH  86  89
ENDBRANCH  58  82
BRANCH  70  93
ATOM     93  C   UNL A   1      44.944  24.373  32.707  1.00  0.00     0.023 A 
ATOM     94  C   UNL A   1      43.731  23.686  32.928  1.00  0.00     0.012 A 
ATOM     95  C   UNL A   1      46.000  24.092  33.606  1.00  0.00     0.148 A 
ATOM     96  C   UNL A   1      43.586  22.749  33.958  1.00  0.00     0.002 A 
ATOM     97  C   UNL A   1      45.808  23.267  34.712  1.00  0.00     0.091 A 
ATOM     98  F   UNL A   1      47.228  24.565  33.357  1.00  0.00    -0.205 F 
ATOM     99  C   UNL A   1      44.612  22.565  34.874  1.00  0.00     0.022 A 
BRANCH  97 100
ATOM    100  S   UNL A   1      46.993  23.199  36.066  1.00  0.00     0.127 S 
ATOM    101  O   UNL A   1      47.282  24.619  36.279  1.00  0.00    -0.237 OA
ATOM    102  O   UNL A   1      46.209  22.567  37.122  1.00  0.00    -0.237 OA
ATOM    103  O   UNL A   1      48.116  22.426  35.553  1.00  0.00    -0.744 OA
ENDBRANCH  97 100
ENDBRANCH  70  93
ENDBRANCH  44  45
ENDBRANCH  37  39
ENDBRANCH  36  37
ENDBRANCH  35  36
ENDBRANCH  34  35
ENDBRANCH  33  34
ENDBRANCH  32  33
ENDBRANCH   1  32
TORSDOF 24
ENDMDL
MODEL 2
REMARK VINA RESULT:     -11.9      2.471      3.537
REMARK SMILES Cc1cccc(-n2c(C)cc(/C=N\c3ccc(O)c(C(=O)OCCOCCOCCOC(=O)c4ccc(-c5c6nc(c(-c7cccc(S(=O)(=O)[O-])c7F)c7ccc([nH]7)c(-c7cccc(S(=O)(=O)[O-])c7F)c7nc(c(-c8cccc(S(=O)(=O)[O-])c8F)c8ccc5[nH]8)C=C7)C=C6)cc4)c3)c2C)c1
REMARK SMILES IDX 26 1 25 2 24 3 23 4 22 5 20 6 21 7 19 8 14 9 15 10 97 11
REMARK SMILES IDX 16 12 17 13 13 14 12 15 11 16 7 17 8 18 98 19 9 20 10 21
REMARK SMILES IDX 99 22 6 23 1 24 2 25 3 26 100 27 4 28 5 29 18 30 27 32 28 33
REMARK SMILES IDX 29 34 30 35 31 36 32 37 33 38 34 39 35 40 96 41 36 42 95 43
REMARK SMILES IDX 37 44 38 45 39 46 89 47 40 48 94 49 88 50 90 51 41 52 93 53
REMARK SMILES IDX 87 54 86 55 42 57 74 58 54 59 73 60 55 61 58 62 72 63 91 64
REMARK SMILES IDX 56 65 57 66 71 68 92 69 59 70 43 71 44 72 52 73 45 74 47 75
REMARK SMILES IDX 53 76 46 77 48 78 49 79 50 80 51 81 75 82 76 83 84 84 77 85
REMARK SMILES IDX 79 86 85 87 78 88 80 89 81 90 82 91 83 92 60 93 61 94 69 95
REMARK SMILES IDX 62 96 64 97 70 98 63 99 65 100 66 101 67 102 68 103
REMARK H PARENT 18 31 90 56 58 67
REMARK Flexibility Score: inf
ROOT
ATOM      1  C   UNL A   1      33.248  34.969  28.758  1.00  0.00     0.188 C 
ENDROOT
BRANCH   1   2
ATOM      2  O   UNL A   1      33.170  33.749  28.043  1.00  0.00    -0.376 OA
BRANCH   2   3
ATOM      3  C   UNL A   1      34.367  32.960  28.140  1.00  0.00     0.202 C 
BRANCH   3   4
ATOM      4  C   UNL A   1      34.369  31.459  27.658  1.00  0.00     0.261 C 
BRANCH   4   5
ATOM      5  O   UNL A   1      33.127  30.661  27.811  1.00  0.00    -0.460 OA
BRANCH   5   6
ATOM      6  C   UNL A   1      32.281  30.452  26.729  1.00  0.00     0.342 C 
ATOM      7  O   UNL A   1      31.620  31.388  26.285  1.00  0.00    -0.246 OA
BRANCH   6   8
ATOM      8  C   UNL A   1      31.995  28.970  26.106  1.00  0.00     0.103 A 
ATOM      9  C   UNL A   1      31.251  26.496  26.060  1.00  0.00     0.064 A 
ATOM     10  C   UNL A   1      31.776  26.395  24.791  1.00  0.00     0.032 A 
ATOM     11  C   UNL A   1      31.305  27.802  26.633  1.00  0.00     0.048 A 
ATOM     12  C   UNL A   1      32.392  27.507  24.187  1.00  0.00     0.049 A 
ATOM     13  C   UNL A   1      32.531  28.747  24.844  1.00  0.00     0.130 A 
BRANCH   9  14
ATOM     14  N   UNL A   1      30.440  25.473  26.607  1.00  0.00    -0.256 NA
ATOM     15  C   UNL A   1      30.460  24.169  26.482  1.00  0.00     0.121 C 
BRANCH  15  16
ATOM     16  C   UNL A   1      31.401  23.257  25.819  1.00  0.00     0.014 A 
ATOM     17  N   UNL A   1      33.340  22.202  25.306  1.00  0.00    -0.318 N 
ATOM     18  C   UNL A   1      32.382  21.687  24.453  1.00  0.00     0.021 A 
ATOM     19  C   UNL A   1      32.681  22.974  26.243  1.00  0.00     0.029 A 
ATOM     20  C   UNL A   1      32.715  20.634  23.454  1.00  0.00     0.065 C 
ATOM     21  C   UNL A   1      31.171  22.295  24.780  1.00  0.00     0.033 A 
ATOM     22  C   UNL A   1      33.357  23.504  27.420  1.00  0.00     0.065 C 
BRANCH  17  23
ATOM     23  C   UNL A   1      34.750  22.255  25.118  1.00  0.00     0.046 A 
ATOM     24  C   UNL A   1      37.481  19.609  25.000  1.00  0.00     0.044 C 
ATOM     25  C   UNL A   1      36.722  20.884  24.794  1.00  0.00    -0.049 A 
ATOM     26  C   UNL A   1      37.231  21.854  23.918  1.00  0.00     0.003 A 
ATOM     27  C   UNL A   1      35.476  21.091  25.403  1.00  0.00     0.030 A 
ATOM     28  C   UNL A   1      36.543  23.046  23.703  1.00  0.00     0.002 A 
ATOM     29  C   UNL A   1      35.312  23.259  24.320  1.00  0.00     0.026 A 
ENDBRANCH  17  23
ENDBRANCH  15  16
ENDBRANCH   9  14
BRANCH  13  30
ATOM     30  O   UNL A   1      33.205  29.717  24.148  1.00  0.00    -0.507 OA
ATOM     31  H   UNL A   1      33.555  30.459  24.600  1.00  0.00     0.293 HD
ENDBRANCH  13  30
ENDBRANCH   6   8
ENDBRANCH   5   6
ENDBRANCH   4   5
ENDBRANCH   3   4
ENDBRANCH   2   3
ENDBRANCH   1   2
BRANCH   1  32
ATOM     32  C   UNL A   1      33.805  34.633  30.137  1.00  0.00     0.188 C 
BRANCH  32  33
ATOM     33  O   UNL A   1      33.013  35.049  31.251  1.00  0.00    -0.376 OA
BRANCH  33  34
ATOM     34  C   UNL A   1      33.631  35.957  32.158  1.00  0.00     0.202 C 
BRANCH  34  35
ATOM     35  C   UNL A   1      34.441  35.388  33.369  1.00  0.00     0.261 C 
BRANCH  35  36
ATOM     36  O   UNL A   1      35.628  34.665  32.980  1.00  0.00    -0.460 OA
BRANCH  36  37
ATOM     37  C   UNL A   1      35.904  33.432  33.538  1.00  0.00     0.338 C 
ATOM     38  O   UNL A   1      35.953  33.189  34.707  1.00  0.00    -0.246 OA
BRANCH  37  39
ATOM     39  C   UNL A   1      36.319  32.544  32.382  1.00  0.00     0.060 A 
ATOM     40  C   UNL A   1      36.185  31.161  32.348  1.00  0.00     0.016 A 
ATOM     41  C   UNL A   1      37.119  33.077  31.419  1.00  0.00     0.016 A 
ATOM     42  C   UNL A   1      37.110  30.339  31.607  1.00  0.00     0.010 A 
ATOM     43  C   UNL A   1      38.119  32.262  30.864  1.00  0.00     0.010 A 
ATOM     44  C   UNL A   1      38.271  30.865  31.023  1.00  0.00    -0.014 A 
BRANCH  44  45
ATOM     45  C   UNL A   1      39.650  30.044  30.906  1.00  0.00     0.031 A 
ATOM     46  C   UNL A   1      40.123  28.687  30.187  1.00  0.00     0.074 A 
ATOM     47  C   UNL A   1      40.723  30.760  31.340  1.00  0.00     0.049 A 
ATOM     48  N   UNL A   1      41.336  28.480  29.730  1.00  0.00    -0.248 NA
ATOM     49  C   UNL A   1      39.374  27.475  29.860  1.00  0.00     0.031 C 
ATOM     50  C   UNL A   1      42.158  30.543  31.124  1.00  0.00     0.029 A 
ATOM     51  N   UNL A   1      40.763  31.895  32.121  1.00  0.00    -0.354 N 
ATOM     52  C   UNL A   1      41.440  27.266  29.071  1.00  0.00     0.074 A 
ATOM     53  C   UNL A   1      40.150  26.688  29.115  1.00  0.00     0.031 C 
ATOM     54  C   UNL A   1      42.878  31.350  31.909  1.00  0.00     0.029 A 
ATOM     55  C   UNL A   1      41.956  31.933  32.841  1.00  0.00     0.049 A 
ATOM     56  H   UNL A   1      40.055  32.577  32.164  1.00  0.00     0.167 HD
ATOM     57  C   UNL A   1      42.622  26.712  28.698  1.00  0.00     0.034 A 
ATOM     58  C   UNL A   1      41.936  31.633  34.176  1.00  0.00     0.034 A 
ATOM     59  C   UNL A   1      43.637  27.103  29.672  1.00  0.00     0.049 A 
ATOM     60  C   UNL A   1      42.463  30.210  34.461  1.00  0.00     0.074 A 
ATOM     61  C   UNL A   1      44.617  28.061  29.798  1.00  0.00     0.029 A 
ATOM     62  N   UNL A   1      43.466  26.571  30.939  1.00  0.00    -0.354 N 
ATOM     63  N   UNL A   1      43.221  29.500  33.652  1.00  0.00    -0.248 NA
ATOM     64  C   UNL A   1      42.109  29.446  35.656  1.00  0.00     0.031 C 
ATOM     65  C   UNL A   1      44.857  28.234  31.210  1.00  0.00     0.029 A 
ATOM     66  C   UNL A   1      44.056  27.347  31.921  1.00  0.00     0.049 A 
ATOM     67  H   UNL A   1      42.981  25.734  31.122  1.00  0.00     0.167 HD
ATOM     68  C   UNL A   1      43.232  28.187  34.064  1.00  0.00     0.074 A 
ATOM     69  C   UNL A   1      42.581  28.223  35.363  1.00  0.00     0.031 C 
ATOM     70  C   UNL A   1      43.670  27.116  33.321  1.00  0.00     0.034 A 
BRANCH  57  71
ATOM     71  C   UNL A   1      42.820  25.681  27.590  1.00  0.00     0.023 A 
ATOM     72  C   UNL A   1      43.348  26.148  26.366  1.00  0.00     0.012 A 
ATOM     73  C   UNL A   1      42.372  24.327  27.595  1.00  0.00     0.148 A 
ATOM     74  C   UNL A   1      43.419  25.344  25.218  1.00  0.00     0.002 A 
ATOM     75  C   UNL A   1      42.490  23.508  26.461  1.00  0.00     0.091 A 
ATOM     76  F   UNL A   1      41.749  23.837  28.673  1.00  0.00    -0.205 F 
ATOM     77  C   UNL A   1      42.999  24.023  25.265  1.00  0.00     0.022 A 
BRANCH  75  78
ATOM     78  S   UNL A   1      41.982  21.773  26.422  1.00  0.00     0.127 S 
ATOM     79  O   UNL A   1      40.569  21.875  26.057  1.00  0.00    -0.237 OA
ATOM     80  O   UNL A   1      42.837  21.217  25.372  1.00  0.00    -0.237 OA
ATOM     81  O   UNL A   1      42.243  21.241  27.753  1.00  0.00    -0.744 OA
ENDBRANCH  75  78
ENDBRANCH  57  71
BRANCH  58  82
ATOM     82  C   UNL A   1      40.836  32.414  34.845  1.00  0.00     0.023 A 
ATOM     83  C   UNL A   1      39.754  31.620  35.329  1.00  0.00     0.012 A 
ATOM     84  C   UNL A   1      40.949  33.724  35.336  1.00  0.00     0.148 A 
ATOM     85  C   UNL A   1      38.940  32.041  36.380  1.00  0.00     0.002 A 
ATOM     86  C   UNL A   1      40.081  34.169  36.342  1.00  0.00     0.091 A 
ATOM     87  F   UNL A   1      41.955  34.499  34.916  1.00  0.00    -0.205 F 
ATOM     88  C   UNL A   1      39.110  33.317  36.894  1.00  0.00     0.022 A 
BRANCH  86  89
ATOM     89  S   UNL A   1      40.292  35.795  37.096  1.00  0.00     0.127 S 
ATOM     90  O   UNL A   1      39.495  35.654  38.310  1.00  0.00    -0.237 OA
ATOM     91  O   UNL A   1      41.736  35.866  37.312  1.00  0.00    -0.237 OA
ATOM     92  O   UNL A   1      39.790  36.727  36.096  1.00  0.00    -0.744 OA
ENDBRANCH  86  89
ENDBRANCH  58  82
BRANCH  70  93
ATOM     93  C   UNL A   1      43.739  25.721  33.938  1.00  0.00     0.023 A 
ATOM     94  C   UNL A   1      42.554  25.115  34.406  1.00  0.00     0.012 A 
ATOM     95  C   UNL A   1      44.948  25.038  34.216  1.00  0.00     0.148 A 
ATOM     96  C   UNL A   1      42.562  23.887  35.077  1.00  0.00     0.002 A 
ATOM     97  C   UNL A   1      44.964  23.890  35.006  1.00  0.00     0.091 A 
ATOM     98  F   UNL A   1      46.090  25.453  33.654  1.00  0.00    -0.205 F 
ATOM     99  C   UNL A   1      43.770  23.291  35.410  1.00  0.00     0.022 A 
BRANCH  97 100
ATOM    100  S   UNL A   1      46.491  23.229  35.691  1.00  0.00     0.127 S 
ATOM    101  O   UNL A   1      46.964  24.352  36.504  1.00  0.00    -0.237 OA
ATOM    102  O   UNL A   1      46.009  22.080  36.451  1.00  0.00    -0.237 OA
ATOM    103  O   UNL A   1      47.329  22.926  34.538  1.00  0.00    -0.744 OA
ENDBRANCH  97 100
ENDBRANCH  70  93
ENDBRANCH  44  45
ENDBRANCH  37  39
ENDBRANCH  36  37
ENDBRANCH  35  36
ENDBRANCH  34  35
ENDBRANCH  33  34
ENDBRANCH  32  33
ENDBRANCH   1  32
TORSDOF 24
ENDMDL
MODEL 3
REMARK VINA RESULT:     -11.8      3.466      5.433
REMARK SMILES Cc1cccc(-n2c(C)cc(/C=N\c3ccc(O)c(C(=O)OCCOCCOCCOC(=O)c4ccc(-c5c6nc(c(-c7cccc(S(=O)(=O)[O-])c7F)c7ccc([nH]7)c(-c7cccc(S(=O)(=O)[O-])c7F)c7nc(c(-c8cccc(S(=O)(=O)[O-])c8F)c8ccc5[nH]8)C=C7)C=C6)cc4)c3)c2C)c1
REMARK SMILES IDX 26 1 25 2 24 3 23 4 22 5 20 6 21 7 19 8 14 9 15 10 97 11
REMARK SMILES IDX 16 12 17 13 13 14 12 15 11 16 7 17 8 18 98 19 9 20 10 21
REMARK SMILES IDX 99 22 6 23 1 24 2 25 3 26 100 27 4 28 5 29 18 30 27 32 28 33
REMARK SMILES IDX 29 34 30 35 31 36 32 37 33 38 34 39 35 40 96 41 36 42 95 43
REMARK SMILES IDX 37 44 38 45 39 46 89 47 40 48 94 49 88 50 90 51 41 52 93 53
REMARK SMILES IDX 87 54 86 55 42 57 74 58 54 59 73 60 55 61 58 62 72 63 91 64
REMARK SMILES IDX 56 65 57 66 71 68 92 69 59 70 43 71 44 72 52 73 45 74 47 75
REMARK SMILES IDX 53 76 46 77 48 78 49 79 50 80 51 81 75 82 76 83 84 84 77 85
REMARK SMILES IDX 79 86 85 87 78 88 80 89 81 90 82 91 83 92 60 93 61 94 69 95
REMARK SMILES IDX 62 96 64 97 70 98 63 99 65 100 66 101 67 102 68 103
REMARK H PARENT 18 31 90 56 58 67
REMARK Flexibility Score: inf
ROOT
ATOM      1  C   UNL A   1      36.353  30.642  29.631  1.00  0.00     0.188 C 
ENDROOT
BRANCH   1   2
ATOM      2  O   UNL A   1      35.205  30.122  28.985  1.00  0.00    -0.376 OA
BRANCH   2   3
ATOM      3  C   UNL A   1      35.450  29.738  27.622  1.00  0.00     0.202 C 
BRANCH   3   4
ATOM      4  C   UNL A   1      34.245  29.563  26.620  1.00  0.00     0.261 C 
BRANCH   4   5
ATOM      5  O   UNL A   1      32.862  29.687  27.142  1.00  0.00    -0.460 OA
BRANCH   5   6
ATOM      6  C   UNL A   1      31.965  28.630  27.033  1.00  0.00     0.342 C 
ATOM      7  O   UNL A   1      31.674  27.977  28.032  1.00  0.00    -0.246 OA
BRANCH   6   8
ATOM      8  C   UNL A   1      31.390  28.104  25.599  1.00  0.00     0.103 A 
ATOM      9  C   UNL A   1      30.841  26.429  23.710  1.00  0.00     0.064 A 
ATOM     10  C   UNL A   1      30.464  27.492  22.920  1.00  0.00     0.032 A 
ATOM     11  C   UNL A   1      31.208  26.770  25.046  1.00  0.00     0.048 A 
ATOM     12  C   UNL A   1      30.543  28.807  23.415  1.00  0.00     0.049 A 
ATOM     13  C   UNL A   1      31.030  29.104  24.704  1.00  0.00     0.130 A 
BRANCH   9  14
ATOM     14  N   UNL A   1      30.573  25.093  23.327  1.00  0.00    -0.256 NA
ATOM     15  C   UNL A   1      31.155  23.956  23.620  1.00  0.00     0.121 C 
BRANCH  15  16
ATOM     16  C   UNL A   1      32.240  23.616  24.548  1.00  0.00     0.014 A 
ATOM     17  N   UNL A   1      34.335  23.370  25.377  1.00  0.00    -0.318 N 
ATOM     18  C   UNL A   1      33.477  22.887  26.347  1.00  0.00     0.021 A 
ATOM     19  C   UNL A   1      33.561  23.988  24.415  1.00  0.00     0.029 A 
ATOM     20  C   UNL A   1      33.986  22.356  27.641  1.00  0.00     0.065 C 
ATOM     21  C   UNL A   1      32.179  23.068  25.873  1.00  0.00     0.033 A 
ATOM     22  C   UNL A   1      34.147  24.788  23.347  1.00  0.00     0.065 C 
BRANCH  17  23
ATOM     23  C   UNL A   1      35.704  23.038  25.167  1.00  0.00     0.046 A 
ATOM     24  C   UNL A   1      38.952  24.146  26.807  1.00  0.00     0.044 C 
ATOM     25  C   UNL A   1      37.937  23.338  26.059  1.00  0.00    -0.049 A 
ATOM     26  C   UNL A   1      38.243  22.020  25.690  1.00  0.00     0.003 A 
ATOM     27  C   UNL A   1      36.660  23.851  25.787  1.00  0.00     0.030 A 
ATOM     28  C   UNL A   1      37.315  21.243  24.999  1.00  0.00     0.002 A 
ATOM     29  C   UNL A   1      36.052  21.758  24.716  1.00  0.00     0.026 A 
ENDBRANCH  17  23
ENDBRANCH  15  16
ENDBRANCH   9  14
BRANCH  13  30
ATOM     30  O   UNL A   1      31.100  30.436  25.022  1.00  0.00    -0.507 OA
ATOM     31  H   UNL A   1      30.415  30.835  25.522  1.00  0.00     0.293 HD
ENDBRANCH  13  30
ENDBRANCH   6   8
ENDBRANCH   5   6
ENDBRANCH   4   5
ENDBRANCH   3   4
ENDBRANCH   2   3
ENDBRANCH   1   2
BRANCH   1  32
ATOM     32  C   UNL A   1      36.402  30.006  31.016  1.00  0.00     0.188 C 
BRANCH  32  33
ATOM     33  O   UNL A   1      37.636  30.141  31.724  1.00  0.00    -0.376 OA
BRANCH  33  34
ATOM     34  C   UNL A   1      38.566  31.079  31.192  1.00  0.00     0.202 C 
BRANCH  34  35
ATOM     35  C   UNL A   1      38.974  32.319  32.054  1.00  0.00     0.261 C 
BRANCH  35  36
ATOM     36  O   UNL A   1      40.291  32.210  32.634  1.00  0.00    -0.460 OA
BRANCH  36  37
ATOM     37  C   UNL A   1      40.466  31.567  33.844  1.00  0.00     0.338 C 
ATOM     38  O   UNL A   1      40.128  31.984  34.911  1.00  0.00    -0.246 OA
BRANCH  37  39
ATOM     39  C   UNL A   1      41.333  30.361  33.544  1.00  0.00     0.060 A 
ATOM     40  C   UNL A   1      42.669  30.412  33.166  1.00  0.00     0.016 A 
ATOM     41  C   UNL A   1      40.721  29.159  33.366  1.00  0.00     0.016 A 
ATOM     42  C   UNL A   1      43.242  29.403  32.308  1.00  0.00     0.010 A 
ATOM     43  C   UNL A   1      41.233  28.296  32.383  1.00  0.00     0.010 A 
ATOM     44  C   UNL A   1      42.457  28.421  31.686  1.00  0.00    -0.014 A 
BRANCH  44  45
ATOM     45  C   UNL A   1      42.780  27.826  30.227  1.00  0.00     0.031 A 
ATOM     46  C   UNL A   1      43.087  26.370  29.621  1.00  0.00     0.074 A 
ATOM     47  C   UNL A   1      42.539  28.723  29.232  1.00  0.00     0.049 A 
ATOM     48  N   UNL A   1      42.768  25.997  28.403  1.00  0.00    -0.248 NA
ATOM     49  C   UNL A   1      43.705  25.196  30.234  1.00  0.00     0.031 C 
ATOM     50  C   UNL A   1      42.387  28.517  27.787  1.00  0.00     0.029 A 
ATOM     51  N   UNL A   1      42.377  30.090  29.302  1.00  0.00    -0.354 N 
ATOM     52  C   UNL A   1      43.060  24.662  28.177  1.00  0.00     0.074 A 
ATOM     53  C   UNL A   1      43.590  24.170  29.392  1.00  0.00     0.031 C 
ATOM     54  C   UNL A   1      42.381  29.690  27.145  1.00  0.00     0.029 A 
ATOM     55  C   UNL A   1      42.782  30.677  28.105  1.00  0.00     0.049 A 
ATOM     56  H   UNL A   1      42.028  30.578  30.082  1.00  0.00     0.167 HD
ATOM     57  C   UNL A   1      43.035  24.084  26.949  1.00  0.00     0.034 A 
ATOM     58  C   UNL A   1      43.982  31.335  28.060  1.00  0.00     0.034 A 
ATOM     59  C   UNL A   1      43.415  25.091  25.962  1.00  0.00     0.049 A 
ATOM     60  C   UNL A   1      45.079  30.497  27.369  1.00  0.00     0.074 A 
ATOM     61  C   UNL A   1      42.792  25.959  25.094  1.00  0.00     0.029 A 
ATOM     62  N   UNL A   1      44.730  25.519  26.042  1.00  0.00    -0.354 N 
ATOM     63  N   UNL A   1      44.868  29.484  26.554  1.00  0.00    -0.248 NA
ATOM     64  C   UNL A   1      46.509  30.691  27.608  1.00  0.00     0.031 C 
ATOM     65  C   UNL A   1      43.716  27.038  24.843  1.00  0.00     0.029 A 
ATOM     66  C   UNL A   1      44.904  26.790  25.522  1.00  0.00     0.049 A 
ATOM     67  H   UNL A   1      45.460  24.981  26.426  1.00  0.00     0.167 HD
ATOM     68  C   UNL A   1      46.036  28.776  26.386  1.00  0.00     0.074 A 
ATOM     69  C   UNL A   1      47.046  29.617  27.007  1.00  0.00     0.031 C 
ATOM     70  C   UNL A   1      46.140  27.516  25.847  1.00  0.00     0.034 A 
BRANCH  57  71
ATOM     71  C   UNL A   1      42.861  22.595  26.661  1.00  0.00     0.023 A 
ATOM     72  C   UNL A   1      41.841  21.920  27.369  1.00  0.00     0.012 A 
ATOM     73  C   UNL A   1      43.725  21.770  25.882  1.00  0.00     0.148 A 
ATOM     74  C   UNL A   1      41.687  20.526  27.326  1.00  0.00     0.002 A 
ATOM     75  C   UNL A   1      43.539  20.381  25.799  1.00  0.00     0.091 A 
ATOM     76  F   UNL A   1      44.789  22.309  25.276  1.00  0.00    -0.205 F 
ATOM     77  C   UNL A   1      42.529  19.757  26.536  1.00  0.00     0.022 A 
BRANCH  75  78
ATOM     78  S   UNL A   1      44.573  19.292  24.793  1.00  0.00     0.127 S 
ATOM     79  O   UNL A   1      43.911  17.998  24.961  1.00  0.00    -0.237 OA
ATOM     80  O   UNL A   1      44.433  19.870  23.455  1.00  0.00    -0.237 OA
ATOM     81  O   UNL A   1      45.918  19.378  25.347  1.00  0.00    -0.744 OA
ENDBRANCH  75  78
ENDBRANCH  57  71
BRANCH  58  82
ATOM     82  C   UNL A   1      44.073  32.284  29.226  1.00  0.00     0.023 A 
ATOM     83  C   UNL A   1      44.837  31.798  30.329  1.00  0.00     0.012 A 
ATOM     84  C   UNL A   1      43.807  33.661  29.178  1.00  0.00     0.148 A 
ATOM     85  C   UNL A   1      45.458  32.658  31.233  1.00  0.00     0.002 A 
ATOM     86  C   UNL A   1      44.374  34.514  30.134  1.00  0.00     0.091 A 
ATOM     87  F   UNL A   1      43.103  34.160  28.156  1.00  0.00    -0.205 F 
ATOM     88  C   UNL A   1      45.233  34.021  31.130  1.00  0.00     0.022 A 
BRANCH  86  89
ATOM     89  S   UNL A   1      44.171  36.303  30.016  1.00  0.00     0.127 S 
ATOM     90  O   UNL A   1      45.188  36.643  29.026  1.00  0.00    -0.237 OA
ATOM     91  O   UNL A   1      42.791  36.443  29.555  1.00  0.00    -0.237 OA
ATOM     92  O   UNL A   1      44.400  36.785  31.371  1.00  0.00    -0.744 OA
ENDBRANCH  86  89
ENDBRANCH  58  82
BRANCH  70  93
ATOM     93  C   UNL A   1      47.511  26.886  25.606  1.00  0.00     0.023 A 
ATOM     94  C   UNL A   1      48.116  26.139  26.639  1.00  0.00     0.012 A 
ATOM     95  C   UNL A   1      48.299  27.124  24.455  1.00  0.00     0.148 A 
ATOM     96  C   UNL A   1      49.413  25.627  26.523  1.00  0.00     0.002 A 
ATOM     97  C   UNL A   1      49.636  26.735  24.403  1.00  0.00     0.091 A 
ATOM     98  F   UNL A   1      47.740  27.667  23.367  1.00  0.00    -0.205 F 
ATOM     99  C   UNL A   1      50.188  25.955  25.420  1.00  0.00     0.022 A 
BRANCH  97 100
ATOM    100  S   UNL A   1      50.758  27.353  23.137  1.00  0.00     0.127 S 
ATOM    101  O   UNL A   1      50.728  28.796  23.392  1.00  0.00    -0.237 OA
ATOM    102  O   UNL A   1      52.009  26.692  23.494  1.00  0.00    -0.237 OA
ATOM    103  O   UNL A   1      50.163  26.954  21.869  1.00  0.00    -0.744 OA
ENDBRANCH  97 100
ENDBRANCH  70  93
ENDBRANCH  44  45
ENDBRANCH  37  39
ENDBRANCH  36  37
ENDBRANCH  35  36
ENDBRANCH  34  35
ENDBRANCH  33  34
ENDBRANCH  32  33
ENDBRANCH   1  32
TORSDOF 24
ENDMDL
