MODEL 1
REMARK VINA RESULT:      -9.7      0.000      0.000
REMARK SMILES Cc1csc(NC(=O)[C@@H]2CC=CC[C@H]2C(=O)OCCOCCOCCOC(=O)c2ccc(-c3c4nc(c(-c5cccc(S(=O)(=O)[O-])c5F)c5ccc([nH]5)c(-c5cccc(S(=O)(=O)[O-])c5F)c5nc(c(-c6cccc(S(=O)(=O)[O-])c6F)c6ccc3[nH]6)C=C5)C=C4)cc2)n1
REMARK SMILES IDX 22 1 21 2 20 3 19 4 18 5 17 6 15 7 16 8 14 9 9 10 10 11
REMARK SMILES IDX 11 12 13 13 12 14 7 15 6 16 8 18 5 19 1 20 2 21 3 22 92 23
REMARK SMILES IDX 4 24 23 25 24 26 25 27 26 28 27 29 28 30 29 31 30 32 91 33
REMARK SMILES IDX 31 34 90 35 32 36 33 37 34 38 84 39 35 40 89 41 83 42 85 43
REMARK SMILES IDX 36 44 88 45 82 46 81 47 37 49 69 50 49 51 68 52 50 53 53 54
REMARK SMILES IDX 67 55 86 56 51 57 52 58 66 60 87 61 54 62 38 63 39 64 47 65
REMARK SMILES IDX 40 66 42 67 48 68 41 69 43 70 44 71 45 72 46 73 70 74 71 75
REMARK SMILES IDX 79 76 72 77 74 78 80 79 73 80 75 81 76 82 77 83 78 84 55 85
REMARK SMILES IDX 56 86 64 87 57 88 59 89 65 90 58 91 60 92 61 93 62 94 63 95
REMARK H PARENT 6 17 85 48 53 59
REMARK Flexibility Score: inf
ROOT
ATOM      1  C   UNL A   1      36.445  21.823  24.743  1.00  0.00     0.188 C 
ENDROOT
BRANCH   1   2
ATOM      2  C   UNL A   1      35.979  21.656  26.202  1.00  0.00     0.188 C 
BRANCH   2   3
ATOM      3  O   UNL A   1      34.630  22.008  26.498  1.00  0.00    -0.376 OA
BRANCH   3   4
ATOM      4  C   UNL A   1      34.380  23.310  27.004  1.00  0.00     0.202 C 
BRANCH   4   5
ATOM      5  C   UNL A   1      33.546  24.229  26.115  1.00  0.00     0.261 C 
BRANCH   5   6
ATOM      6  O   UNL A   1      33.528  23.837  24.728  1.00  0.00    -0.463 OA
BRANCH   6   7
ATOM      7  C   UNL A   1      32.298  23.526  24.226  1.00  0.00     0.310 C 
ATOM      8  O   UNL A   1      31.681  22.501  24.488  1.00  0.00    -0.252 OA
BRANCH   7   9
ATOM      9  C   UNL A   1      31.880  24.456  23.097  1.00  0.00     0.116 C 
ATOM     10  C   UNL A   1      31.746  25.975  23.413  1.00  0.00     0.097 C 
ATOM     11  C   UNL A   1      31.520  26.740  22.104  1.00  0.00     0.041 C 
ATOM     12  C   UNL A   1      32.196  26.239  20.869  1.00  0.00    -0.030 C 
ATOM     13  C   UNL A   1      32.882  24.139  21.970  1.00  0.00     0.043 C 
ATOM     14  C   UNL A   1      32.817  25.061  20.804  1.00  0.00    -0.030 C 
BRANCH  10  15
ATOM     15  C   UNL A   1      30.652  26.197  24.485  1.00  0.00     0.230 C 
ATOM     16  N   UNL A   1      30.766  26.870  25.660  1.00  0.00    -0.302 N 
ATOM     17  H   UNL A   1      30.320  26.445  26.429  1.00  0.00     0.172 HD
ATOM     18  O   UNL A   1      29.582  25.579  24.370  1.00  0.00    -0.274 OA
BRANCH  16  19
ATOM     19  C   UNL A   1      31.401  28.043  25.937  1.00  0.00     0.189 A 
ATOM     20  C   UNL A   1      31.447  31.603  26.125  1.00  0.00     0.068 C 
ATOM     21  C   UNL A   1      31.790  30.175  26.332  1.00  0.00     0.051 A 
ATOM     22  C   UNL A   1      32.646  29.624  27.265  1.00  0.00     0.092 A 
ATOM     23  N   UNL A   1      31.139  29.251  25.542  1.00  0.00    -0.225 NA
ATOM     24  S   UNL A   1      32.614  27.908  27.137  1.00  0.00    -0.105 S 
ENDBRANCH  16  19
ENDBRANCH  10  15
ENDBRANCH   7   9
ENDBRANCH   6   7
ENDBRANCH   5   6
ENDBRANCH   4   5
ENDBRANCH   3   4
ENDBRANCH   2   3
ENDBRANCH   1   2
BRANCH   1  25
ATOM     25  O   UNL A   1      37.401  20.892  24.241  1.00  0.00    -0.376 OA
BRANCH  25  26
ATOM     26  C   UNL A   1      37.475  19.623  24.883  1.00  0.00     0.202 C 
BRANCH  26  27
ATOM     27  C   UNL A   1      38.869  19.251  25.383  1.00  0.00     0.261 C 
BRANCH  27  28
ATOM     28  O   UNL A   1      39.672  20.423  25.623  1.00  0.00    -0.460 OA
BRANCH  28  29
ATOM     29  C   UNL A   1      40.400  20.410  26.763  1.00  0.00     0.338 C 
ATOM     30  O   UNL A   1      40.954  19.452  27.275  1.00  0.00    -0.246 OA
BRANCH  29  31
ATOM     31  C   UNL A   1      40.593  21.785  27.258  1.00  0.00     0.060 A 
ATOM     32  C   UNL A   1      39.905  22.803  26.593  1.00  0.00     0.016 A 
ATOM     33  C   UNL A   1      41.505  22.092  28.265  1.00  0.00     0.016 A 
ATOM     34  C   UNL A   1      40.169  24.139  26.874  1.00  0.00     0.010 A 
ATOM     35  C   UNL A   1      41.768  23.437  28.554  1.00  0.00     0.010 A 
ATOM     36  C   UNL A   1      41.136  24.465  27.829  1.00  0.00    -0.014 A 
BRANCH  36  37
ATOM     37  C   UNL A   1      41.585  25.872  27.968  1.00  0.00     0.031 A 
ATOM     38  C   UNL A   1      42.934  26.261  27.428  1.00  0.00     0.074 A 
ATOM     39  C   UNL A   1      40.796  26.795  28.547  1.00  0.00     0.049 A 
ATOM     40  N   UNL A   1      43.573  27.396  27.534  1.00  0.00    -0.248 NA
ATOM     41  C   UNL A   1      43.658  25.231  26.665  1.00  0.00     0.031 C 
ATOM     42  C   UNL A   1      39.449  26.555  29.060  1.00  0.00     0.029 A 
ATOM     43  N   UNL A   1      41.030  28.120  28.819  1.00  0.00    -0.354 N 
ATOM     44  C   UNL A   1      44.796  27.201  26.904  1.00  0.00     0.074 A 
ATOM     45  C   UNL A   1      44.806  25.842  26.407  1.00  0.00     0.031 C 
ATOM     46  C   UNL A   1      38.981  27.691  29.606  1.00  0.00     0.029 A 
ATOM     47  C   UNL A   1      40.013  28.722  29.521  1.00  0.00     0.049 A 
ATOM     48  H   UNL A   1      41.846  28.593  28.538  1.00  0.00     0.167 HD
ATOM     49  C   UNL A   1      45.817  28.076  26.747  1.00  0.00     0.034 A 
ATOM     50  C   UNL A   1      39.937  29.955  30.060  1.00  0.00     0.034 A 
ATOM     51  C   UNL A   1      45.787  29.438  27.203  1.00  0.00     0.049 A 
ATOM     52  C   UNL A   1      41.098  30.902  29.896  1.00  0.00     0.074 A 
ATOM     53  C   UNL A   1      46.762  30.412  27.071  1.00  0.00     0.029 A 
ATOM     54  N   UNL A   1      44.728  30.021  27.881  1.00  0.00    -0.354 N 
ATOM     55  N   UNL A   1      42.221  30.727  29.244  1.00  0.00    -0.248 NA
ATOM     56  C   UNL A   1      40.971  32.224  30.527  1.00  0.00     0.031 C 
ATOM     57  C   UNL A   1      46.296  31.581  27.683  1.00  0.00     0.029 A 
ATOM     58  C   UNL A   1      45.024  31.340  28.180  1.00  0.00     0.049 A 
ATOM     59  H   UNL A   1      43.888  29.565  28.115  1.00  0.00     0.167 HD
ATOM     60  C   UNL A   1      42.923  31.922  29.361  1.00  0.00     0.074 A 
ATOM     61  C   UNL A   1      42.086  32.822  30.128  1.00  0.00     0.031 C 
ATOM     62  C   UNL A   1      44.155  32.240  28.894  1.00  0.00     0.034 A 
BRANCH  49  63
ATOM     63  C   UNL A   1      47.052  27.584  26.041  1.00  0.00     0.023 A 
ATOM     64  C   UNL A   1      47.227  27.851  24.668  1.00  0.00     0.012 A 
ATOM     65  C   UNL A   1      48.053  26.886  26.744  1.00  0.00     0.148 A 
ATOM     66  C   UNL A   1      48.366  27.404  23.999  1.00  0.00     0.002 A 
ATOM     67  C   UNL A   1      49.203  26.477  26.079  1.00  0.00     0.091 A 
ATOM     68  F   UNL A   1      47.854  26.618  28.043  1.00  0.00    -0.205 F 
ATOM     69  C   UNL A   1      49.357  26.727  24.706  1.00  0.00     0.022 A 
BRANCH  67  70
ATOM     70  S   UNL A   1      50.561  25.657  26.920  1.00  0.00     0.127 S 
ATOM     71  O   UNL A   1      51.500  25.437  25.821  1.00  0.00    -0.237 OA
ATOM     72  O   UNL A   1      50.985  26.671  27.888  1.00  0.00    -0.237 OA
ATOM     73  O   UNL A   1      49.995  24.454  27.515  1.00  0.00    -0.744 OA
ENDBRANCH  67  70
ENDBRANCH  49  63
BRANCH  50  74
ATOM     74  C   UNL A   1      38.707  30.372  30.794  1.00  0.00     0.023 A 
ATOM     75  C   UNL A   1      38.579  30.059  32.161  1.00  0.00     0.012 A 
ATOM     76  C   UNL A   1      37.679  31.091  30.155  1.00  0.00     0.148 A 
ATOM     77  C   UNL A   1      37.439  30.436  32.873  1.00  0.00     0.002 A 
ATOM     78  C   UNL A   1      36.571  31.509  30.881  1.00  0.00     0.091 A 
ATOM     79  F   UNL A   1      37.807  31.356  28.846  1.00  0.00    -0.205 F 
ATOM     80  C   UNL A   1      36.441  31.170  32.237  1.00  0.00     0.022 A 
BRANCH  78  81
ATOM     81  S   UNL A   1      35.295  32.558  30.173  1.00  0.00     0.127 S 
ATOM     82  O   UNL A   1      34.392  32.736  31.307  1.00  0.00    -0.237 OA
ATOM     83  O   UNL A   1      36.055  33.751  29.798  1.00  0.00    -0.237 OA
ATOM     84  O   UNL A   1      34.757  31.810  29.045  1.00  0.00    -0.744 OA
ENDBRANCH  78  81
ENDBRANCH  50  74
BRANCH  62  85
ATOM     85  C   UNL A   1      44.672  33.628  29.169  1.00  0.00     0.023 A 
ATOM     86  C   UNL A   1      45.536  33.847  30.259  1.00  0.00     0.012 A 
ATOM     87  C   UNL A   1      44.371  34.695  28.299  1.00  0.00     0.148 A 
ATOM     88  C   UNL A   1      46.074  35.112  30.494  1.00  0.00     0.002 A 
ATOM     89  C   UNL A   1      44.947  35.943  28.514  1.00  0.00     0.091 A 
ATOM     90  F   UNL A   1      43.531  34.472  27.278  1.00  0.00    -0.205 F 
ATOM     91  C   UNL A   1      45.790  36.155  29.616  1.00  0.00     0.022 A 
BRANCH  89  92
ATOM     92  S   UNL A   1      44.710  37.316  27.379  1.00  0.00     0.127 S 
ATOM     93  O   UNL A   1      45.488  38.373  28.022  1.00  0.00    -0.237 OA
ATOM     94  O   UNL A   1      45.290  36.800  26.138  1.00  0.00    -0.237 OA
ATOM     95  O   UNL A   1      43.271  37.541  27.321  1.00  0.00    -0.744 OA
ENDBRANCH  89  92
ENDBRANCH  62  85
ENDBRANCH  36  37
ENDBRANCH  29  31
ENDBRANCH  28  29
ENDBRANCH  27  28
ENDBRANCH  26  27
ENDBRANCH  25  26
ENDBRANCH   1  25
TORSDOF 22
ENDMDL
MODEL 2
REMARK VINA RESULT:      -9.6      6.242     11.703
REMARK SMILES Cc1csc(NC(=O)[C@@H]2CC=CC[C@H]2C(=O)OCCOCCOCCOC(=O)c2ccc(-c3c4nc(c(-c5cccc(S(=O)(=O)[O-])c5F)c5ccc([nH]5)c(-c5cccc(S(=O)(=O)[O-])c5F)c5nc(c(-c6cccc(S(=O)(=O)[O-])c6F)c6ccc3[nH]6)C=C5)C=C4)cc2)n1
REMARK SMILES IDX 22 1 21 2 20 3 19 4 18 5 17 6 15 7 16 8 14 9 9 10 10 11
REMARK SMILES IDX 11 12 13 13 12 14 7 15 6 16 8 18 5 19 1 20 2 21 3 22 92 23
REMARK SMILES IDX 4 24 23 25 24 26 25 27 26 28 27 29 28 30 29 31 30 32 91 33
REMARK SMILES IDX 31 34 90 35 32 36 33 37 34 38 84 39 35 40 89 41 83 42 85 43
REMARK SMILES IDX 36 44 88 45 82 46 81 47 37 49 69 50 49 51 68 52 50 53 53 54
REMARK SMILES IDX 67 55 86 56 51 57 52 58 66 60 87 61 54 62 38 63 39 64 47 65
REMARK SMILES IDX 40 66 42 67 48 68 41 69 43 70 44 71 45 72 46 73 70 74 71 75
REMARK SMILES IDX 79 76 72 77 74 78 80 79 73 80 75 81 76 82 77 83 78 84 55 85
REMARK SMILES IDX 56 86 64 87 57 88 59 89 65 90 58 91 60 92 61 93 62 94 63 95
REMARK H PARENT 6 17 85 48 53 59
REMARK Flexibility Score: inf
ROOT
ATOM      1  C   UNL A   1      33.619  33.086  27.933  1.00  0.00     0.188 C 
ENDROOT
BRANCH   1   2
ATOM      2  C   UNL A   1      34.310  31.715  27.815  1.00  0.00     0.188 C 
BRANCH   2   3
ATOM      3  O   UNL A   1      33.545  30.645  27.265  1.00  0.00    -0.376 OA
BRANCH   3   4
ATOM      4  C   UNL A   1      34.184  29.389  27.100  1.00  0.00     0.202 C 
BRANCH   4   5
ATOM      5  C   UNL A   1      33.309  28.252  26.579  1.00  0.00     0.261 C 
BRANCH   5   6
ATOM      6  O   UNL A   1      33.854  27.578  25.427  1.00  0.00    -0.463 OA
BRANCH   6   7
ATOM      7  C   UNL A   1      33.362  27.990  24.224  1.00  0.00     0.310 C 
ATOM      8  O   UNL A   1      33.603  29.077  23.712  1.00  0.00    -0.252 OA
BRANCH   7   9
ATOM      9  C   UNL A   1      32.267  27.073  23.700  1.00  0.00     0.116 C 
ATOM     10  C   UNL A   1      32.459  25.537  23.865  1.00  0.00     0.097 C 
ATOM     11  C   UNL A   1      31.163  24.824  23.461  1.00  0.00     0.041 C 
ATOM     12  C   UNL A   1      29.864  25.502  23.755  1.00  0.00    -0.030 C 
ATOM     13  C   UNL A   1      30.985  27.617  24.359  1.00  0.00     0.043 C 
ATOM     14  C   UNL A   1      29.778  26.768  24.165  1.00  0.00    -0.030 C 
BRANCH  10  15
ATOM     15  C   UNL A   1      33.717  25.075  23.091  1.00  0.00     0.230 C 
ATOM     16  N   UNL A   1      34.692  24.231  23.519  1.00  0.00    -0.302 N 
ATOM     17  H   UNL A   1      35.609  24.497  23.278  1.00  0.00     0.172 HD
ATOM     18  O   UNL A   1      33.981  25.632  22.014  1.00  0.00    -0.274 OA
BRANCH  16  19
ATOM     19  C   UNL A   1      34.596  23.074  24.230  1.00  0.00     0.189 A 
ATOM     20  C   UNL A   1      33.486  19.703  24.579  1.00  0.00     0.068 C 
ATOM     21  C   UNL A   1      34.233  20.970  24.774  1.00  0.00     0.051 A 
ATOM     22  C   UNL A   1      35.393  21.180  25.493  1.00  0.00     0.092 A 
ATOM     23  N   UNL A   1      33.763  22.085  24.113  1.00  0.00    -0.225 NA
ATOM     24  S   UNL A   1      35.892  22.818  25.319  1.00  0.00    -0.105 S 
ENDBRANCH  16  19
ENDBRANCH  10  15
ENDBRANCH   7   9
ENDBRANCH   6   7
ENDBRANCH   5   6
ENDBRANCH   4   5
ENDBRANCH   3   4
ENDBRANCH   2   3
ENDBRANCH   1   2
BRANCH   1  25
ATOM     25  O   UNL A   1      34.398  34.248  27.657  1.00  0.00    -0.376 OA
BRANCH  25  26
ATOM     26  C   UNL A   1      34.352  35.304  28.611  1.00  0.00     0.202 C 
BRANCH  26  27
ATOM     27  C   UNL A   1      32.944  35.669  29.078  1.00  0.00     0.261 C 
BRANCH  27  28
ATOM     28  O   UNL A   1      32.610  35.003  30.310  1.00  0.00    -0.460 OA
BRANCH  28  29
ATOM     29  C   UNL A   1      32.852  35.708  31.440  1.00  0.00     0.338 C 
ATOM     30  O   UNL A   1      32.244  36.682  31.848  1.00  0.00    -0.246 OA
BRANCH  29  31
ATOM     31  C   UNL A   1      33.887  35.035  32.246  1.00  0.00     0.060 A 
ATOM     32  C   UNL A   1      35.177  35.571  32.200  1.00  0.00     0.016 A 
ATOM     33  C   UNL A   1      33.640  33.850  32.936  1.00  0.00     0.016 A 
ATOM     34  C   UNL A   1      36.246  34.896  32.780  1.00  0.00     0.010 A 
ATOM     35  C   UNL A   1      34.714  33.173  33.525  1.00  0.00     0.010 A 
ATOM     36  C   UNL A   1      36.027  33.669  33.412  1.00  0.00    -0.014 A 
BRANCH  36  37
ATOM     37  C   UNL A   1      37.185  32.840  33.826  1.00  0.00     0.031 A 
ATOM     38  C   UNL A   1      37.900  33.178  35.105  1.00  0.00     0.074 A 
ATOM     39  C   UNL A   1      37.583  31.790  33.086  1.00  0.00     0.049 A 
ATOM     40  N   UNL A   1      38.994  32.665  35.603  1.00  0.00    -0.248 NA
ATOM     41  C   UNL A   1      37.299  34.235  35.935  1.00  0.00     0.031 C 
ATOM     42  C   UNL A   1      36.940  31.329  31.857  1.00  0.00     0.029 A 
ATOM     43  N   UNL A   1      38.642  30.933  33.254  1.00  0.00    -0.354 N 
ATOM     44  C   UNL A   1      39.246  33.374  36.772  1.00  0.00     0.074 A 
ATOM     45  C   UNL A   1      38.183  34.346  36.917  1.00  0.00     0.031 C 
ATOM     46  C   UNL A   1      37.631  30.285  31.368  1.00  0.00     0.029 A 
ATOM     47  C   UNL A   1      38.788  30.034  32.225  1.00  0.00     0.049 A 
ATOM     48  H   UNL A   1      39.239  30.959  34.037  1.00  0.00     0.167 HD
ATOM     49  C   UNL A   1      40.266  33.226  37.650  1.00  0.00     0.034 A 
ATOM     50  C   UNL A   1      39.762  29.135  31.984  1.00  0.00     0.034 A 
ATOM     51  C   UNL A   1      41.295  32.231  37.527  1.00  0.00     0.049 A 
ATOM     52  C   UNL A   1      40.902  29.007  32.962  1.00  0.00     0.074 A 
ATOM     53  C   UNL A   1      42.359  31.984  38.377  1.00  0.00     0.029 A 
ATOM     54  N   UNL A   1      41.392  31.319  36.488  1.00  0.00    -0.354 N 
ATOM     55  N   UNL A   1      41.094  29.639  34.095  1.00  0.00    -0.248 NA
ATOM     56  C   UNL A   1      41.950  28.028  32.638  1.00  0.00     0.031 C 
ATOM     57  C   UNL A   1      43.107  30.929  37.844  1.00  0.00     0.029 A 
ATOM     58  C   UNL A   1      42.500  30.508  36.671  1.00  0.00     0.049 A 
ATOM     59  H   UNL A   1      40.765  31.255  35.732  1.00  0.00     0.167 HD
ATOM     60  C   UNL A   1      42.267  29.117  34.631  1.00  0.00     0.074 A 
ATOM     61  C   UNL A   1      42.729  28.099  33.709  1.00  0.00     0.031 C 
ATOM     62  C   UNL A   1      42.913  29.461  35.772  1.00  0.00     0.034 A 
BRANCH  49  63
ATOM     63  C   UNL A   1      40.309  34.159  38.829  1.00  0.00     0.023 A 
ATOM     64  C   UNL A   1      41.197  35.254  38.824  1.00  0.00     0.012 A 
ATOM     65  C   UNL A   1      39.447  33.971  39.928  1.00  0.00     0.148 A 
ATOM     66  C   UNL A   1      41.248  36.130  39.908  1.00  0.00     0.002 A 
ATOM     67  C   UNL A   1      39.476  34.871  40.987  1.00  0.00     0.091 A 
ATOM     68  F   UNL A   1      38.630  32.909  39.926  1.00  0.00    -0.205 F 
ATOM     69  C   UNL A   1      40.382  35.945  40.984  1.00  0.00     0.022 A 
BRANCH  67  70
ATOM     70  S   UNL A   1      38.354  34.751  42.384  1.00  0.00     0.127 S 
ATOM     71  O   UNL A   1      38.787  33.500  43.004  1.00  0.00    -0.237 OA
ATOM     72  O   UNL A   1      38.683  35.955  43.150  1.00  0.00    -0.237 OA
ATOM     73  O   UNL A   1      37.013  34.742  41.819  1.00  0.00    -0.744 OA
ENDBRANCH  67  70
ENDBRANCH  49  63
BRANCH  50  74
ATOM     74  C   UNL A   1      39.695  28.269  30.772  1.00  0.00     0.023 A 
ATOM     75  C   UNL A   1      38.911  27.099  30.801  1.00  0.00     0.012 A 
ATOM     76  C   UNL A   1      40.382  28.606  29.590  1.00  0.00     0.148 A 
ATOM     77  C   UNL A   1      38.831  26.269  29.682  1.00  0.00     0.002 A 
ATOM     78  C   UNL A   1      40.256  27.804  28.463  1.00  0.00     0.091 A 
ATOM     79  F   UNL A   1      41.145  29.710  29.590  1.00  0.00    -0.205 F 
ATOM     80  C   UNL A   1      39.493  26.627  28.510  1.00  0.00     0.022 A 
BRANCH  78  81
ATOM     81  S   UNL A   1      40.977  28.249  26.878  1.00  0.00     0.127 S 
ATOM     82  O   UNL A   1      40.898  26.987  26.148  1.00  0.00    -0.237 OA
ATOM     83  O   UNL A   1      40.063  29.290  26.409  1.00  0.00    -0.237 OA
ATOM     84  O   UNL A   1      42.321  28.723  27.181  1.00  0.00    -0.744 OA
ENDBRANCH  78  81
ENDBRANCH  50  74
BRANCH  62  85
ATOM     85  C   UNL A   1      44.177  28.715  36.113  1.00  0.00     0.023 A 
ATOM     86  C   UNL A   1      45.424  29.247  35.731  1.00  0.00     0.012 A 
ATOM     87  C   UNL A   1      44.134  27.537  36.885  1.00  0.00     0.148 A 
ATOM     88  C   UNL A   1      46.608  28.605  36.090  1.00  0.00     0.002 A 
ATOM     89  C   UNL A   1      45.320  26.927  37.277  1.00  0.00     0.091 A 
ATOM     90  F   UNL A   1      42.937  27.036  37.222  1.00  0.00    -0.205 F 
ATOM     91  C   UNL A   1      46.557  27.453  36.872  1.00  0.00     0.022 A 
BRANCH  89  92
ATOM     92  S   UNL A   1      45.347  25.495  38.363  1.00  0.00     0.127 S 
ATOM     93  O   UNL A   1      44.611  24.509  37.575  1.00  0.00    -0.237 OA
ATOM     94  O   UNL A   1      46.781  25.227  38.491  1.00  0.00    -0.237 OA
ATOM     95  O   UNL A   1      44.703  25.920  39.599  1.00  0.00    -0.744 OA
ENDBRANCH  89  92
ENDBRANCH  62  85
ENDBRANCH  36  37
ENDBRANCH  29  31
ENDBRANCH  28  29
ENDBRANCH  27  28
ENDBRANCH  26  27
ENDBRANCH  25  26
ENDBRANCH   1  25
TORSDOF 22
ENDMDL
MODEL 3
REMARK VINA RESULT:      -9.6      1.956      2.381
REMARK SMILES Cc1csc(NC(=O)[C@@H]2CC=CC[C@H]2C(=O)OCCOCCOCCOC(=O)c2ccc(-c3c4nc(c(-c5cccc(S(=O)(=O)[O-])c5F)c5ccc([nH]5)c(-c5cccc(S(=O)(=O)[O-])c5F)c5nc(c(-c6cccc(S(=O)(=O)[O-])c6F)c6ccc3[nH]6)C=C5)C=C4)cc2)n1
REMARK SMILES IDX 22 1 21 2 20 3 19 4 18 5 17 6 15 7 16 8 14 9 9 10 10 11
REMARK SMILES IDX 11 12 13 13 12 14 7 15 6 16 8 18 5 19 1 20 2 21 3 22 92 23
REMARK SMILES IDX 4 24 23 25 24 26 25 27 26 28 27 29 28 30 29 31 30 32 91 33
REMARK SMILES IDX 31 34 90 35 32 36 33 37 34 38 84 39 35 40 89 41 83 42 85 43
REMARK SMILES IDX 36 44 88 45 82 46 81 47 37 49 69 50 49 51 68 52 50 53 53 54
REMARK SMILES IDX 67 55 86 56 51 57 52 58 66 60 87 61 54 62 38 63 39 64 47 65
REMARK SMILES IDX 40 66 42 67 48 68 41 69 43 70 44 71 45 72 46 73 70 74 71 75
REMARK SMILES IDX 79 76 72 77 74 78 80 79 73 80 75 81 76 82 77 83 78 84 55 85
REMARK SMILES IDX 56 86 64 87 57 88 59 89 65 90 58 91 60 92 61 93 62 94 63 95
REMARK H PARENT 6 17 85 48 53 59
REMARK Flexibility Score: inf
ROOT
ATOM      1  C   UNL A   1      34.419  22.317  24.889  1.00  0.00     0.188 C 
ENDROOT
BRANCH   1   2
ATOM      2  C   UNL A   1      33.337  21.232  25.044  1.00  0.00     0.188 C 
BRANCH   2   3
ATOM      3  O   UNL A   1      32.323  21.458  26.020  1.00  0.00    -0.376 OA
BRANCH   3   4
ATOM      4  C   UNL A   1      32.488  22.554  26.906  1.00  0.00     0.202 C 
BRANCH   4   5
ATOM      5  C   UNL A   1      31.281  23.474  27.070  1.00  0.00     0.261 C 
BRANCH   5   6
ATOM      6  O   UNL A   1      31.574  24.867  26.837  1.00  0.00    -0.463 OA
BRANCH   6   7
ATOM      7  C   UNL A   1      30.808  25.472  25.885  1.00  0.00     0.310 C 
ATOM      8  O   UNL A   1      29.606  25.682  25.992  1.00  0.00    -0.252 OA
BRANCH   7   9
ATOM      9  C   UNL A   1      31.541  25.622  24.560  1.00  0.00     0.116 C 
ATOM     10  C   UNL A   1      33.028  26.083  24.596  1.00  0.00     0.097 C 
ATOM     11  C   UNL A   1      33.620  25.969  23.186  1.00  0.00     0.041 C 
ATOM     12  C   UNL A   1      33.153  24.850  22.313  1.00  0.00    -0.030 C 
ATOM     13  C   UNL A   1      31.324  24.264  23.864  1.00  0.00     0.043 C 
ATOM     14  C   UNL A   1      32.113  24.073  22.617  1.00  0.00    -0.030 C 
BRANCH  10  15
ATOM     15  C   UNL A   1      33.129  27.493  25.224  1.00  0.00     0.230 C 
ATOM     16  N   UNL A   1      32.728  28.674  24.684  1.00  0.00    -0.302 N 
ATOM     17  H   UNL A   1      33.345  29.428  24.827  1.00  0.00     0.172 HD
ATOM     18  O   UNL A   1      33.781  27.623  26.272  1.00  0.00    -0.274 OA
BRANCH  16  19
ATOM     19  C   UNL A   1      31.605  28.973  23.975  1.00  0.00     0.189 A 
ATOM     20  C   UNL A   1      28.554  30.773  23.567  1.00  0.00     0.068 C 
ATOM     21  C   UNL A   1      29.767  29.968  23.280  1.00  0.00     0.051 A 
ATOM     22  C   UNL A   1      30.318  29.656  22.053  1.00  0.00     0.092 A 
ATOM     23  N   UNL A   1      30.488  29.511  24.362  1.00  0.00    -0.225 NA
ATOM     24  S   UNL A   1      31.778  28.774  22.284  1.00  0.00    -0.105 S 
ENDBRANCH  16  19
ENDBRANCH  10  15
ENDBRANCH   7   9
ENDBRANCH   6   7
ENDBRANCH   5   6
ENDBRANCH   4   5
ENDBRANCH   3   4
ENDBRANCH   2   3
ENDBRANCH   1   2
BRANCH   1  25
ATOM     25  O   UNL A   1      35.723  21.901  24.489  1.00  0.00    -0.376 OA
BRANCH  25  26
ATOM     26  C   UNL A   1      36.070  20.539  24.714  1.00  0.00     0.202 C 
BRANCH  26  27
ATOM     27  C   UNL A   1      37.532  20.317  25.097  1.00  0.00     0.261 C 
BRANCH  27  28
ATOM     28  O   UNL A   1      38.014  21.365  25.958  1.00  0.00    -0.460 OA
BRANCH  28  29
ATOM     29  C   UNL A   1      39.320  21.284  26.304  1.00  0.00     0.338 C 
ATOM     30  O   UNL A   1      40.091  20.370  26.069  1.00  0.00    -0.246 OA
BRANCH  29  31
ATOM     31  C   UNL A   1      39.770  22.561  26.889  1.00  0.00     0.060 A 
ATOM     32  C   UNL A   1      39.092  23.716  26.493  1.00  0.00     0.016 A 
ATOM     33  C   UNL A   1      40.893  22.648  27.710  1.00  0.00     0.016 A 
ATOM     34  C   UNL A   1      39.565  24.974  26.851  1.00  0.00     0.010 A 
ATOM     35  C   UNL A   1      41.367  23.914  28.076  1.00  0.00     0.010 A 
ATOM     36  C   UNL A   1      40.732  25.081  27.612  1.00  0.00    -0.014 A 
BRANCH  36  37
ATOM     37  C   UNL A   1      41.366  26.410  27.800  1.00  0.00     0.031 A 
ATOM     38  C   UNL A   1      42.743  26.644  27.241  1.00  0.00     0.074 A 
ATOM     39  C   UNL A   1      40.718  27.399  28.440  1.00  0.00     0.049 A 
ATOM     40  N   UNL A   1      43.528  27.679  27.380  1.00  0.00    -0.248 NA
ATOM     41  C   UNL A   1      43.309  25.565  26.414  1.00  0.00     0.031 C 
ATOM     42  C   UNL A   1      39.362  27.314  28.978  1.00  0.00     0.029 A 
ATOM     43  N   UNL A   1      41.130  28.668  28.763  1.00  0.00    -0.354 N 
ATOM     44  C   UNL A   1      44.701  27.356  26.709  1.00  0.00     0.074 A 
ATOM     45  C   UNL A   1      44.522  26.033  26.152  1.00  0.00     0.031 C 
ATOM     46  C   UNL A   1      39.059  28.474  29.585  1.00  0.00     0.029 A 
ATOM     47  C   UNL A   1      40.216  29.365  29.518  1.00  0.00     0.049 A 
ATOM     48  H   UNL A   1      41.995  29.043  28.482  1.00  0.00     0.167 HD
ATOM     49  C   UNL A   1      45.825  28.097  26.563  1.00  0.00     0.034 A 
ATOM     50  C   UNL A   1      40.314  30.570  30.113  1.00  0.00     0.034 A 
ATOM     51  C   UNL A   1      45.984  29.428  27.079  1.00  0.00     0.049 A 
ATOM     52  C   UNL A   1      41.586  31.364  29.959  1.00  0.00     0.074 A 
ATOM     53  C   UNL A   1      47.076  30.271  26.964  1.00  0.00     0.029 A 
ATOM     54  N   UNL A   1      45.025  30.112  27.811  1.00  0.00    -0.354 N 
ATOM     55  N   UNL A   1      42.663  31.074  29.270  1.00  0.00    -0.248 NA
ATOM     56  C   UNL A   1      41.648  32.660  30.650  1.00  0.00     0.031 C 
ATOM     57  C   UNL A   1      46.781  31.461  27.638  1.00  0.00     0.029 A 
ATOM     58  C   UNL A   1      45.499  31.365  28.159  1.00  0.00     0.049 A 
ATOM     59  H   UNL A   1      44.138  29.759  28.047  1.00  0.00     0.167 HD
ATOM     60  C   UNL A   1      43.519  32.160  29.421  1.00  0.00     0.074 A 
ATOM     61  C   UNL A   1      42.824  33.125  30.249  1.00  0.00     0.031 C 
ATOM     62  C   UNL A   1      44.772  32.337  28.935  1.00  0.00     0.034 A 
BRANCH  49  63
ATOM     63  C   UNL A   1      46.969  27.482  25.803  1.00  0.00     0.023 A 
ATOM     64  C   UNL A   1      47.807  26.543  26.438  1.00  0.00     0.012 A 
ATOM     65  C   UNL A   1      47.194  27.809  24.451  1.00  0.00     0.148 A 
ATOM     66  C   UNL A   1      48.870  25.961  25.747  1.00  0.00     0.002 A 
ATOM     67  C   UNL A   1      48.232  27.196  23.758  1.00  0.00     0.091 A 
ATOM     68  F   UNL A   1      46.403  28.725  23.874  1.00  0.00    -0.205 F 
ATOM     69  C   UNL A   1      49.076  26.280  24.407  1.00  0.00     0.022 A 
BRANCH  67  70
ATOM     70  S   UNL A   1      48.533  27.495  22.013  1.00  0.00     0.127 S 
ATOM     71  O   UNL A   1      48.743  26.137  21.513  1.00  0.00    -0.237 OA
ATOM     72  O   UNL A   1      47.277  28.114  21.584  1.00  0.00    -0.237 OA
ATOM     73  O   UNL A   1      49.691  28.375  21.953  1.00  0.00    -0.744 OA
ENDBRANCH  67  70
ENDBRANCH  49  63
BRANCH  50  74
ATOM     74  C   UNL A   1      39.166  31.109  30.897  1.00  0.00     0.023 A 
ATOM     75  C   UNL A   1      39.110  30.882  32.286  1.00  0.00     0.012 A 
ATOM     76  C   UNL A   1      38.146  31.860  30.283  1.00  0.00     0.148 A 
ATOM     77  C   UNL A   1      38.047  31.373  33.045  1.00  0.00     0.002 A 
ATOM     78  C   UNL A   1      37.118  32.391  31.052  1.00  0.00     0.091 A 
ATOM     79  F   UNL A   1      38.202  32.043  28.955  1.00  0.00    -0.205 F 
ATOM     80  C   UNL A   1      37.058  32.137  32.431  1.00  0.00     0.022 A 
BRANCH  78  81
ATOM     81  S   UNL A   1      35.867  33.484  30.365  1.00  0.00     0.127 S 
ATOM     82  O   UNL A   1      35.579  34.358  31.499  1.00  0.00    -0.237 OA
ATOM     83  O   UNL A   1      36.590  34.121  29.265  1.00  0.00    -0.237 OA
ATOM     84  O   UNL A   1      34.777  32.613  29.944  1.00  0.00    -0.744 OA
ENDBRANCH  78  81
ENDBRANCH  50  74
BRANCH  62  85
ATOM     85  C   UNL A   1      45.472  33.631  29.256  1.00  0.00     0.023 A 
ATOM     86  C   UNL A   1      46.266  33.725  30.416  1.00  0.00     0.012 A 
ATOM     87  C   UNL A   1      45.415  34.723  28.367  1.00  0.00     0.148 A 
ATOM     88  C   UNL A   1      46.972  34.893  30.700  1.00  0.00     0.002 A 
ATOM     89  C   UNL A   1      46.157  35.868  28.634  1.00  0.00     0.091 A 
ATOM     90  F   UNL A   1      44.638  34.622  27.279  1.00  0.00    -0.205 F 
ATOM     91  C   UNL A   1      46.927  35.959  29.804  1.00  0.00     0.022 A 
BRANCH  89  92
ATOM     92  S   UNL A   1      46.231  37.249  27.487  1.00  0.00     0.127 S 
ATOM     93  O   UNL A   1      46.451  36.569  26.212  1.00  0.00    -0.237 OA
ATOM     94  O   UNL A   1      44.905  37.851  27.636  1.00  0.00    -0.237 OA
ATOM     95  O   UNL A   1      47.328  38.092  27.947  1.00  0.00    -0.744 OA
ENDBRANCH  89  92
ENDBRANCH  62  85
ENDBRANCH  36  37
ENDBRANCH  29  31
ENDBRANCH  28  29
ENDBRANCH  27  28
ENDBRANCH  26  27
ENDBRANCH  25  26
ENDBRANCH   1  25
TORSDOF 22
ENDMDL
