MODEL 1
REMARK VINA RESULT:     -11.0      0.000      0.000
REMARK SMILES Cc1nn(Cc2ccc(Cl)cc2Cl)c(C)c1NC(=O)c1c(C(=O)OCCOCCOCCOC(=O)c2ccc(-c3c4nc(c(-c5cccc(S(=O)(=O)[O-])c5F)c5ccc([nH]5)c(-c5cccc(S(=O)(=O)[O-])c5F)c5nc(c(-c6cccc(S(=O)(=O)[O-])c6F)c6ccc3[nH]6)C=C5)C=C4)cc2)cnn1C
REMARK SMILES IDX 28 1 27 2 26 3 25 4 24 5 22 6 23 7 21 8 20 9 101 10 99 11
REMARK SMILES IDX 100 12 102 13 18 14 17 15 19 17 16 18 1 19 2 20 3 21 4 22
REMARK SMILES IDX 14 23 15 24 5 25 6 26 7 27 12 28 8 29 11 30 13 31 9 32 10 33
REMARK SMILES IDX 29 34 30 35 31 36 32 37 33 38 34 39 35 40 36 41 37 42 98 43
REMARK SMILES IDX 38 44 97 45 39 46 40 47 41 48 91 49 42 50 96 51 90 52 92 53
REMARK SMILES IDX 43 54 95 55 89 56 88 57 44 59 76 60 56 61 75 62 57 63 60 64
REMARK SMILES IDX 74 65 93 66 58 67 59 68 73 70 94 71 61 72 45 73 46 74 54 75
REMARK SMILES IDX 47 76 49 77 55 78 48 79 50 80 51 81 52 82 53 83 77 84 78 85
REMARK SMILES IDX 86 86 79 87 81 88 87 89 80 90 82 91 83 92 84 93 85 94 62 95
REMARK SMILES IDX 63 96 71 97 64 98 66 99 72 100 65 101 67 102 68 103 69 104
REMARK SMILES IDX 70 105
REMARK H PARENT 17 16 92 58 60 69
REMARK Flexibility Score: inf
ROOT
ATOM      1  C   UNL A   1      40.033  21.594  26.894  1.00  0.00     0.188 C 
ENDROOT
BRANCH   1   2
ATOM      2  O   UNL A   1      38.836  21.717  26.128  1.00  0.00    -0.376 OA
BRANCH   2   3
ATOM      3  C   UNL A   1      38.347  23.010  25.828  1.00  0.00     0.202 C 
BRANCH   3   4
ATOM      4  C   UNL A   1      36.832  23.113  25.658  1.00  0.00     0.261 C 
BRANCH   4   5
ATOM      5  O   UNL A   1      36.039  22.459  26.665  1.00  0.00    -0.460 OA
BRANCH   5   6
ATOM      6  C   UNL A   1      35.107  21.584  26.203  1.00  0.00     0.342 C 
ATOM      7  O   UNL A   1      35.328  20.701  25.362  1.00  0.00    -0.246 OA
BRANCH   6   8
ATOM      8  C   UNL A   1      33.778  21.845  26.699  1.00  0.00     0.111 A 
ATOM      9  C   UNL A   1      32.572  21.664  26.034  1.00  0.00     0.140 A 
ATOM     10  N   UNL A   1      31.642  22.341  26.774  1.00  0.00    -0.262 N 
ATOM     11  C   UNL A   1      33.407  22.440  27.925  1.00  0.00     0.151 A 
ATOM     12  N   UNL A   1      32.105  22.737  27.979  1.00  0.00    -0.180 NA
ATOM     13  C   UNL A   1      30.257  22.573  26.432  1.00  0.00     0.174 C 
BRANCH   9  14
ATOM     14  C   UNL A   1      32.284  21.032  24.781  1.00  0.00     0.274 C 
ATOM     15  N   UNL A   1      32.263  21.786  23.632  1.00  0.00    -0.317 N 
ATOM     16  H   UNL A   1      31.940  21.303  22.837  1.00  0.00     0.170 HD
ATOM     17  O   UNL A   1      32.048  19.827  24.705  1.00  0.00    -0.267 OA
BRANCH  15  18
ATOM     18  C   UNL A   1      32.614  23.105  23.392  1.00  0.00     0.085 A 
ATOM     19  C   UNL A   1      30.205  24.049  23.048  1.00  0.00     0.071 C 
ATOM     20  C   UNL A   1      31.686  24.152  23.148  1.00  0.00     0.083 A 
ATOM     21  N   UNL A   1      32.291  25.348  23.108  1.00  0.00    -0.175 NA
ATOM     22  N   UNL A   1      33.598  25.072  23.287  1.00  0.00    -0.263 N 
ATOM     23  C   UNL A   1      33.841  23.716  23.211  1.00  0.00     0.060 A 
ATOM     24  C   UNL A   1      35.188  23.221  22.870  1.00  0.00     0.069 C 
BRANCH  22  25
ATOM     25  C   UNL A   1      34.475  26.065  23.927  1.00  0.00     0.181 C 
BRANCH  25  26
ATOM     26  C   UNL A   1      33.794  27.223  24.617  1.00  0.00    -0.008 A 
ATOM     27  C   UNL A   1      33.570  27.129  25.999  1.00  0.00     0.009 A 
ATOM     28  C   UNL A   1      33.451  28.432  24.000  1.00  0.00     0.047 A 
ATOM     29  C   UNL A   1      32.972  28.154  26.735  1.00  0.00     0.021 A 
ATOM     30  C   UNL A   1      32.836  29.464  24.724  1.00  0.00     0.041 A 
ATOM     31  Cl  UNL A   1      33.869  28.780  22.363  1.00  0.00    -0.084 Cl
ATOM     32  C   UNL A   1      32.591  29.317  26.085  1.00  0.00     0.042 A 
ATOM     33  Cl  UNL A   1      31.864  30.599  26.969  1.00  0.00    -0.084 Cl
ENDBRANCH  25  26
ENDBRANCH  22  25
ENDBRANCH  15  18
ENDBRANCH   9  14
ENDBRANCH   6   8
ENDBRANCH   5   6
ENDBRANCH   4   5
ENDBRANCH   3   4
ENDBRANCH   2   3
ENDBRANCH   1   2
BRANCH   1  34
ATOM     34  C   UNL A   1      40.946  20.390  26.649  1.00  0.00     0.188 C 
BRANCH  34  35
ATOM     35  O   UNL A   1      42.315  20.707  26.920  1.00  0.00    -0.376 OA
BRANCH  35  36
ATOM     36  C   UNL A   1      43.124  20.789  25.742  1.00  0.00     0.202 C 
BRANCH  36  37
ATOM     37  C   UNL A   1      43.733  22.174  25.620  1.00  0.00     0.261 C 
BRANCH  37  38
ATOM     38  O   UNL A   1      42.661  23.083  25.401  1.00  0.00    -0.460 OA
BRANCH  38  39
ATOM     39  C   UNL A   1      42.944  24.381  25.401  1.00  0.00     0.338 C 
ATOM     40  O   UNL A   1      43.866  24.960  24.813  1.00  0.00    -0.246 OA
BRANCH  39  41
ATOM     41  C   UNL A   1      42.036  24.995  26.349  1.00  0.00     0.060 A 
ATOM     42  C   UNL A   1      41.081  25.919  25.917  1.00  0.00     0.016 A 
ATOM     43  C   UNL A   1      42.354  24.803  27.705  1.00  0.00     0.016 A 
ATOM     44  C   UNL A   1      40.579  26.802  26.847  1.00  0.00     0.010 A 
ATOM     45  C   UNL A   1      41.854  25.678  28.631  1.00  0.00     0.010 A 
ATOM     46  C   UNL A   1      41.095  26.744  28.148  1.00  0.00    -0.014 A 
BRANCH  46  47
ATOM     47  C   UNL A   1      41.280  28.011  28.828  1.00  0.00     0.031 A 
ATOM     48  C   UNL A   1      42.355  28.889  28.358  1.00  0.00     0.074 A 
ATOM     49  C   UNL A   1      40.361  28.373  29.751  1.00  0.00     0.049 A 
ATOM     50  N   UNL A   1      43.440  29.193  28.990  1.00  0.00    -0.248 NA
ATOM     51  C   UNL A   1      42.264  29.434  26.998  1.00  0.00     0.031 C 
ATOM     52  C   UNL A   1      39.083  27.696  30.042  1.00  0.00     0.029 A 
ATOM     53  N   UNL A   1      40.300  29.487  30.528  1.00  0.00    -0.354 N 
ATOM     54  C   UNL A   1      44.035  30.178  28.214  1.00  0.00     0.074 A 
ATOM     55  C   UNL A   1      43.397  30.135  26.924  1.00  0.00     0.031 C 
ATOM     56  C   UNL A   1      38.287  28.523  30.748  1.00  0.00     0.029 A 
ATOM     57  C   UNL A   1      39.047  29.708  31.084  1.00  0.00     0.049 A 
ATOM     58  H   UNL A   1      41.071  30.080  30.680  1.00  0.00     0.167 HD
ATOM     59  C   UNL A   1      44.789  31.157  28.780  1.00  0.00     0.034 A 
ATOM     60  C   UNL A   1      38.637  30.811  31.744  1.00  0.00     0.034 A 
ATOM     61  C   UNL A   1      45.140  30.861  30.144  1.00  0.00     0.049 A 
ATOM     62  C   UNL A   1      39.846  31.504  32.236  1.00  0.00     0.074 A 
ATOM     63  C   UNL A   1      45.862  29.881  30.789  1.00  0.00     0.029 A 
ATOM     64  N   UNL A   1      44.384  31.494  31.099  1.00  0.00    -0.354 N 
ATOM     65  N   UNL A   1      40.640  31.009  33.146  1.00  0.00    -0.248 NA
ATOM     66  C   UNL A   1      40.395  32.610  31.467  1.00  0.00     0.031 C 
ATOM     67  C   UNL A   1      45.259  29.741  32.073  1.00  0.00     0.029 A 
ATOM     68  C   UNL A   1      44.197  30.645  32.159  1.00  0.00     0.049 A 
ATOM     69  H   UNL A   1      44.032  32.411  31.034  1.00  0.00     0.167 HD
ATOM     70  C   UNL A   1      41.906  31.431  32.767  1.00  0.00     0.074 A 
ATOM     71  C   UNL A   1      41.671  32.547  31.858  1.00  0.00     0.031 C 
ATOM     72  C   UNL A   1      43.001  30.644  32.982  1.00  0.00     0.034 A 
BRANCH  59  73
ATOM     73  C   UNL A   1      44.884  32.556  28.234  1.00  0.00     0.023 A 
ATOM     74  C   UNL A   1      43.696  33.307  28.136  1.00  0.00     0.012 A 
ATOM     75  C   UNL A   1      46.031  33.075  27.591  1.00  0.00     0.148 A 
ATOM     76  C   UNL A   1      43.654  34.518  27.435  1.00  0.00     0.002 A 
ATOM     77  C   UNL A   1      46.008  34.323  26.982  1.00  0.00     0.091 A 
ATOM     78  F   UNL A   1      47.118  32.309  27.436  1.00  0.00    -0.205 F 
ATOM     79  C   UNL A   1      44.817  35.039  26.878  1.00  0.00     0.022 A 
BRANCH  77  80
ATOM     80  S   UNL A   1      47.522  35.047  26.346  1.00  0.00     0.127 S 
ATOM     81  O   UNL A   1      48.513  34.535  27.286  1.00  0.00    -0.237 OA
ATOM     82  O   UNL A   1      47.594  34.483  24.997  1.00  0.00    -0.237 OA
ATOM     83  O   UNL A   1      47.274  36.485  26.372  1.00  0.00    -0.744 OA
ENDBRANCH  77  80
ENDBRANCH  59  73
BRANCH  60  84
ATOM     84  C   UNL A   1      37.278  31.383  31.829  1.00  0.00     0.023 A 
ATOM     85  C   UNL A   1      36.690  31.612  33.085  1.00  0.00     0.012 A 
ATOM     86  C   UNL A   1      36.652  31.927  30.683  1.00  0.00     0.148 A 
ATOM     87  C   UNL A   1      35.531  32.387  33.201  1.00  0.00     0.002 A 
ATOM     88  C   UNL A   1      35.495  32.689  30.804  1.00  0.00     0.091 A 
ATOM     89  F   UNL A   1      37.238  31.767  29.489  1.00  0.00    -0.205 F 
ATOM     90  C   UNL A   1      34.939  32.932  32.065  1.00  0.00     0.022 A 
BRANCH  88  91
ATOM     91  S   UNL A   1      34.684  33.434  29.381  1.00  0.00     0.127 S 
ATOM     92  O   UNL A   1      34.336  32.261  28.579  1.00  0.00    -0.237 OA
ATOM     93  O   UNL A   1      33.547  34.110  30.002  1.00  0.00    -0.237 OA
ATOM     94  O   UNL A   1      35.681  34.302  28.766  1.00  0.00    -0.744 OA
ENDBRANCH  88  91
ENDBRANCH  60  84
BRANCH  72  95
ATOM     95  C   UNL A   1      42.850  29.493  33.948  1.00  0.00     0.023 A 
ATOM     96  C   UNL A   1      42.130  28.330  33.601  1.00  0.00     0.012 A 
ATOM     97  C   UNL A   1      43.563  29.511  35.159  1.00  0.00     0.148 A 
ATOM     98  C   UNL A   1      42.096  27.224  34.453  1.00  0.00     0.002 A 
ATOM     99  C   UNL A   1      43.561  28.393  35.986  1.00  0.00     0.091 A 
ATOM    100  F   UNL A   1      44.255  30.618  35.471  1.00  0.00    -0.205 F 
ATOM    101  C   UNL A   1      42.821  27.251  35.641  1.00  0.00     0.022 A 
BRANCH  99 102
ATOM    102  S   UNL A   1      44.569  28.311  37.469  1.00  0.00     0.127 S 
ATOM    103  O   UNL A   1      44.061  27.106  38.121  1.00  0.00    -0.237 OA
ATOM    104  O   UNL A   1      45.923  28.186  36.926  1.00  0.00    -0.237 OA
ATOM    105  O   UNL A   1      44.332  29.560  38.182  1.00  0.00    -0.744 OA
ENDBRANCH  99 102
ENDBRANCH  72  95
ENDBRANCH  46  47
ENDBRANCH  39  41
ENDBRANCH  38  39
ENDBRANCH  37  38
ENDBRANCH  36  37
ENDBRANCH  35  36
ENDBRANCH  34  35
ENDBRANCH   1  34
TORSDOF 24
ENDMDL
MODEL 2
REMARK VINA RESULT:     -10.9      2.427      3.132
REMARK SMILES Cc1nn(Cc2ccc(Cl)cc2Cl)c(C)c1NC(=O)c1c(C(=O)OCCOCCOCCOC(=O)c2ccc(-c3c4nc(c(-c5cccc(S(=O)(=O)[O-])c5F)c5ccc([nH]5)c(-c5cccc(S(=O)(=O)[O-])c5F)c5nc(c(-c6cccc(S(=O)(=O)[O-])c6F)c6ccc3[nH]6)C=C5)C=C4)cc2)cnn1C
REMARK SMILES IDX 28 1 27 2 26 3 25 4 24 5 22 6 23 7 21 8 20 9 101 10 99 11
REMARK SMILES IDX 100 12 102 13 18 14 17 15 19 17 16 18 1 19 2 20 3 21 4 22
REMARK SMILES IDX 14 23 15 24 5 25 6 26 7 27 12 28 8 29 11 30 13 31 9 32 10 33
REMARK SMILES IDX 29 34 30 35 31 36 32 37 33 38 34 39 35 40 36 41 37 42 98 43
REMARK SMILES IDX 38 44 97 45 39 46 40 47 41 48 91 49 42 50 96 51 90 52 92 53
REMARK SMILES IDX 43 54 95 55 89 56 88 57 44 59 76 60 56 61 75 62 57 63 60 64
REMARK SMILES IDX 74 65 93 66 58 67 59 68 73 70 94 71 61 72 45 73 46 74 54 75
REMARK SMILES IDX 47 76 49 77 55 78 48 79 50 80 51 81 52 82 53 83 77 84 78 85
REMARK SMILES IDX 86 86 79 87 81 88 87 89 80 90 82 91 83 92 84 93 85 94 62 95
REMARK SMILES IDX 63 96 71 97 64 98 66 99 72 100 65 101 67 102 68 103 69 104
REMARK SMILES IDX 70 105
REMARK H PARENT 17 16 92 58 60 69
REMARK Flexibility Score: inf
ROOT
ATOM      1  C   UNL A   1      40.279  20.284  26.654  1.00  0.00     0.188 C 
ENDROOT
BRANCH   1   2
ATOM      2  O   UNL A   1      39.269  20.525  25.676  1.00  0.00    -0.376 OA
BRANCH   2   3
ATOM      3  C   UNL A   1      38.551  21.744  25.722  1.00  0.00     0.202 C 
BRANCH   3   4
ATOM      4  C   UNL A   1      37.222  21.748  24.968  1.00  0.00     0.261 C 
BRANCH   4   5
ATOM      5  O   UNL A   1      36.927  22.941  24.218  1.00  0.00    -0.460 OA
BRANCH   5   6
ATOM      6  C   UNL A   1      35.976  23.752  24.754  1.00  0.00     0.342 C 
ATOM      7  O   UNL A   1      36.185  24.584  25.648  1.00  0.00    -0.246 OA
BRANCH   6   8
ATOM      8  C   UNL A   1      34.647  23.481  24.263  1.00  0.00     0.111 A 
ATOM      9  C   UNL A   1      33.473  23.391  24.998  1.00  0.00     0.140 A 
ATOM     10  N   UNL A   1      32.561  22.810  24.159  1.00  0.00    -0.262 N 
ATOM     11  C   UNL A   1      34.256  23.143  22.949  1.00  0.00     0.151 A 
ATOM     12  N   UNL A   1      32.983  22.742  22.879  1.00  0.00    -0.180 NA
ATOM     13  C   UNL A   1      31.224  22.374  24.493  1.00  0.00     0.174 C 
BRANCH   9  14
ATOM     14  C   UNL A   1      33.207  23.695  26.373  1.00  0.00     0.274 C 
ATOM     15  N   UNL A   1      32.616  24.893  26.698  1.00  0.00    -0.317 N 
ATOM     16  H   UNL A   1      32.578  25.075  27.665  1.00  0.00     0.170 HD
ATOM     17  O   UNL A   1      33.499  22.912  27.276  1.00  0.00    -0.267 OA
BRANCH  15  18
ATOM     18  C   UNL A   1      32.063  25.889  25.910  1.00  0.00     0.085 A 
ATOM     19  C   UNL A   1      34.039  27.587  26.062  1.00  0.00     0.071 C 
ATOM     20  C   UNL A   1      32.710  27.113  25.591  1.00  0.00     0.083 A 
ATOM     21  N   UNL A   1      32.015  27.816  24.685  1.00  0.00    -0.175 NA
ATOM     22  N   UNL A   1      30.917  27.073  24.450  1.00  0.00    -0.263 N 
ATOM     23  C   UNL A   1      30.805  26.039  25.355  1.00  0.00     0.060 A 
ATOM     24  C   UNL A   1      29.491  25.426  25.627  1.00  0.00     0.069 C 
BRANCH  22  25
ATOM     25  C   UNL A   1      30.256  27.138  23.136  1.00  0.00     0.181 C 
BRANCH  25  26
ATOM     26  C   UNL A   1      29.587  28.444  22.780  1.00  0.00    -0.008 A 
ATOM     27  C   UNL A   1      30.329  29.391  22.058  1.00  0.00     0.009 A 
ATOM     28  C   UNL A   1      28.244  28.748  23.033  1.00  0.00     0.047 A 
ATOM     29  C   UNL A   1      29.795  30.618  21.658  1.00  0.00     0.021 A 
ATOM     30  C   UNL A   1      27.699  29.983  22.650  1.00  0.00     0.041 A 
ATOM     31  Cl  UNL A   1      27.150  27.597  23.707  1.00  0.00    -0.084 Cl
ATOM     32  C   UNL A   1      28.479  30.915  21.972  1.00  0.00     0.042 A 
ATOM     33  Cl  UNL A   1      27.793  32.412  21.481  1.00  0.00    -0.084 Cl
ENDBRANCH  25  26
ENDBRANCH  22  25
ENDBRANCH  15  18
ENDBRANCH   9  14
ENDBRANCH   6   8
ENDBRANCH   5   6
ENDBRANCH   4   5
ENDBRANCH   3   4
ENDBRANCH   2   3
ENDBRANCH   1   2
BRANCH   1  34
ATOM     34  C   UNL A   1      41.682  19.895  26.185  1.00  0.00     0.188 C 
BRANCH  34  35
ATOM     35  O   UNL A   1      42.657  20.862  26.588  1.00  0.00    -0.376 OA
BRANCH  35  36
ATOM     36  C   UNL A   1      43.686  21.072  25.615  1.00  0.00     0.202 C 
BRANCH  36  37
ATOM     37  C   UNL A   1      44.009  22.551  25.504  1.00  0.00     0.261 C 
BRANCH  37  38
ATOM     38  O   UNL A   1      42.951  23.259  26.138  1.00  0.00    -0.460 OA
BRANCH  38  39
ATOM     39  C   UNL A   1      42.872  24.568  25.930  1.00  0.00     0.338 C 
ATOM     40  O   UNL A   1      43.351  25.221  24.993  1.00  0.00    -0.246 OA
BRANCH  39  41
ATOM     41  C   UNL A   1      42.225  25.129  27.099  1.00  0.00     0.060 A 
ATOM     42  C   UNL A   1      40.944  25.680  27.001  1.00  0.00     0.016 A 
ATOM     43  C   UNL A   1      43.050  25.310  28.221  1.00  0.00     0.016 A 
ATOM     44  C   UNL A   1      40.565  26.590  27.963  1.00  0.00     0.010 A 
ATOM     45  C   UNL A   1      42.674  26.211  29.179  1.00  0.00     0.010 A 
ATOM     46  C   UNL A   1      41.505  26.934  28.943  1.00  0.00    -0.014 A 
BRANCH  46  47
ATOM     47  C   UNL A   1      41.524  28.322  29.362  1.00  0.00     0.031 A 
ATOM     48  C   UNL A   1      42.515  29.209  28.746  1.00  0.00     0.074 A 
ATOM     49  C   UNL A   1      40.536  28.749  30.179  1.00  0.00     0.049 A 
ATOM     50  N   UNL A   1      43.534  29.752  29.324  1.00  0.00    -0.248 NA
ATOM     51  C   UNL A   1      42.419  29.465  27.304  1.00  0.00     0.031 C 
ATOM     52  C   UNL A   1      39.329  28.000  30.576  1.00  0.00     0.029 A 
ATOM     53  N   UNL A   1      40.324  29.978  30.719  1.00  0.00    -0.354 N 
ATOM     54  C   UNL A   1      44.050  30.629  28.380  1.00  0.00     0.074 A 
ATOM     55  C   UNL A   1      43.471  30.262  27.112  1.00  0.00     0.031 C 
ATOM     56  C   UNL A   1      38.420  28.852  31.091  1.00  0.00     0.029 A 
ATOM     57  C   UNL A   1      39.033  30.158  31.199  1.00  0.00     0.049 A 
ATOM     58  H   UNL A   1      41.019  30.674  30.765  1.00  0.00     0.167 HD
ATOM     59  C   UNL A   1      44.669  31.779  28.754  1.00  0.00     0.034 A 
ATOM     60  C   UNL A   1      38.479  31.315  31.621  1.00  0.00     0.034 A 
ATOM     61  C   UNL A   1      44.996  31.796  30.155  1.00  0.00     0.049 A 
ATOM     62  C   UNL A   1      39.586  32.223  31.987  1.00  0.00     0.074 A 
ATOM     63  C   UNL A   1      45.795  31.049  30.993  1.00  0.00     0.029 A 
ATOM     64  N   UNL A   1      44.138  32.512  30.954  1.00  0.00    -0.354 N 
ATOM     65  N   UNL A   1      40.392  32.009  32.990  1.00  0.00    -0.248 NA
ATOM     66  C   UNL A   1      40.041  33.214  31.025  1.00  0.00     0.031 C 
ATOM     67  C   UNL A   1      45.161  31.094  32.269  1.00  0.00     0.029 A 
ATOM     68  C   UNL A   1      44.004  31.869  32.157  1.00  0.00     0.049 A 
ATOM     69  H   UNL A   1      43.692  33.352  30.702  1.00  0.00     0.167 HD
ATOM     70  C   UNL A   1      41.619  32.492  32.558  1.00  0.00     0.074 A 
ATOM     71  C   UNL A   1      41.299  33.374  31.442  1.00  0.00     0.031 C 
ATOM     72  C   UNL A   1      42.783  31.892  32.943  1.00  0.00     0.034 A 
BRANCH  59  73
ATOM     73  C   UNL A   1      44.633  33.046  27.943  1.00  0.00     0.023 A 
ATOM     74  C   UNL A   1      45.754  33.351  27.147  1.00  0.00     0.012 A 
ATOM     75  C   UNL A   1      43.666  34.063  28.113  1.00  0.00     0.148 A 
ATOM     76  C   UNL A   1      45.902  34.606  26.545  1.00  0.00     0.002 A 
ATOM     77  C   UNL A   1      43.769  35.271  27.436  1.00  0.00     0.091 A 
ATOM     78  F   UNL A   1      42.709  33.932  29.040  1.00  0.00    -0.205 F 
ATOM     79  C   UNL A   1      44.897  35.559  26.669  1.00  0.00     0.022 A 
BRANCH  77  80
ATOM     80  S   UNL A   1      42.433  36.468  27.511  1.00  0.00     0.127 S 
ATOM     81  O   UNL A   1      42.890  37.481  26.567  1.00  0.00    -0.237 OA
ATOM     82  O   UNL A   1      41.283  35.678  27.067  1.00  0.00    -0.237 OA
ATOM     83  O   UNL A   1      42.376  36.857  28.915  1.00  0.00    -0.744 OA
ENDBRANCH  77  80
ENDBRANCH  59  73
BRANCH  60  84
ATOM     84  C   UNL A   1      37.064  31.732  31.568  1.00  0.00     0.023 A 
ATOM     85  C   UNL A   1      36.379  32.045  32.755  1.00  0.00     0.012 A 
ATOM     86  C   UNL A   1      36.454  32.056  30.333  1.00  0.00     0.148 A 
ATOM     87  C   UNL A   1      35.138  32.689  32.716  1.00  0.00     0.002 A 
ATOM     88  C   UNL A   1      35.216  32.690  30.300  1.00  0.00     0.091 A 
ATOM     89  F   UNL A   1      37.126  31.820  29.198  1.00  0.00    -0.205 F 
ATOM     90  C   UNL A   1      34.561  33.020  31.492  1.00  0.00     0.022 A 
BRANCH  88  91
ATOM     91  S   UNL A   1      34.418  33.157  28.757  1.00  0.00     0.127 S 
ATOM     92  O   UNL A   1      34.060  31.856  28.193  1.00  0.00    -0.237 OA
ATOM     93  O   UNL A   1      33.288  33.951  29.231  1.00  0.00    -0.237 OA
ATOM     94  O   UNL A   1      35.427  33.881  27.992  1.00  0.00    -0.744 OA
ENDBRANCH  88  91
ENDBRANCH  60  84
BRANCH  72  95
ATOM     95  C   UNL A   1      42.721  30.940  34.114  1.00  0.00     0.023 A 
ATOM     96  C   UNL A   1      42.813  31.402  35.444  1.00  0.00     0.012 A 
ATOM     97  C   UNL A   1      42.417  29.587  33.888  1.00  0.00     0.148 A 
ATOM     98  C   UNL A   1      42.635  30.532  36.522  1.00  0.00     0.002 A 
ATOM     99  C   UNL A   1      42.200  28.731  34.963  1.00  0.00     0.091 A 
ATOM    100  F   UNL A   1      42.318  29.164  32.618  1.00  0.00    -0.205 F 
ATOM    101  C   UNL A   1      42.317  29.198  36.281  1.00  0.00     0.022 A 
BRANCH  99 102
ATOM    102  S   UNL A   1      41.667  27.033  34.727  1.00  0.00     0.127 S 
ATOM    103  O   UNL A   1      40.503  27.194  33.857  1.00  0.00    -0.237 OA
ATOM    104  O   UNL A   1      42.830  26.423  34.082  1.00  0.00    -0.237 OA
ATOM    105  O   UNL A   1      41.389  26.514  36.060  1.00  0.00    -0.744 OA
ENDBRANCH  99 102
ENDBRANCH  72  95
ENDBRANCH  46  47
ENDBRANCH  39  41
ENDBRANCH  38  39
ENDBRANCH  37  38
ENDBRANCH  36  37
ENDBRANCH  35  36
ENDBRANCH  34  35
ENDBRANCH   1  34
TORSDOF 24
ENDMDL
MODEL 3
REMARK VINA RESULT:     -10.9      2.307      7.093
REMARK SMILES Cc1nn(Cc2ccc(Cl)cc2Cl)c(C)c1NC(=O)c1c(C(=O)OCCOCCOCCOC(=O)c2ccc(-c3c4nc(c(-c5cccc(S(=O)(=O)[O-])c5F)c5ccc([nH]5)c(-c5cccc(S(=O)(=O)[O-])c5F)c5nc(c(-c6cccc(S(=O)(=O)[O-])c6F)c6ccc3[nH]6)C=C5)C=C4)cc2)cnn1C
REMARK SMILES IDX 28 1 27 2 26 3 25 4 24 5 22 6 23 7 21 8 20 9 101 10 99 11
REMARK SMILES IDX 100 12 102 13 18 14 17 15 19 17 16 18 1 19 2 20 3 21 4 22
REMARK SMILES IDX 14 23 15 24 5 25 6 26 7 27 12 28 8 29 11 30 13 31 9 32 10 33
REMARK SMILES IDX 29 34 30 35 31 36 32 37 33 38 34 39 35 40 36 41 37 42 98 43
REMARK SMILES IDX 38 44 97 45 39 46 40 47 41 48 91 49 42 50 96 51 90 52 92 53
REMARK SMILES IDX 43 54 95 55 89 56 88 57 44 59 76 60 56 61 75 62 57 63 60 64
REMARK SMILES IDX 74 65 93 66 58 67 59 68 73 70 94 71 61 72 45 73 46 74 54 75
REMARK SMILES IDX 47 76 49 77 55 78 48 79 50 80 51 81 52 82 53 83 77 84 78 85
REMARK SMILES IDX 86 86 79 87 81 88 87 89 80 90 82 91 83 92 84 93 85 94 62 95
REMARK SMILES IDX 63 96 71 97 64 98 66 99 72 100 65 101 67 102 68 103 69 104
REMARK SMILES IDX 70 105
REMARK H PARENT 17 16 92 58 60 69
REMARK Flexibility Score: inf
ROOT
ATOM      1  C   UNL A   1      41.163  22.819  27.695  1.00  0.00     0.188 C 
ENDROOT
BRANCH   1   2
ATOM      2  O   UNL A   1      39.845  22.439  27.305  1.00  0.00    -0.376 OA
BRANCH   2   3
ATOM      3  C   UNL A   1      39.680  21.623  26.161  1.00  0.00     0.202 C 
BRANCH   3   4
ATOM      4  C   UNL A   1      38.246  21.500  25.648  1.00  0.00     0.261 C 
BRANCH   4   5
ATOM      5  O   UNL A   1      37.818  22.518  24.724  1.00  0.00    -0.460 OA
BRANCH   5   6
ATOM      6  C   UNL A   1      36.782  23.293  25.142  1.00  0.00     0.342 C 
ATOM      7  O   UNL A   1      36.868  24.165  26.019  1.00  0.00    -0.246 OA
BRANCH   6   8
ATOM      8  C   UNL A   1      35.518  22.935  24.548  1.00  0.00     0.111 A 
ATOM      9  C   UNL A   1      34.402  22.406  25.181  1.00  0.00     0.140 A 
ATOM     10  N   UNL A   1      33.598  21.941  24.177  1.00  0.00    -0.262 N 
ATOM     11  C   UNL A   1      35.166  22.938  23.181  1.00  0.00     0.151 A 
ATOM     12  N   UNL A   1      33.993  22.342  22.949  1.00  0.00    -0.180 NA
ATOM     13  C   UNL A   1      32.378  21.178  24.319  1.00  0.00     0.174 C 
BRANCH   9  14
ATOM     14  C   UNL A   1      34.116  22.227  26.575  1.00  0.00     0.274 C 
ATOM     15  N   UNL A   1      33.219  23.064  27.194  1.00  0.00    -0.317 N 
ATOM     16  H   UNL A   1      33.171  22.952  28.171  1.00  0.00     0.170 HD
ATOM     17  O   UNL A   1      34.659  21.343  27.236  1.00  0.00    -0.267 OA
BRANCH  15  18
ATOM     18  C   UNL A   1      32.371  24.037  26.690  1.00  0.00     0.085 A 
ATOM     19  C   UNL A   1      30.134  22.723  26.964  1.00  0.00     0.071 C 
ATOM     20  C   UNL A   1      30.960  23.905  26.601  1.00  0.00     0.083 A 
ATOM     21  N   UNL A   1      30.380  25.055  26.227  1.00  0.00    -0.175 NA
ATOM     22  N   UNL A   1      31.406  25.907  26.041  1.00  0.00    -0.263 N 
ATOM     23  C   UNL A   1      32.618  25.249  26.072  1.00  0.00     0.060 A 
ATOM     24  C   UNL A   1      33.800  25.836  25.411  1.00  0.00     0.069 C 
BRANCH  22  25
ATOM     25  C   UNL A   1      31.208  27.349  26.253  1.00  0.00     0.181 C 
BRANCH  25  26
ATOM     26  C   UNL A   1      30.780  28.156  25.050  1.00  0.00    -0.008 A 
ATOM     27  C   UNL A   1      29.936  27.544  24.110  1.00  0.00     0.009 A 
ATOM     28  C   UNL A   1      31.082  29.508  24.846  1.00  0.00     0.047 A 
ATOM     29  C   UNL A   1      29.463  28.211  22.978  1.00  0.00     0.021 A 
ATOM     30  C   UNL A   1      30.626  30.185  23.706  1.00  0.00     0.041 A 
ATOM     31  Cl  UNL A   1      31.916  30.452  26.024  1.00  0.00    -0.084 Cl
ATOM     32  C   UNL A   1      29.826  29.532  22.773  1.00  0.00     0.042 A 
ATOM     33  Cl  UNL A   1      29.248  30.380  21.395  1.00  0.00    -0.084 Cl
ENDBRANCH  25  26
ENDBRANCH  22  25
ENDBRANCH  15  18
ENDBRANCH   9  14
ENDBRANCH   6   8
ENDBRANCH   5   6
ENDBRANCH   4   5
ENDBRANCH   3   4
ENDBRANCH   2   3
ENDBRANCH   1   2
BRANCH   1  34
ATOM     34  C   UNL A   1      42.304  21.815  27.514  1.00  0.00     0.188 C 
BRANCH  34  35
ATOM     35  O   UNL A   1      43.347  22.350  26.692  1.00  0.00    -0.376 OA
BRANCH  35  36
ATOM     36  C   UNL A   1      42.914  22.685  25.369  1.00  0.00     0.202 C 
BRANCH  36  37
ATOM     37  C   UNL A   1      43.566  23.979  24.917  1.00  0.00     0.261 C 
BRANCH  37  38
ATOM     38  O   UNL A   1      42.619  25.019  25.124  1.00  0.00    -0.460 OA
BRANCH  38  39
ATOM     39  C   UNL A   1      43.084  26.229  25.416  1.00  0.00     0.338 C 
ATOM     40  O   UNL A   1      44.260  26.615  25.408  1.00  0.00    -0.246 OA
BRANCH  39  41
ATOM     41  C   UNL A   1      41.951  26.997  25.892  1.00  0.00     0.060 A 
ATOM     42  C   UNL A   1      41.843  28.357  25.591  1.00  0.00     0.016 A 
ATOM     43  C   UNL A   1      41.150  26.363  26.857  1.00  0.00     0.016 A 
ATOM     44  C   UNL A   1      41.054  29.133  26.411  1.00  0.00     0.010 A 
ATOM     45  C   UNL A   1      40.363  27.132  27.671  1.00  0.00     0.010 A 
ATOM     46  C   UNL A   1      40.454  28.515  27.515  1.00  0.00    -0.014 A 
BRANCH  46  47
ATOM     47  C   UNL A   1      40.387  29.294  28.736  1.00  0.00     0.031 A 
ATOM     48  C   UNL A   1      39.249  30.203  28.904  1.00  0.00     0.074 A 
ATOM     49  C   UNL A   1      41.289  29.029  29.706  1.00  0.00     0.049 A 
ATOM     50  N   UNL A   1      39.283  31.494  28.913  1.00  0.00    -0.248 NA
ATOM     51  C   UNL A   1      37.903  29.625  28.994  1.00  0.00     0.031 C 
ATOM     52  C   UNL A   1      42.252  27.912  29.739  1.00  0.00     0.029 A 
ATOM     53  N   UNL A   1      41.451  29.607  30.925  1.00  0.00    -0.354 N 
ATOM     54  C   UNL A   1      38.001  31.879  29.277  1.00  0.00     0.074 A 
ATOM     55  C   UNL A   1      37.156  30.724  29.107  1.00  0.00     0.031 C 
ATOM     56  C   UNL A   1      42.724  27.763  30.992  1.00  0.00     0.029 A 
ATOM     57  C   UNL A   1      42.221  28.853  31.800  1.00  0.00     0.049 A 
ATOM     58  H   UNL A   1      41.059  30.479  31.164  1.00  0.00     0.167 HD
ATOM     59  C   UNL A   1      37.784  33.020  29.981  1.00  0.00     0.034 A 
ATOM     60  C   UNL A   1      42.405  29.077  33.118  1.00  0.00     0.034 A 
ATOM     61  C   UNL A   1      38.935  33.883  30.000  1.00  0.00     0.049 A 
ATOM     62  C   UNL A   1      42.107  30.503  33.366  1.00  0.00     0.074 A 
ATOM     63  C   UNL A   1      39.678  34.561  29.059  1.00  0.00     0.029 A 
ATOM     64  N   UNL A   1      39.690  33.836  31.146  1.00  0.00    -0.354 N 
ATOM     65  N   UNL A   1      42.828  31.483  32.893  1.00  0.00    -0.248 NA
ATOM     66  C   UNL A   1      40.791  30.880  33.856  1.00  0.00     0.031 C 
ATOM     67  C   UNL A   1      41.005  34.611  29.579  1.00  0.00     0.029 A 
ATOM     68  C   UNL A   1      41.014  33.965  30.817  1.00  0.00     0.049 A 
ATOM     69  H   UNL A   1      39.336  33.728  32.058  1.00  0.00     0.167 HD
ATOM     70  C   UNL A   1      41.911  32.487  32.620  1.00  0.00     0.074 A 
ATOM     71  C   UNL A   1      40.729  32.133  33.397  1.00  0.00     0.031 C 
ATOM     72  C   UNL A   1      42.088  33.329  31.560  1.00  0.00     0.034 A 
BRANCH  59  73
ATOM     73  C   UNL A   1      36.667  33.185  30.977  1.00  0.00     0.023 A 
ATOM     74  C   UNL A   1      36.624  32.299  32.071  1.00  0.00     0.012 A 
ATOM     75  C   UNL A   1      35.533  34.001  30.761  1.00  0.00     0.148 A 
ATOM     76  C   UNL A   1      35.507  32.232  32.911  1.00  0.00     0.002 A 
ATOM     77  C   UNL A   1      34.470  34.000  31.654  1.00  0.00     0.091 A 
ATOM     78  F   UNL A   1      35.404  34.684  29.616  1.00  0.00    -0.205 F 
ATOM     79  C   UNL A   1      34.438  33.101  32.718  1.00  0.00     0.022 A 
BRANCH  77  80
ATOM     80  S   UNL A   1      33.132  35.184  31.470  1.00  0.00     0.127 S 
ATOM     81  O   UNL A   1      33.841  36.453  31.585  1.00  0.00    -0.237 OA
ATOM     82  O   UNL A   1      32.625  34.874  30.133  1.00  0.00    -0.237 OA
ATOM     83  O   UNL A   1      32.204  34.851  32.545  1.00  0.00    -0.744 OA
ENDBRANCH  77  80
ENDBRANCH  59  73
BRANCH  60  84
ATOM     84  C   UNL A   1      42.660  28.098  34.193  1.00  0.00     0.023 A 
ATOM     85  C   UNL A   1      41.584  27.547  34.911  1.00  0.00     0.012 A 
ATOM     86  C   UNL A   1      43.942  27.522  34.355  1.00  0.00     0.148 A 
ATOM     87  C   UNL A   1      41.772  26.437  35.741  1.00  0.00     0.002 A 
ATOM     88  C   UNL A   1      44.124  26.423  35.187  1.00  0.00     0.091 A 
ATOM     89  F   UNL A   1      44.961  27.999  33.627  1.00  0.00    -0.205 F 
ATOM     90  C   UNL A   1      43.037  25.869  35.873  1.00  0.00     0.022 A 
BRANCH  88  91
ATOM     91  S   UNL A   1      45.726  25.632  35.395  1.00  0.00     0.127 S 
ATOM     92  O   UNL A   1      45.408  24.533  36.307  1.00  0.00    -0.237 OA
ATOM     93  O   UNL A   1      46.040  25.222  34.029  1.00  0.00    -0.237 OA
ATOM     94  O   UNL A   1      46.600  26.649  35.969  1.00  0.00    -0.744 OA
ENDBRANCH  88  91
ENDBRANCH  60  84
BRANCH  72  95
ATOM     95  C   UNL A   1      43.459  33.372  30.928  1.00  0.00     0.023 A 
ATOM     96  C   UNL A   1      44.495  34.161  31.468  1.00  0.00     0.012 A 
ATOM     97  C   UNL A   1      43.758  32.496  29.870  1.00  0.00     0.148 A 
ATOM     98  C   UNL A   1      45.791  34.103  30.949  1.00  0.00     0.002 A 
ATOM     99  C   UNL A   1      45.057  32.410  29.381  1.00  0.00     0.091 A 
ATOM    100  F   UNL A   1      42.766  31.740  29.374  1.00  0.00    -0.205 F 
ATOM    101  C   UNL A   1      46.074  33.219  29.912  1.00  0.00     0.022 A 
BRANCH  99 102
ATOM    102  S   UNL A   1      45.521  31.206  28.133  1.00  0.00     0.127 S 
ATOM    103  O   UNL A   1      44.540  31.461  27.080  1.00  0.00    -0.237 OA
ATOM    104  O   UNL A   1      46.889  31.605  27.801  1.00  0.00    -0.237 OA
ATOM    105  O   UNL A   1      45.424  29.904  28.780  1.00  0.00    -0.744 OA
ENDBRANCH  99 102
ENDBRANCH  72  95
ENDBRANCH  46  47
ENDBRANCH  39  41
ENDBRANCH  38  39
ENDBRANCH  37  38
ENDBRANCH  36  37
ENDBRANCH  35  36
ENDBRANCH  34  35
ENDBRANCH   1  34
TORSDOF 24
ENDMDL
