MODEL 1
REMARK VINA RESULT:     -10.1      0.000      0.000
REMARK SMILES O=C(OCCOCCOCCOC(=O)[C@@H](c1ccccc1)N1C(=O)/C(=C\c2ccc(-c3ccc(F)cc3)o2)SC1=S)c1ccc(-c2c3nc(c(-c4cccc(S(=O)(=O)[O-])c4F)c4ccc([nH]4)c(-c4cccc(S(=O)(=O)[O-])c4F)c4nc(c(-c5cccc(S(=O)(=O)[O-])c5F)c5ccc2[nH]5)C=C4)C=C3)cc1
REMARK SMILES IDX 7 1 6 2 5 3 4 4 3 5 2 6 1 7 42 8 43 9 104 10 44 11 103 12
REMARK SMILES IDX 45 13 46 14 47 15 97 16 48 17 102 18 96 19 98 20 49 21
REMARK SMILES IDX 101 22 95 23 94 24 50 26 82 27 62 28 81 29 63 30 66 31 80 32
REMARK SMILES IDX 99 33 64 34 65 35 79 37 100 38 67 39 51 40 52 41 60 42 53 43
REMARK SMILES IDX 55 44 61 45 54 46 56 47 57 48 58 49 59 50 83 51 84 52 92 53
REMARK SMILES IDX 85 54 87 55 93 56 86 57 88 58 89 59 90 60 91 61 68 62 69 63
REMARK SMILES IDX 77 64 70 65 72 66 78 67 71 68 73 69 74 70 75 71 76 72 8 73
REMARK SMILES IDX 9 74 10 75 11 76 12 77 13 78 14 79 15 80 16 81 17 82 21 83
REMARK SMILES IDX 18 84 20 85 19 86 22 87 23 88 40 89 24 90 25 91 39 92 41 93
REMARK SMILES IDX 26 94 27 95 28 96 38 97 29 98 30 99 31 100 32 101 37 102
REMARK SMILES IDX 33 103 36 104 34 105 35 106
REMARK H PARENT 98 25 66 36
REMARK Flexibility Score: inf
ROOT
ATOM      1  C   UNL A   1      32.142  29.249  24.859  1.00  0.00     0.188 C 
ENDROOT
BRANCH   1   2
ATOM      2  O   UNL A   1      32.309  29.564  26.248  1.00  0.00    -0.376 OA
BRANCH   2   3
ATOM      3  C   UNL A   1      32.188  30.959  26.538  1.00  0.00     0.202 C 
BRANCH   3   4
ATOM      4  C   UNL A   1      33.310  31.528  27.414  1.00  0.00     0.261 C 
BRANCH   4   5
ATOM      5  O   UNL A   1      32.939  32.768  28.028  1.00  0.00    -0.460 OA
BRANCH   5   6
ATOM      6  C   UNL A   1      33.765  33.694  28.574  1.00  0.00     0.338 C 
ATOM      7  O   UNL A   1      33.556  34.879  28.313  1.00  0.00    -0.246 OA
BRANCH   6   8
ATOM      8  C   UNL A   1      34.898  33.369  29.499  1.00  0.00     0.060 A 
ATOM      9  C   UNL A   1      34.875  32.414  30.520  1.00  0.00     0.016 A 
ATOM     10  C   UNL A   1      36.118  34.012  29.242  1.00  0.00     0.016 A 
ATOM     11  C   UNL A   1      36.001  32.148  31.306  1.00  0.00     0.010 A 
ATOM     12  C   UNL A   1      37.270  33.678  29.963  1.00  0.00     0.010 A 
ATOM     13  C   UNL A   1      37.222  32.752  31.019  1.00  0.00    -0.014 A 
BRANCH  13  14
ATOM     14  C   UNL A   1      38.439  32.470  31.826  1.00  0.00     0.031 A 
ATOM     15  C   UNL A   1      39.431  31.469  31.298  1.00  0.00     0.074 A 
ATOM     16  C   UNL A   1      38.638  33.042  33.033  1.00  0.00     0.049 A 
ATOM     17  N   UNL A   1      40.449  30.914  31.899  1.00  0.00    -0.248 NA
ATOM     18  C   UNL A   1      39.246  31.030  29.903  1.00  0.00     0.031 C 
ATOM     19  C   UNL A   1      37.799  34.070  33.651  1.00  0.00     0.029 A 
ATOM     20  N   UNL A   1      39.591  32.786  33.993  1.00  0.00    -0.354 N 
ATOM     21  C   UNL A   1      41.004  30.045  30.969  1.00  0.00     0.074 A 
ATOM     22  C   UNL A   1      40.173  30.094  29.787  1.00  0.00     0.031 C 
ATOM     23  C   UNL A   1      38.210  34.281  34.913  1.00  0.00     0.029 A 
ATOM     24  C   UNL A   1      39.320  33.390  35.201  1.00  0.00     0.049 A 
ATOM     25  H   UNL A   1      40.386  32.228  33.833  1.00  0.00     0.167 HD
ATOM     26  C   UNL A   1      42.142  29.320  31.061  1.00  0.00     0.034 A 
ATOM     27  C   UNL A   1      39.870  33.208  36.416  1.00  0.00     0.034 A 
ATOM     28  C   UNL A   1      43.010  29.346  32.202  1.00  0.00     0.049 A 
ATOM     29  C   UNL A   1      41.070  32.314  36.532  1.00  0.00     0.074 A 
ATOM     30  C   UNL A   1      44.252  28.759  32.354  1.00  0.00     0.029 A 
ATOM     31  N   UNL A   1      42.722  29.998  33.390  1.00  0.00    -0.354 N 
ATOM     32  N   UNL A   1      41.664  31.614  35.599  1.00  0.00    -0.248 NA
ATOM     33  C   UNL A   1      41.722  32.248  37.848  1.00  0.00     0.031 C 
ATOM     34  C   UNL A   1      44.711  29.048  33.644  1.00  0.00     0.029 A 
ATOM     35  C   UNL A   1      43.757  29.821  34.288  1.00  0.00     0.049 A 
ATOM     36  H   UNL A   1      41.901  30.512  33.568  1.00  0.00     0.167 HD
ATOM     37  C   UNL A   1      42.806  31.092  36.191  1.00  0.00     0.074 A 
ATOM     38  C   UNL A   1      42.805  31.536  37.570  1.00  0.00     0.031 C 
ATOM     39  C   UNL A   1      43.776  30.331  35.634  1.00  0.00     0.034 A 
BRANCH  26  40
ATOM     40  C   UNL A   1      42.542  28.512  29.859  1.00  0.00     0.023 A 
ATOM     41  C   UNL A   1      41.983  27.230  29.673  1.00  0.00     0.012 A 
ATOM     42  C   UNL A   1      43.464  29.012  28.920  1.00  0.00     0.148 A 
ATOM     43  C   UNL A   1      42.373  26.436  28.596  1.00  0.00     0.002 A 
ATOM     44  C   UNL A   1      43.817  28.229  27.828  1.00  0.00     0.091 A 
ATOM     45  F   UNL A   1      43.988  30.227  29.125  1.00  0.00    -0.205 F 
ATOM     46  C   UNL A   1      43.285  26.937  27.673  1.00  0.00     0.022 A 
BRANCH  44  47
ATOM     47  S   UNL A   1      44.946  28.791  26.550  1.00  0.00     0.127 S 
ATOM     48  O   UNL A   1      46.241  28.652  27.218  1.00  0.00    -0.237 OA
ATOM     49  O   UNL A   1      44.703  27.820  25.484  1.00  0.00    -0.237 OA
ATOM     50  O   UNL A   1      44.556  30.158  26.237  1.00  0.00    -0.744 OA
ENDBRANCH  44  47
ENDBRANCH  26  40
BRANCH  27  51
ATOM     51  C   UNL A   1      39.328  33.879  37.629  1.00  0.00     0.023 A 
ATOM     52  C   UNL A   1      39.759  35.176  37.962  1.00  0.00     0.012 A 
ATOM     53  C   UNL A   1      38.472  33.192  38.509  1.00  0.00     0.148 A 
ATOM     54  C   UNL A   1      39.384  35.759  39.174  1.00  0.00     0.002 A 
ATOM     55  C   UNL A   1      38.094  33.784  39.710  1.00  0.00     0.091 A 
ATOM     56  F   UNL A   1      38.077  31.953  38.180  1.00  0.00    -0.205 F 
ATOM     57  C   UNL A   1      38.554  35.063  40.051  1.00  0.00     0.022 A 
BRANCH  55  58
ATOM     58  S   UNL A   1      36.996  32.940  40.855  1.00  0.00     0.127 S 
ATOM     59  O   UNL A   1      36.860  33.926  41.922  1.00  0.00    -0.237 OA
ATOM     60  O   UNL A   1      35.791  32.735  40.052  1.00  0.00    -0.237 OA
ATOM     61  O   UNL A   1      37.709  31.712  41.186  1.00  0.00    -0.744 OA
ENDBRANCH  55  58
ENDBRANCH  27  51
BRANCH  39  62
ATOM     62  C   UNL A   1      44.968  29.993  36.482  1.00  0.00     0.023 A 
ATOM     63  C   UNL A   1      46.101  30.825  36.467  1.00  0.00     0.012 A 
ATOM     64  C   UNL A   1      44.914  28.898  37.365  1.00  0.00     0.148 A 
ATOM     65  C   UNL A   1      47.176  30.562  37.315  1.00  0.00     0.002 A 
ATOM     66  C   UNL A   1      45.963  28.675  38.245  1.00  0.00     0.091 A 
ATOM     67  F   UNL A   1      43.834  28.102  37.336  1.00  0.00    -0.205 F 
ATOM     68  C   UNL A   1      47.100  29.500  38.214  1.00  0.00     0.022 A 
BRANCH  66  69
ATOM     69  S   UNL A   1      45.895  27.405  39.513  1.00  0.00     0.127 S 
ATOM     70  O   UNL A   1      47.306  27.254  39.862  1.00  0.00    -0.237 OA
ATOM     71  O   UNL A   1      45.075  28.041  40.545  1.00  0.00    -0.237 OA
ATOM     72  O   UNL A   1      45.278  26.245  38.884  1.00  0.00    -0.744 OA
ENDBRANCH  66  69
ENDBRANCH  39  62
ENDBRANCH  13  14
ENDBRANCH   6   8
ENDBRANCH   5   6
ENDBRANCH   4   5
ENDBRANCH   3   4
ENDBRANCH   2   3
ENDBRANCH   1   2
BRANCH   1  73
ATOM     73  C   UNL A   1      33.440  28.704  24.253  1.00  0.00     0.188 C 
BRANCH  73  74
ATOM     74  O   UNL A   1      33.571  28.826  22.837  1.00  0.00    -0.376 OA
BRANCH  74  75
ATOM     75  C   UNL A   1      33.104  27.740  22.048  1.00  0.00     0.202 C 
BRANCH  75  76
ATOM     76  C   UNL A   1      33.937  26.447  21.987  1.00  0.00     0.261 C 
BRANCH  76  77
ATOM     77  O   UNL A   1      33.349  25.309  21.341  1.00  0.00    -0.461 OA
BRANCH  77  78
ATOM     78  C   UNL A   1      33.427  24.158  22.066  1.00  0.00     0.334 C 
ATOM     79  O   UNL A   1      33.116  23.055  21.610  1.00  0.00    -0.249 OA
BRANCH  78  80
ATOM     80  C   UNL A   1      33.731  24.348  23.562  1.00  0.00     0.232 C 
BRANCH  80  81
ATOM     81  C   UNL A   1      32.787  25.087  24.506  1.00  0.00    -0.014 A 
ATOM     82  C   UNL A   1      31.438  25.302  24.155  1.00  0.00     0.006 A 
ATOM     83  C   UNL A   1      33.141  25.348  25.839  1.00  0.00     0.006 A 
ATOM     84  C   UNL A   1      30.505  25.791  25.076  1.00  0.00     0.000 A 
ATOM     85  C   UNL A   1      32.200  25.801  26.769  1.00  0.00     0.000 A 
ATOM     86  C   UNL A   1      30.885  26.038  26.386  1.00  0.00     0.000 A 
ENDBRANCH  80  81
BRANCH  80  87
ATOM     87  N   UNL A   1      34.202  23.029  24.032  1.00  0.00    -0.274 N 
ATOM     88  C   UNL A   1      35.558  22.745  23.974  1.00  0.00     0.267 C 
ATOM     89  C   UNL A   1      33.397  22.040  24.565  1.00  0.00     0.149 C 
ATOM     90  O   UNL A   1      36.419  23.409  23.430  1.00  0.00    -0.268 OA
ATOM     91  C   UNL A   1      35.837  21.512  24.753  1.00  0.00     0.084 C 
ATOM     92  S   UNL A   1      34.381  20.609  24.895  1.00  0.00    -0.054 SA
ATOM     93  S   UNL A   1      31.783  22.142  24.970  1.00  0.00    -0.052 S 
ATOM     94  C   UNL A   1      36.926  21.244  25.484  1.00  0.00     0.068 C 
BRANCH  94  95
ATOM     95  C   UNL A   1      37.862  22.251  25.851  1.00  0.00     0.128 A 
ATOM     96  C   UNL A   1      37.611  23.600  26.095  1.00  0.00     0.051 A 
ATOM     97  O   UNL A   1      39.179  22.012  26.169  1.00  0.00    -0.457 OA
ATOM     98  C   UNL A   1      38.800  24.188  26.574  1.00  0.00     0.051 A 
ATOM     99  C   UNL A   1      39.736  23.183  26.590  1.00  0.00     0.134 A 
BRANCH  99 100
ATOM    100  C   UNL A   1      41.128  23.126  26.991  1.00  0.00     0.017 A 
ATOM    101  C   UNL A   1      42.140  23.486  26.091  1.00  0.00     0.015 A 
ATOM    102  C   UNL A   1      41.471  22.741  28.295  1.00  0.00     0.015 A 
ATOM    103  C   UNL A   1      43.478  23.465  26.492  1.00  0.00     0.040 A 
ATOM    104  C   UNL A   1      42.808  22.708  28.692  1.00  0.00     0.040 A 
ATOM    105  C   UNL A   1      43.799  23.074  27.787  1.00  0.00     0.123 A 
ATOM    106  F   UNL A   1      45.081  23.051  28.173  1.00  0.00    -0.207 F 
ENDBRANCH  99 100
ENDBRANCH  94  95
ENDBRANCH  80  87
ENDBRANCH  78  80
ENDBRANCH  77  78
ENDBRANCH  76  77
ENDBRANCH  75  76
ENDBRANCH  74  75
ENDBRANCH  73  74
ENDBRANCH   1  73
TORSDOF 24
ENDMDL
MODEL 2
REMARK VINA RESULT:     -10.1      1.158      7.258
REMARK SMILES O=C(OCCOCCOCCOC(=O)[C@@H](c1ccccc1)N1C(=O)/C(=C\c2ccc(-c3ccc(F)cc3)o2)SC1=S)c1ccc(-c2c3nc(c(-c4cccc(S(=O)(=O)[O-])c4F)c4ccc([nH]4)c(-c4cccc(S(=O)(=O)[O-])c4F)c4nc(c(-c5cccc(S(=O)(=O)[O-])c5F)c5ccc2[nH]5)C=C4)C=C3)cc1
REMARK SMILES IDX 7 1 6 2 5 3 4 4 3 5 2 6 1 7 42 8 43 9 104 10 44 11 103 12
REMARK SMILES IDX 45 13 46 14 47 15 97 16 48 17 102 18 96 19 98 20 49 21
REMARK SMILES IDX 101 22 95 23 94 24 50 26 82 27 62 28 81 29 63 30 66 31 80 32
REMARK SMILES IDX 99 33 64 34 65 35 79 37 100 38 67 39 51 40 52 41 60 42 53 43
REMARK SMILES IDX 55 44 61 45 54 46 56 47 57 48 58 49 59 50 83 51 84 52 92 53
REMARK SMILES IDX 85 54 87 55 93 56 86 57 88 58 89 59 90 60 91 61 68 62 69 63
REMARK SMILES IDX 77 64 70 65 72 66 78 67 71 68 73 69 74 70 75 71 76 72 8 73
REMARK SMILES IDX 9 74 10 75 11 76 12 77 13 78 14 79 15 80 16 81 17 82 21 83
REMARK SMILES IDX 18 84 20 85 19 86 22 87 23 88 40 89 24 90 25 91 39 92 41 93
REMARK SMILES IDX 26 94 27 95 28 96 38 97 29 98 30 99 31 100 32 101 37 102
REMARK SMILES IDX 33 103 36 104 34 105 35 106
REMARK H PARENT 98 25 66 36
REMARK Flexibility Score: inf
ROOT
ATOM      1  C   UNL A   1      31.617  29.248  24.969  1.00  0.00     0.188 C 
ENDROOT
BRANCH   1   2
ATOM      2  O   UNL A   1      31.425  29.833  26.264  1.00  0.00    -0.376 OA
BRANCH   2   3
ATOM      3  C   UNL A   1      31.910  31.174  26.364  1.00  0.00     0.202 C 
BRANCH   3   4
ATOM      4  C   UNL A   1      33.154  31.338  27.245  1.00  0.00     0.261 C 
BRANCH   4   5
ATOM      5  O   UNL A   1      33.245  32.651  27.811  1.00  0.00    -0.460 OA
BRANCH   5   6
ATOM      6  C   UNL A   1      34.364  33.396  27.986  1.00  0.00     0.338 C 
ATOM      7  O   UNL A   1      34.353  34.559  27.582  1.00  0.00    -0.246 OA
BRANCH   6   8
ATOM      8  C   UNL A   1      35.604  32.902  28.668  1.00  0.00     0.060 A 
ATOM      9  C   UNL A   1      36.821  33.585  28.753  1.00  0.00     0.016 A 
ATOM     10  C   UNL A   1      35.491  31.692  29.368  1.00  0.00     0.016 A 
ATOM     11  C   UNL A   1      37.913  33.061  29.452  1.00  0.00     0.010 A 
ATOM     12  C   UNL A   1      36.551  31.213  30.148  1.00  0.00     0.010 A 
ATOM     13  C   UNL A   1      37.784  31.885  30.185  1.00  0.00    -0.014 A 
BRANCH  13  14
ATOM     14  C   UNL A   1      38.924  31.317  30.954  1.00  0.00     0.031 A 
ATOM     15  C   UNL A   1      39.113  31.755  32.381  1.00  0.00     0.074 A 
ATOM     16  C   UNL A   1      39.815  30.476  30.386  1.00  0.00     0.049 A 
ATOM     17  N   UNL A   1      40.126  31.563  33.181  1.00  0.00    -0.248 NA
ATOM     18  C   UNL A   1      38.008  32.521  32.987  1.00  0.00     0.031 C 
ATOM     19  C   UNL A   1      39.735  29.917  29.035  1.00  0.00     0.029 A 
ATOM     20  N   UNL A   1      41.010  29.988  30.864  1.00  0.00    -0.354 N 
ATOM     21  C   UNL A   1      39.795  32.203  34.367  1.00  0.00     0.074 A 
ATOM     22  C   UNL A   1      38.517  32.849  34.163  1.00  0.00     0.031 C 
ATOM     23  C   UNL A   1      40.871  29.253  28.760  1.00  0.00     0.029 A 
ATOM     24  C   UNL A   1      41.765  29.361  29.898  1.00  0.00     0.049 A 
ATOM     25  H   UNL A   1      41.296  30.079  31.802  1.00  0.00     0.167 HD
ATOM     26  C   UNL A   1      40.458  32.201  35.545  1.00  0.00     0.034 A 
ATOM     27  C   UNL A   1      43.051  28.964  29.912  1.00  0.00     0.034 A 
ATOM     28  C   UNL A   1      41.680  31.485  35.768  1.00  0.00     0.049 A 
ATOM     29  C   UNL A   1      43.819  29.065  31.197  1.00  0.00     0.074 A 
ATOM     30  C   UNL A   1      42.369  31.301  36.952  1.00  0.00     0.029 A 
ATOM     31  N   UNL A   1      42.395  30.830  34.777  1.00  0.00    -0.354 N 
ATOM     32  N   UNL A   1      43.428  29.546  32.350  1.00  0.00    -0.248 NA
ATOM     33  C   UNL A   1      45.175  28.497  31.206  1.00  0.00     0.031 C 
ATOM     34  C   UNL A   1      43.512  30.543  36.673  1.00  0.00     0.029 A 
ATOM     35  C   UNL A   1      43.526  30.250  35.318  1.00  0.00     0.049 A 
ATOM     36  H   UNL A   1      42.135  30.786  33.829  1.00  0.00     0.167 HD
ATOM     37  C   UNL A   1      44.453  29.264  33.242  1.00  0.00     0.074 A 
ATOM     38  C   UNL A   1      45.493  28.593  32.488  1.00  0.00     0.031 C 
ATOM     39  C   UNL A   1      44.515  29.521  34.569  1.00  0.00     0.034 A 
BRANCH  26  40
ATOM     40  C   UNL A   1      39.821  32.931  36.695  1.00  0.00     0.023 A 
ATOM     41  C   UNL A   1      40.242  34.244  36.997  1.00  0.00     0.012 A 
ATOM     42  C   UNL A   1      38.817  32.327  37.474  1.00  0.00     0.148 A 
ATOM     43  C   UNL A   1      39.708  34.927  38.087  1.00  0.00     0.002 A 
ATOM     44  C   UNL A   1      38.262  33.030  38.536  1.00  0.00     0.091 A 
ATOM     45  F   UNL A   1      38.443  31.076  37.174  1.00  0.00    -0.205 F 
ATOM     46  C   UNL A   1      38.716  34.322  38.853  1.00  0.00     0.022 A 
BRANCH  44  47
ATOM     47  S   UNL A   1      36.944  32.369  39.560  1.00  0.00     0.127 S 
ATOM     48  O   UNL A   1      36.841  33.389  40.604  1.00  0.00    -0.237 OA
ATOM     49  O   UNL A   1      35.820  32.339  38.624  1.00  0.00    -0.237 OA
ATOM     50  O   UNL A   1      37.399  31.063  40.015  1.00  0.00    -0.744 OA
ENDBRANCH  44  47
ENDBRANCH  26  40
BRANCH  27  51
ATOM     51  C   UNL A   1      43.714  28.418  28.696  1.00  0.00     0.023 A 
ATOM     52  C   UNL A   1      43.569  27.057  28.371  1.00  0.00     0.012 A 
ATOM     53  C   UNL A   1      44.575  29.220  27.925  1.00  0.00     0.148 A 
ATOM     54  C   UNL A   1      44.306  26.494  27.328  1.00  0.00     0.002 A 
ATOM     55  C   UNL A   1      45.299  28.654  26.880  1.00  0.00     0.091 A 
ATOM     56  F   UNL A   1      44.709  30.514  28.254  1.00  0.00    -0.205 F 
ATOM     57  C   UNL A   1      45.174  27.290  26.583  1.00  0.00     0.022 A 
BRANCH  55  58
ATOM     58  S   UNL A   1      46.402  29.648  25.869  1.00  0.00     0.127 S 
ATOM     59  O   UNL A   1      46.486  28.856  24.647  1.00  0.00    -0.237 OA
ATOM     60  O   UNL A   1      45.668  30.906  25.735  1.00  0.00    -0.237 OA
ATOM     61  O   UNL A   1      47.617  29.749  26.669  1.00  0.00    -0.744 OA
ENDBRANCH  55  58
ENDBRANCH  27  51
BRANCH  39  62
ATOM     62  C   UNL A   1      45.707  29.004  35.323  1.00  0.00     0.023 A 
ATOM     63  C   UNL A   1      46.831  29.828  35.511  1.00  0.00     0.012 A 
ATOM     64  C   UNL A   1      45.661  27.732  35.925  1.00  0.00     0.148 A 
ATOM     65  C   UNL A   1      47.905  29.383  36.281  1.00  0.00     0.002 A 
ATOM     66  C   UNL A   1      46.708  27.320  36.735  1.00  0.00     0.091 A 
ATOM     67  F   UNL A   1      44.589  26.956  35.703  1.00  0.00    -0.205 F 
ATOM     68  C   UNL A   1      47.837  28.140  36.906  1.00  0.00     0.022 A 
BRANCH  66  69
ATOM     69  S   UNL A   1      46.648  25.788  37.670  1.00  0.00     0.127 S 
ATOM     70  O   UNL A   1      46.374  24.808  36.621  1.00  0.00    -0.237 OA
ATOM     71  O   UNL A   1      47.996  25.717  38.236  1.00  0.00    -0.237 OA
ATOM     72  O   UNL A   1      45.590  25.962  38.656  1.00  0.00    -0.744 OA
ENDBRANCH  66  69
ENDBRANCH  39  62
ENDBRANCH  13  14
ENDBRANCH   6   8
ENDBRANCH   5   6
ENDBRANCH   4   5
ENDBRANCH   3   4
ENDBRANCH   2   3
ENDBRANCH   1   2
BRANCH   1  73
ATOM     73  C   UNL A   1      32.930  28.462  24.903  1.00  0.00     0.188 C 
BRANCH  73  74
ATOM     74  O   UNL A   1      33.744  28.696  23.753  1.00  0.00    -0.376 OA
BRANCH  74  75
ATOM     75  C   UNL A   1      33.471  27.914  22.598  1.00  0.00     0.202 C 
BRANCH  75  76
ATOM     76  C   UNL A   1      34.143  26.537  22.450  1.00  0.00     0.261 C 
BRANCH  76  77
ATOM     77  O   UNL A   1      33.464  25.549  21.662  1.00  0.00    -0.461 OA
BRANCH  77  78
ATOM     78  C   UNL A   1      33.487  24.298  22.202  1.00  0.00     0.334 C 
ATOM     79  O   UNL A   1      33.350  23.274  21.529  1.00  0.00    -0.249 OA
BRANCH  78  80
ATOM     80  C   UNL A   1      33.488  24.251  23.739  1.00  0.00     0.232 C 
BRANCH  80  81
ATOM     81  C   UNL A   1      32.304  24.727  24.578  1.00  0.00    -0.014 A 
ATOM     82  C   UNL A   1      32.478  25.093  25.929  1.00  0.00     0.006 A 
ATOM     83  C   UNL A   1      31.076  25.061  23.987  1.00  0.00     0.006 A 
ATOM     84  C   UNL A   1      31.463  25.720  26.660  1.00  0.00     0.000 A 
ATOM     85  C   UNL A   1      30.075  25.723  24.707  1.00  0.00     0.000 A 
ATOM     86  C   UNL A   1      30.261  26.039  26.048  1.00  0.00     0.000 A 
ENDBRANCH  80  81
BRANCH  80  87
ATOM     87  N   UNL A   1      34.019  22.916  24.086  1.00  0.00    -0.274 N 
ATOM     88  C   UNL A   1      35.382  22.691  23.969  1.00  0.00     0.267 C 
ATOM     89  C   UNL A   1      33.266  21.856  24.554  1.00  0.00     0.149 C 
ATOM     90  O   UNL A   1      36.203  23.430  23.462  1.00  0.00    -0.268 OA
ATOM     91  C   UNL A   1      35.728  21.409  24.635  1.00  0.00     0.084 C 
ATOM     92  S   UNL A   1      34.311  20.442  24.737  1.00  0.00    -0.054 SA
ATOM     93  S   UNL A   1      31.661  21.862  25.007  1.00  0.00    -0.052 S 
ATOM     94  C   UNL A   1      36.847  21.124  25.313  1.00  0.00     0.068 C 
BRANCH  94  95
ATOM     95  C   UNL A   1      37.755  22.133  25.740  1.00  0.00     0.128 A 
ATOM     96  C   UNL A   1      37.464  23.450  26.088  1.00  0.00     0.051 A 
ATOM     97  O   UNL A   1      39.086  21.916  26.017  1.00  0.00    -0.457 OA
ATOM     98  C   UNL A   1      38.642  24.041  26.591  1.00  0.00     0.051 A 
ATOM     99  C   UNL A   1      39.611  23.070  26.516  1.00  0.00     0.134 A 
BRANCH  99 100
ATOM    100  C   UNL A   1      41.011  23.032  26.888  1.00  0.00     0.017 A 
ATOM    101  C   UNL A   1      42.000  22.845  25.912  1.00  0.00     0.015 A 
ATOM    102  C   UNL A   1      41.390  23.216  28.225  1.00  0.00     0.015 A 
ATOM    103  C   UNL A   1      43.351  22.846  26.270  1.00  0.00     0.040 A 
ATOM    104  C   UNL A   1      42.739  23.202  28.585  1.00  0.00     0.040 A 
ATOM    105  C   UNL A   1      43.706  23.022  27.602  1.00  0.00     0.123 A 
ATOM    106  F   UNL A   1      45.000  23.020  27.947  1.00  0.00    -0.207 F 
ENDBRANCH  99 100
ENDBRANCH  94  95
ENDBRANCH  80  87
ENDBRANCH  78  80
ENDBRANCH  77  78
ENDBRANCH  76  77
ENDBRANCH  75  76
ENDBRANCH  74  75
ENDBRANCH  73  74
ENDBRANCH   1  73
TORSDOF 24
ENDMDL
MODEL 3
REMARK VINA RESULT:      -9.4      1.694      7.423
REMARK SMILES O=C(OCCOCCOCCOC(=O)[C@@H](c1ccccc1)N1C(=O)/C(=C\c2ccc(-c3ccc(F)cc3)o2)SC1=S)c1ccc(-c2c3nc(c(-c4cccc(S(=O)(=O)[O-])c4F)c4ccc([nH]4)c(-c4cccc(S(=O)(=O)[O-])c4F)c4nc(c(-c5cccc(S(=O)(=O)[O-])c5F)c5ccc2[nH]5)C=C4)C=C3)cc1
REMARK SMILES IDX 7 1 6 2 5 3 4 4 3 5 2 6 1 7 42 8 43 9 104 10 44 11 103 12
REMARK SMILES IDX 45 13 46 14 47 15 97 16 48 17 102 18 96 19 98 20 49 21
REMARK SMILES IDX 101 22 95 23 94 24 50 26 82 27 62 28 81 29 63 30 66 31 80 32
REMARK SMILES IDX 99 33 64 34 65 35 79 37 100 38 67 39 51 40 52 41 60 42 53 43
REMARK SMILES IDX 55 44 61 45 54 46 56 47 57 48 58 49 59 50 83 51 84 52 92 53
REMARK SMILES IDX 85 54 87 55 93 56 86 57 88 58 89 59 90 60 91 61 68 62 69 63
REMARK SMILES IDX 77 64 70 65 72 66 78 67 71 68 73 69 74 70 75 71 76 72 8 73
REMARK SMILES IDX 9 74 10 75 11 76 12 77 13 78 14 79 15 80 16 81 17 82 21 83
REMARK SMILES IDX 18 84 20 85 19 86 22 87 23 88 40 89 24 90 25 91 39 92 41 93
REMARK SMILES IDX 26 94 27 95 28 96 38 97 29 98 30 99 31 100 32 101 37 102
REMARK SMILES IDX 33 103 36 104 34 105 35 106
REMARK H PARENT 98 25 66 36
REMARK Flexibility Score: inf
ROOT
ATOM      1  C   UNL A   1      33.329  31.940  27.622  1.00  0.00     0.188 C 
ENDROOT
BRANCH   1   2
ATOM      2  O   UNL A   1      34.365  32.543  28.410  1.00  0.00    -0.376 OA
BRANCH   2   3
ATOM      3  C   UNL A   1      34.523  33.944  28.172  1.00  0.00     0.202 C 
BRANCH   3   4
ATOM      4  C   UNL A   1      33.261  34.780  28.418  1.00  0.00     0.261 C 
BRANCH   4   5
ATOM      5  O   UNL A   1      32.648  34.472  29.676  1.00  0.00    -0.460 OA
BRANCH   5   6
ATOM      6  C   UNL A   1      33.096  34.804  30.912  1.00  0.00     0.338 C 
ATOM      7  O   UNL A   1      32.381  35.521  31.612  1.00  0.00    -0.246 OA
BRANCH   6   8
ATOM      8  C   UNL A   1      34.393  34.328  31.492  1.00  0.00     0.060 A 
ATOM      9  C   UNL A   1      35.529  35.112  31.716  1.00  0.00     0.016 A 
ATOM     10  C   UNL A   1      34.425  33.000  31.943  1.00  0.00     0.016 A 
ATOM     11  C   UNL A   1      36.683  34.588  32.305  1.00  0.00     0.010 A 
ATOM     12  C   UNL A   1      35.544  32.500  32.620  1.00  0.00     0.010 A 
ATOM     13  C   UNL A   1      36.696  33.284  32.794  1.00  0.00    -0.014 A 
BRANCH  13  14
ATOM     14  C   UNL A   1      37.904  32.709  33.445  1.00  0.00     0.031 A 
ATOM     15  C   UNL A   1      38.205  33.098  34.867  1.00  0.00     0.074 A 
ATOM     16  C   UNL A   1      38.756  31.904  32.774  1.00  0.00     0.049 A 
ATOM     17  N   UNL A   1      39.284  32.894  35.573  1.00  0.00    -0.248 NA
ATOM     18  C   UNL A   1      37.143  33.822  35.591  1.00  0.00     0.031 C 
ATOM     19  C   UNL A   1      38.572  31.393  31.415  1.00  0.00     0.029 A 
ATOM     20  N   UNL A   1      39.993  31.420  33.133  1.00  0.00    -0.354 N 
ATOM     21  C   UNL A   1      39.043  33.485  36.805  1.00  0.00     0.074 A 
ATOM     22  C   UNL A   1      37.744  34.115  36.732  1.00  0.00     0.031 C 
ATOM     23  C   UNL A   1      39.690  30.759  31.021  1.00  0.00     0.029 A 
ATOM     24  C   UNL A   1      40.675  30.841  32.085  1.00  0.00     0.049 A 
ATOM     25  H   UNL A   1      40.355  31.481  34.047  1.00  0.00     0.167 HD
ATOM     26  C   UNL A   1      39.802  33.451  37.924  1.00  0.00     0.034 A 
ATOM     27  C   UNL A   1      41.963  30.465  31.978  1.00  0.00     0.034 A 
ATOM     28  C   UNL A   1      41.048  32.748  38.018  1.00  0.00     0.049 A 
ATOM     29  C   UNL A   1      42.833  30.533  33.198  1.00  0.00     0.074 A 
ATOM     30  C   UNL A   1      41.836  32.533  39.133  1.00  0.00     0.029 A 
ATOM     31  N   UNL A   1      41.687  32.142  36.947  1.00  0.00    -0.354 N 
ATOM     32  N   UNL A   1      42.533  30.965  34.397  1.00  0.00    -0.248 NA
ATOM     33  C   UNL A   1      44.193  29.988  33.073  1.00  0.00     0.031 C 
ATOM     34  C   UNL A   1      42.961  31.806  38.733  1.00  0.00     0.029 A 
ATOM     35  C   UNL A   1      42.867  31.562  37.371  1.00  0.00     0.049 A 
ATOM     36  H   UNL A   1      41.349  32.128  36.023  1.00  0.00     0.167 HD
ATOM     37  C   UNL A   1      43.632  30.668  35.190  1.00  0.00     0.074 A 
ATOM     38  C   UNL A   1      44.615  30.043  34.328  1.00  0.00     0.031 C 
ATOM     39  C   UNL A   1      43.801  30.877  36.516  1.00  0.00     0.034 A 
BRANCH  26  40
ATOM     40  C   UNL A   1      39.253  34.128  39.148  1.00  0.00     0.023 A 
ATOM     41  C   UNL A   1      39.632  35.457  39.431  1.00  0.00     0.012 A 
ATOM     42  C   UNL A   1      38.372  33.457  40.017  1.00  0.00     0.148 A 
ATOM     43  C   UNL A   1      39.181  36.094  40.585  1.00  0.00     0.002 A 
ATOM     44  C   UNL A   1      37.895  34.113  41.146  1.00  0.00     0.091 A 
ATOM     45  F   UNL A   1      38.035  32.192  39.734  1.00  0.00    -0.205 F 
ATOM     46  C   UNL A   1      38.310  35.424  41.439  1.00  0.00     0.022 A 
BRANCH  44  47
ATOM     47  S   UNL A   1      36.732  33.365  42.289  1.00  0.00     0.127 S 
ATOM     48  O   UNL A   1      35.729  32.817  41.374  1.00  0.00    -0.237 OA
ATOM     49  O   UNL A   1      37.563  32.361  42.953  1.00  0.00    -0.237 OA
ATOM     50  O   UNL A   1      36.260  34.439  43.151  1.00  0.00    -0.744 OA
ENDBRANCH  44  47
ENDBRANCH  26  40
BRANCH  27  51
ATOM     51  C   UNL A   1      42.530  29.975  30.692  1.00  0.00     0.023 A 
ATOM     52  C   UNL A   1      43.100  30.889  29.786  1.00  0.00     0.012 A 
ATOM     53  C   UNL A   1      42.407  28.625  30.319  1.00  0.00     0.148 A 
ATOM     54  C   UNL A   1      43.495  30.472  28.513  1.00  0.00     0.002 A 
ATOM     55  C   UNL A   1      42.812  28.215  29.053  1.00  0.00     0.091 A 
ATOM     56  F   UNL A   1      41.854  27.769  31.192  1.00  0.00    -0.205 F 
ATOM     57  C   UNL A   1      43.349  29.137  28.143  1.00  0.00     0.022 A 
BRANCH  55  58
ATOM     58  S   UNL A   1      42.677  26.497  28.545  1.00  0.00     0.127 S 
ATOM     59  O   UNL A   1      43.261  26.532  27.208  1.00  0.00    -0.237 OA
ATOM     60  O   UNL A   1      43.483  25.802  29.548  1.00  0.00    -0.237 OA
ATOM     61  O   UNL A   1      41.249  26.217  28.629  1.00  0.00    -0.744 OA
ENDBRANCH  55  58
ENDBRANCH  27  51
BRANCH  39  62
ATOM     62  C   UNL A   1      45.058  30.354  37.149  1.00  0.00     0.023 A 
ATOM     63  C   UNL A   1      46.186  31.186  37.264  1.00  0.00     0.012 A 
ATOM     64  C   UNL A   1      45.077  29.065  37.714  1.00  0.00     0.148 A 
ATOM     65  C   UNL A   1      47.327  30.733  37.925  1.00  0.00     0.002 A 
ATOM     66  C   UNL A   1      46.194  28.643  38.419  1.00  0.00     0.091 A 
ATOM     67  F   UNL A   1      43.998  28.282  37.562  1.00  0.00    -0.205 F 
ATOM     68  C   UNL A   1      47.325  29.471  38.516  1.00  0.00     0.022 A 
BRANCH  66  69
ATOM     69  S   UNL A   1      46.230  27.084  39.310  1.00  0.00     0.127 S 
ATOM     70  O   UNL A   1      47.480  27.195  40.058  1.00  0.00    -0.237 OA
ATOM     71  O   UNL A   1      45.019  27.166  40.127  1.00  0.00    -0.237 OA
ATOM     72  O   UNL A   1      46.200  26.041  38.293  1.00  0.00    -0.744 OA
ENDBRANCH  66  69
ENDBRANCH  39  62
ENDBRANCH  13  14
ENDBRANCH   6   8
ENDBRANCH   5   6
ENDBRANCH   4   5
ENDBRANCH   3   4
ENDBRANCH   2   3
ENDBRANCH   1   2
BRANCH   1  73
ATOM     73  C   UNL A   1      33.658  30.480  27.297  1.00  0.00     0.188 C 
BRANCH  73  74
ATOM     74  O   UNL A   1      32.544  29.590  27.211  1.00  0.00    -0.376 OA
BRANCH  74  75
ATOM     75  C   UNL A   1      32.831  28.214  27.002  1.00  0.00     0.202 C 
BRANCH  75  76
ATOM     76  C   UNL A   1      31.758  27.314  26.362  1.00  0.00     0.261 C 
BRANCH  76  77
ATOM     77  O   UNL A   1      31.786  25.917  26.686  1.00  0.00    -0.461 OA
BRANCH  77  78
ATOM     78  C   UNL A   1      32.805  25.231  26.095  1.00  0.00     0.334 C 
ATOM     79  O   UNL A   1      33.957  25.227  26.536  1.00  0.00    -0.249 OA
BRANCH  78  80
ATOM     80  C   UNL A   1      32.473  24.626  24.720  1.00  0.00     0.232 C 
BRANCH  80  81
ATOM     81  C   UNL A   1      32.799  25.335  23.408  1.00  0.00    -0.014 A 
ATOM     82  C   UNL A   1      32.175  24.947  22.204  1.00  0.00     0.006 A 
ATOM     83  C   UNL A   1      33.517  26.541  23.387  1.00  0.00     0.006 A 
ATOM     84  C   UNL A   1      32.299  25.702  21.033  1.00  0.00     0.000 A 
ATOM     85  C   UNL A   1      33.609  27.315  22.226  1.00  0.00     0.000 A 
ATOM     86  C   UNL A   1      33.014  26.890  21.043  1.00  0.00     0.000 A 
ENDBRANCH  80  81
BRANCH  80  87
ATOM     87  N   UNL A   1      32.900  23.214  24.805  1.00  0.00    -0.274 N 
ATOM     88  C   UNL A   1      34.182  22.880  24.395  1.00  0.00     0.267 C 
ATOM     89  C   UNL A   1      32.130  22.177  25.296  1.00  0.00     0.149 C 
ATOM     90  O   UNL A   1      34.974  23.599  23.818  1.00  0.00    -0.268 OA
ATOM     91  C   UNL A   1      34.494  21.495  24.834  1.00  0.00     0.084 C 
ATOM     92  S   UNL A   1      33.018  20.660  25.110  1.00  0.00    -0.054 SA
ATOM     93  S   UNL A   1      30.650  22.273  26.058  1.00  0.00    -0.052 S 
ATOM     94  C   UNL A   1      35.679  21.021  25.239  1.00  0.00     0.068 C 
BRANCH  94  95
ATOM     95  C   UNL A   1      36.762  21.877  25.584  1.00  0.00     0.128 A 
ATOM     96  C   UNL A   1      36.697  23.180  26.075  1.00  0.00     0.051 A 
ATOM     97  O   UNL A   1      38.082  21.488  25.617  1.00  0.00    -0.457 OA
ATOM     98  C   UNL A   1      38.004  23.585  26.418  1.00  0.00     0.051 A 
ATOM     99  C   UNL A   1      38.820  22.524  26.108  1.00  0.00     0.134 A 
BRANCH  99 100
ATOM    100  C   UNL A   1      40.245  22.294  26.237  1.00  0.00     0.017 A 
ATOM    101  C   UNL A   1      40.770  21.001  26.110  1.00  0.00     0.015 A 
ATOM    102  C   UNL A   1      41.115  23.371  26.458  1.00  0.00     0.015 A 
ATOM    103  C   UNL A   1      42.148  20.789  26.198  1.00  0.00     0.040 A 
ATOM    104  C   UNL A   1      42.491  23.157  26.560  1.00  0.00     0.040 A 
ATOM    105  C   UNL A   1      42.994  21.868  26.424  1.00  0.00     0.123 A 
ATOM    106  F   UNL A   1      44.315  21.666  26.512  1.00  0.00    -0.207 F 
ENDBRANCH  99 100
ENDBRANCH  94  95
ENDBRANCH  80  87
ENDBRANCH  78  80
ENDBRANCH  77  78
ENDBRANCH  76  77
ENDBRANCH  75  76
ENDBRANCH  74  75
ENDBRANCH  73  74
ENDBRANCH   1  73
TORSDOF 24
ENDMDL
