MODEL 1
REMARK VINA RESULT:     -10.3      0.000      0.000
REMARK SMILES CCOc1ccccc1[C@H]1CC(C(=O)OCCOCCOCCOC(=O)c2ccc(-c3c4nc(c(-c5cccc(S(=O)(=O)[O-])c5F)c5ccc([nH]5)c(-c5cccc(S(=O)(=O)[O-])c5F)c5nc(c(-c6cccc(S(=O)(=O)[O-])c6F)c6ccc3[nH]6)C=C5)C=C4)cc2)=Nc2c(C(=O)Nc3ccccc3)cnn21
REMARK SMILES IDX 19 1 18 2 17 3 16 4 15 5 13 6 14 7 12 8 10 9 11 10 104 11
REMARK SMILES IDX 91 12 103 13 90 14 92 15 102 16 9 17 4 18 5 19 6 20 8 21
REMARK SMILES IDX 7 22 3 23 2 24 1 25 93 26 94 27 95 28 96 30 97 31 101 32
REMARK SMILES IDX 98 33 100 34 99 35 20 36 21 37 22 38 23 39 24 40 25 41 26 42
REMARK SMILES IDX 27 43 28 44 89 45 29 46 88 47 30 48 31 49 32 50 82 51 33 52
REMARK SMILES IDX 87 53 81 54 83 55 34 56 86 57 80 58 79 59 35 61 67 62 47 63
REMARK SMILES IDX 66 64 48 65 51 66 65 67 84 68 49 69 50 70 64 72 85 73 52 74
REMARK SMILES IDX 36 75 37 76 45 77 38 78 40 79 46 80 39 81 41 82 42 83 43 84
REMARK SMILES IDX 44 85 68 86 69 87 77 88 70 89 72 90 78 91 71 92 73 93 74 94
REMARK SMILES IDX 75 95 76 96 53 97 54 98 62 99 55 100 57 101 63 102 56 103
REMARK SMILES IDX 58 104 59 105 60 106 61 107
REMARK H PARENT 95 29 83 60 51 71
REMARK Flexibility Score: inf
ROOT
ATOM      1  C   UNL A   1      33.154  27.540  24.711  1.00  0.00     0.188 C 
ENDROOT
BRANCH   1   2
ATOM      2  O   UNL A   1      33.805  26.395  24.224  1.00  0.00    -0.376 OA
BRANCH   2   3
ATOM      3  C   UNL A   1      34.011  25.373  25.188  1.00  0.00     0.202 C 
BRANCH   3   4
ATOM      4  C   UNL A   1      34.712  24.034  24.787  1.00  0.00     0.261 C 
BRANCH   4   5
ATOM      5  O   UNL A   1      36.169  23.965  24.874  1.00  0.00    -0.459 OA
BRANCH   5   6
ATOM      6  C   UNL A   1      36.769  22.815  25.261  1.00  0.00     0.352 C 
ATOM      7  O   UNL A   1      36.367  21.687  25.043  1.00  0.00    -0.245 OA
BRANCH   6   8
ATOM      8  C   UNL A   1      38.128  23.079  25.996  1.00  0.00     0.130 C 
ATOM      9  C   UNL A   1      39.421  24.805  27.553  1.00  0.00     0.150 C 
ATOM     10  C   UNL A   1      38.266  24.475  26.582  1.00  0.00     0.096 C 
ATOM     11  N   UNL A   1      40.346  23.708  27.713  1.00  0.00    -0.239 N 
ATOM     12  C   UNL A   1      40.251  22.300  26.525  1.00  0.00     0.164 A 
ATOM     13  N   UNL A   1      41.987  23.721  28.588  1.00  0.00    -0.178 NA
ATOM     14  N   UNL A   1      39.014  22.114  25.980  1.00  0.00    -0.225 NA
ATOM     15  C   UNL A   1      41.862  21.484  26.560  1.00  0.00     0.104 A 
ATOM     16  C   UNL A   1      42.902  22.415  27.933  1.00  0.00     0.151 A 
BRANCH   9  17
ATOM     17  C   UNL A   1      40.142  26.033  27.063  1.00  0.00     0.019 A 
ATOM     18  C   UNL A   1      39.951  27.297  27.625  1.00  0.00     0.124 A 
ATOM     19  C   UNL A   1      40.689  28.384  27.139  1.00  0.00     0.047 A 
ATOM     20  C   UNL A   1      41.647  28.217  26.136  1.00  0.00     0.004 A 
ATOM     21  C   UNL A   1      41.078  25.888  26.012  1.00  0.00     0.010 A 
ATOM     22  C   UNL A   1      41.841  26.966  25.568  1.00  0.00     0.001 A 
BRANCH  18  23
ATOM     23  O   UNL A   1      39.012  27.612  28.567  1.00  0.00    -0.494 OA
BRANCH  23  24
ATOM     24  C   UNL A   1      39.033  28.970  29.378  1.00  0.00     0.226 C 
ATOM     25  C   UNL A   1      38.275  30.997  28.737  1.00  0.00     0.049 C 
ENDBRANCH  23  24
ENDBRANCH  18  23
ENDBRANCH   9  17
BRANCH  15  26
ATOM     26  C   UNL A   1      42.557  20.273  26.004  1.00  0.00     0.261 C 
ATOM     27  O   UNL A   1      42.056  19.173  26.264  1.00  0.00    -0.269 OA
ATOM     28  N   UNL A   1      43.671  20.212  25.187  1.00  0.00    -0.322 N 
ATOM     29  H   UNL A   1      43.879  19.327  24.809  1.00  0.00     0.170 HD
BRANCH  28  30
ATOM     30  C   UNL A   1      44.527  21.234  24.836  1.00  0.00     0.041 A 
ATOM     31  C   UNL A   1      44.027  22.329  24.120  1.00  0.00     0.026 A 
ATOM     32  C   UNL A   1      45.744  21.264  25.446  1.00  0.00     0.026 A 
ATOM     33  C   UNL A   1      44.548  23.587  24.392  1.00  0.00     0.002 A 
ATOM     34  C   UNL A   1      46.165  22.510  25.789  1.00  0.00     0.002 A 
ATOM     35  C   UNL A   1      45.549  23.682  25.336  1.00  0.00     0.000 A 
ENDBRANCH  28  30
ENDBRANCH  15  26
ENDBRANCH   6   8
ENDBRANCH   5   6
ENDBRANCH   4   5
ENDBRANCH   3   4
ENDBRANCH   2   3
ENDBRANCH   1   2
BRANCH   1  36
ATOM     36  C   UNL A   1      33.939  28.415  25.717  1.00  0.00     0.188 C 
BRANCH  36  37
ATOM     37  O   UNL A   1      33.357  29.611  26.208  1.00  0.00    -0.376 OA
BRANCH  37  38
ATOM     38  C   UNL A   1      33.787  30.101  27.472  1.00  0.00     0.202 C 
BRANCH  38  39
ATOM     39  C   UNL A   1      34.239  31.560  27.639  1.00  0.00     0.261 C 
BRANCH  39  40
ATOM     40  O   UNL A   1      35.052  31.832  28.771  1.00  0.00    -0.460 OA
BRANCH  40  41
ATOM     41  C   UNL A   1      34.595  32.789  29.606  1.00  0.00     0.338 C 
ATOM     42  O   UNL A   1      34.118  33.867  29.296  1.00  0.00    -0.246 OA
BRANCH  41  43
ATOM     43  C   UNL A   1      34.785  32.316  30.996  1.00  0.00     0.060 A 
ATOM     44  C   UNL A   1      34.705  33.298  31.979  1.00  0.00     0.016 A 
ATOM     45  C   UNL A   1      35.685  31.269  31.128  1.00  0.00     0.016 A 
ATOM     46  C   UNL A   1      35.869  33.588  32.664  1.00  0.00     0.010 A 
ATOM     47  C   UNL A   1      36.782  31.502  31.908  1.00  0.00     0.010 A 
ATOM     48  C   UNL A   1      36.984  32.773  32.447  1.00  0.00    -0.014 A 
BRANCH  48  49
ATOM     49  C   UNL A   1      38.273  33.023  33.090  1.00  0.00     0.031 A 
ATOM     50  C   UNL A   1      39.206  33.440  31.993  1.00  0.00     0.074 A 
ATOM     51  C   UNL A   1      38.483  33.003  34.440  1.00  0.00     0.049 A 
ATOM     52  N   UNL A   1      39.998  32.648  31.336  1.00  0.00    -0.248 NA
ATOM     53  C   UNL A   1      38.947  34.702  31.256  1.00  0.00     0.031 C 
ATOM     54  C   UNL A   1      37.561  32.701  35.552  1.00  0.00     0.029 A 
ATOM     55  N   UNL A   1      39.624  33.318  35.142  1.00  0.00    -0.354 N 
ATOM     56  C   UNL A   1      40.584  33.475  30.378  1.00  0.00     0.074 A 
ATOM     57  C   UNL A   1      39.631  34.504  30.127  1.00  0.00     0.031 C 
ATOM     58  C   UNL A   1      38.096  33.099  36.740  1.00  0.00     0.029 A 
ATOM     59  C   UNL A   1      39.450  33.566  36.524  1.00  0.00     0.049 A 
ATOM     60  H   UNL A   1      40.506  33.366  34.710  1.00  0.00     0.167 HD
ATOM     61  C   UNL A   1      41.943  33.554  30.296  1.00  0.00     0.034 A 
ATOM     62  C   UNL A   1      40.370  34.117  37.386  1.00  0.00     0.034 A 
ATOM     63  C   UNL A   1      42.521  32.411  30.963  1.00  0.00     0.049 A 
ATOM     64  C   UNL A   1      41.695  33.950  36.745  1.00  0.00     0.074 A 
ATOM     65  C   UNL A   1      42.454  31.043  30.812  1.00  0.00     0.029 A 
ATOM     66  N   UNL A   1      42.878  32.653  32.264  1.00  0.00    -0.354 N 
ATOM     67  N   UNL A   1      42.221  32.773  36.561  1.00  0.00    -0.248 NA
ATOM     68  C   UNL A   1      42.099  34.997  35.822  1.00  0.00     0.031 C 
ATOM     69  C   UNL A   1      42.396  30.525  32.140  1.00  0.00     0.029 A 
ATOM     70  C   UNL A   1      42.593  31.571  33.042  1.00  0.00     0.049 A 
ATOM     71  H   UNL A   1      43.283  33.489  32.590  1.00  0.00     0.167 HD
ATOM     72  C   UNL A   1      42.584  32.793  35.223  1.00  0.00     0.074 A 
ATOM     73  C   UNL A   1      42.523  34.208  34.830  1.00  0.00     0.031 C 
ATOM     74  C   UNL A   1      42.530  31.647  34.480  1.00  0.00     0.034 A 
BRANCH  61  75
ATOM     75  C   UNL A   1      42.740  34.855  30.148  1.00  0.00     0.023 A 
ATOM     76  C   UNL A   1      43.234  35.412  31.349  1.00  0.00     0.012 A 
ATOM     77  C   UNL A   1      42.800  35.693  29.003  1.00  0.00     0.148 A 
ATOM     78  C   UNL A   1      43.690  36.735  31.424  1.00  0.00     0.002 A 
ATOM     79  C   UNL A   1      43.297  36.992  29.068  1.00  0.00     0.091 A 
ATOM     80  F   UNL A   1      42.298  35.299  27.835  1.00  0.00    -0.205 F 
ATOM     81  C   UNL A   1      43.719  37.527  30.284  1.00  0.00     0.022 A 
BRANCH  79  82
ATOM     82  S   UNL A   1      43.374  38.067  27.622  1.00  0.00     0.127 S 
ATOM     83  O   UNL A   1      44.140  37.247  26.687  1.00  0.00    -0.237 OA
ATOM     84  O   UNL A   1      41.956  38.217  27.295  1.00  0.00    -0.237 OA
ATOM     85  O   UNL A   1      44.024  39.294  28.060  1.00  0.00    -0.744 OA
ENDBRANCH  79  82
ENDBRANCH  61  75
BRANCH  62  86
ATOM     86  C   UNL A   1      40.224  35.115  38.500  1.00  0.00     0.023 A 
ATOM     87  C   UNL A   1      40.261  36.518  38.272  1.00  0.00     0.012 A 
ATOM     88  C   UNL A   1      39.695  34.685  39.733  1.00  0.00     0.148 A 
ATOM     89  C   UNL A   1      39.777  37.437  39.227  1.00  0.00     0.002 A 
ATOM     90  C   UNL A   1      39.204  35.596  40.669  1.00  0.00     0.091 A 
ATOM     91  F   UNL A   1      39.584  33.369  39.943  1.00  0.00    -0.205 F 
ATOM     92  C   UNL A   1      39.235  36.974  40.421  1.00  0.00     0.022 A 
BRANCH  90  93
ATOM     93  S   UNL A   1      38.439  35.049  42.203  1.00  0.00     0.127 S 
ATOM     94  O   UNL A   1      39.280  33.909  42.566  1.00  0.00    -0.237 OA
ATOM     95  O   UNL A   1      38.595  36.225  43.056  1.00  0.00    -0.237 OA
ATOM     96  O   UNL A   1      37.066  34.701  41.862  1.00  0.00    -0.744 OA
ENDBRANCH  90  93
ENDBRANCH  62  86
BRANCH  74  97
ATOM     97  C   UNL A   1      42.318  30.345  35.208  1.00  0.00     0.023 A 
ATOM     98  C   UNL A   1      41.068  29.720  35.418  1.00  0.00     0.012 A 
ATOM     99  C   UNL A   1      43.487  29.659  35.559  1.00  0.00     0.148 A 
ATOM    100  C   UNL A   1      41.000  28.445  35.998  1.00  0.00     0.002 A 
ATOM    101  C   UNL A   1      43.419  28.385  36.092  1.00  0.00     0.091 A 
ATOM    102  F   UNL A   1      44.660  30.265  35.322  1.00  0.00    -0.205 F 
ATOM    103  C   UNL A   1      42.177  27.775  36.330  1.00  0.00     0.022 A 
BRANCH 101 104
ATOM    104  S   UNL A   1      44.909  27.449  36.418  1.00  0.00     0.127 S 
ATOM    105  O   UNL A   1      45.341  28.010  37.697  1.00  0.00    -0.237 OA
ATOM    106  O   UNL A   1      44.405  26.078  36.485  1.00  0.00    -0.237 OA
ATOM    107  O   UNL A   1      45.802  27.703  35.294  1.00  0.00    -0.744 OA
ENDBRANCH 101 104
ENDBRANCH  74  97
ENDBRANCH  48  49
ENDBRANCH  41  43
ENDBRANCH  40  41
ENDBRANCH  39  40
ENDBRANCH  38  39
ENDBRANCH  37  38
ENDBRANCH  36  37
ENDBRANCH   1  36
TORSDOF 25
ENDMDL
MODEL 2
REMARK VINA RESULT:     -10.1      2.266      6.583
REMARK SMILES CCOc1ccccc1[C@H]1CC(C(=O)OCCOCCOCCOC(=O)c2ccc(-c3c4nc(c(-c5cccc(S(=O)(=O)[O-])c5F)c5ccc([nH]5)c(-c5cccc(S(=O)(=O)[O-])c5F)c5nc(c(-c6cccc(S(=O)(=O)[O-])c6F)c6ccc3[nH]6)C=C5)C=C4)cc2)=Nc2c(C(=O)Nc3ccccc3)cnn21
REMARK SMILES IDX 19 1 18 2 17 3 16 4 15 5 13 6 14 7 12 8 10 9 11 10 104 11
REMARK SMILES IDX 91 12 103 13 90 14 92 15 102 16 9 17 4 18 5 19 6 20 8 21
REMARK SMILES IDX 7 22 3 23 2 24 1 25 93 26 94 27 95 28 96 30 97 31 101 32
REMARK SMILES IDX 98 33 100 34 99 35 20 36 21 37 22 38 23 39 24 40 25 41 26 42
REMARK SMILES IDX 27 43 28 44 89 45 29 46 88 47 30 48 31 49 32 50 82 51 33 52
REMARK SMILES IDX 87 53 81 54 83 55 34 56 86 57 80 58 79 59 35 61 67 62 47 63
REMARK SMILES IDX 66 64 48 65 51 66 65 67 84 68 49 69 50 70 64 72 85 73 52 74
REMARK SMILES IDX 36 75 37 76 45 77 38 78 40 79 46 80 39 81 41 82 42 83 43 84
REMARK SMILES IDX 44 85 68 86 69 87 77 88 70 89 72 90 78 91 71 92 73 93 74 94
REMARK SMILES IDX 75 95 76 96 53 97 54 98 62 99 55 100 57 101 63 102 56 103
REMARK SMILES IDX 58 104 59 105 60 106 61 107
REMARK H PARENT 95 29 83 60 51 71
REMARK Flexibility Score: inf
ROOT
ATOM      1  C   UNL A   1      33.246  27.325  24.458  1.00  0.00     0.188 C 
ENDROOT
BRANCH   1   2
ATOM      2  O   UNL A   1      33.190  25.923  24.523  1.00  0.00    -0.376 OA
BRANCH   2   3
ATOM      3  C   UNL A   1      34.208  25.323  25.309  1.00  0.00     0.202 C 
BRANCH   3   4
ATOM      4  C   UNL A   1      35.077  24.159  24.729  1.00  0.00     0.261 C 
BRANCH   4   5
ATOM      5  O   UNL A   1      35.867  23.357  25.660  1.00  0.00    -0.459 OA
BRANCH   5   6
ATOM      6  C   UNL A   1      36.924  22.642  25.206  1.00  0.00     0.352 C 
ATOM      7  O   UNL A   1      36.917  21.867  24.268  1.00  0.00    -0.245 OA
BRANCH   6   8
ATOM      8  C   UNL A   1      38.237  22.967  25.998  1.00  0.00     0.130 C 
ATOM      9  C   UNL A   1      39.432  24.807  27.502  1.00  0.00     0.150 C 
ATOM     10  C   UNL A   1      38.336  24.402  26.492  1.00  0.00     0.096 C 
ATOM     11  N   UNL A   1      40.349  23.730  27.792  1.00  0.00    -0.239 N 
ATOM     12  C   UNL A   1      40.328  22.242  26.703  1.00  0.00     0.164 A 
ATOM     13  N   UNL A   1      41.937  23.816  28.757  1.00  0.00    -0.178 NA
ATOM     14  N   UNL A   1      39.125  22.010  26.102  1.00  0.00    -0.225 NA
ATOM     15  C   UNL A   1      41.937  21.442  26.888  1.00  0.00     0.104 A 
ATOM     16  C   UNL A   1      42.892  22.474  28.250  1.00  0.00     0.151 A 
BRANCH   9  17
ATOM     17  C   UNL A   1      40.177  26.003  26.970  1.00  0.00     0.019 A 
ATOM     18  C   UNL A   1      40.002  27.291  27.479  1.00  0.00     0.124 A 
ATOM     19  C   UNL A   1      40.760  28.346  26.956  1.00  0.00     0.047 A 
ATOM     20  C   UNL A   1      41.723  28.124  25.969  1.00  0.00     0.004 A 
ATOM     21  C   UNL A   1      41.118  25.801  25.933  1.00  0.00     0.010 A 
ATOM     22  C   UNL A   1      41.902  26.848  25.453  1.00  0.00     0.001 A 
BRANCH  18  23
ATOM     23  O   UNL A   1      39.060  27.658  28.399  1.00  0.00    -0.494 OA
BRANCH  23  24
ATOM     24  C   UNL A   1      39.232  27.401  29.951  1.00  0.00     0.226 C 
ATOM     25  C   UNL A   1      37.882  28.053  31.638  1.00  0.00     0.049 C 
ENDBRANCH  23  24
ENDBRANCH  18  23
ENDBRANCH   9  17
BRANCH  15  26
ATOM     26  C   UNL A   1      42.666  20.200  26.460  1.00  0.00     0.261 C 
ATOM     27  O   UNL A   1      42.355  19.146  27.026  1.00  0.00    -0.269 OA
ATOM     28  N   UNL A   1      43.621  20.054  25.470  1.00  0.00    -0.322 N 
ATOM     29  H   UNL A   1      43.867  19.128  25.243  1.00  0.00     0.170 HD
BRANCH  28  30
ATOM     30  C   UNL A   1      44.273  21.041  24.763  1.00  0.00     0.041 A 
ATOM     31  C   UNL A   1      43.699  22.316  24.680  1.00  0.00     0.026 A 
ATOM     32  C   UNL A   1      45.571  20.810  24.424  1.00  0.00     0.026 A 
ATOM     33  C   UNL A   1      44.542  23.420  24.684  1.00  0.00     0.002 A 
ATOM     34  C   UNL A   1      46.381  21.895  24.545  1.00  0.00     0.002 A 
ATOM     35  C   UNL A   1      45.901  23.195  24.744  1.00  0.00     0.000 A 
ENDBRANCH  28  30
ENDBRANCH  15  26
ENDBRANCH   6   8
ENDBRANCH   5   6
ENDBRANCH   4   5
ENDBRANCH   3   4
ENDBRANCH   2   3
ENDBRANCH   1   2
BRANCH   1  36
ATOM     36  C   UNL A   1      33.244  28.087  25.805  1.00  0.00     0.188 C 
BRANCH  36  37
ATOM     37  O   UNL A   1      34.080  29.220  25.970  1.00  0.00    -0.376 OA
BRANCH  37  38
ATOM     38  C   UNL A   1      34.750  29.390  27.213  1.00  0.00     0.202 C 
BRANCH  38  39
ATOM     39  C   UNL A   1      34.783  30.759  27.909  1.00  0.00     0.261 C 
BRANCH  39  40
ATOM     40  O   UNL A   1      35.935  31.553  27.661  1.00  0.00    -0.460 OA
BRANCH  40  41
ATOM     41  C   UNL A   1      37.005  31.295  28.443  1.00  0.00     0.338 C 
ATOM     42  O   UNL A   1      37.833  30.416  28.289  1.00  0.00    -0.246 OA
BRANCH  41  43
ATOM     43  C   UNL A   1      37.003  32.270  29.558  1.00  0.00     0.060 A 
ATOM     44  C   UNL A   1      38.001  33.239  29.508  1.00  0.00     0.016 A 
ATOM     45  C   UNL A   1      36.601  31.746  30.778  1.00  0.00     0.016 A 
ATOM     46  C   UNL A   1      38.973  33.181  30.489  1.00  0.00     0.010 A 
ATOM     47  C   UNL A   1      37.511  31.797  31.795  1.00  0.00     0.010 A 
ATOM     48  C   UNL A   1      38.796  32.280  31.542  1.00  0.00    -0.014 A 
BRANCH  48  49
ATOM     49  C   UNL A   1      39.787  32.112  32.604  1.00  0.00     0.031 A 
ATOM     50  C   UNL A   1      39.510  33.195  33.601  1.00  0.00     0.074 A 
ATOM     51  C   UNL A   1      40.668  31.070  32.684  1.00  0.00     0.049 A 
ATOM     52  N   UNL A   1      40.084  34.360  33.628  1.00  0.00    -0.248 NA
ATOM     53  C   UNL A   1      38.222  33.195  34.340  1.00  0.00     0.031 C 
ATOM     54  C   UNL A   1      40.894  29.930  31.774  1.00  0.00     0.029 A 
ATOM     55  N   UNL A   1      41.565  30.772  33.684  1.00  0.00    -0.354 N 
ATOM     56  C   UNL A   1      39.437  35.032  34.664  1.00  0.00     0.074 A 
ATOM     57  C   UNL A   1      38.130  34.469  34.728  1.00  0.00     0.031 C 
ATOM     58  C   UNL A   1      41.643  28.970  32.385  1.00  0.00     0.029 A 
ATOM     59  C   UNL A   1      42.077  29.452  33.681  1.00  0.00     0.049 A 
ATOM     60  H   UNL A   1      41.834  31.435  34.358  1.00  0.00     0.167 HD
ATOM     61  C   UNL A   1      40.170  35.565  35.683  1.00  0.00     0.034 A 
ATOM     62  C   UNL A   1      42.792  28.842  34.685  1.00  0.00     0.034 A 
ATOM     63  C   UNL A   1      41.544  35.692  35.257  1.00  0.00     0.049 A 
ATOM     64  C   UNL A   1      43.339  29.930  35.529  1.00  0.00     0.074 A 
ATOM     65  C   UNL A   1      42.207  36.358  34.249  1.00  0.00     0.029 A 
ATOM     66  N   UNL A   1      42.337  34.637  35.628  1.00  0.00    -0.354 N 
ATOM     67  N   UNL A   1      44.233  30.762  35.077  1.00  0.00    -0.248 NA
ATOM     68  C   UNL A   1      42.475  30.416  36.592  1.00  0.00     0.031 C 
ATOM     69  C   UNL A   1      43.199  35.443  33.789  1.00  0.00     0.029 A 
ATOM     70  C   UNL A   1      43.213  34.330  34.631  1.00  0.00     0.049 A 
ATOM     71  H   UNL A   1      42.281  34.167  36.492  1.00  0.00     0.167 HD
ATOM     72  C   UNL A   1      43.706  32.003  35.401  1.00  0.00     0.074 A 
ATOM     73  C   UNL A   1      42.639  31.724  36.373  1.00  0.00     0.031 C 
ATOM     74  C   UNL A   1      43.923  33.076  34.582  1.00  0.00     0.034 A 
BRANCH  61  75
ATOM     75  C   UNL A   1      39.825  35.443  37.171  1.00  0.00     0.023 A 
ATOM     76  C   UNL A   1      39.788  36.656  37.895  1.00  0.00     0.012 A 
ATOM     77  C   UNL A   1      39.813  34.255  37.950  1.00  0.00     0.148 A 
ATOM     78  C   UNL A   1      39.809  36.689  39.295  1.00  0.00     0.002 A 
ATOM     79  C   UNL A   1      39.786  34.288  39.342  1.00  0.00     0.091 A 
ATOM     80  F   UNL A   1      39.916  33.057  37.379  1.00  0.00    -0.205 F 
ATOM     81  C   UNL A   1      39.812  35.506  40.020  1.00  0.00     0.022 A 
BRANCH  79  82
ATOM     82  S   UNL A   1      39.775  32.786  40.340  1.00  0.00     0.127 S 
ATOM     83  O   UNL A   1      38.578  32.113  39.845  1.00  0.00    -0.237 OA
ATOM     84  O   UNL A   1      41.041  32.166  39.948  1.00  0.00    -0.237 OA
ATOM     85  O   UNL A   1      39.723  33.221  41.729  1.00  0.00    -0.744 OA
ENDBRANCH  79  82
ENDBRANCH  61  75
BRANCH  62  86
ATOM     86  C   UNL A   1      42.742  27.447  35.243  1.00  0.00     0.023 A 
ATOM     87  C   UNL A   1      41.652  26.983  36.028  1.00  0.00     0.012 A 
ATOM     88  C   UNL A   1      43.601  26.470  34.704  1.00  0.00     0.148 A 
ATOM     89  C   UNL A   1      41.430  25.606  36.246  1.00  0.00     0.002 A 
ATOM     90  C   UNL A   1      43.371  25.109  34.910  1.00  0.00     0.091 A 
ATOM     91  F   UNL A   1      44.593  26.877  33.905  1.00  0.00    -0.205 F 
ATOM     92  C   UNL A   1      42.283  24.668  35.674  1.00  0.00     0.022 A 
BRANCH  90  93
ATOM     93  S   UNL A   1      44.407  23.853  34.145  1.00  0.00     0.127 S 
ATOM     94  O   UNL A   1      43.829  22.621  34.683  1.00  0.00    -0.237 OA
ATOM     95  O   UNL A   1      44.158  24.078  32.723  1.00  0.00    -0.237 OA
ATOM     96  O   UNL A   1      45.765  24.129  34.594  1.00  0.00    -0.744 OA
ENDBRANCH  90  93
ENDBRANCH  62  86
BRANCH  74  97
ATOM     97  C   UNL A   1      44.943  32.929  33.483  1.00  0.00     0.023 A 
ATOM     98  C   UNL A   1      46.345  32.910  33.667  1.00  0.00     0.012 A 
ATOM     99  C   UNL A   1      44.421  32.643  32.216  1.00  0.00     0.148 A 
ATOM    100  C   UNL A   1      47.198  32.640  32.587  1.00  0.00     0.002 A 
ATOM    101  C   UNL A   1      45.263  32.336  31.163  1.00  0.00     0.091 A 
ATOM    102  F   UNL A   1      43.087  32.640  32.079  1.00  0.00    -0.205 F 
ATOM    103  C   UNL A   1      46.656  32.348  31.336  1.00  0.00     0.022 A 
BRANCH 101 104
ATOM    104  S   UNL A   1      44.601  31.840  29.577  1.00  0.00     0.127 S 
ATOM    105  O   UNL A   1      43.806  33.009  29.205  1.00  0.00    -0.237 OA
ATOM    106  O   UNL A   1      45.814  31.642  28.784  1.00  0.00    -0.237 OA
ATOM    107  O   UNL A   1      43.840  30.620  29.818  1.00  0.00    -0.744 OA
ENDBRANCH 101 104
ENDBRANCH  74  97
ENDBRANCH  48  49
ENDBRANCH  41  43
ENDBRANCH  40  41
ENDBRANCH  39  40
ENDBRANCH  38  39
ENDBRANCH  37  38
ENDBRANCH  36  37
ENDBRANCH   1  36
TORSDOF 25
ENDMDL
MODEL 3
REMARK VINA RESULT:      -9.1      5.864     13.410
REMARK SMILES CCOc1ccccc1[C@H]1CC(C(=O)OCCOCCOCCOC(=O)c2ccc(-c3c4nc(c(-c5cccc(S(=O)(=O)[O-])c5F)c5ccc([nH]5)c(-c5cccc(S(=O)(=O)[O-])c5F)c5nc(c(-c6cccc(S(=O)(=O)[O-])c6F)c6ccc3[nH]6)C=C5)C=C4)cc2)=Nc2c(C(=O)Nc3ccccc3)cnn21
REMARK SMILES IDX 19 1 18 2 17 3 16 4 15 5 13 6 14 7 12 8 10 9 11 10 104 11
REMARK SMILES IDX 91 12 103 13 90 14 92 15 102 16 9 17 4 18 5 19 6 20 8 21
REMARK SMILES IDX 7 22 3 23 2 24 1 25 93 26 94 27 95 28 96 30 97 31 101 32
REMARK SMILES IDX 98 33 100 34 99 35 20 36 21 37 22 38 23 39 24 40 25 41 26 42
REMARK SMILES IDX 27 43 28 44 89 45 29 46 88 47 30 48 31 49 32 50 82 51 33 52
REMARK SMILES IDX 87 53 81 54 83 55 34 56 86 57 80 58 79 59 35 61 67 62 47 63
REMARK SMILES IDX 66 64 48 65 51 66 65 67 84 68 49 69 50 70 64 72 85 73 52 74
REMARK SMILES IDX 36 75 37 76 45 77 38 78 40 79 46 80 39 81 41 82 42 83 43 84
REMARK SMILES IDX 44 85 68 86 69 87 77 88 70 89 72 90 78 91 71 92 73 93 74 94
REMARK SMILES IDX 75 95 76 96 53 97 54 98 62 99 55 100 57 101 63 102 56 103
REMARK SMILES IDX 58 104 59 105 60 106 61 107
REMARK H PARENT 95 29 83 60 51 71
REMARK Flexibility Score: inf
ROOT
ATOM      1  C   UNL A   1      43.227  32.457  35.126  1.00  0.00     0.188 C 
ENDROOT
BRANCH   1   2
ATOM      2  O   UNL A   1      42.672  31.177  34.965  1.00  0.00    -0.376 OA
BRANCH   2   3
ATOM      3  C   UNL A   1      43.487  30.263  34.245  1.00  0.00     0.202 C 
BRANCH   3   4
ATOM      4  C   UNL A   1      42.988  29.649  32.896  1.00  0.00     0.261 C 
BRANCH   4   5
ATOM      5  O   UNL A   1      41.961  28.611  32.948  1.00  0.00    -0.459 OA
BRANCH   5   6
ATOM      6  C   UNL A   1      40.670  28.950  33.177  1.00  0.00     0.352 C 
ATOM      7  O   UNL A   1      40.130  29.023  34.265  1.00  0.00    -0.245 OA
BRANCH   6   8
ATOM      8  C   UNL A   1      39.915  29.319  31.854  1.00  0.00     0.130 C 
ATOM      9  C   UNL A   1      38.893  28.306  29.617  1.00  0.00     0.150 C 
ATOM     10  C   UNL A   1      39.822  28.186  30.845  1.00  0.00     0.096 C 
ATOM     11  N   UNL A   1      38.266  29.602  29.517  1.00  0.00    -0.239 N 
ATOM     12  C   UNL A   1      38.912  30.973  30.569  1.00  0.00     0.164 A 
ATOM     13  N   UNL A   1      37.263  30.276  28.103  1.00  0.00    -0.178 NA
ATOM     14  N   UNL A   1      39.502  30.555  31.726  1.00  0.00    -0.225 NA
ATOM     15  C   UNL A   1      38.417  32.516  29.771  1.00  0.00     0.104 A 
ATOM     16  C   UNL A   1      37.328  31.993  28.230  1.00  0.00     0.151 A 
BRANCH   9  17
ATOM     17  C   UNL A   1      39.681  28.005  28.369  1.00  0.00     0.019 A 
ATOM     18  C   UNL A   1      39.815  26.715  27.852  1.00  0.00     0.124 A 
ATOM     19  C   UNL A   1      40.533  26.522  26.665  1.00  0.00     0.047 A 
ATOM     20  C   UNL A   1      41.074  27.602  25.964  1.00  0.00     0.004 A 
ATOM     21  C   UNL A   1      40.279  29.084  27.676  1.00  0.00     0.010 A 
ATOM     22  C   UNL A   1      40.949  28.887  26.471  1.00  0.00     0.001 A 
BRANCH  18  23
ATOM     23  O   UNL A   1      39.388  25.568  28.462  1.00  0.00    -0.494 OA
BRANCH  23  24
ATOM     24  C   UNL A   1      39.155  24.216  27.676  1.00  0.00     0.226 C 
ATOM     25  C   UNL A   1      37.616  23.763  26.088  1.00  0.00     0.049 C 
ENDBRANCH  23  24
ENDBRANCH  18  23
ENDBRANCH   9  17
BRANCH  15  26
ATOM     26  C   UNL A   1      38.448  34.000  30.004  1.00  0.00     0.261 C 
ATOM     27  O   UNL A   1      39.219  34.660  29.298  1.00  0.00    -0.269 OA
ATOM     28  N   UNL A   1      37.688  34.755  30.879  1.00  0.00    -0.322 N 
ATOM     29  H   UNL A   1      37.753  35.732  30.772  1.00  0.00     0.170 HD
BRANCH  28  30
ATOM     30  C   UNL A   1      36.851  34.314  31.881  1.00  0.00     0.041 A 
ATOM     31  C   UNL A   1      35.565  33.867  31.552  1.00  0.00     0.026 A 
ATOM     32  C   UNL A   1      37.413  34.065  33.096  1.00  0.00     0.026 A 
ATOM     33  C   UNL A   1      35.031  32.806  32.271  1.00  0.00     0.002 A 
ATOM     34  C   UNL A   1      36.933  32.954  33.716  1.00  0.00     0.002 A 
ATOM     35  C   UNL A   1      35.791  32.268  33.287  1.00  0.00     0.000 A 
ENDBRANCH  28  30
ENDBRANCH  15  26
ENDBRANCH   6   8
ENDBRANCH   5   6
ENDBRANCH   4   5
ENDBRANCH   3   4
ENDBRANCH   2   3
ENDBRANCH   1   2
BRANCH   1  36
ATOM     36  C   UNL A   1      42.487  33.630  34.442  1.00  0.00     0.188 C 
BRANCH  36  37
ATOM     37  O   UNL A   1      43.214  34.544  33.638  1.00  0.00    -0.376 OA
BRANCH  37  38
ATOM     38  C   UNL A   1      43.689  34.101  32.373  1.00  0.00     0.202 C 
BRANCH  38  39
ATOM     39  C   UNL A   1      42.985  34.525  31.075  1.00  0.00     0.261 C 
BRANCH  39  40
ATOM     40  O   UNL A   1      43.802  34.572  29.913  1.00  0.00    -0.460 OA
BRANCH  40  41
ATOM     41  C   UNL A   1      43.979  33.397  29.272  1.00  0.00     0.338 C 
ATOM     42  O   UNL A   1      43.144  32.532  29.080  1.00  0.00    -0.246 OA
BRANCH  41  43
ATOM     43  C   UNL A   1      45.394  33.319  28.841  1.00  0.00     0.060 A 
ATOM     44  C   UNL A   1      45.594  33.060  27.487  1.00  0.00     0.016 A 
ATOM     45  C   UNL A   1      46.253  32.781  29.787  1.00  0.00     0.016 A 
ATOM     46  C   UNL A   1      46.158  31.841  27.165  1.00  0.00     0.010 A 
ATOM     47  C   UNL A   1      46.917  31.641  29.432  1.00  0.00     0.010 A 
ATOM     48  C   UNL A   1      46.640  31.040  28.203  1.00  0.00    -0.014 A 
BRANCH  48  49
ATOM     49  C   UNL A   1      47.215  29.716  27.969  1.00  0.00     0.031 A 
ATOM     50  C   UNL A   1      46.113  28.736  28.233  1.00  0.00     0.074 A 
ATOM     51  C   UNL A   1      48.468  29.493  27.471  1.00  0.00     0.049 A 
ATOM     52  N   UNL A   1      45.893  28.136  29.364  1.00  0.00    -0.248 NA
ATOM     53  C   UNL A   1      44.910  28.738  27.364  1.00  0.00     0.031 C 
ATOM     54  C   UNL A   1      49.538  30.439  27.100  1.00  0.00     0.029 A 
ATOM     55  N   UNL A   1      49.061  28.300  27.126  1.00  0.00    -0.354 N 
ATOM     56  C   UNL A   1      44.726  27.407  29.139  1.00  0.00     0.074 A 
ATOM     57  C   UNL A   1      44.011  28.130  28.140  1.00  0.00     0.031 C 
ATOM     58  C   UNL A   1      50.497  29.813  26.361  1.00  0.00     0.029 A 
ATOM     59  C   UNL A   1      50.206  28.395  26.300  1.00  0.00     0.049 A 
ATOM     60  H   UNL A   1      48.710  27.434  27.434  1.00  0.00     0.167 HD
ATOM     61  C   UNL A   1      44.715  26.063  29.369  1.00  0.00     0.034 A 
ATOM     62  C   UNL A   1      50.833  27.367  25.635  1.00  0.00     0.034 A 
ATOM     63  C   UNL A   1      45.828  25.725  30.225  1.00  0.00     0.049 A 
ATOM     64  C   UNL A   1      50.411  26.117  26.309  1.00  0.00     0.074 A 
ATOM     65  C   UNL A   1      46.242  26.078  31.491  1.00  0.00     0.029 A 
ATOM     66  N   UNL A   1      46.941  25.304  29.543  1.00  0.00    -0.354 N 
ATOM     67  N   UNL A   1      50.759  25.849  27.535  1.00  0.00    -0.248 NA
ATOM     68  C   UNL A   1      49.173  25.518  25.838  1.00  0.00     0.031 C 
ATOM     69  C   UNL A   1      47.658  26.219  31.392  1.00  0.00     0.029 A 
ATOM     70  C   UNL A   1      48.068  25.795  30.129  1.00  0.00     0.049 A 
ATOM     71  H   UNL A   1      46.926  24.728  28.744  1.00  0.00     0.167 HD
ATOM     72  C   UNL A   1      49.558  25.512  28.140  1.00  0.00     0.074 A 
ATOM     73  C   UNL A   1      48.620  25.285  27.032  1.00  0.00     0.031 C 
ATOM     74  C   UNL A   1      49.344  25.817  29.456  1.00  0.00     0.034 A 
BRANCH  61  75
ATOM     75  C   UNL A   1      44.108  25.016  28.430  1.00  0.00     0.023 A 
ATOM     76  C   UNL A   1      43.024  24.276  28.953  1.00  0.00     0.012 A 
ATOM     77  C   UNL A   1      44.675  24.519  27.225  1.00  0.00     0.148 A 
ATOM     78  C   UNL A   1      42.579  23.087  28.361  1.00  0.00     0.002 A 
ATOM     79  C   UNL A   1      44.200  23.363  26.611  1.00  0.00     0.091 A 
ATOM     80  F   UNL A   1      45.745  25.094  26.681  1.00  0.00    -0.205 F 
ATOM     81  C   UNL A   1      43.168  22.628  27.192  1.00  0.00     0.022 A 
BRANCH  79  82
ATOM     82  S   UNL A   1      44.915  22.722  25.084  1.00  0.00     0.127 S 
ATOM     83  O   UNL A   1      44.008  21.620  24.775  1.00  0.00    -0.237 OA
ATOM     84  O   UNL A   1      44.803  23.883  24.201  1.00  0.00    -0.237 OA
ATOM     85  O   UNL A   1      46.283  22.340  25.405  1.00  0.00    -0.744 OA
ENDBRANCH  79  82
ENDBRANCH  61  75
BRANCH  62  86
ATOM     86  C   UNL A   1      51.431  27.283  24.259  1.00  0.00     0.023 A 
ATOM     87  C   UNL A   1      52.727  26.748  24.027  1.00  0.00     0.012 A 
ATOM     88  C   UNL A   1      50.582  27.404  23.142  1.00  0.00     0.148 A 
ATOM     89  C   UNL A   1      53.141  26.342  22.741  1.00  0.00     0.002 A 
ATOM     90  C   UNL A   1      50.990  26.988  21.874  1.00  0.00     0.091 A 
ATOM     91  F   UNL A   1      49.334  27.839  23.345  1.00  0.00    -0.205 F 
ATOM     92  C   UNL A   1      52.266  26.450  21.665  1.00  0.00     0.022 A 
BRANCH  90  93
ATOM     93  S   UNL A   1      49.878  27.050  20.460  1.00  0.00     0.127 S 
ATOM     94  O   UNL A   1      50.536  28.039  19.606  1.00  0.00    -0.237 OA
ATOM     95  O   UNL A   1      49.937  25.676  19.968  1.00  0.00    -0.237 OA
ATOM     96  O   UNL A   1      48.587  27.472  20.987  1.00  0.00    -0.744 OA
ENDBRANCH  90  93
ENDBRANCH  62  86
BRANCH  74  97
ATOM     97  C   UNL A   1      50.521  26.282  30.272  1.00  0.00     0.023 A 
ATOM     98  C   UNL A   1      51.575  25.459  30.730  1.00  0.00     0.012 A 
ATOM     99  C   UNL A   1      50.618  27.668  30.446  1.00  0.00     0.148 A 
ATOM    100  C   UNL A   1      52.686  26.021  31.374  1.00  0.00     0.002 A 
ATOM    101  C   UNL A   1      51.735  28.223  31.044  1.00  0.00     0.091 A 
ATOM    102  F   UNL A   1      49.617  28.426  29.976  1.00  0.00    -0.205 F 
ATOM    103  C   UNL A   1      52.768  27.405  31.527  1.00  0.00     0.022 A 
BRANCH 101 104
ATOM    104  S   UNL A   1      51.928  29.999  31.149  1.00  0.00     0.127 S 
ATOM    105  O   UNL A   1      51.366  30.437  29.873  1.00  0.00    -0.237 OA
ATOM    106  O   UNL A   1      51.122  30.328  32.324  1.00  0.00    -0.237 OA
ATOM    107  O   UNL A   1      53.356  30.242  31.317  1.00  0.00    -0.744 OA
ENDBRANCH 101 104
ENDBRANCH  74  97
ENDBRANCH  48  49
ENDBRANCH  41  43
ENDBRANCH  40  41
ENDBRANCH  39  40
ENDBRANCH  38  39
ENDBRANCH  37  38
ENDBRANCH  36  37
ENDBRANCH   1  36
TORSDOF 25
ENDMDL
