MODEL 1
REMARK VINA RESULT:      -9.7      0.000      0.000
REMARK SMILES O=C(CC1(C[S@](=O)C[C@H]2Cc3ccccc3S2)CC1)OCCOCCOCCOC(=O)c1ccc(-c2c3nc(c(-c4cccc(S(=O)(=O)[O-])c4F)c4ccc([nH]4)c(-c4cccc(S(=O)(=O)[O-])c4F)c4nc(c(-c5cccc(S(=O)(=O)[O-])c5F)c5ccc2[nH]5)C=C4)C=C3)cc1
REMARK SMILES IDX 24 1 23 2 22 3 21 4 20 5 2 6 1 7 3 8 4 9 18 10 19 11 5 12
REMARK SMILES IDX 6 13 7 14 8 15 9 16 10 17 17 18 11 19 16 20 12 21 15 22
REMARK SMILES IDX 13 23 14 24 25 25 26 26 27 27 28 28 29 29 30 30 31 31 32 32
REMARK SMILES IDX 33 33 94 34 34 35 93 36 35 37 36 38 37 39 87 40 38 41 92 42
REMARK SMILES IDX 86 43 88 44 39 45 91 46 85 47 84 48 40 50 72 51 52 52 71 53
REMARK SMILES IDX 53 54 56 55 70 56 89 57 54 58 55 59 69 61 90 62 57 63 41 64
REMARK SMILES IDX 42 65 50 66 43 67 45 68 51 69 44 70 46 71 47 72 48 73 49 74
REMARK SMILES IDX 73 75 74 76 82 77 75 78 77 79 83 80 76 81 78 82 79 83 80 84
REMARK SMILES IDX 81 85 58 86 59 87 67 88 60 89 62 90 68 91 61 92 63 93 64 94
REMARK SMILES IDX 65 95 66 96
REMARK H PARENT 88 49 56 60
REMARK Flexibility Score: inf
ROOT
ATOM      1  C   UNL A   1      35.358  24.094  25.807  1.00  0.00     0.188 C 
ENDROOT
BRANCH   1   2
ATOM      2  O   UNL A   1      36.696  23.958  25.360  1.00  0.00    -0.376 OA
BRANCH   2   3
ATOM      3  C   UNL A   1      36.985  22.768  24.639  1.00  0.00     0.202 C 
BRANCH   3   4
ATOM      4  C   UNL A   1      36.739  21.552  25.516  1.00  0.00     0.261 C 
BRANCH   4   5
ATOM      5  O   UNL A   1      35.745  20.675  24.954  1.00  0.00    -0.463 OA
BRANCH   5   6
ATOM      6  C   UNL A   1      35.835  19.341  24.770  1.00  0.00     0.306 C 
ATOM      7  O   UNL A   1      36.929  18.802  24.954  1.00  0.00    -0.252 OA
BRANCH   6   8
ATOM      8  C   UNL A   1      34.682  18.527  24.226  1.00  0.00     0.130 C 
BRANCH   8   9
ATOM      9  C   UNL A   1      33.262  18.751  24.726  1.00  0.00    -0.008 C 
ATOM     10  C   UNL A   1      32.353  17.530  24.637  1.00  0.00     0.009 C 
ATOM     11  C   UNL A   1      32.734  18.057  25.977  1.00  0.00     0.009 C 
BRANCH   9  12
ATOM     12  C   UNL A   1      32.604  20.026  24.201  1.00  0.00     0.112 C 
BRANCH  12  13
ATOM     13  S   UNL A   1      32.346  21.343  25.420  1.00  0.00     0.023 S 
ATOM     14  O   UNL A   1      30.888  21.457  25.751  1.00  0.00    -0.260 OA
BRANCH  13  15
ATOM     15  C   UNL A   1      32.846  22.783  24.410  1.00  0.00     0.120 C 
BRANCH  15  16
ATOM     16  C   UNL A   1      32.029  23.023  23.132  1.00  0.00     0.068 C 
ATOM     17  C   UNL A   1      30.657  23.688  23.445  1.00  0.00     0.052 C 
ATOM     18  S   UNL A   1      32.846  24.163  21.960  1.00  0.00    -0.121 SA
ATOM     19  C   UNL A   1      30.805  25.174  23.269  1.00  0.00    -0.033 A 
ATOM     20  C   UNL A   1      31.934  25.549  22.545  1.00  0.00     0.011 A 
ATOM     21  C   UNL A   1      29.898  26.144  23.684  1.00  0.00     0.005 A 
ATOM     22  C   UNL A   1      32.228  26.876  22.300  1.00  0.00     0.015 A 
ATOM     23  C   UNL A   1      30.176  27.489  23.434  1.00  0.00     0.000 A 
ATOM     24  C   UNL A   1      31.339  27.851  22.749  1.00  0.00     0.001 A 
ENDBRANCH  15  16
ENDBRANCH  13  15
ENDBRANCH  12  13
ENDBRANCH   9  12
ENDBRANCH   8   9
ENDBRANCH   6   8
ENDBRANCH   5   6
ENDBRANCH   4   5
ENDBRANCH   3   4
ENDBRANCH   2   3
ENDBRANCH   1   2
BRANCH   1  25
ATOM     25  C   UNL A   1      34.643  25.392  25.427  1.00  0.00     0.188 C 
BRANCH  25  26
ATOM     26  O   UNL A   1      33.605  25.866  26.274  1.00  0.00    -0.376 OA
BRANCH  26  27
ATOM     27  C   UNL A   1      33.004  27.129  25.999  1.00  0.00     0.202 C 
BRANCH  27  28
ATOM     28  C   UNL A   1      33.201  28.231  27.037  1.00  0.00     0.261 C 
BRANCH  28  29
ATOM     29  O   UNL A   1      34.061  29.281  26.555  1.00  0.00    -0.460 OA
BRANCH  29  30
ATOM     30  C   UNL A   1      34.341  30.274  27.429  1.00  0.00     0.338 C 
ATOM     31  O   UNL A   1      33.607  31.187  27.780  1.00  0.00    -0.246 OA
BRANCH  30  32
ATOM     32  C   UNL A   1      35.690  30.056  27.973  1.00  0.00     0.060 A 
ATOM     33  C   UNL A   1      35.827  29.620  29.288  1.00  0.00     0.016 A 
ATOM     34  C   UNL A   1      36.814  30.215  27.154  1.00  0.00     0.016 A 
ATOM     35  C   UNL A   1      37.102  29.341  29.778  1.00  0.00     0.010 A 
ATOM     36  C   UNL A   1      38.092  29.938  27.657  1.00  0.00     0.010 A 
ATOM     37  C   UNL A   1      38.248  29.490  28.974  1.00  0.00    -0.014 A 
BRANCH  37  38
ATOM     38  C   UNL A   1      39.561  29.015  29.489  1.00  0.00     0.031 A 
ATOM     39  C   UNL A   1      40.255  29.664  30.655  1.00  0.00     0.074 A 
ATOM     40  C   UNL A   1      40.114  27.936  28.898  1.00  0.00     0.049 A 
ATOM     41  N   UNL A   1      41.316  29.253  31.305  1.00  0.00    -0.248 NA
ATOM     42  C   UNL A   1      39.695  30.926  31.166  1.00  0.00     0.031 C 
ATOM     43  C   UNL A   1      39.578  27.263  27.710  1.00  0.00     0.029 A 
ATOM     44  N   UNL A   1      41.241  27.217  29.207  1.00  0.00    -0.354 N 
ATOM     45  C   UNL A   1      41.509  30.161  32.340  1.00  0.00     0.074 A 
ATOM     46  C   UNL A   1      40.514  31.200  32.177  1.00  0.00     0.031 C 
ATOM     47  C   UNL A   1      40.370  26.226  27.397  1.00  0.00     0.029 A 
ATOM     48  C   UNL A   1      41.475  26.169  28.348  1.00  0.00     0.049 A 
ATOM     49  H   UNL A   1      41.825  27.431  29.969  1.00  0.00     0.167 HD
ATOM     50  C   UNL A   1      42.374  30.077  33.380  1.00  0.00     0.034 A 
ATOM     51  C   UNL A   1      42.466  25.257  28.322  1.00  0.00     0.034 A 
ATOM     52  C   UNL A   1      43.343  29.024  33.545  1.00  0.00     0.049 A 
ATOM     53  C   UNL A   1      43.498  25.266  29.408  1.00  0.00     0.074 A 
ATOM     54  C   UNL A   1      44.212  28.818  34.602  1.00  0.00     0.029 A 
ATOM     55  N   UNL A   1      43.588  28.017  32.624  1.00  0.00    -0.354 N 
ATOM     56  N   UNL A   1      43.561  26.034  30.469  1.00  0.00    -0.248 NA
ATOM     57  C   UNL A   1      44.574  24.271  29.317  1.00  0.00     0.031 C 
ATOM     58  C   UNL A   1      44.998  27.698  34.311  1.00  0.00     0.029 A 
ATOM     59  C   UNL A   1      44.612  27.202  33.077  1.00  0.00     0.049 A 
ATOM     60  H   UNL A   1      43.104  27.898  31.776  1.00  0.00     0.167 HD
ATOM     61  C   UNL A   1      44.670  25.604  31.184  1.00  0.00     0.074 A 
ATOM     62  C   UNL A   1      45.244  24.499  30.441  1.00  0.00     0.031 C 
ATOM     63  C   UNL A   1      45.167  26.089  32.348  1.00  0.00     0.034 A 
BRANCH  50  64
ATOM     64  C   UNL A   1      42.230  31.061  34.513  1.00  0.00     0.023 A 
ATOM     65  C   UNL A   1      43.229  32.042  34.672  1.00  0.00     0.012 A 
ATOM     66  C   UNL A   1      41.081  31.121  35.320  1.00  0.00     0.148 A 
ATOM     67  C   UNL A   1      43.122  33.038  35.640  1.00  0.00     0.002 A 
ATOM     68  C   UNL A   1      40.959  32.141  36.261  1.00  0.00     0.091 A 
ATOM     69  F   UNL A   1      40.128  30.196  35.142  1.00  0.00    -0.205 F 
ATOM     70  C   UNL A   1      41.983  33.091  36.431  1.00  0.00     0.022 A 
BRANCH  68  71
ATOM     71  S   UNL A   1      39.496  32.362  37.280  1.00  0.00     0.127 S 
ATOM     72  O   UNL A   1      38.936  33.592  36.721  1.00  0.00    -0.237 OA
ATOM     73  O   UNL A   1      38.730  31.152  36.982  1.00  0.00    -0.237 OA
ATOM     74  O   UNL A   1      39.974  32.462  38.650  1.00  0.00    -0.744 OA
ENDBRANCH  68  71
ENDBRANCH  50  64
BRANCH  51  75
ATOM     75  C   UNL A   1      42.478  24.238  27.240  1.00  0.00     0.023 A 
ATOM     76  C   UNL A   1      43.172  24.499  26.045  1.00  0.00     0.012 A 
ATOM     77  C   UNL A   1      41.885  22.976  27.437  1.00  0.00     0.148 A 
ATOM     78  C   UNL A   1      43.281  23.512  25.063  1.00  0.00     0.002 A 
ATOM     79  C   UNL A   1      42.027  21.987  26.472  1.00  0.00     0.091 A 
ATOM     80  F   UNL A   1      41.234  22.758  28.589  1.00  0.00    -0.205 F 
ATOM     81  C   UNL A   1      42.719  22.256  25.281  1.00  0.00     0.022 A 
BRANCH  79  82
ATOM     82  S   UNL A   1      41.418  20.314  26.700  1.00  0.00     0.127 S 
ATOM     83  O   UNL A   1      39.975  20.531  26.783  1.00  0.00    -0.237 OA
ATOM     84  O   UNL A   1      41.874  19.664  25.471  1.00  0.00    -0.237 OA
ATOM     85  O   UNL A   1      42.044  19.825  27.919  1.00  0.00    -0.744 OA
ENDBRANCH  79  82
ENDBRANCH  51  75
BRANCH  63  86
ATOM     86  C   UNL A   1      46.403  25.440  32.907  1.00  0.00     0.023 A 
ATOM     87  C   UNL A   1      47.664  26.003  32.629  1.00  0.00     0.012 A 
ATOM     88  C   UNL A   1      46.311  24.339  33.782  1.00  0.00     0.148 A 
ATOM     89  C   UNL A   1      48.817  25.475  33.206  1.00  0.00     0.002 A 
ATOM     90  C   UNL A   1      47.461  23.841  34.382  1.00  0.00     0.091 A 
ATOM     91  F   UNL A   1      45.100  23.815  34.022  1.00  0.00    -0.205 F 
ATOM     92  C   UNL A   1      48.715  24.404  34.091  1.00  0.00     0.022 A 
BRANCH  90  93
ATOM     93  S   UNL A   1      47.427  22.509  35.586  1.00  0.00     0.127 S 
ATOM     94  O   UNL A   1      46.385  22.965  36.505  1.00  0.00    -0.237 OA
ATOM     95  O   UNL A   1      47.055  21.358  34.763  1.00  0.00    -0.237 OA
ATOM     96  O   UNL A   1      48.768  22.443  36.154  1.00  0.00    -0.744 OA
ENDBRANCH  90  93
ENDBRANCH  63  86
ENDBRANCH  37  38
ENDBRANCH  30  32
ENDBRANCH  29  30
ENDBRANCH  28  29
ENDBRANCH  27  28
ENDBRANCH  26  27
ENDBRANCH  25  26
ENDBRANCH   1  25
TORSDOF 25
ENDMDL
MODEL 2
REMARK VINA RESULT:      -9.5      3.670      9.348
REMARK SMILES O=C(CC1(C[S@](=O)C[C@H]2Cc3ccccc3S2)CC1)OCCOCCOCCOC(=O)c1ccc(-c2c3nc(c(-c4cccc(S(=O)(=O)[O-])c4F)c4ccc([nH]4)c(-c4cccc(S(=O)(=O)[O-])c4F)c4nc(c(-c5cccc(S(=O)(=O)[O-])c5F)c5ccc2[nH]5)C=C4)C=C3)cc1
REMARK SMILES IDX 24 1 23 2 22 3 21 4 20 5 2 6 1 7 3 8 4 9 18 10 19 11 5 12
REMARK SMILES IDX 6 13 7 14 8 15 9 16 10 17 17 18 11 19 16 20 12 21 15 22
REMARK SMILES IDX 13 23 14 24 25 25 26 26 27 27 28 28 29 29 30 30 31 31 32 32
REMARK SMILES IDX 33 33 94 34 34 35 93 36 35 37 36 38 37 39 87 40 38 41 92 42
REMARK SMILES IDX 86 43 88 44 39 45 91 46 85 47 84 48 40 50 72 51 52 52 71 53
REMARK SMILES IDX 53 54 56 55 70 56 89 57 54 58 55 59 69 61 90 62 57 63 41 64
REMARK SMILES IDX 42 65 50 66 43 67 45 68 51 69 44 70 46 71 47 72 48 73 49 74
REMARK SMILES IDX 73 75 74 76 82 77 75 78 77 79 83 80 76 81 78 82 79 83 80 84
REMARK SMILES IDX 81 85 58 86 59 87 67 88 60 89 62 90 68 91 61 92 63 93 64 94
REMARK SMILES IDX 65 95 66 96
REMARK H PARENT 88 49 56 60
REMARK Flexibility Score: inf
ROOT
ATOM      1  C   UNL A   1      35.067  30.866  28.336  1.00  0.00     0.188 C 
ENDROOT
BRANCH   1   2
ATOM      2  O   UNL A   1      35.619  29.713  27.723  1.00  0.00    -0.376 OA
BRANCH   2   3
ATOM      3  C   UNL A   1      34.733  28.977  26.889  1.00  0.00     0.202 C 
BRANCH   3   4
ATOM      4  C   UNL A   1      33.453  29.762  26.664  1.00  0.00     0.261 C 
BRANCH   4   5
ATOM      5  O   UNL A   1      33.019  29.702  25.292  1.00  0.00    -0.463 OA
BRANCH   5   6
ATOM      6  C   UNL A   1      33.185  28.683  24.421  1.00  0.00     0.306 C 
ATOM      7  O   UNL A   1      34.191  28.685  23.709  1.00  0.00    -0.252 OA
BRANCH   6   8
ATOM      8  C   UNL A   1      32.121  27.629  24.210  1.00  0.00     0.130 C 
BRANCH   8   9
ATOM      9  C   UNL A   1      31.139  27.729  23.051  1.00  0.00    -0.008 C 
ATOM     10  C   UNL A   1      29.698  28.022  23.457  1.00  0.00     0.009 C 
ATOM     11  C   UNL A   1      30.460  29.045  22.688  1.00  0.00     0.009 C 
BRANCH   9  12
ATOM     12  C   UNL A   1      31.254  26.598  22.031  1.00  0.00     0.112 C 
BRANCH  12  13
ATOM     13  S   UNL A   1      32.936  26.184  21.496  1.00  0.00     0.023 S 
ATOM     14  O   UNL A   1      32.905  25.580  20.124  1.00  0.00    -0.260 OA
BRANCH  13  15
ATOM     15  C   UNL A   1      33.322  24.878  22.716  1.00  0.00     0.120 C 
BRANCH  15  16
ATOM     16  C   UNL A   1      32.213  23.846  22.969  1.00  0.00     0.068 C 
ATOM     17  C   UNL A   1      32.729  22.391  22.775  1.00  0.00     0.052 C 
ATOM     18  S   UNL A   1      31.566  23.890  24.678  1.00  0.00    -0.121 SA
ATOM     19  C   UNL A   1      33.124  21.849  24.121  1.00  0.00    -0.033 A 
ATOM     20  C   UNL A   1      32.612  22.573  25.195  1.00  0.00     0.011 A 
ATOM     21  C   UNL A   1      33.857  20.691  24.356  1.00  0.00     0.005 A 
ATOM     22  C   UNL A   1      32.885  22.219  26.502  1.00  0.00     0.015 A 
ATOM     23  C   UNL A   1      34.133  20.315  25.672  1.00  0.00     0.000 A 
ATOM     24  C   UNL A   1      33.653  21.080  26.738  1.00  0.00     0.001 A 
ENDBRANCH  15  16
ENDBRANCH  13  15
ENDBRANCH  12  13
ENDBRANCH   9  12
ENDBRANCH   8   9
ENDBRANCH   6   8
ENDBRANCH   5   6
ENDBRANCH   4   5
ENDBRANCH   3   4
ENDBRANCH   2   3
ENDBRANCH   1   2
BRANCH   1  25
ATOM     25  C   UNL A   1      35.757  32.195  28.028  1.00  0.00     0.188 C 
BRANCH  25  26
ATOM     26  O   UNL A   1      34.962  33.283  27.576  1.00  0.00    -0.376 OA
BRANCH  26  27
ATOM     27  C   UNL A   1      33.543  33.200  27.684  1.00  0.00     0.202 C 
BRANCH  27  28
ATOM     28  C   UNL A   1      32.800  34.479  28.059  1.00  0.00     0.261 C 
BRANCH  28  29
ATOM     29  O   UNL A   1      33.555  35.293  28.977  1.00  0.00    -0.460 OA
BRANCH  29  30
ATOM     30  C   UNL A   1      33.228  35.179  30.284  1.00  0.00     0.338 C 
ATOM     31  O   UNL A   1      32.165  35.469  30.815  1.00  0.00    -0.246 OA
BRANCH  30  32
ATOM     32  C   UNL A   1      34.359  34.571  31.002  1.00  0.00     0.060 A 
ATOM     33  C   UNL A   1      34.101  33.698  32.056  1.00  0.00     0.016 A 
ATOM     34  C   UNL A   1      35.672  34.811  30.581  1.00  0.00     0.016 A 
ATOM     35  C   UNL A   1      35.171  33.063  32.685  1.00  0.00     0.010 A 
ATOM     36  C   UNL A   1      36.741  34.174  31.223  1.00  0.00     0.010 A 
ATOM     37  C   UNL A   1      36.500  33.286  32.278  1.00  0.00    -0.014 A 
BRANCH  37  38
ATOM     38  C   UNL A   1      37.586  32.455  32.866  1.00  0.00     0.031 A 
ATOM     39  C   UNL A   1      38.114  31.218  32.190  1.00  0.00     0.074 A 
ATOM     40  C   UNL A   1      38.129  32.864  34.030  1.00  0.00     0.049 A 
ATOM     41  N   UNL A   1      39.161  30.498  32.510  1.00  0.00    -0.248 NA
ATOM     42  C   UNL A   1      37.389  30.725  31.008  1.00  0.00     0.031 C 
ATOM     43  C   UNL A   1      37.655  34.003  34.823  1.00  0.00     0.029 A 
ATOM     44  N   UNL A   1      39.190  32.378  34.751  1.00  0.00    -0.354 N 
ATOM     45  C   UNL A   1      39.263  29.514  31.534  1.00  0.00     0.074 A 
ATOM     46  C   UNL A   1      38.118  29.667  30.662  1.00  0.00     0.031 C 
ATOM     47  C   UNL A   1      38.426  34.132  35.913  1.00  0.00     0.029 A 
ATOM     48  C   UNL A   1      39.437  33.080  35.907  1.00  0.00     0.049 A 
ATOM     49  H   UNL A   1      39.723  31.600  34.468  1.00  0.00     0.167 HD
ATOM     50  C   UNL A   1      40.273  28.631  31.333  1.00  0.00     0.034 A 
ATOM     51  C   UNL A   1      40.372  32.905  36.861  1.00  0.00     0.034 A 
ATOM     52  C   UNL A   1      41.420  28.505  32.194  1.00  0.00     0.049 A 
ATOM     53  C   UNL A   1      41.400  31.829  36.689  1.00  0.00     0.074 A 
ATOM     54  C   UNL A   1      42.526  27.689  32.031  1.00  0.00     0.029 A 
ATOM     55  N   UNL A   1      41.602  29.192  33.384  1.00  0.00    -0.354 N 
ATOM     56  N   UNL A   1      41.574  31.019  35.673  1.00  0.00    -0.248 NA
ATOM     57  C   UNL A   1      42.378  31.659  37.772  1.00  0.00     0.031 C 
ATOM     58  C   UNL A   1      43.367  27.867  33.135  1.00  0.00     0.029 A 
ATOM     59  C   UNL A   1      42.790  28.800  33.980  1.00  0.00     0.049 A 
ATOM     60  H   UNL A   1      40.980  29.861  33.750  1.00  0.00     0.167 HD
ATOM     61  C   UNL A   1      42.692  30.257  35.982  1.00  0.00     0.074 A 
ATOM     62  C   UNL A   1      43.162  30.710  37.276  1.00  0.00     0.031 C 
ATOM     63  C   UNL A   1      43.268  29.267  35.257  1.00  0.00     0.034 A 
BRANCH  50  64
ATOM     64  C   UNL A   1      40.276  27.824  30.060  1.00  0.00     0.023 A 
ATOM     65  C   UNL A   1      39.413  26.713  29.976  1.00  0.00     0.012 A 
ATOM     66  C   UNL A   1      40.998  28.215  28.920  1.00  0.00     0.148 A 
ATOM     67  C   UNL A   1      39.297  25.971  28.803  1.00  0.00     0.002 A 
ATOM     68  C   UNL A   1      40.850  27.494  27.737  1.00  0.00     0.091 A 
ATOM     69  F   UNL A   1      41.797  29.287  29.008  1.00  0.00    -0.205 F 
ATOM     70  C   UNL A   1      40.012  26.366  27.681  1.00  0.00     0.022 A 
BRANCH  68  71
ATOM     71  S   UNL A   1      41.655  27.961  26.201  1.00  0.00     0.127 S 
ATOM     72  O   UNL A   1      43.028  28.195  26.651  1.00  0.00    -0.237 OA
ATOM     73  O   UNL A   1      41.477  26.760  25.385  1.00  0.00    -0.237 OA
ATOM     74  O   UNL A   1      40.949  29.138  25.720  1.00  0.00    -0.744 OA
ENDBRANCH  68  71
ENDBRANCH  50  64
BRANCH  51  75
ATOM     75  C   UNL A   1      40.381  33.818  38.034  1.00  0.00     0.023 A 
ATOM     76  C   UNL A   1      41.151  34.994  37.995  1.00  0.00     0.012 A 
ATOM     77  C   UNL A   1      39.551  33.568  39.144  1.00  0.00     0.148 A 
ATOM     78  C   UNL A   1      41.088  35.913  39.044  1.00  0.00     0.002 A 
ATOM     79  C   UNL A   1      39.466  34.503  40.168  1.00  0.00     0.091 A 
ATOM     80  F   UNL A   1      38.827  32.439  39.149  1.00  0.00    -0.205 F 
ATOM     81  C   UNL A   1      40.240  35.673  40.122  1.00  0.00     0.022 A 
BRANCH  79  82
ATOM     82  S   UNL A   1      38.336  34.326  41.552  1.00  0.00     0.127 S 
ATOM     83  O   UNL A   1      37.127  33.841  40.889  1.00  0.00    -0.237 OA
ATOM     84  O   UNL A   1      39.030  33.335  42.374  1.00  0.00    -0.237 OA
ATOM     85  O   UNL A   1      38.228  35.649  42.149  1.00  0.00    -0.744 OA
ENDBRANCH  79  82
ENDBRANCH  51  75
BRANCH  63  86
ATOM     86  C   UNL A   1      44.477  28.588  35.836  1.00  0.00     0.023 A 
ATOM     87  C   UNL A   1      45.759  29.093  35.541  1.00  0.00     0.012 A 
ATOM     88  C   UNL A   1      44.344  27.519  36.745  1.00  0.00     0.148 A 
ATOM     89  C   UNL A   1      46.891  28.539  36.135  1.00  0.00     0.002 A 
ATOM     90  C   UNL A   1      45.474  26.996  37.361  1.00  0.00     0.091 A 
ATOM     91  F   UNL A   1      43.114  27.051  37.001  1.00  0.00    -0.205 F 
ATOM     92  C   UNL A   1      46.748  27.500  37.053  1.00  0.00     0.022 A 
BRANCH  90  93
ATOM     93  S   UNL A   1      45.390  25.704  38.606  1.00  0.00     0.127 S 
ATOM     94  O   UNL A   1      44.752  26.405  39.720  1.00  0.00    -0.237 OA
ATOM     95  O   UNL A   1      44.548  24.701  37.954  1.00  0.00    -0.237 OA
ATOM     96  O   UNL A   1      46.764  25.283  38.845  1.00  0.00    -0.744 OA
ENDBRANCH  90  93
ENDBRANCH  63  86
ENDBRANCH  37  38
ENDBRANCH  30  32
ENDBRANCH  29  30
ENDBRANCH  28  29
ENDBRANCH  27  28
ENDBRANCH  26  27
ENDBRANCH  25  26
ENDBRANCH   1  25
TORSDOF 25
ENDMDL
MODEL 3
REMARK VINA RESULT:      -9.4      3.235      5.762
REMARK SMILES O=C(CC1(C[S@](=O)C[C@H]2Cc3ccccc3S2)CC1)OCCOCCOCCOC(=O)c1ccc(-c2c3nc(c(-c4cccc(S(=O)(=O)[O-])c4F)c4ccc([nH]4)c(-c4cccc(S(=O)(=O)[O-])c4F)c4nc(c(-c5cccc(S(=O)(=O)[O-])c5F)c5ccc2[nH]5)C=C4)C=C3)cc1
REMARK SMILES IDX 24 1 23 2 22 3 21 4 20 5 2 6 1 7 3 8 4 9 18 10 19 11 5 12
REMARK SMILES IDX 6 13 7 14 8 15 9 16 10 17 17 18 11 19 16 20 12 21 15 22
REMARK SMILES IDX 13 23 14 24 25 25 26 26 27 27 28 28 29 29 30 30 31 31 32 32
REMARK SMILES IDX 33 33 94 34 34 35 93 36 35 37 36 38 37 39 87 40 38 41 92 42
REMARK SMILES IDX 86 43 88 44 39 45 91 46 85 47 84 48 40 50 72 51 52 52 71 53
REMARK SMILES IDX 53 54 56 55 70 56 89 57 54 58 55 59 69 61 90 62 57 63 41 64
REMARK SMILES IDX 42 65 50 66 43 67 45 68 51 69 44 70 46 71 47 72 48 73 49 74
REMARK SMILES IDX 73 75 74 76 82 77 75 78 77 79 83 80 76 81 78 82 79 83 80 84
REMARK SMILES IDX 81 85 58 86 59 87 67 88 60 89 62 90 68 91 61 92 63 93 64 94
REMARK SMILES IDX 65 95 66 96
REMARK H PARENT 88 49 56 60
REMARK Flexibility Score: inf
ROOT
ATOM      1  C   UNL A   1      34.827  31.200  28.323  1.00  0.00     0.188 C 
ENDROOT
BRANCH   1   2
ATOM      2  O   UNL A   1      35.066  30.157  27.394  1.00  0.00    -0.376 OA
BRANCH   2   3
ATOM      3  C   UNL A   1      33.965  29.294  27.141  1.00  0.00     0.202 C 
BRANCH   3   4
ATOM      4  C   UNL A   1      32.662  30.068  27.238  1.00  0.00     0.261 C 
BRANCH   4   5
ATOM      5  O   UNL A   1      31.895  29.986  26.022  1.00  0.00    -0.463 OA
BRANCH   5   6
ATOM      6  C   UNL A   1      32.130  29.194  24.953  1.00  0.00     0.306 C 
ATOM      7  O   UNL A   1      32.955  29.574  24.119  1.00  0.00    -0.252 OA
BRANCH   6   8
ATOM      8  C   UNL A   1      31.326  27.941  24.693  1.00  0.00     0.130 C 
BRANCH   8   9
ATOM      9  C   UNL A   1      30.575  27.751  23.383  1.00  0.00    -0.008 C 
ATOM     10  C   UNL A   1      29.075  27.517  23.535  1.00  0.00     0.009 C 
ATOM     11  C   UNL A   1      29.554  28.772  22.890  1.00  0.00     0.009 C 
BRANCH   9  12
ATOM     12  C   UNL A   1      31.237  26.774  22.414  1.00  0.00     0.112 C 
BRANCH  12  13
ATOM     13  S   UNL A   1      33.045  26.672  22.506  1.00  0.00     0.023 S 
ATOM     14  O   UNL A   1      33.613  26.371  21.152  1.00  0.00    -0.260 OA
BRANCH  13  15
ATOM     15  C   UNL A   1      33.204  25.191  23.566  1.00  0.00     0.120 C 
BRANCH  15  16
ATOM     16  C   UNL A   1      34.104  24.070  23.023  1.00  0.00     0.068 C 
ATOM     17  C   UNL A   1      34.873  23.348  24.166  1.00  0.00     0.052 C 
ATOM     18  S   UNL A   1      33.171  22.746  22.176  1.00  0.00    -0.121 SA
ATOM     19  C   UNL A   1      34.093  22.122  24.555  1.00  0.00    -0.033 A 
ATOM     20  C   UNL A   1      33.143  21.734  23.614  1.00  0.00     0.011 A 
ATOM     21  C   UNL A   1      34.300  21.343  25.689  1.00  0.00     0.005 A 
ATOM     22  C   UNL A   1      32.332  20.634  23.816  1.00  0.00     0.015 A 
ATOM     23  C   UNL A   1      33.494  20.223  25.902  1.00  0.00     0.000 A 
ATOM     24  C   UNL A   1      32.512  19.875  24.972  1.00  0.00     0.001 A 
ENDBRANCH  15  16
ENDBRANCH  13  15
ENDBRANCH  12  13
ENDBRANCH   9  12
ENDBRANCH   8   9
ENDBRANCH   6   8
ENDBRANCH   5   6
ENDBRANCH   4   5
ENDBRANCH   3   4
ENDBRANCH   2   3
ENDBRANCH   1   2
BRANCH   1  25
ATOM     25  C   UNL A   1      35.520  32.534  28.041  1.00  0.00     0.188 C 
BRANCH  25  26
ATOM     26  O   UNL A   1      34.737  33.613  27.549  1.00  0.00    -0.376 OA
BRANCH  26  27
ATOM     27  C   UNL A   1      33.375  33.725  27.951  1.00  0.00     0.202 C 
BRANCH  27  28
ATOM     28  C   UNL A   1      32.988  34.964  28.754  1.00  0.00     0.261 C 
BRANCH  28  29
ATOM     29  O   UNL A   1      34.000  35.324  29.714  1.00  0.00    -0.460 OA
BRANCH  29  30
ATOM     30  C   UNL A   1      33.826  34.855  30.970  1.00  0.00     0.338 C 
ATOM     31  O   UNL A   1      32.785  34.803  31.609  1.00  0.00    -0.246 OA
BRANCH  30  32
ATOM     32  C   UNL A   1      35.110  34.331  31.460  1.00  0.00     0.060 A 
ATOM     33  C   UNL A   1      35.108  33.332  32.430  1.00  0.00     0.016 A 
ATOM     34  C   UNL A   1      36.313  34.780  30.903  1.00  0.00     0.016 A 
ATOM     35  C   UNL A   1      36.323  32.782  32.837  1.00  0.00     0.010 A 
ATOM     36  C   UNL A   1      37.530  34.227  31.323  1.00  0.00     0.010 A 
ATOM     37  C   UNL A   1      37.546  33.215  32.290  1.00  0.00    -0.014 A 
BRANCH  37  38
ATOM     38  C   UNL A   1      38.793  32.478  32.632  1.00  0.00     0.031 A 
ATOM     39  C   UNL A   1      39.624  32.812  33.840  1.00  0.00     0.074 A 
ATOM     40  C   UNL A   1      39.153  31.451  31.835  1.00  0.00     0.049 A 
ATOM     41  N   UNL A   1      40.637  32.150  34.342  1.00  0.00    -0.248 NA
ATOM     42  C   UNL A   1      39.281  34.033  34.588  1.00  0.00     0.031 C 
ATOM     43  C   UNL A   1      38.475  31.075  30.591  1.00  0.00     0.029 A 
ATOM     44  N   UNL A   1      40.172  30.538  31.946  1.00  0.00    -0.354 N 
ATOM     45  C   UNL A   1      41.007  32.829  35.498  1.00  0.00     0.074 A 
ATOM     46  C   UNL A   1      40.173  34.009  35.574  1.00  0.00     0.031 C 
ATOM     47  C   UNL A   1      39.089  30.008  30.059  1.00  0.00     0.029 A 
ATOM     48  C   UNL A   1      40.210  29.632  30.912  1.00  0.00     0.049 A 
ATOM     49  H   UNL A   1      40.812  30.533  32.693  1.00  0.00     0.167 HD
ATOM     50  C   UNL A   1      41.892  32.446  36.450  1.00  0.00     0.034 A 
ATOM     51  C   UNL A   1      41.052  28.609  30.671  1.00  0.00     0.034 A 
ATOM     52  C   UNL A   1      42.698  31.255  36.374  1.00  0.00     0.049 A 
ATOM     53  C   UNL A   1      42.118  28.285  31.673  1.00  0.00     0.074 A 
ATOM     54  C   UNL A   1      43.569  30.749  37.323  1.00  0.00     0.029 A 
ATOM     55  N   UNL A   1      42.751  30.397  35.286  1.00  0.00    -0.354 N 
ATOM     56  N   UNL A   1      42.339  28.841  32.840  1.00  0.00    -0.248 NA
ATOM     57  C   UNL A   1      43.028  27.179  31.348  1.00  0.00     0.031 C 
ATOM     58  C   UNL A   1      44.166  29.597  36.800  1.00  0.00     0.029 A 
ATOM     59  C   UNL A   1      43.660  29.380  35.529  1.00  0.00     0.049 A 
ATOM     60  H   UNL A   1      42.220  30.497  34.463  1.00  0.00     0.167 HD
ATOM     61  C   UNL A   1      43.400  28.142  33.399  1.00  0.00     0.074 A 
ATOM     62  C   UNL A   1      43.770  27.112  32.448  1.00  0.00     0.031 C 
ATOM     63  C   UNL A   1      44.011  28.344  34.591  1.00  0.00     0.034 A 
BRANCH  50  64
ATOM     64  C   UNL A   1      41.944  33.230  37.737  1.00  0.00     0.023 A 
ATOM     65  C   UNL A   1      42.980  34.170  37.900  1.00  0.00     0.012 A 
ATOM     66  C   UNL A   1      40.930  33.156  38.707  1.00  0.00     0.148 A 
ATOM     67  C   UNL A   1      43.045  34.993  39.022  1.00  0.00     0.002 A 
ATOM     68  C   UNL A   1      40.976  34.007  39.809  1.00  0.00     0.091 A 
ATOM     69  F   UNL A   1      39.938  32.273  38.527  1.00  0.00    -0.205 F 
ATOM     70  C   UNL A   1      42.038  34.915  39.975  1.00  0.00     0.022 A 
BRANCH  68  71
ATOM     71  S   UNL A   1      39.688  34.057  41.060  1.00  0.00     0.127 S 
ATOM     72  O   UNL A   1      38.503  34.329  40.246  1.00  0.00    -0.237 OA
ATOM     73  O   UNL A   1      39.749  32.707  41.618  1.00  0.00    -0.237 OA
ATOM     74  O   UNL A   1      40.066  35.118  41.981  1.00  0.00    -0.744 OA
ENDBRANCH  68  71
ENDBRANCH  50  64
BRANCH  51  75
ATOM     75  C   UNL A   1      40.866  27.801  29.437  1.00  0.00     0.023 A 
ATOM     76  C   UNL A   1      39.780  26.913  29.343  1.00  0.00     0.012 A 
ATOM     77  C   UNL A   1      41.708  27.989  28.323  1.00  0.00     0.148 A 
ATOM     78  C   UNL A   1      39.532  26.227  28.152  1.00  0.00     0.002 A 
ATOM     79  C   UNL A   1      41.435  27.330  27.131  1.00  0.00     0.091 A 
ATOM     80  F   UNL A   1      42.733  28.846  28.445  1.00  0.00    -0.205 F 
ATOM     81  C   UNL A   1      40.350  26.443  27.047  1.00  0.00     0.022 A 
BRANCH  79  82
ATOM     82  S   UNL A   1      42.376  27.612  25.629  1.00  0.00     0.127 S 
ATOM     83  O   UNL A   1      43.748  27.607  26.131  1.00  0.00    -0.237 OA
ATOM     84  O   UNL A   1      42.008  26.446  24.827  1.00  0.00    -0.237 OA
ATOM     85  O   UNL A   1      41.913  28.888  25.102  1.00  0.00    -0.744 OA
ENDBRANCH  79  82
ENDBRANCH  51  75
BRANCH  63  86
ATOM     86  C   UNL A   1      45.158  27.441  34.952  1.00  0.00     0.023 A 
ATOM     87  C   UNL A   1      46.472  27.828  34.623  1.00  0.00     0.012 A 
ATOM     88  C   UNL A   1      44.947  26.265  35.701  1.00  0.00     0.148 A 
ATOM     89  C   UNL A   1      47.558  27.055  35.023  1.00  0.00     0.002 A 
ATOM     90  C   UNL A   1      46.038  25.518  36.128  1.00  0.00     0.091 A 
ATOM     91  F   UNL A   1      43.687  25.914  35.993  1.00  0.00    -0.205 F 
ATOM     92  C   UNL A   1      47.343  25.908  35.785  1.00  0.00     0.022 A 
BRANCH  90  93
ATOM     93  S   UNL A   1      45.870  24.065  37.169  1.00  0.00     0.127 S 
ATOM     94  O   UNL A   1      45.342  23.081  36.225  1.00  0.00    -0.237 OA
ATOM     95  O   UNL A   1      47.250  23.826  37.592  1.00  0.00    -0.237 OA
ATOM     96  O   UNL A   1      44.961  24.441  38.244  1.00  0.00    -0.744 OA
ENDBRANCH  90  93
ENDBRANCH  63  86
ENDBRANCH  37  38
ENDBRANCH  30  32
ENDBRANCH  29  30
ENDBRANCH  28  29
ENDBRANCH  27  28
ENDBRANCH  26  27
ENDBRANCH  25  26
ENDBRANCH   1  25
TORSDOF 25
ENDMDL
