MODEL 1
REMARK VINA RESULT:     -11.2      0.000      0.000
REMARK SMILES O=C(OCCOCCOCCOC(=O)[C@@H]1CCCC[C@@H]1C(=O)Nc1nc(-c2ccc(Cl)c(Cl)c2)cs1)c1ccc(-c2c3nc(c(-c4cccc(S(=O)(=O)[O-])c4F)c4ccc([nH]4)c(-c4cccc(S(=O)(=O)[O-])c4F)c4nc(c(-c5cccc(S(=O)(=O)[O-])c5F)c5ccc2[nH]5)C=C4)C=C3)cc1
REMARK SMILES IDX 7 1 6 2 5 3 4 4 3 5 2 6 1 7 37 8 38 9 99 10 39 11 98 12
REMARK SMILES IDX 40 13 41 14 42 15 92 16 43 17 97 18 91 19 93 20 44 21 96 22
REMARK SMILES IDX 90 23 89 24 45 26 77 27 57 28 76 29 58 30 61 31 75 32 94 33
REMARK SMILES IDX 59 34 60 35 74 37 95 38 62 39 46 40 47 41 55 42 48 43 50 44
REMARK SMILES IDX 56 45 49 46 51 47 52 48 53 49 54 50 78 51 79 52 87 53 80 54
REMARK SMILES IDX 82 55 88 56 81 57 83 58 84 59 85 60 86 61 63 62 64 63 72 64
REMARK SMILES IDX 65 65 67 66 73 67 66 68 68 69 69 70 70 71 71 72 8 73 9 74
REMARK SMILES IDX 10 75 11 76 12 77 13 78 14 79 15 80 16 81 20 82 17 83 19 84
REMARK SMILES IDX 18 85 21 86 22 87 23 88 24 90 25 91 36 92 26 93 35 94 27 95
REMARK SMILES IDX 28 96 34 97 29 98 32 99 30 100 33 101 31 102
REMARK H PARENT 93 25 61 36 23 89
REMARK Flexibility Score: inf
ROOT
ATOM      1  C   UNL A   1      36.152  21.109  25.236  1.00  0.00     0.188 C 
ENDROOT
BRANCH   1   2
ATOM      2  O   UNL A   1      36.800  19.851  25.023  1.00  0.00    -0.376 OA
BRANCH   2   3
ATOM      3  C   UNL A   1      38.194  20.008  24.765  1.00  0.00     0.202 C 
BRANCH   3   4
ATOM      4  C   UNL A   1      39.042  19.066  25.620  1.00  0.00     0.261 C 
BRANCH   4   5
ATOM      5  O   UNL A   1      40.453  19.344  25.561  1.00  0.00    -0.460 OA
BRANCH   5   6
ATOM      6  C   UNL A   1      41.326  19.884  26.446  1.00  0.00     0.338 C 
ATOM      7  O   UNL A   1      42.054  19.096  27.054  1.00  0.00    -0.246 OA
BRANCH   6   8
ATOM      8  C   UNL A   1      41.473  21.350  26.771  1.00  0.00     0.060 A 
ATOM      9  C   UNL A   1      41.220  22.427  25.924  1.00  0.00     0.016 A 
ATOM     10  C   UNL A   1      41.938  21.667  28.067  1.00  0.00     0.016 A 
ATOM     11  C   UNL A   1      41.348  23.757  26.374  1.00  0.00     0.010 A 
ATOM     12  C   UNL A   1      42.064  22.993  28.525  1.00  0.00     0.010 A 
ATOM     13  C   UNL A   1      41.754  24.057  27.681  1.00  0.00    -0.014 A 
BRANCH  13  14
ATOM     14  C   UNL A   1      42.120  25.462  28.021  1.00  0.00     0.031 A 
ATOM     15  C   UNL A   1      43.472  25.916  27.572  1.00  0.00     0.074 A 
ATOM     16  C   UNL A   1      41.313  26.323  28.673  1.00  0.00     0.049 A 
ATOM     17  N   UNL A   1      43.975  27.119  27.541  1.00  0.00    -0.248 NA
ATOM     18  C   UNL A   1      44.368  24.864  27.061  1.00  0.00     0.031 C 
ATOM     19  C   UNL A   1      39.987  26.002  29.168  1.00  0.00     0.029 A 
ATOM     20  N   UNL A   1      41.477  27.648  29.022  1.00  0.00    -0.354 N 
ATOM     21  C   UNL A   1      45.254  26.965  27.030  1.00  0.00     0.074 A 
ATOM     22  C   UNL A   1      45.435  25.564  26.721  1.00  0.00     0.031 C 
ATOM     23  C   UNL A   1      39.438  27.095  29.725  1.00  0.00     0.029 A 
ATOM     24  C   UNL A   1      40.387  28.199  29.671  1.00  0.00     0.049 A 
ATOM     25  H   UNL A   1      42.296  28.157  28.827  1.00  0.00     0.167 HD
ATOM     26  C   UNL A   1      46.216  27.898  26.870  1.00  0.00     0.034 A 
ATOM     27  C   UNL A   1      40.173  29.446  30.154  1.00  0.00     0.034 A 
ATOM     28  C   UNL A   1      46.088  29.259  27.294  1.00  0.00     0.049 A 
ATOM     29  C   UNL A   1      41.274  30.468  29.958  1.00  0.00     0.074 A 
ATOM     30  C   UNL A   1      47.033  30.265  27.247  1.00  0.00     0.029 A 
ATOM     31  N   UNL A   1      44.960  29.789  27.905  1.00  0.00    -0.354 N 
ATOM     32  N   UNL A   1      42.403  30.346  29.302  1.00  0.00    -0.248 NA
ATOM     33  C   UNL A   1      41.063  31.807  30.534  1.00  0.00     0.031 C 
ATOM     34  C   UNL A   1      46.493  31.393  27.876  1.00  0.00     0.029 A 
ATOM     35  C   UNL A   1      45.192  31.104  28.260  1.00  0.00     0.049 A 
ATOM     36  H   UNL A   1      44.120  29.300  28.062  1.00  0.00     0.167 HD
ATOM     37  C   UNL A   1      43.020  31.592  29.361  1.00  0.00     0.074 A 
ATOM     38  C   UNL A   1      42.112  32.471  30.067  1.00  0.00     0.031 C 
ATOM     39  C   UNL A   1      44.239  31.972  28.904  1.00  0.00     0.034 A 
BRANCH  26  40
ATOM     40  C   UNL A   1      47.518  27.407  26.309  1.00  0.00     0.023 A 
ATOM     41  C   UNL A   1      47.796  27.555  24.935  1.00  0.00     0.012 A 
ATOM     42  C   UNL A   1      48.422  26.714  27.134  1.00  0.00     0.148 A 
ATOM     43  C   UNL A   1      48.934  26.972  24.380  1.00  0.00     0.002 A 
ATOM     44  C   UNL A   1      49.576  26.178  26.584  1.00  0.00     0.091 A 
ATOM     45  F   UNL A   1      48.109  26.552  28.428  1.00  0.00    -0.205 F 
ATOM     46  C   UNL A   1      49.825  26.289  25.206  1.00  0.00     0.022 A 
BRANCH  44  47
ATOM     47  S   UNL A   1      50.809  25.332  27.572  1.00  0.00     0.127 S 
ATOM     48  O   UNL A   1      51.732  24.853  26.543  1.00  0.00    -0.237 OA
ATOM     49  O   UNL A   1      51.329  26.419  28.401  1.00  0.00    -0.237 OA
ATOM     50  O   UNL A   1      50.098  24.294  28.303  1.00  0.00    -0.744 OA
ENDBRANCH  44  47
ENDBRANCH  26  40
BRANCH  27  51
ATOM     51  C   UNL A   1      38.864  29.845  30.785  1.00  0.00     0.023 A 
ATOM     52  C   UNL A   1      38.578  29.436  32.105  1.00  0.00     0.012 A 
ATOM     53  C   UNL A   1      37.890  30.608  30.108  1.00  0.00     0.148 A 
ATOM     54  C   UNL A   1      37.364  29.749  32.724  1.00  0.00     0.002 A 
ATOM     55  C   UNL A   1      36.710  30.981  30.755  1.00  0.00     0.091 A 
ATOM     56  F   UNL A   1      38.131  30.964  28.839  1.00  0.00    -0.205 F 
ATOM     57  C   UNL A   1      36.438  30.538  32.056  1.00  0.00     0.022 A 
BRANCH  55  58
ATOM     58  S   UNL A   1      35.499  32.085  30.016  1.00  0.00     0.127 S 
ATOM     59  O   UNL A   1      34.562  32.285  31.124  1.00  0.00    -0.237 OA
ATOM     60  O   UNL A   1      36.322  33.253  29.693  1.00  0.00    -0.237 OA
ATOM     61  O   UNL A   1      34.966  31.381  28.866  1.00  0.00    -0.744 OA
ENDBRANCH  55  58
ENDBRANCH  27  51
BRANCH  39  62
ATOM     62  C   UNL A   1      44.653  33.405  29.112  1.00  0.00     0.023 A 
ATOM     63  C   UNL A   1      45.327  33.784  30.290  1.00  0.00     0.012 A 
ATOM     64  C   UNL A   1      44.465  34.352  28.086  1.00  0.00     0.148 A 
ATOM     65  C   UNL A   1      45.775  35.093  30.459  1.00  0.00     0.002 A 
ATOM     66  C   UNL A   1      44.967  35.638  28.236  1.00  0.00     0.091 A 
ATOM     67  F   UNL A   1      43.811  33.974  26.978  1.00  0.00    -0.205 F 
ATOM     68  C   UNL A   1      45.608  36.014  29.428  1.00  0.00     0.022 A 
BRANCH  66  69
ATOM     69  S   UNL A   1      44.902  36.856  26.918  1.00  0.00     0.127 S 
ATOM     70  O   UNL A   1      45.672  36.194  25.865  1.00  0.00    -0.237 OA
ATOM     71  O   UNL A   1      43.465  36.950  26.658  1.00  0.00    -0.237 OA
ATOM     72  O   UNL A   1      45.502  38.068  27.459  1.00  0.00    -0.744 OA
ENDBRANCH  66  69
ENDBRANCH  39  62
ENDBRANCH  13  14
ENDBRANCH   6   8
ENDBRANCH   5   6
ENDBRANCH   4   5
ENDBRANCH   3   4
ENDBRANCH   2   3
ENDBRANCH   1   2
BRANCH   1  73
ATOM     73  C   UNL A   1      37.093  22.318  25.390  1.00  0.00     0.188 C 
BRANCH  73  74
ATOM     74  O   UNL A   1      37.112  23.278  24.337  1.00  0.00    -0.376 OA
BRANCH  74  75
ATOM     75  C   UNL A   1      36.405  22.924  23.142  1.00  0.00     0.202 C 
BRANCH  75  76
ATOM     76  C   UNL A   1      34.907  23.277  23.090  1.00  0.00     0.261 C 
BRANCH  76  77
ATOM     77  O   UNL A   1      34.692  24.690  23.271  1.00  0.00    -0.463 OA
BRANCH  77  78
ATOM     78  C   UNL A   1      34.232  25.069  24.494  1.00  0.00     0.309 C 
ATOM     79  O   UNL A   1      34.166  24.300  25.448  1.00  0.00    -0.252 OA
BRANCH  78  80
ATOM     80  C   UNL A   1      33.915  26.560  24.604  1.00  0.00     0.111 C 
ATOM     81  C   UNL A   1      33.318  27.085  25.909  1.00  0.00     0.016 C 
ATOM     82  C   UNL A   1      33.265  27.197  23.386  1.00  0.00     0.093 C 
ATOM     83  C   UNL A   1      33.414  28.611  26.008  1.00  0.00     0.001 C 
ATOM     84  C   UNL A   1      33.463  28.737  23.484  1.00  0.00     0.014 C 
ATOM     85  C   UNL A   1      32.862  29.310  24.765  1.00  0.00     0.001 C 
BRANCH  82  86
ATOM     86  C   UNL A   1      31.843  26.896  22.897  1.00  0.00     0.230 C 
ATOM     87  O   UNL A   1      31.280  27.836  22.305  1.00  0.00    -0.274 OA
ATOM     88  N   UNL A   1      31.226  25.704  22.751  1.00  0.00    -0.302 N 
ATOM     89  H   UNL A   1      30.700  25.647  21.921  1.00  0.00     0.172 HD
BRANCH  88  90
ATOM     90  C   UNL A   1      31.166  24.563  23.491  1.00  0.00     0.189 A 
ATOM     91  N   UNL A   1      31.487  23.338  23.193  1.00  0.00    -0.220 NA
ATOM     92  S   UNL A   1      30.643  24.799  25.111  1.00  0.00    -0.105 S 
ATOM     93  C   UNL A   1      31.506  22.572  24.338  1.00  0.00     0.084 A 
ATOM     94  C   UNL A   1      30.997  23.172  25.470  1.00  0.00     0.097 A 
BRANCH  93  95
ATOM     95  C   UNL A   1      32.023  21.226  24.341  1.00  0.00     0.003 A 
ATOM     96  C   UNL A   1      32.503  20.662  25.528  1.00  0.00     0.012 A 
ATOM     97  C   UNL A   1      32.037  20.489  23.157  1.00  0.00     0.032 A 
ATOM     98  C   UNL A   1      32.961  19.345  25.536  1.00  0.00     0.023 A 
ATOM     99  C   UNL A   1      32.490  19.169  23.166  1.00  0.00     0.060 A 
ATOM    100  C   UNL A   1      32.939  18.591  24.360  1.00  0.00     0.059 A 
ATOM    101  Cl  UNL A   1      32.425  18.292  21.679  1.00  0.00    -0.083 Cl
ATOM    102  Cl  UNL A   1      33.439  16.938  24.453  1.00  0.00    -0.083 Cl
ENDBRANCH  93  95
ENDBRANCH  88  90
ENDBRANCH  82  86
ENDBRANCH  78  80
ENDBRANCH  77  78
ENDBRANCH  76  77
ENDBRANCH  75  76
ENDBRANCH  74  75
ENDBRANCH  73  74
ENDBRANCH   1  73
TORSDOF 23
ENDMDL
MODEL 2
REMARK VINA RESULT:     -11.0      1.782      2.140
REMARK SMILES O=C(OCCOCCOCCOC(=O)[C@@H]1CCCC[C@@H]1C(=O)Nc1nc(-c2ccc(Cl)c(Cl)c2)cs1)c1ccc(-c2c3nc(c(-c4cccc(S(=O)(=O)[O-])c4F)c4ccc([nH]4)c(-c4cccc(S(=O)(=O)[O-])c4F)c4nc(c(-c5cccc(S(=O)(=O)[O-])c5F)c5ccc2[nH]5)C=C4)C=C3)cc1
REMARK SMILES IDX 7 1 6 2 5 3 4 4 3 5 2 6 1 7 37 8 38 9 99 10 39 11 98 12
REMARK SMILES IDX 40 13 41 14 42 15 92 16 43 17 97 18 91 19 93 20 44 21 96 22
REMARK SMILES IDX 90 23 89 24 45 26 77 27 57 28 76 29 58 30 61 31 75 32 94 33
REMARK SMILES IDX 59 34 60 35 74 37 95 38 62 39 46 40 47 41 55 42 48 43 50 44
REMARK SMILES IDX 56 45 49 46 51 47 52 48 53 49 54 50 78 51 79 52 87 53 80 54
REMARK SMILES IDX 82 55 88 56 81 57 83 58 84 59 85 60 86 61 63 62 64 63 72 64
REMARK SMILES IDX 65 65 67 66 73 67 66 68 68 69 69 70 70 71 71 72 8 73 9 74
REMARK SMILES IDX 10 75 11 76 12 77 13 78 14 79 15 80 16 81 20 82 17 83 19 84
REMARK SMILES IDX 18 85 21 86 22 87 23 88 24 90 25 91 36 92 26 93 35 94 27 95
REMARK SMILES IDX 28 96 34 97 29 98 32 99 30 100 33 101 31 102
REMARK H PARENT 93 25 61 36 23 89
REMARK Flexibility Score: inf
ROOT
ATOM      1  C   UNL A   1      35.961  21.109  25.136  1.00  0.00     0.188 C 
ENDROOT
BRANCH   1   2
ATOM      2  O   UNL A   1      36.730  19.914  24.980  1.00  0.00    -0.376 OA
BRANCH   2   3
ATOM      3  C   UNL A   1      38.126  20.189  24.876  1.00  0.00     0.202 C 
BRANCH   3   4
ATOM      4  C   UNL A   1      38.969  19.159  25.627  1.00  0.00     0.261 C 
BRANCH   4   5
ATOM      5  O   UNL A   1      40.368  19.493  25.693  1.00  0.00    -0.460 OA
BRANCH   5   6
ATOM      6  C   UNL A   1      41.140  20.049  26.659  1.00  0.00     0.338 C 
ATOM      7  O   UNL A   1      41.766  19.270  27.381  1.00  0.00    -0.246 OA
BRANCH   6   8
ATOM      8  C   UNL A   1      41.285  21.523  26.946  1.00  0.00     0.060 A 
ATOM      9  C   UNL A   1      40.931  22.579  26.108  1.00  0.00     0.016 A 
ATOM     10  C   UNL A   1      41.863  21.873  28.186  1.00  0.00     0.016 A 
ATOM     11  C   UNL A   1      41.072  23.920  26.523  1.00  0.00     0.010 A 
ATOM     12  C   UNL A   1      42.003  23.210  28.608  1.00  0.00     0.010 A 
ATOM     13  C   UNL A   1      41.592  24.252  27.780  1.00  0.00    -0.014 A 
BRANCH  13  14
ATOM     14  C   UNL A   1      41.958  25.670  28.061  1.00  0.00     0.031 A 
ATOM     15  C   UNL A   1      43.292  26.117  27.554  1.00  0.00     0.074 A 
ATOM     16  C   UNL A   1      41.167  26.547  28.710  1.00  0.00     0.049 A 
ATOM     17  N   UNL A   1      43.785  27.321  27.468  1.00  0.00    -0.248 NA
ATOM     18  C   UNL A   1      44.180  25.054  27.050  1.00  0.00     0.031 C 
ATOM     19  C   UNL A   1      39.859  26.234  29.258  1.00  0.00     0.029 A 
ATOM     20  N   UNL A   1      41.332  27.884  29.010  1.00  0.00    -0.354 N 
ATOM     21  C   UNL A   1      45.048  27.158  26.921  1.00  0.00     0.074 A 
ATOM     22  C   UNL A   1      45.229  25.749  26.653  1.00  0.00     0.031 C 
ATOM     23  C   UNL A   1      39.320  27.341  29.796  1.00  0.00     0.029 A 
ATOM     24  C   UNL A   1      40.259  28.449  29.675  1.00  0.00     0.049 A 
ATOM     25  H   UNL A   1      42.141  28.391  28.772  1.00  0.00     0.167 HD
ATOM     26  C   UNL A   1      45.998  28.092  26.700  1.00  0.00     0.034 A 
ATOM     27  C   UNL A   1      40.051  29.710  30.122  1.00  0.00     0.034 A 
ATOM     28  C   UNL A   1      45.873  29.466  27.082  1.00  0.00     0.049 A 
ATOM     29  C   UNL A   1      41.137  30.732  29.857  1.00  0.00     0.074 A 
ATOM     30  C   UNL A   1      46.808  30.476  26.971  1.00  0.00     0.029 A 
ATOM     31  N   UNL A   1      44.762  30.009  27.711  1.00  0.00    -0.354 N 
ATOM     32  N   UNL A   1      42.246  30.595  29.169  1.00  0.00    -0.248 NA
ATOM     33  C   UNL A   1      40.935  32.088  30.395  1.00  0.00     0.031 C 
ATOM     34  C   UNL A   1      46.281  31.620  27.579  1.00  0.00     0.029 A 
ATOM     35  C   UNL A   1      44.994  31.336  28.014  1.00  0.00     0.049 A 
ATOM     36  H   UNL A   1      43.930  29.520  27.910  1.00  0.00     0.167 HD
ATOM     37  C   UNL A   1      42.855  31.846  29.167  1.00  0.00     0.074 A 
ATOM     38  C   UNL A   1      41.963  32.743  29.872  1.00  0.00     0.031 C 
ATOM     39  C   UNL A   1      44.056  32.219  28.659  1.00  0.00     0.034 A 
BRANCH  26  40
ATOM     40  C   UNL A   1      47.285  27.591  26.113  1.00  0.00     0.023 A 
ATOM     41  C   UNL A   1      48.318  27.137  26.959  1.00  0.00     0.012 A 
ATOM     42  C   UNL A   1      47.498  27.662  24.725  1.00  0.00     0.148 A 
ATOM     43  C   UNL A   1      49.566  26.810  26.432  1.00  0.00     0.002 A 
ATOM     44  C   UNL A   1      48.727  27.289  24.203  1.00  0.00     0.091 A 
ATOM     45  F   UNL A   1      46.513  28.139  23.951  1.00  0.00    -0.205 F 
ATOM     46  C   UNL A   1      49.768  26.881  25.055  1.00  0.00     0.022 A 
BRANCH  44  47
ATOM     47  S   UNL A   1      49.066  27.292  22.443  1.00  0.00     0.127 S 
ATOM     48  O   UNL A   1      50.526  27.368  22.424  1.00  0.00    -0.237 OA
ATOM     49  O   UNL A   1      48.516  26.002  22.028  1.00  0.00    -0.237 OA
ATOM     50  O   UNL A   1      48.375  28.453  21.901  1.00  0.00    -0.744 OA
ENDBRANCH  44  47
ENDBRANCH  26  40
BRANCH  27  51
ATOM     51  C   UNL A   1      38.759  30.122  30.782  1.00  0.00     0.023 A 
ATOM     52  C   UNL A   1      38.534  29.785  32.134  1.00  0.00     0.012 A 
ATOM     53  C   UNL A   1      37.744  30.826  30.101  1.00  0.00     0.148 A 
ATOM     54  C   UNL A   1      37.339  30.113  32.781  1.00  0.00     0.002 A 
ATOM     55  C   UNL A   1      36.583  31.214  30.773  1.00  0.00     0.091 A 
ATOM     56  F   UNL A   1      37.928  31.112  28.805  1.00  0.00    -0.205 F 
ATOM     57  C   UNL A   1      36.372  30.844  32.107  1.00  0.00     0.022 A 
BRANCH  55  58
ATOM     58  S   UNL A   1      35.322  32.252  30.020  1.00  0.00     0.127 S 
ATOM     59  O   UNL A   1      34.407  32.470  31.142  1.00  0.00    -0.237 OA
ATOM     60  O   UNL A   1      36.102  33.428  29.628  1.00  0.00    -0.237 OA
ATOM     61  O   UNL A   1      34.782  31.485  28.914  1.00  0.00    -0.744 OA
ENDBRANCH  55  58
ENDBRANCH  27  51
BRANCH  39  62
ATOM     62  C   UNL A   1      44.466  33.661  28.805  1.00  0.00     0.023 A 
ATOM     63  C   UNL A   1      44.130  34.597  27.807  1.00  0.00     0.012 A 
ATOM     64  C   UNL A   1      45.090  34.104  29.988  1.00  0.00     0.148 A 
ATOM     65  C   UNL A   1      44.442  35.946  27.968  1.00  0.00     0.002 A 
ATOM     66  C   UNL A   1      45.344  35.456  30.167  1.00  0.00     0.091 A 
ATOM     67  F   UNL A   1      45.411  33.194  30.920  1.00  0.00    -0.205 F 
ATOM     68  C   UNL A   1      45.035  36.377  29.152  1.00  0.00     0.022 A 
BRANCH  66  69
ATOM     69  S   UNL A   1      45.997  36.117  31.704  1.00  0.00     0.127 S 
ATOM     70  O   UNL A   1      45.882  37.557  31.480  1.00  0.00    -0.237 OA
ATOM     71  O   UNL A   1      45.064  35.575  32.693  1.00  0.00    -0.237 OA
ATOM     72  O   UNL A   1      47.358  35.611  31.814  1.00  0.00    -0.744 OA
ENDBRANCH  66  69
ENDBRANCH  39  62
ENDBRANCH  13  14
ENDBRANCH   6   8
ENDBRANCH   5   6
ENDBRANCH   4   5
ENDBRANCH   3   4
ENDBRANCH   2   3
ENDBRANCH   1   2
BRANCH   1  73
ATOM     73  C   UNL A   1      36.775  22.386  25.414  1.00  0.00     0.188 C 
BRANCH  73  74
ATOM     74  O   UNL A   1      36.761  23.407  24.421  1.00  0.00    -0.376 OA
BRANCH  74  75
ATOM     75  C   UNL A   1      35.971  23.148  23.254  1.00  0.00     0.202 C 
BRANCH  75  76
ATOM     76  C   UNL A   1      34.521  23.667  23.266  1.00  0.00     0.261 C 
BRANCH  76  77
ATOM     77  O   UNL A   1      34.465  25.067  23.602  1.00  0.00    -0.463 OA
BRANCH  77  78
ATOM     78  C   UNL A   1      34.018  25.360  24.853  1.00  0.00     0.309 C 
ATOM     79  O   UNL A   1      33.871  24.508  25.724  1.00  0.00    -0.252 OA
BRANCH  78  80
ATOM     80  C   UNL A   1      33.824  26.854  25.110  1.00  0.00     0.111 C 
ATOM     81  C   UNL A   1      33.369  27.304  26.498  1.00  0.00     0.016 C 
ATOM     82  C   UNL A   1      33.134  27.639  24.005  1.00  0.00     0.093 C 
ATOM     83  C   UNL A   1      33.589  28.805  26.712  1.00  0.00     0.001 C 
ATOM     84  C   UNL A   1      33.456  29.147  24.211  1.00  0.00     0.014 C 
ATOM     85  C   UNL A   1      33.000  29.646  25.580  1.00  0.00     0.001 C 
BRANCH  82  86
ATOM     86  C   UNL A   1      31.660  27.482  23.611  1.00  0.00     0.230 C 
ATOM     87  O   UNL A   1      31.096  28.533  23.255  1.00  0.00    -0.274 OA
ATOM     88  N   UNL A   1      30.973  26.358  23.314  1.00  0.00    -0.302 N 
ATOM     89  H   UNL A   1      30.373  26.472  22.542  1.00  0.00     0.172 HD
BRANCH  88  90
ATOM     90  C   UNL A   1      30.921  25.103  23.840  1.00  0.00     0.189 A 
ATOM     91  N   UNL A   1      31.157  23.945  23.298  1.00  0.00    -0.220 NA
ATOM     92  S   UNL A   1      30.550  25.055  25.517  1.00  0.00    -0.105 S 
ATOM     93  C   UNL A   1      31.235  22.981  24.280  1.00  0.00     0.084 A 
ATOM     94  C   UNL A   1      30.854  23.380  25.543  1.00  0.00     0.097 A 
BRANCH  93  95
ATOM     95  C   UNL A   1      31.686  21.642  23.993  1.00  0.00     0.003 A 
ATOM     96  C   UNL A   1      31.833  21.221  22.667  1.00  0.00     0.012 A 
ATOM     97  C   UNL A   1      31.982  20.773  25.043  1.00  0.00     0.032 A 
ATOM     98  C   UNL A   1      32.311  19.941  22.392  1.00  0.00     0.023 A 
ATOM     99  C   UNL A   1      32.468  19.493  24.768  1.00  0.00     0.060 A 
ATOM    100  C   UNL A   1      32.646  19.081  23.442  1.00  0.00     0.059 A 
ATOM    101  Cl  UNL A   1      32.872  18.487  26.114  1.00  0.00    -0.083 Cl
ATOM    102  Cl  UNL A   1      33.316  17.539  23.039  1.00  0.00    -0.083 Cl
ENDBRANCH  93  95
ENDBRANCH  88  90
ENDBRANCH  82  86
ENDBRANCH  78  80
ENDBRANCH  77  78
ENDBRANCH  76  77
ENDBRANCH  75  76
ENDBRANCH  74  75
ENDBRANCH  73  74
ENDBRANCH   1  73
TORSDOF 23
ENDMDL
MODEL 3
REMARK VINA RESULT:      -9.6      3.745      9.382
REMARK SMILES O=C(OCCOCCOCCOC(=O)[C@@H]1CCCC[C@@H]1C(=O)Nc1nc(-c2ccc(Cl)c(Cl)c2)cs1)c1ccc(-c2c3nc(c(-c4cccc(S(=O)(=O)[O-])c4F)c4ccc([nH]4)c(-c4cccc(S(=O)(=O)[O-])c4F)c4nc(c(-c5cccc(S(=O)(=O)[O-])c5F)c5ccc2[nH]5)C=C4)C=C3)cc1
REMARK SMILES IDX 7 1 6 2 5 3 4 4 3 5 2 6 1 7 37 8 38 9 99 10 39 11 98 12
REMARK SMILES IDX 40 13 41 14 42 15 92 16 43 17 97 18 91 19 93 20 44 21 96 22
REMARK SMILES IDX 90 23 89 24 45 26 77 27 57 28 76 29 58 30 61 31 75 32 94 33
REMARK SMILES IDX 59 34 60 35 74 37 95 38 62 39 46 40 47 41 55 42 48 43 50 44
REMARK SMILES IDX 56 45 49 46 51 47 52 48 53 49 54 50 78 51 79 52 87 53 80 54
REMARK SMILES IDX 82 55 88 56 81 57 83 58 84 59 85 60 86 61 63 62 64 63 72 64
REMARK SMILES IDX 65 65 67 66 73 67 66 68 68 69 69 70 70 71 71 72 8 73 9 74
REMARK SMILES IDX 10 75 11 76 12 77 13 78 14 79 15 80 16 81 20 82 17 83 19 84
REMARK SMILES IDX 18 85 21 86 22 87 23 88 24 90 25 91 36 92 26 93 35 94 27 95
REMARK SMILES IDX 28 96 34 97 29 98 32 99 30 100 33 101 31 102
REMARK H PARENT 93 25 61 36 23 89
REMARK Flexibility Score: inf
ROOT
ATOM      1  C   UNL A   1      35.731  31.466  29.134  1.00  0.00     0.188 C 
ENDROOT
BRANCH   1   2
ATOM      2  O   UNL A   1      35.022  32.014  30.249  1.00  0.00    -0.376 OA
BRANCH   2   3
ATOM      3  C   UNL A   1      35.907  32.447  31.281  1.00  0.00     0.202 C 
BRANCH   3   4
ATOM      4  C   UNL A   1      35.689  31.672  32.580  1.00  0.00     0.261 C 
BRANCH   4   5
ATOM      5  O   UNL A   1      36.294  30.365  32.583  1.00  0.00    -0.460 OA
BRANCH   5   6
ATOM      6  C   UNL A   1      37.580  29.943  32.658  1.00  0.00     0.338 C 
ATOM      7  O   UNL A   1      37.821  29.053  33.476  1.00  0.00    -0.246 OA
BRANCH   6   8
ATOM      8  C   UNL A   1      38.741  30.474  31.854  1.00  0.00     0.060 A 
ATOM      9  C   UNL A   1      38.900  30.416  30.471  1.00  0.00     0.016 A 
ATOM     10  C   UNL A   1      39.791  31.077  32.581  1.00  0.00     0.016 A 
ATOM     11  C   UNL A   1      40.016  31.001  29.838  1.00  0.00     0.010 A 
ATOM     12  C   UNL A   1      40.906  31.669  31.955  1.00  0.00     0.010 A 
ATOM     13  C   UNL A   1      41.022  31.648  30.567  1.00  0.00    -0.014 A 
BRANCH  13  14
ATOM     14  C   UNL A   1      42.292  32.017  29.879  1.00  0.00     0.031 A 
ATOM     15  C   UNL A   1      42.505  33.476  29.632  1.00  0.00     0.074 A 
ATOM     16  C   UNL A   1      43.236  31.134  29.499  1.00  0.00     0.049 A 
ATOM     17  N   UNL A   1      43.583  34.103  29.249  1.00  0.00    -0.248 NA
ATOM     18  C   UNL A   1      41.344  34.349  29.880  1.00  0.00     0.031 C 
ATOM     19  C   UNL A   1      43.143  29.696  29.672  1.00  0.00     0.029 A 
ATOM     20  N   UNL A   1      44.468  31.309  28.901  1.00  0.00    -0.354 N 
ATOM     21  C   UNL A   1      43.223  35.440  29.188  1.00  0.00     0.074 A 
ATOM     22  C   UNL A   1      41.846  35.541  29.616  1.00  0.00     0.031 C 
ATOM     23  C   UNL A   1      44.272  29.115  29.229  1.00  0.00     0.029 A 
ATOM     24  C   UNL A   1      45.167  30.133  28.694  1.00  0.00     0.049 A 
ATOM     25  H   UNL A   1      44.819  32.191  28.644  1.00  0.00     0.167 HD
ATOM     26  C   UNL A   1      43.958  36.493  28.770  1.00  0.00     0.034 A 
ATOM     27  C   UNL A   1      46.385  29.904  28.150  1.00  0.00     0.034 A 
ATOM     28  C   UNL A   1      45.276  36.381  28.223  1.00  0.00     0.049 A 
ATOM     29  C   UNL A   1      47.181  31.107  27.691  1.00  0.00     0.074 A 
ATOM     30  C   UNL A   1      46.075  37.379  27.700  1.00  0.00     0.029 A 
ATOM     31  N   UNL A   1      45.964  35.187  28.070  1.00  0.00    -0.354 N 
ATOM     32  N   UNL A   1      46.895  32.381  27.817  1.00  0.00    -0.248 NA
ATOM     33  C   UNL A   1      48.481  30.852  27.048  1.00  0.00     0.031 C 
ATOM     34  C   UNL A   1      47.229  36.779  27.183  1.00  0.00     0.029 A 
ATOM     35  C   UNL A   1      47.172  35.417  27.440  1.00  0.00     0.049 A 
ATOM     36  H   UNL A   1      45.640  34.305  28.366  1.00  0.00     0.167 HD
ATOM     37  C   UNL A   1      47.985  33.074  27.299  1.00  0.00     0.074 A 
ATOM     38  C   UNL A   1      48.963  32.081  26.911  1.00  0.00     0.031 C 
ATOM     39  C   UNL A   1      48.153  34.410  27.128  1.00  0.00     0.034 A 
BRANCH  26  40
ATOM     40  C   UNL A   1      43.269  37.825  28.799  1.00  0.00     0.023 A 
ATOM     41  C   UNL A   1      42.495  38.246  27.698  1.00  0.00     0.012 A 
ATOM     42  C   UNL A   1      43.471  38.696  29.885  1.00  0.00     0.148 A 
ATOM     43  C   UNL A   1      41.975  39.538  27.655  1.00  0.00     0.002 A 
ATOM     44  C   UNL A   1      42.910  39.964  29.856  1.00  0.00     0.091 A 
ATOM     45  F   UNL A   1      44.247  38.285  30.898  1.00  0.00    -0.205 F 
ATOM     46  C   UNL A   1      42.178  40.394  28.737  1.00  0.00     0.022 A 
BRANCH  44  47
ATOM     47  S   UNL A   1      43.067  41.116  31.221  1.00  0.00     0.127 S 
ATOM     48  O   UNL A   1      44.470  41.514  31.110  1.00  0.00    -0.237 OA
ATOM     49  O   UNL A   1      42.106  42.154  30.851  1.00  0.00    -0.237 OA
ATOM     50  O   UNL A   1      42.725  40.368  32.422  1.00  0.00    -0.744 OA
ENDBRANCH  44  47
ENDBRANCH  26  40
BRANCH  27  51
ATOM     51  C   UNL A   1      46.980  28.521  28.077  1.00  0.00     0.023 A 
ATOM     52  C   UNL A   1      47.953  28.133  29.024  1.00  0.00     0.012 A 
ATOM     53  C   UNL A   1      46.618  27.584  27.086  1.00  0.00     0.148 A 
ATOM     54  C   UNL A   1      48.561  26.875  28.979  1.00  0.00     0.002 A 
ATOM     55  C   UNL A   1      47.175  26.303  27.089  1.00  0.00     0.091 A 
ATOM     56  F   UNL A   1      45.729  27.956  26.155  1.00  0.00    -0.205 F 
ATOM     57  C   UNL A   1      48.158  25.954  28.023  1.00  0.00     0.022 A 
BRANCH  55  58
ATOM     58  S   UNL A   1      46.643  25.007  25.962  1.00  0.00     0.127 S 
ATOM     59  O   UNL A   1      45.224  24.882  26.299  1.00  0.00    -0.237 OA
ATOM     60  O   UNL A   1      46.912  25.620  24.658  1.00  0.00    -0.237 OA
ATOM     61  O   UNL A   1      47.462  23.850  26.270  1.00  0.00    -0.744 OA
ENDBRANCH  55  58
ENDBRANCH  27  51
BRANCH  39  62
ATOM     62  C   UNL A   1      49.453  34.884  26.532  1.00  0.00     0.023 A 
ATOM     63  C   UNL A   1      49.586  35.015  25.136  1.00  0.00     0.012 A 
ATOM     64  C   UNL A   1      50.506  35.300  27.371  1.00  0.00     0.148 A 
ATOM     65  C   UNL A   1      50.761  35.520  24.581  1.00  0.00     0.002 A 
ATOM     66  C   UNL A   1      51.649  35.858  26.815  1.00  0.00     0.091 A 
ATOM     67  F   UNL A   1      50.363  35.155  28.696  1.00  0.00    -0.205 F 
ATOM     68  C   UNL A   1      51.785  35.954  25.420  1.00  0.00     0.022 A 
BRANCH  66  69
ATOM     69  S   UNL A   1      52.968  36.549  27.818  1.00  0.00     0.127 S 
ATOM     70  O   UNL A   1      53.453  35.365  28.526  1.00  0.00    -0.237 OA
ATOM     71  O   UNL A   1      53.883  37.073  26.804  1.00  0.00    -0.237 OA
ATOM     72  O   UNL A   1      52.346  37.564  28.657  1.00  0.00    -0.744 OA
ENDBRANCH  66  69
ENDBRANCH  39  62
ENDBRANCH  13  14
ENDBRANCH   6   8
ENDBRANCH   5   6
ENDBRANCH   4   5
ENDBRANCH   3   4
ENDBRANCH   2   3
ENDBRANCH   1   2
BRANCH   1  73
ATOM     73  C   UNL A   1      34.854  31.003  27.956  1.00  0.00     0.188 C 
BRANCH  73  74
ATOM     74  O   UNL A   1      33.474  31.353  27.984  1.00  0.00    -0.376 OA
BRANCH  74  75
ATOM     75  C   UNL A   1      32.705  30.998  26.828  1.00  0.00     0.202 C 
BRANCH  75  76
ATOM     76  C   UNL A   1      32.953  29.600  26.232  1.00  0.00     0.261 C 
BRANCH  76  77
ATOM     77  O   UNL A   1      33.088  29.653  24.799  1.00  0.00    -0.463 OA
BRANCH  77  78
ATOM     78  C   UNL A   1      33.477  28.497  24.196  1.00  0.00     0.309 C 
ATOM     79  O   UNL A   1      34.373  28.452  23.359  1.00  0.00    -0.252 OA
BRANCH  78  80
ATOM     80  C   UNL A   1      32.779  27.249  24.736  1.00  0.00     0.111 C 
ATOM     81  C   UNL A   1      33.636  26.128  25.321  1.00  0.00     0.016 C 
ATOM     82  C   UNL A   1      31.634  26.707  23.894  1.00  0.00     0.093 C 
ATOM     83  C   UNL A   1      32.803  25.145  26.150  1.00  0.00     0.001 C 
ATOM     84  C   UNL A   1      30.765  25.786  24.798  1.00  0.00     0.014 C 
ATOM     85  C   UNL A   1      31.578  24.636  25.390  1.00  0.00     0.001 C 
BRANCH  82  86
ATOM     86  C   UNL A   1      31.794  26.062  22.512  1.00  0.00     0.230 C 
ATOM     87  O   UNL A   1      31.093  26.563  21.614  1.00  0.00    -0.274 OA
ATOM     88  N   UNL A   1      32.769  25.244  22.062  1.00  0.00    -0.302 N 
ATOM     89  H   UNL A   1      33.055  25.462  21.145  1.00  0.00     0.172 HD
BRANCH  88  90
ATOM     90  C   UNL A   1      33.448  24.187  22.587  1.00  0.00     0.189 A 
ATOM     91  N   UNL A   1      34.670  24.092  23.021  1.00  0.00    -0.220 NA
ATOM     92  S   UNL A   1      32.504  22.762  22.766  1.00  0.00    -0.105 S 
ATOM     93  C   UNL A   1      34.830  22.905  23.701  1.00  0.00     0.084 A 
ATOM     94  C   UNL A   1      33.785  22.011  23.601  1.00  0.00     0.097 A 
BRANCH  93  95
ATOM     95  C   UNL A   1      36.021  22.623  24.463  1.00  0.00     0.003 A 
ATOM     96  C   UNL A   1      36.597  21.349  24.417  1.00  0.00     0.012 A 
ATOM     97  C   UNL A   1      36.598  23.628  25.240  1.00  0.00     0.032 A 
ATOM     98  C   UNL A   1      37.774  21.092  25.120  1.00  0.00     0.023 A 
ATOM     99  C   UNL A   1      37.780  23.373  25.937  1.00  0.00     0.060 A 
ATOM    100  C   UNL A   1      38.377  22.108  25.867  1.00  0.00     0.059 A 
ATOM    101  Cl  UNL A   1      38.476  24.678  26.832  1.00  0.00    -0.083 Cl
ATOM    102  Cl  UNL A   1      39.879  21.753  26.645  1.00  0.00    -0.083 Cl
ENDBRANCH  93  95
ENDBRANCH  88  90
ENDBRANCH  82  86
ENDBRANCH  78  80
ENDBRANCH  77  78
ENDBRANCH  76  77
ENDBRANCH  75  76
ENDBRANCH  74  75
ENDBRANCH  73  74
ENDBRANCH   1  73
TORSDOF 23
ENDMDL
