MODEL 1
REMARK VINA RESULT:      -8.6      0.000      0.000
REMARK SMILES Cc1c(Cc2ccccc2)c(=O)oc2cc(OCC(=O)N[C@H](C)C(=O)OCCOCCOCCOC(=O)c3ccc(-c4c5nc(c(-c6cccc(S(=O)(=O)[O-])c6F)c6ccc([nH]6)c(-c6cccc(S(=O)(=O)[O-])c6F)c6nc(c(-c7cccc(S(=O)(=O)[O-])c7F)c7ccc4[nH]7)C=C6)C=C5)cc3)ccc12
REMARK SMILES IDX 29 1 28 2 27 3 26 4 24 5 25 6 22 7 23 8 21 9 19 10 20 11
REMARK SMILES IDX 18 13 17 14 16 15 1 16 2 17 3 18 103 19 11 20 14 21 102 22
REMARK SMILES IDX 12 23 13 24 15 25 101 26 4 27 5 28 6 29 10 30 7 31 9 32 8 33
REMARK SMILES IDX 30 34 31 35 32 36 33 37 34 38 35 39 36 40 37 41 38 42 39 43
REMARK SMILES IDX 100 44 40 45 99 46 41 47 42 48 43 49 93 50 44 51 98 52 92 53
REMARK SMILES IDX 94 54 45 55 97 56 91 57 90 58 46 60 78 61 58 62 77 63 59 64
REMARK SMILES IDX 62 65 76 66 95 67 60 68 61 69 75 71 96 72 63 73 47 74 48 75
REMARK SMILES IDX 56 76 49 77 51 78 57 79 50 80 52 81 53 82 54 83 55 84 79 85
REMARK SMILES IDX 80 86 88 87 81 88 83 89 89 90 82 91 84 92 85 93 86 94 87 95
REMARK SMILES IDX 64 96 65 97 73 98 66 99 68 100 74 101 67 102 69 103 70 104
REMARK SMILES IDX 71 105 72 106
REMARK H PARENT 21 12 94 59 62 70
REMARK Flexibility Score: inf
ROOT
ATOM      1  O   UNL A   1      32.923  29.064  25.393  1.00  0.00    -0.376 OA
ENDROOT
BRANCH   1   2
ATOM      2  C   UNL A   1      32.031  28.055  25.842  1.00  0.00     0.202 C 
BRANCH   2   3
ATOM      3  C   UNL A   1      32.167  26.653  25.231  1.00  0.00     0.261 C 
BRANCH   3   4
ATOM      4  O   UNL A   1      30.922  25.954  25.007  1.00  0.00    -0.462 OA
BRANCH   4   5
ATOM      5  C   UNL A   1      31.019  24.846  24.220  1.00  0.00     0.328 C 
ATOM      6  O   UNL A   1      30.629  24.786  23.056  1.00  0.00    -0.250 OA
BRANCH   5   7
ATOM      7  C   UNL A   1      31.529  23.596  24.953  1.00  0.00     0.189 C 
ATOM      8  C   UNL A   1      30.910  23.195  26.276  1.00  0.00     0.043 C 
BRANCH   7   9
ATOM      9  N   UNL A   1      31.638  22.544  23.948  1.00  0.00    -0.340 N 
ATOM     10  C   UNL A   1      32.396  21.416  23.932  1.00  0.00     0.258 C 
ATOM     11  O   UNL A   1      32.019  20.482  23.219  1.00  0.00    -0.271 OA
ATOM     12  H   UNL A   1      31.070  22.670  23.153  1.00  0.00     0.164 HD
BRANCH  10  13
ATOM     13  C   UNL A   1      33.687  21.291  24.756  1.00  0.00     0.329 C 
BRANCH  13  14
ATOM     14  O   UNL A   1      34.634  20.277  24.462  1.00  0.00    -0.484 OA
BRANCH  14  15
ATOM     15  C   UNL A   1      35.939  20.458  24.816  1.00  0.00     0.123 A 
ATOM     16  C   UNL A   1      40.913  19.432  25.842  1.00  0.00     0.046 C 
ATOM     17  C   UNL A   1      40.042  20.635  26.091  1.00  0.00    -0.029 A 
ATOM     18  C   UNL A   1      40.467  21.792  26.649  1.00  0.00     0.046 A 
ATOM     19  C   UNL A   1      38.638  20.519  25.667  1.00  0.00     0.021 A 
ATOM     20  C   UNL A   1      39.579  22.994  26.675  1.00  0.00     0.340 A 
ATOM     21  C   UNL A   1      37.879  21.676  25.552  1.00  0.00     0.142 A 
ATOM     22  C   UNL A   1      38.010  19.305  25.361  1.00  0.00     0.016 A 
ATOM     23  O   UNL A   1      39.920  24.046  27.207  1.00  0.00    -0.246 OA
ATOM     24  O   UNL A   1      38.391  22.917  25.962  1.00  0.00    -0.422 OA
ATOM     25  C   UNL A   1      36.564  21.670  25.081  1.00  0.00     0.094 A 
ATOM     26  C   UNL A   1      36.673  19.277  24.947  1.00  0.00     0.047 A 
BRANCH  18  27
ATOM     27  C   UNL A   1      41.862  22.050  27.183  1.00  0.00     0.079 C 
BRANCH  27  28
ATOM     28  C   UNL A   1      42.952  22.122  26.129  1.00  0.00    -0.043 A 
ATOM     29  C   UNL A   1      42.999  23.190  25.222  1.00  0.00     0.004 A 
ATOM     30  C   UNL A   1      43.906  21.101  25.997  1.00  0.00     0.004 A 
ATOM     31  C   UNL A   1      43.962  23.223  24.206  1.00  0.00     0.000 A 
ATOM     32  C   UNL A   1      44.876  21.140  24.994  1.00  0.00     0.000 A 
ATOM     33  C   UNL A   1      44.899  22.198  24.093  1.00  0.00     0.000 A 
ENDBRANCH  27  28
ENDBRANCH  18  27
ENDBRANCH  14  15
ENDBRANCH  13  14
ENDBRANCH  10  13
ENDBRANCH   7   9
ENDBRANCH   5   7
ENDBRANCH   4   5
ENDBRANCH   3   4
ENDBRANCH   2   3
ENDBRANCH   1   2
BRANCH   1  34
ATOM     34  C   UNL A   1      33.721  29.723  26.362  1.00  0.00     0.188 C 
BRANCH  34  35
ATOM     35  C   UNL A   1      34.617  28.879  27.277  1.00  0.00     0.188 C 
BRANCH  35  36
ATOM     36  O   UNL A   1      35.396  29.585  28.225  1.00  0.00    -0.376 OA
BRANCH  36  37
ATOM     37  C   UNL A   1      36.175  30.654  27.693  1.00  0.00     0.202 C 
BRANCH  37  38
ATOM     38  C   UNL A   1      37.351  31.072  28.600  1.00  0.00     0.261 C 
BRANCH  38  39
ATOM     39  O   UNL A   1      37.438  30.406  29.880  1.00  0.00    -0.460 OA
BRANCH  39  40
ATOM     40  C   UNL A   1      38.252  30.954  30.817  1.00  0.00     0.338 C 
ATOM     41  O   UNL A   1      37.898  31.653  31.753  1.00  0.00    -0.246 OA
BRANCH  40  42
ATOM     42  C   UNL A   1      39.599  30.316  30.714  1.00  0.00     0.060 A 
ATOM     43  C   UNL A   1      39.695  28.924  30.894  1.00  0.00     0.016 A 
ATOM     44  C   UNL A   1      40.740  31.046  30.375  1.00  0.00     0.016 A 
ATOM     45  C   UNL A   1      40.933  28.277  30.796  1.00  0.00     0.010 A 
ATOM     46  C   UNL A   1      41.982  30.397  30.294  1.00  0.00     0.010 A 
ATOM     47  C   UNL A   1      42.095  29.016  30.544  1.00  0.00    -0.014 A 
BRANCH  47  48
ATOM     48  C   UNL A   1      43.437  28.404  30.761  1.00  0.00     0.031 A 
ATOM     49  C   UNL A   1      44.032  28.469  32.146  1.00  0.00     0.074 A 
ATOM     50  C   UNL A   1      44.131  27.806  29.774  1.00  0.00     0.049 A 
ATOM     51  N   UNL A   1      45.196  28.054  32.576  1.00  0.00    -0.248 NA
ATOM     52  C   UNL A   1      43.195  29.092  33.186  1.00  0.00     0.031 C 
ATOM     53  C   UNL A   1      43.683  27.649  28.393  1.00  0.00     0.029 A 
ATOM     54  N   UNL A   1      45.384  27.237  29.788  1.00  0.00    -0.354 N 
ATOM     55  C   UNL A   1      45.243  28.391  33.924  1.00  0.00     0.074 A 
ATOM     56  C   UNL A   1      44.000  29.059  34.237  1.00  0.00     0.031 C 
ATOM     57  C   UNL A   1      44.656  27.045  27.685  1.00  0.00     0.029 A 
ATOM     58  C   UNL A   1      45.806  26.796  28.554  1.00  0.00     0.049 A 
ATOM     59  H   UNL A   1      45.927  27.151  30.604  1.00  0.00     0.167 HD
ATOM     60  C   UNL A   1      46.221  28.154  34.831  1.00  0.00     0.034 A 
ATOM     61  C   UNL A   1      46.989  26.274  28.166  1.00  0.00     0.034 A 
ATOM     62  C   UNL A   1      47.460  27.486  34.535  1.00  0.00     0.049 A 
ATOM     63  C   UNL A   1      48.088  26.068  29.183  1.00  0.00     0.074 A 
ATOM     64  C   UNL A   1      48.496  27.176  35.398  1.00  0.00     0.029 A 
ATOM     65  N   UNL A   1      47.840  27.039  33.280  1.00  0.00    -0.354 N 
ATOM     66  N   UNL A   1      48.076  26.296  30.474  1.00  0.00    -0.248 NA
ATOM     67  C   UNL A   1      49.354  25.502  28.689  1.00  0.00     0.031 C 
ATOM     68  C   UNL A   1      49.517  26.570  34.657  1.00  0.00     0.029 A 
ATOM     69  C   UNL A   1      49.099  26.466  33.341  1.00  0.00     0.049 A 
ATOM     70  H   UNL A   1      47.293  27.118  32.464  1.00  0.00     0.167 HD
ATOM     71  C   UNL A   1      49.311  25.863  30.951  1.00  0.00     0.074 A 
ATOM     72  C   UNL A   1      50.039  25.343  29.814  1.00  0.00     0.031 C 
ATOM     73  C   UNL A   1      49.800  25.900  32.217  1.00  0.00     0.034 A 
BRANCH  60  74
ATOM     74  C   UNL A   1      45.977  28.614  36.246  1.00  0.00     0.023 A 
ATOM     75  C   UNL A   1      45.426  27.719  37.186  1.00  0.00     0.012 A 
ATOM     76  C   UNL A   1      46.320  29.919  36.652  1.00  0.00     0.148 A 
ATOM     77  C   UNL A   1      45.180  28.127  38.496  1.00  0.00     0.002 A 
ATOM     78  C   UNL A   1      46.115  30.303  37.971  1.00  0.00     0.091 A 
ATOM     79  F   UNL A   1      46.821  30.762  35.738  1.00  0.00    -0.205 F 
ATOM     80  C   UNL A   1      45.534  29.415  38.890  1.00  0.00     0.022 A 
BRANCH  78  81
ATOM     81  S   UNL A   1      46.609  31.912  38.597  1.00  0.00     0.127 S 
ATOM     82  O   UNL A   1      46.386  31.752  40.032  1.00  0.00    -0.237 OA
ATOM     83  O   UNL A   1      48.017  31.977  38.203  1.00  0.00    -0.237 OA
ATOM     84  O   UNL A   1      45.749  32.883  37.933  1.00  0.00    -0.744 OA
ENDBRANCH  78  81
ENDBRANCH  60  74
BRANCH  61  85
ATOM     85  C   UNL A   1      47.203  25.868  26.745  1.00  0.00     0.023 A 
ATOM     86  C   UNL A   1      46.890  24.553  26.345  1.00  0.00     0.012 A 
ATOM     87  C   UNL A   1      47.726  26.766  25.796  1.00  0.00     0.148 A 
ATOM     88  C   UNL A   1      47.120  24.132  25.035  1.00  0.00     0.002 A 
ATOM     89  C   UNL A   1      47.903  26.357  24.479  1.00  0.00     0.091 A 
ATOM     90  F   UNL A   1      48.039  28.005  26.200  1.00  0.00    -0.205 F 
ATOM     91  C   UNL A   1      47.617  25.035  24.099  1.00  0.00     0.022 A 
BRANCH  89  92
ATOM     92  S   UNL A   1      48.429  27.478  23.178  1.00  0.00     0.127 S 
ATOM     93  O   UNL A   1      48.433  26.602  22.010  1.00  0.00    -0.237 OA
ATOM     94  O   UNL A   1      47.361  28.478  23.196  1.00  0.00    -0.237 OA
ATOM     95  O   UNL A   1      49.732  27.979  23.593  1.00  0.00    -0.744 OA
ENDBRANCH  89  92
ENDBRANCH  61  85
BRANCH  73  96
ATOM     96  C   UNL A   1      51.170  25.316  32.465  1.00  0.00     0.023 A 
ATOM     97  C   UNL A   1      52.295  26.161  32.557  1.00  0.00     0.012 A 
ATOM     98  C   UNL A   1      51.331  23.931  32.676  1.00  0.00     0.148 A 
ATOM     99  C   UNL A   1      53.561  25.632  32.814  1.00  0.00     0.002 A 
ATOM    100  C   UNL A   1      52.587  23.418  32.983  1.00  0.00     0.091 A 
ATOM    101  F   UNL A   1      50.255  23.139  32.569  1.00  0.00    -0.205 F 
ATOM    102  C   UNL A   1      53.705  24.265  33.039  1.00  0.00     0.022 A 
BRANCH 100 103
ATOM    103  S   UNL A   1      52.851  21.687  33.383  1.00  0.00     0.127 S 
ATOM    104  O   UNL A   1      52.033  21.529  34.584  1.00  0.00    -0.237 OA
ATOM    105  O   UNL A   1      52.329  21.009  32.195  1.00  0.00    -0.237 OA
ATOM    106  O   UNL A   1      54.287  21.535  33.580  1.00  0.00    -0.744 OA
ENDBRANCH 100 103
ENDBRANCH  73  96
ENDBRANCH  47  48
ENDBRANCH  40  42
ENDBRANCH  39  40
ENDBRANCH  38  39
ENDBRANCH  37  38
ENDBRANCH  36  37
ENDBRANCH  35  36
ENDBRANCH  34  35
ENDBRANCH   1  34
TORSDOF 26
ENDMDL
MODEL 2
REMARK VINA RESULT:      -8.1      7.411     10.566
REMARK SMILES Cc1c(Cc2ccccc2)c(=O)oc2cc(OCC(=O)N[C@H](C)C(=O)OCCOCCOCCOC(=O)c3ccc(-c4c5nc(c(-c6cccc(S(=O)(=O)[O-])c6F)c6ccc([nH]6)c(-c6cccc(S(=O)(=O)[O-])c6F)c6nc(c(-c7cccc(S(=O)(=O)[O-])c7F)c7ccc4[nH]7)C=C6)C=C5)cc3)ccc12
REMARK SMILES IDX 29 1 28 2 27 3 26 4 24 5 25 6 22 7 23 8 21 9 19 10 20 11
REMARK SMILES IDX 18 13 17 14 16 15 1 16 2 17 3 18 103 19 11 20 14 21 102 22
REMARK SMILES IDX 12 23 13 24 15 25 101 26 4 27 5 28 6 29 10 30 7 31 9 32 8 33
REMARK SMILES IDX 30 34 31 35 32 36 33 37 34 38 35 39 36 40 37 41 38 42 39 43
REMARK SMILES IDX 100 44 40 45 99 46 41 47 42 48 43 49 93 50 44 51 98 52 92 53
REMARK SMILES IDX 94 54 45 55 97 56 91 57 90 58 46 60 78 61 58 62 77 63 59 64
REMARK SMILES IDX 62 65 76 66 95 67 60 68 61 69 75 71 96 72 63 73 47 74 48 75
REMARK SMILES IDX 56 76 49 77 51 78 57 79 50 80 52 81 53 82 54 83 55 84 79 85
REMARK SMILES IDX 80 86 88 87 81 88 83 89 89 90 82 91 84 92 85 93 86 94 87 95
REMARK SMILES IDX 64 96 65 97 73 98 66 99 68 100 74 101 67 102 69 103 70 104
REMARK SMILES IDX 71 105 72 106
REMARK H PARENT 21 12 94 59 62 70
REMARK Flexibility Score: inf
ROOT
ATOM      1  O   UNL A   1      42.614  40.562  27.474  1.00  0.00    -0.376 OA
ENDROOT
BRANCH   1   2
ATOM      2  C   UNL A   1      43.362  39.966  28.523  1.00  0.00     0.202 C 
BRANCH   2   3
ATOM      3  C   UNL A   1      43.184  38.461  28.766  1.00  0.00     0.261 C 
BRANCH   3   4
ATOM      4  O   UNL A   1      43.961  37.600  27.904  1.00  0.00    -0.462 OA
BRANCH   4   5
ATOM      5  C   UNL A   1      43.233  36.713  27.169  1.00  0.00     0.328 C 
ATOM      6  O   UNL A   1      42.227  37.004  26.529  1.00  0.00    -0.250 OA
BRANCH   5   7
ATOM      7  C   UNL A   1      43.685  35.252  27.320  1.00  0.00     0.189 C 
ATOM      8  C   UNL A   1      43.007  34.356  28.336  1.00  0.00     0.043 C 
BRANCH   7   9
ATOM      9  N   UNL A   1      43.808  34.716  25.968  1.00  0.00    -0.340 N 
ATOM     10  C   UNL A   1      44.161  33.475  25.541  1.00  0.00     0.258 C 
ATOM     11  O   UNL A   1      43.785  33.128  24.418  1.00  0.00    -0.271 OA
ATOM     12  H   UNL A   1      43.600  35.356  25.249  1.00  0.00     0.164 HD
BRANCH  10  13
ATOM     13  C   UNL A   1      45.006  32.526  26.405  1.00  0.00     0.329 C 
BRANCH  13  14
ATOM     14  O   UNL A   1      45.794  31.514  25.802  1.00  0.00    -0.484 OA
BRANCH  14  15
ATOM     15  C   UNL A   1      45.806  30.263  26.345  1.00  0.00     0.123 A 
ATOM     16  C   UNL A   1      47.346  25.457  27.518  1.00  0.00     0.046 C 
ATOM     17  C   UNL A   1      46.046  26.191  27.710  1.00  0.00    -0.029 A 
ATOM     18  C   UNL A   1      44.954  25.679  28.323  1.00  0.00     0.046 A 
ATOM     19  C   UNL A   1      45.999  27.571  27.200  1.00  0.00     0.021 A 
ATOM     20  C   UNL A   1      43.781  26.550  28.638  1.00  0.00     0.340 A 
ATOM     21  C   UNL A   1      44.978  28.407  27.634  1.00  0.00     0.142 A 
ATOM     22  C   UNL A   1      46.930  28.106  26.302  1.00  0.00     0.016 A 
ATOM     23  O   UNL A   1      42.761  26.109  29.158  1.00  0.00    -0.246 OA
ATOM     24  O   UNL A   1      43.934  27.914  28.431  1.00  0.00    -0.422 OA
ATOM     25  C   UNL A   1      44.900  29.752  27.265  1.00  0.00     0.094 A 
ATOM     26  C   UNL A   1      46.828  29.435  25.875  1.00  0.00     0.047 A 
BRANCH  18  27
ATOM     27  C   UNL A   1      44.826  24.266  28.853  1.00  0.00     0.079 C 
BRANCH  27  28
ATOM     28  C   UNL A   1      44.013  23.322  27.985  1.00  0.00    -0.043 A 
ATOM     29  C   UNL A   1      44.292  23.191  26.617  1.00  0.00     0.004 A 
ATOM     30  C   UNL A   1      42.930  22.600  28.509  1.00  0.00     0.004 A 
ATOM     31  C   UNL A   1      43.501  22.374  25.801  1.00  0.00     0.000 A 
ATOM     32  C   UNL A   1      42.149  21.773  27.700  1.00  0.00     0.000 A 
ATOM     33  C   UNL A   1      42.429  21.667  26.343  1.00  0.00     0.000 A 
ENDBRANCH  27  28
ENDBRANCH  18  27
ENDBRANCH  14  15
ENDBRANCH  13  14
ENDBRANCH  10  13
ENDBRANCH   7   9
ENDBRANCH   5   7
ENDBRANCH   4   5
ENDBRANCH   3   4
ENDBRANCH   2   3
ENDBRANCH   1   2
BRANCH   1  34
ATOM     34  C   UNL A   1      43.181  40.566  26.174  1.00  0.00     0.188 C 
BRANCH  34  35
ATOM     35  C   UNL A   1      42.721  41.634  25.173  1.00  0.00     0.188 C 
BRANCH  35  36
ATOM     36  O   UNL A   1      43.657  42.017  24.182  1.00  0.00    -0.376 OA
BRANCH  36  37
ATOM     37  C   UNL A   1      44.231  43.310  24.360  1.00  0.00     0.202 C 
BRANCH  37  38
ATOM     38  C   UNL A   1      45.706  43.274  24.811  1.00  0.00     0.261 C 
BRANCH  38  39
ATOM     39  O   UNL A   1      46.282  41.962  25.007  1.00  0.00    -0.460 OA
BRANCH  39  40
ATOM     40  C   UNL A   1      47.098  41.790  26.077  1.00  0.00     0.338 C 
ATOM     41  O   UNL A   1      47.351  42.629  26.927  1.00  0.00    -0.246 OA
BRANCH  40  42
ATOM     42  C   UNL A   1      47.385  40.332  26.231  1.00  0.00     0.060 A 
ATOM     43  C   UNL A   1      48.347  39.937  27.177  1.00  0.00     0.016 A 
ATOM     44  C   UNL A   1      46.680  39.359  25.519  1.00  0.00     0.016 A 
ATOM     45  C   UNL A   1      48.645  38.582  27.367  1.00  0.00     0.010 A 
ATOM     46  C   UNL A   1      46.992  38.003  25.699  1.00  0.00     0.010 A 
ATOM     47  C   UNL A   1      48.005  37.606  26.593  1.00  0.00    -0.014 A 
BRANCH  47  48
ATOM     48  C   UNL A   1      48.537  36.214  26.547  1.00  0.00     0.031 A 
ATOM     49  C   UNL A   1      47.981  35.209  27.527  1.00  0.00     0.074 A 
ATOM     50  C   UNL A   1      49.487  35.828  25.676  1.00  0.00     0.049 A 
ATOM     51  N   UNL A   1      48.311  33.958  27.716  1.00  0.00    -0.248 NA
ATOM     52  C   UNL A   1      46.909  35.689  28.414  1.00  0.00     0.031 C 
ATOM     53  C   UNL A   1      50.106  36.675  24.660  1.00  0.00     0.029 A 
ATOM     54  N   UNL A   1      50.116  34.612  25.527  1.00  0.00    -0.354 N 
ATOM     55  C   UNL A   1      47.510  33.509  28.761  1.00  0.00     0.074 A 
ATOM     56  C   UNL A   1      46.691  34.627  29.176  1.00  0.00     0.031 C 
ATOM     57  C   UNL A   1      51.043  35.961  24.009  1.00  0.00     0.029 A 
ATOM     58  C   UNL A   1      51.110  34.614  24.576  1.00  0.00     0.049 A 
ATOM     59  H   UNL A   1      49.875  33.815  26.051  1.00  0.00     0.167 HD
ATOM     60  C   UNL A   1      47.442  32.277  29.320  1.00  0.00     0.034 A 
ATOM     61  C   UNL A   1      51.986  33.651  24.220  1.00  0.00     0.034 A 
ATOM     62  C   UNL A   1      48.245  31.156  28.914  1.00  0.00     0.049 A 
ATOM     63  C   UNL A   1      51.930  32.300  24.894  1.00  0.00     0.074 A 
ATOM     64  C   UNL A   1      48.223  29.861  29.403  1.00  0.00     0.029 A 
ATOM     65  N   UNL A   1      49.225  31.195  27.934  1.00  0.00    -0.354 N 
ATOM     66  N   UNL A   1      51.097  31.862  25.806  1.00  0.00    -0.248 NA
ATOM     67  C   UNL A   1      52.921  31.299  24.462  1.00  0.00     0.031 C 
ATOM     68  C   UNL A   1      49.213  29.126  28.741  1.00  0.00     0.029 A 
ATOM     69  C   UNL A   1      49.824  29.952  27.812  1.00  0.00     0.049 A 
ATOM     70  H   UNL A   1      49.461  31.990  27.404  1.00  0.00     0.167 HD
ATOM     71  C   UNL A   1      51.434  30.528  26.025  1.00  0.00     0.074 A 
ATOM     72  C   UNL A   1      52.535  30.224  25.137  1.00  0.00     0.031 C 
ATOM     73  C   UNL A   1      50.884  29.638  26.889  1.00  0.00     0.034 A 
BRANCH  60  74
ATOM     74  C   UNL A   1      46.444  32.077  30.431  1.00  0.00     0.023 A 
ATOM     75  C   UNL A   1      45.125  31.682  30.123  1.00  0.00     0.012 A 
ATOM     76  C   UNL A   1      46.816  32.249  31.778  1.00  0.00     0.148 A 
ATOM     77  C   UNL A   1      44.182  31.504  31.134  1.00  0.00     0.002 A 
ATOM     78  C   UNL A   1      45.884  32.023  32.783  1.00  0.00     0.091 A 
ATOM     79  F   UNL A   1      48.068  32.646  32.050  1.00  0.00    -0.205 F 
ATOM     80  C   UNL A   1      44.564  31.665  32.463  1.00  0.00     0.022 A 
BRANCH  78  81
ATOM     81  S   UNL A   1      46.298  32.126  34.528  1.00  0.00     0.127 S 
ATOM     82  O   UNL A   1      47.493  31.287  34.597  1.00  0.00    -0.237 OA
ATOM     83  O   UNL A   1      46.547  33.558  34.700  1.00  0.00    -0.237 OA
ATOM     84  O   UNL A   1      45.136  31.622  35.247  1.00  0.00    -0.744 OA
ENDBRANCH  78  81
ENDBRANCH  60  74
BRANCH  61  85
ATOM     85  C   UNL A   1      52.986  33.905  23.140  1.00  0.00     0.023 A 
ATOM     86  C   UNL A   1      53.998  34.864  23.343  1.00  0.00     0.012 A 
ATOM     87  C   UNL A   1      52.931  33.217  21.913  1.00  0.00     0.148 A 
ATOM     88  C   UNL A   1      54.918  35.154  22.335  1.00  0.00     0.002 A 
ATOM     89  C   UNL A   1      53.884  33.471  20.932  1.00  0.00     0.091 A 
ATOM     90  F   UNL A   1      51.948  32.324  21.729  1.00  0.00    -0.205 F 
ATOM     91  C   UNL A   1      54.868  34.452  21.134  1.00  0.00     0.022 A 
BRANCH  89  92
ATOM     92  S   UNL A   1      53.970  32.539  19.399  1.00  0.00     0.127 S 
ATOM     93  O   UNL A   1      54.701  33.458  18.531  1.00  0.00    -0.237 OA
ATOM     94  O   UNL A   1      54.720  31.353  19.814  1.00  0.00    -0.237 OA
ATOM     95  O   UNL A   1      52.589  32.278  19.019  1.00  0.00    -0.744 OA
ENDBRANCH  89  92
ENDBRANCH  61  85
BRANCH  73  96
ATOM     96  C   UNL A   1      51.421  28.226  26.891  1.00  0.00     0.023 A 
ATOM     97  C   UNL A   1      50.768  27.218  26.153  1.00  0.00     0.012 A 
ATOM     98  C   UNL A   1      52.616  27.915  27.572  1.00  0.00     0.148 A 
ATOM     99  C   UNL A   1      51.273  25.917  26.127  1.00  0.00     0.002 A 
ATOM    100  C   UNL A   1      53.141  26.630  27.498  1.00  0.00     0.091 A 
ATOM    101  F   UNL A   1      53.217  28.881  28.282  1.00  0.00    -0.205 F 
ATOM    102  C   UNL A   1      52.464  25.626  26.788  1.00  0.00     0.022 A 
BRANCH 100 103
ATOM    103  S   UNL A   1      54.719  26.188  28.236  1.00  0.00     0.127 S 
ATOM    104  O   UNL A   1      55.121  25.045  27.419  1.00  0.00    -0.237 OA
ATOM    105  O   UNL A   1      55.512  27.400  28.024  1.00  0.00    -0.237 OA
ATOM    106  O   UNL A   1      54.438  25.889  29.634  1.00  0.00    -0.744 OA
ENDBRANCH 100 103
ENDBRANCH  73  96
ENDBRANCH  47  48
ENDBRANCH  40  42
ENDBRANCH  39  40
ENDBRANCH  38  39
ENDBRANCH  37  38
ENDBRANCH  36  37
ENDBRANCH  35  36
ENDBRANCH  34  35
ENDBRANCH   1  34
TORSDOF 26
ENDMDL
MODEL 3
REMARK VINA RESULT:      -7.7      5.557      9.785
REMARK SMILES Cc1c(Cc2ccccc2)c(=O)oc2cc(OCC(=O)N[C@H](C)C(=O)OCCOCCOCCOC(=O)c3ccc(-c4c5nc(c(-c6cccc(S(=O)(=O)[O-])c6F)c6ccc([nH]6)c(-c6cccc(S(=O)(=O)[O-])c6F)c6nc(c(-c7cccc(S(=O)(=O)[O-])c7F)c7ccc4[nH]7)C=C6)C=C5)cc3)ccc12
REMARK SMILES IDX 29 1 28 2 27 3 26 4 24 5 25 6 22 7 23 8 21 9 19 10 20 11
REMARK SMILES IDX 18 13 17 14 16 15 1 16 2 17 3 18 103 19 11 20 14 21 102 22
REMARK SMILES IDX 12 23 13 24 15 25 101 26 4 27 5 28 6 29 10 30 7 31 9 32 8 33
REMARK SMILES IDX 30 34 31 35 32 36 33 37 34 38 35 39 36 40 37 41 38 42 39 43
REMARK SMILES IDX 100 44 40 45 99 46 41 47 42 48 43 49 93 50 44 51 98 52 92 53
REMARK SMILES IDX 94 54 45 55 97 56 91 57 90 58 46 60 78 61 58 62 77 63 59 64
REMARK SMILES IDX 62 65 76 66 95 67 60 68 61 69 75 71 96 72 63 73 47 74 48 75
REMARK SMILES IDX 56 76 49 77 51 78 57 79 50 80 52 81 53 82 54 83 55 84 79 85
REMARK SMILES IDX 80 86 88 87 81 88 83 89 89 90 82 91 84 92 85 93 86 94 87 95
REMARK SMILES IDX 64 96 65 97 73 98 66 99 68 100 74 101 67 102 69 103 70 104
REMARK SMILES IDX 71 105 72 106
REMARK H PARENT 21 12 94 59 62 70
REMARK Flexibility Score: inf
ROOT
ATOM      1  O   UNL A   1      37.294  23.104  25.849  1.00  0.00    -0.376 OA
ENDROOT
BRANCH   1   2
ATOM      2  C   UNL A   1      36.679  23.383  24.600  1.00  0.00     0.202 C 
BRANCH   2   3
ATOM      3  C   UNL A   1      35.353  22.679  24.281  1.00  0.00     0.261 C 
BRANCH   3   4
ATOM      4  O   UNL A   1      34.183  23.256  24.902  1.00  0.00    -0.462 OA
BRANCH   4   5
ATOM      5  C   UNL A   1      32.992  22.805  24.416  1.00  0.00     0.328 C 
ATOM      6  O   UNL A   1      32.792  22.503  23.243  1.00  0.00    -0.250 OA
BRANCH   5   7
ATOM      7  C   UNL A   1      31.842  22.843  25.434  1.00  0.00     0.189 C 
ATOM      8  C   UNL A   1      32.133  23.168  26.885  1.00  0.00     0.043 C 
BRANCH   7   9
ATOM      9  N   UNL A   1      30.762  23.598  24.808  1.00  0.00    -0.340 N 
ATOM     10  C   UNL A   1      30.674  24.918  24.499  1.00  0.00     0.258 C 
ATOM     11  O   UNL A   1      29.883  25.246  23.610  1.00  0.00    -0.271 OA
ATOM     12  H   UNL A   1      29.969  23.065  24.571  1.00  0.00     0.164 HD
BRANCH  10  13
ATOM     13  C   UNL A   1      31.510  25.983  25.226  1.00  0.00     0.329 C 
BRANCH  13  14
ATOM     14  O   UNL A   1      31.015  27.302  25.385  1.00  0.00    -0.484 OA
BRANCH  14  15
ATOM     15  C   UNL A   1      31.838  28.270  25.882  1.00  0.00     0.123 A 
ATOM     16  C   UNL A   1      36.005  30.560  27.941  1.00  0.00     0.046 C 
ATOM     17  C   UNL A   1      34.592  31.024  27.705  1.00  0.00    -0.029 A 
ATOM     18  C   UNL A   1      34.131  32.266  27.984  1.00  0.00     0.046 A 
ATOM     19  C   UNL A   1      33.676  30.039  27.108  1.00  0.00     0.021 A 
ATOM     20  C   UNL A   1      32.770  32.690  27.535  1.00  0.00     0.340 A 
ATOM     21  C   UNL A   1      32.482  30.487  26.557  1.00  0.00     0.142 A 
ATOM     22  C   UNL A   1      33.935  28.664  27.050  1.00  0.00     0.016 A 
ATOM     23  O   UNL A   1      32.309  33.794  27.804  1.00  0.00    -0.246 OA
ATOM     24  O   UNL A   1      32.088  31.828  26.688  1.00  0.00    -0.422 OA
ATOM     25  C   UNL A   1      31.591  29.636  25.901  1.00  0.00     0.094 A 
ATOM     26  C   UNL A   1      33.021  27.791  26.450  1.00  0.00     0.047 A 
BRANCH  18  27
ATOM     27  C   UNL A   1      34.930  33.371  28.644  1.00  0.00     0.079 C 
BRANCH  27  28
ATOM     28  C   UNL A   1      34.750  33.489  30.147  1.00  0.00    -0.043 A 
ATOM     29  C   UNL A   1      35.035  32.403  30.987  1.00  0.00     0.004 A 
ATOM     30  C   UNL A   1      34.244  34.659  30.731  1.00  0.00     0.004 A 
ATOM     31  C   UNL A   1      34.804  32.485  32.365  1.00  0.00     0.000 A 
ATOM     32  C   UNL A   1      34.027  34.749  32.108  1.00  0.00     0.000 A 
ATOM     33  C   UNL A   1      34.300  33.658  32.924  1.00  0.00     0.000 A 
ENDBRANCH  27  28
ENDBRANCH  18  27
ENDBRANCH  14  15
ENDBRANCH  13  14
ENDBRANCH  10  13
ENDBRANCH   7   9
ENDBRANCH   5   7
ENDBRANCH   4   5
ENDBRANCH   3   4
ENDBRANCH   2   3
ENDBRANCH   1   2
BRANCH   1  34
ATOM     34  C   UNL A   1      38.309  22.114  25.883  1.00  0.00     0.188 C 
BRANCH  34  35
ATOM     35  C   UNL A   1      39.747  22.544  26.198  1.00  0.00     0.188 C 
BRANCH  35  36
ATOM     36  O   UNL A   1      40.047  22.802  27.557  1.00  0.00    -0.376 OA
BRANCH  36  37
ATOM     37  C   UNL A   1      40.514  24.121  27.835  1.00  0.00     0.202 C 
BRANCH  37  38
ATOM     38  C   UNL A   1      41.440  24.691  26.741  1.00  0.00     0.261 C 
BRANCH  38  39
ATOM     39  O   UNL A   1      42.860  24.566  26.978  1.00  0.00    -0.460 OA
BRANCH  39  40
ATOM     40  C   UNL A   1      43.673  24.501  25.894  1.00  0.00     0.338 C 
ATOM     41  O   UNL A   1      43.350  24.129  24.777  1.00  0.00    -0.246 OA
BRANCH  40  42
ATOM     42  C   UNL A   1      44.932  25.249  26.194  1.00  0.00     0.060 A 
ATOM     43  C   UNL A   1      45.299  25.426  27.539  1.00  0.00     0.016 A 
ATOM     44  C   UNL A   1      45.780  25.706  25.183  1.00  0.00     0.016 A 
ATOM     45  C   UNL A   1      46.475  26.110  27.873  1.00  0.00     0.010 A 
ATOM     46  C   UNL A   1      46.949  26.405  25.520  1.00  0.00     0.010 A 
ATOM     47  C   UNL A   1      47.284  26.649  26.865  1.00  0.00    -0.014 A 
BRANCH  47  48
ATOM     48  C   UNL A   1      48.342  27.644  27.202  1.00  0.00     0.031 A 
ATOM     49  C   UNL A   1      47.970  29.107  27.193  1.00  0.00     0.074 A 
ATOM     50  C   UNL A   1      49.604  27.288  27.508  1.00  0.00     0.049 A 
ATOM     51  N   UNL A   1      48.717  30.160  27.404  1.00  0.00    -0.248 NA
ATOM     52  C   UNL A   1      46.561  29.418  26.900  1.00  0.00     0.031 C 
ATOM     53  C   UNL A   1      50.109  25.920  27.577  1.00  0.00     0.029 A 
ATOM     54  N   UNL A   1      50.702  28.067  27.797  1.00  0.00    -0.354 N 
ATOM     55  C   UNL A   1      47.878  31.257  27.242  1.00  0.00     0.074 A 
ATOM     56  C   UNL A   1      46.571  30.743  26.897  1.00  0.00     0.031 C 
ATOM     57  C   UNL A   1      51.424  25.954  27.865  1.00  0.00     0.029 A 
ATOM     58  C   UNL A   1      51.861  27.347  27.976  1.00  0.00     0.049 A 
ATOM     59  H   UNL A   1      50.661  29.047  27.871  1.00  0.00     0.167 HD
ATOM     60  C   UNL A   1      48.156  32.575  27.381  1.00  0.00     0.034 A 
ATOM     61  C   UNL A   1      53.129  27.761  28.182  1.00  0.00     0.034 A 
ATOM     62  C   UNL A   1      49.449  33.100  27.729  1.00  0.00     0.049 A 
ATOM     63  C   UNL A   1      53.429  29.239  28.280  1.00  0.00     0.074 A 
ATOM     64  C   UNL A   1      49.817  34.421  27.922  1.00  0.00     0.029 A 
ATOM     65  N   UNL A   1      50.590  32.337  27.920  1.00  0.00    -0.354 N 
ATOM     66  N   UNL A   1      52.605  30.257  28.228  1.00  0.00    -0.248 NA
ATOM     67  C   UNL A   1      54.834  29.620  28.497  1.00  0.00     0.031 C 
ATOM     68  C   UNL A   1      51.188  34.458  28.198  1.00  0.00     0.029 A 
ATOM     69  C   UNL A   1      51.666  33.157  28.216  1.00  0.00     0.049 A 
ATOM     70  H   UNL A   1      50.629  31.355  27.854  1.00  0.00     0.167 HD
ATOM     71  C   UNL A   1      53.382  31.391  28.448  1.00  0.00     0.074 A 
ATOM     72  C   UNL A   1      54.740  30.934  28.652  1.00  0.00     0.031 C 
ATOM     73  C   UNL A   1      53.006  32.695  28.473  1.00  0.00     0.034 A 
BRANCH  60  74
ATOM     74  C   UNL A   1      47.023  33.547  27.170  1.00  0.00     0.023 A 
ATOM     75  C   UNL A   1      46.785  34.073  25.883  1.00  0.00     0.012 A 
ATOM     76  C   UNL A   1      46.179  33.917  28.234  1.00  0.00     0.148 A 
ATOM     77  C   UNL A   1      45.751  34.982  25.667  1.00  0.00     0.002 A 
ATOM     78  C   UNL A   1      45.121  34.787  28.001  1.00  0.00     0.091 A 
ATOM     79  F   UNL A   1      46.435  33.425  29.454  1.00  0.00    -0.205 F 
ATOM     80  C   UNL A   1      44.915  35.332  26.724  1.00  0.00     0.022 A 
BRANCH  78  81
ATOM     81  S   UNL A   1      43.940  35.237  29.277  1.00  0.00     0.127 S 
ATOM     82  O   UNL A   1      43.403  33.931  29.655  1.00  0.00    -0.237 OA
ATOM     83  O   UNL A   1      44.799  35.858  30.286  1.00  0.00    -0.237 OA
ATOM     84  O   UNL A   1      42.993  36.145  28.645  1.00  0.00    -0.744 OA
ENDBRANCH  78  81
ENDBRANCH  60  74
BRANCH  61  85
ATOM     85  C   UNL A   1      54.229  26.765  28.347  1.00  0.00     0.023 A 
ATOM     86  C   UNL A   1      54.490  26.225  29.623  1.00  0.00     0.012 A 
ATOM     87  C   UNL A   1      55.024  26.362  27.257  1.00  0.00     0.148 A 
ATOM     88  C   UNL A   1      55.540  25.326  29.815  1.00  0.00     0.002 A 
ATOM     89  C   UNL A   1      56.034  25.425  27.445  1.00  0.00     0.091 A 
ATOM     90  F   UNL A   1      54.776  26.903  26.056  1.00  0.00    -0.205 F 
ATOM     91  C   UNL A   1      56.305  24.918  28.726  1.00  0.00     0.022 A 
BRANCH  89  92
ATOM     92  S   UNL A   1      56.998  24.753  26.086  1.00  0.00     0.127 S 
ATOM     93  O   UNL A   1      57.834  25.894  25.720  1.00  0.00    -0.237 OA
ATOM     94  O   UNL A   1      57.708  23.653  26.740  1.00  0.00    -0.237 OA
ATOM     95  O   UNL A   1      56.028  24.336  25.084  1.00  0.00    -0.744 OA
ENDBRANCH  89  92
ENDBRANCH  61  85
BRANCH  73  96
ATOM     96  C   UNL A   1      54.059  33.732  28.781  1.00  0.00     0.023 A 
ATOM     97  C   UNL A   1      54.773  34.351  27.734  1.00  0.00     0.012 A 
ATOM     98  C   UNL A   1      54.294  34.142  30.109  1.00  0.00     0.148 A 
ATOM     99  C   UNL A   1      55.729  35.330  28.008  1.00  0.00     0.002 A 
ATOM    100  C   UNL A   1      55.210  35.155  30.371  1.00  0.00     0.091 A 
ATOM    101  F   UNL A   1      53.620  33.533  31.095  1.00  0.00    -0.205 F 
ATOM    102  C   UNL A   1      55.939  35.741  29.322  1.00  0.00     0.022 A 
BRANCH 100 103
ATOM    103  S   UNL A   1      55.476  35.815  32.020  1.00  0.00     0.127 S 
ATOM    104  O   UNL A   1      56.479  36.849  31.771  1.00  0.00    -0.237 OA
ATOM    105  O   UNL A   1      54.148  36.324  32.369  1.00  0.00    -0.237 OA
ATOM    106  O   UNL A   1      55.924  34.693  32.834  1.00  0.00    -0.744 OA
ENDBRANCH 100 103
ENDBRANCH  73  96
ENDBRANCH  47  48
ENDBRANCH  40  42
ENDBRANCH  39  40
ENDBRANCH  38  39
ENDBRANCH  37  38
ENDBRANCH  36  37
ENDBRANCH  35  36
ENDBRANCH  34  35
ENDBRANCH   1  34
TORSDOF 26
ENDMDL
