MODEL 1
REMARK VINA RESULT:      -9.1      0.000      0.000
REMARK SMILES COCCCNC(=O)/C(C#N)=C/c1ccc(C(=O)OCCOCCOCCOC(=O)c2ccc(-c3c4nc(c(-c5cccc(S(=O)(=O)[O-])c5F)c5ccc([nH]5)c(-c5cccc(S(=O)(=O)[O-])c5F)c5nc(c(-c6cccc(S(=O)(=O)[O-])c6F)c6ccc3[nH]6)C=C5)C=C4)cc2)cc1
REMARK SMILES IDX 22 1 21 2 20 3 19 4 17 5 18 6 16 7 13 8 14 9 95 10 15 11
REMARK SMILES IDX 94 12 12 13 9 14 7 15 6 16 8 18 5 19 4 20 3 21 2 22 1 23
REMARK SMILES IDX 10 24 11 25 23 26 24 27 25 28 26 29 27 30 28 31 29 32 30 33
REMARK SMILES IDX 31 34 32 35 93 36 33 37 92 38 34 39 35 40 36 41 86 42 37 43
REMARK SMILES IDX 91 44 85 45 87 46 38 47 90 48 84 49 83 50 39 52 71 53 51 54
REMARK SMILES IDX 70 55 52 56 55 57 69 58 88 59 53 60 54 61 68 63 89 64 56 65
REMARK SMILES IDX 40 66 41 67 49 68 42 69 44 70 50 71 43 72 45 73 46 74 47 75
REMARK SMILES IDX 48 76 72 77 73 78 81 79 74 80 76 81 82 82 75 83 77 84 78 85
REMARK SMILES IDX 79 86 80 87 57 88 58 89 66 90 59 91 61 92 67 93 60 94 62 95
REMARK SMILES IDX 63 96 64 97 65 98
REMARK H PARENT 6 17 87 51 55 62
REMARK Flexibility Score: inf
ROOT
ATOM      1  O   UNL A   1      30.438  26.104  25.541  1.00  0.00    -0.376 OA
ENDROOT
BRANCH   1   2
ATOM      2  C   UNL A   1      29.901  25.823  24.260  1.00  0.00     0.202 C 
BRANCH   2   3
ATOM      3  C   UNL A   1      30.473  24.830  23.226  1.00  0.00     0.261 C 
BRANCH   3   4
ATOM      4  O   UNL A   1      31.867  24.540  23.299  1.00  0.00    -0.460 OA
BRANCH   4   5
ATOM      5  C   UNL A   1      32.189  23.229  23.436  1.00  0.00     0.338 C 
ATOM      6  O   UNL A   1      31.556  22.273  23.024  1.00  0.00    -0.246 OA
BRANCH   5   7
ATOM      7  C   UNL A   1      33.554  23.123  24.001  1.00  0.00     0.060 A 
ATOM      8  C   UNL A   1      36.070  23.061  25.189  1.00  0.00    -0.024 A 
ATOM      9  C   UNL A   1      34.957  22.625  25.911  1.00  0.00     0.009 A 
ATOM     10  C   UNL A   1      35.948  23.346  23.818  1.00  0.00     0.009 A 
ATOM     11  C   UNL A   1      33.696  22.655  25.314  1.00  0.00     0.016 A 
ATOM     12  C   UNL A   1      34.685  23.425  23.237  1.00  0.00     0.016 A 
BRANCH   8  13
ATOM     13  C   UNL A   1      37.258  23.531  25.925  1.00  0.00     0.033 C 
ATOM     14  C   UNL A   1      38.347  22.728  26.027  1.00  0.00     0.117 C 
BRANCH  14  15
ATOM     15  C   UNL A   1      39.572  23.273  26.695  1.00  0.00     0.261 C 
ATOM     16  N   UNL A   1      40.555  22.478  27.218  1.00  0.00    -0.351 N 
ATOM     17  H   UNL A   1      41.344  22.976  27.534  1.00  0.00     0.163 HD
ATOM     18  O   UNL A   1      39.737  24.491  26.800  1.00  0.00    -0.268 OA
BRANCH  16  19
ATOM     19  C   UNL A   1      40.658  21.035  27.397  1.00  0.00     0.118 C 
BRANCH  19  20
ATOM     20  C   UNL A   1      41.607  20.331  26.440  1.00  0.00     0.050 C 
BRANCH  20  21
ATOM     21  C   UNL A   1      42.756  21.151  25.878  1.00  0.00     0.161 C 
BRANCH  21  22
ATOM     22  O   UNL A   1      43.654  20.395  25.073  1.00  0.00    -0.385 OA
ATOM     23  C   UNL A   1      43.734  19.018  25.406  1.00  0.00     0.194 C 
ENDBRANCH  21  22
ENDBRANCH  20  21
ENDBRANCH  19  20
ENDBRANCH  16  19
ENDBRANCH  14  15
BRANCH  14  24
ATOM     24  C   UNL A   1      38.304  21.406  25.500  1.00  0.00     0.105 C 
ATOM     25  N   UNL A   1      38.322  20.324  25.067  1.00  0.00    -0.192 NA
ENDBRANCH  14  24
ENDBRANCH   8  13
ENDBRANCH   5   7
ENDBRANCH   4   5
ENDBRANCH   3   4
ENDBRANCH   2   3
ENDBRANCH   1   2
BRANCH   1  26
ATOM     26  C   UNL A   1      31.306  27.197  25.742  1.00  0.00     0.188 C 
BRANCH  26  27
ATOM     27  C   UNL A   1      31.253  28.327  24.696  1.00  0.00     0.188 C 
BRANCH  27  28
ATOM     28  O   UNL A   1      31.400  29.658  25.134  1.00  0.00    -0.376 OA
BRANCH  28  29
ATOM     29  C   UNL A   1      32.072  29.912  26.356  1.00  0.00     0.202 C 
BRANCH  29  30
ATOM     30  C   UNL A   1      32.433  31.308  26.922  1.00  0.00     0.261 C 
BRANCH  30  31
ATOM     31  O   UNL A   1      33.788  31.767  26.833  1.00  0.00    -0.460 OA
BRANCH  31  32
ATOM     32  C   UNL A   1      34.241  32.478  27.896  1.00  0.00     0.338 C 
ATOM     33  O   UNL A   1      33.671  33.397  28.460  1.00  0.00    -0.246 OA
BRANCH  32  34
ATOM     34  C   UNL A   1      35.466  31.839  28.423  1.00  0.00     0.060 A 
ATOM     35  C   UNL A   1      35.370  30.572  29.020  1.00  0.00     0.016 A 
ATOM     36  C   UNL A   1      36.688  32.508  28.381  1.00  0.00     0.016 A 
ATOM     37  C   UNL A   1      36.492  29.982  29.601  1.00  0.00     0.010 A 
ATOM     38  C   UNL A   1      37.806  31.925  28.986  1.00  0.00     0.010 A 
ATOM     39  C   UNL A   1      37.705  30.678  29.630  1.00  0.00    -0.014 A 
BRANCH  39  40
ATOM     40  C   UNL A   1      38.816  30.180  30.480  1.00  0.00     0.031 A 
ATOM     41  C   UNL A   1      38.965  30.733  31.873  1.00  0.00     0.074 A 
ATOM     42  C   UNL A   1      39.676  29.248  30.031  1.00  0.00     0.049 A 
ATOM     43  N   UNL A   1      39.881  30.483  32.772  1.00  0.00    -0.248 NA
ATOM     44  C   UNL A   1      37.944  31.702  32.308  1.00  0.00     0.031 C 
ATOM     45  C   UNL A   1      39.628  28.621  28.712  1.00  0.00     0.029 A 
ATOM     46  N   UNL A   1      40.775  28.688  30.632  1.00  0.00    -0.354 N 
ATOM     47  C   UNL A   1      39.574  31.289  33.861  1.00  0.00     0.074 A 
ATOM     48  C   UNL A   1      38.391  32.044  33.507  1.00  0.00     0.031 C 
ATOM     49  C   UNL A   1      40.670  27.780  28.592  1.00  0.00     0.029 A 
ATOM     50  C   UNL A   1      41.478  27.838  29.810  1.00  0.00     0.049 A 
ATOM     51  H   UNL A   1      41.037  28.876  31.562  1.00  0.00     0.167 HD
ATOM     52  C   UNL A   1      40.212  31.389  35.051  1.00  0.00     0.034 A 
ATOM     53  C   UNL A   1      42.653  27.207  30.005  1.00  0.00     0.034 A 
ATOM     54  C   UNL A   1      41.386  30.634  35.401  1.00  0.00     0.049 A 
ATOM     55  C   UNL A   1      43.370  27.370  31.321  1.00  0.00     0.074 A 
ATOM     56  C   UNL A   1      42.079  30.632  36.598  1.00  0.00     0.029 A 
ATOM     57  N   UNL A   1      42.055  29.770  34.550  1.00  0.00    -0.354 N 
ATOM     58  N   UNL A   1      43.014  28.060  32.378  1.00  0.00    -0.248 NA
ATOM     59  C   UNL A   1      44.636  26.640  31.482  1.00  0.00     0.031 C 
ATOM     60  C   UNL A   1      43.201  29.810  36.451  1.00  0.00     0.029 A 
ATOM     61  C   UNL A   1      43.167  29.246  35.187  1.00  0.00     0.049 A 
ATOM     62  H   UNL A   1      41.781  29.560  33.628  1.00  0.00     0.167 HD
ATOM     63  C   UNL A   1      43.986  27.811  33.342  1.00  0.00     0.074 A 
ATOM     64  C   UNL A   1      44.936  26.894  32.749  1.00  0.00     0.031 C 
ATOM     65  C   UNL A   1      44.086  28.300  34.603  1.00  0.00     0.034 A 
BRANCH  52  66
ATOM     66  C   UNL A   1      39.658  32.359  36.064  1.00  0.00     0.023 A 
ATOM     67  C   UNL A   1      38.738  31.919  37.038  1.00  0.00     0.012 A 
ATOM     68  C   UNL A   1      40.091  33.700  36.080  1.00  0.00     0.148 A 
ATOM     69  C   UNL A   1      38.227  32.807  37.984  1.00  0.00     0.002 A 
ATOM     70  C   UNL A   1      39.618  34.565  37.058  1.00  0.00     0.091 A 
ATOM     71  F   UNL A   1      40.953  34.104  35.136  1.00  0.00    -0.205 F 
ATOM     72  C   UNL A   1      38.675  34.126  38.000  1.00  0.00     0.022 A 
BRANCH  70  73
ATOM     73  S   UNL A   1      40.197  36.258  37.216  1.00  0.00     0.127 S 
ATOM     74  O   UNL A   1      41.625  36.059  37.460  1.00  0.00    -0.237 OA
ATOM     75  O   UNL A   1      39.875  36.814  35.902  1.00  0.00    -0.237 OA
ATOM     76  O   UNL A   1      39.453  36.838  38.325  1.00  0.00    -0.744 OA
ENDBRANCH  70  73
ENDBRANCH  52  66
BRANCH  53  77
ATOM     77  C   UNL A   1      43.230  26.348  28.931  1.00  0.00     0.023 A 
ATOM     78  C   UNL A   1      42.904  24.978  28.880  1.00  0.00     0.012 A 
ATOM     79  C   UNL A   1      44.108  26.881  27.969  1.00  0.00     0.148 A 
ATOM     80  C   UNL A   1      43.473  24.148  27.914  1.00  0.00     0.002 A 
ATOM     81  C   UNL A   1      44.626  26.061  26.974  1.00  0.00     0.091 A 
ATOM     82  F   UNL A   1      44.414  28.184  28.043  1.00  0.00    -0.205 F 
ATOM     83  C   UNL A   1      44.325  24.691  26.957  1.00  0.00     0.022 A 
BRANCH  81  84
ATOM     84  S   UNL A   1      45.638  26.692  25.632  1.00  0.00     0.127 S 
ATOM     85  O   UNL A   1      44.838  27.818  25.159  1.00  0.00    -0.237 OA
ATOM     86  O   UNL A   1      46.866  27.061  26.337  1.00  0.00    -0.237 OA
ATOM     87  O   UNL A   1      45.787  25.589  24.694  1.00  0.00    -0.744 OA
ENDBRANCH  81  84
ENDBRANCH  53  77
BRANCH  65  88
ATOM     88  C   UNL A   1      45.223  27.806  35.463  1.00  0.00     0.023 A 
ATOM     89  C   UNL A   1      46.376  28.594  35.649  1.00  0.00     0.012 A 
ATOM     90  C   UNL A   1      45.117  26.572  36.137  1.00  0.00     0.148 A 
ATOM     91  C   UNL A   1      47.423  28.142  36.453  1.00  0.00     0.002 A 
ATOM     92  C   UNL A   1      46.137  26.155  36.982  1.00  0.00     0.091 A 
ATOM     93  F   UNL A   1      44.019  25.828  35.938  1.00  0.00    -0.205 F 
ATOM     94  C   UNL A   1      47.298  26.929  37.128  1.00  0.00     0.022 A 
BRANCH  92  95
ATOM     95  S   UNL A   1      46.022  24.657  37.968  1.00  0.00     0.127 S 
ATOM     96  O   UNL A   1      45.146  25.086  39.057  1.00  0.00    -0.237 OA
ATOM     97  O   UNL A   1      45.413  23.716  37.029  1.00  0.00    -0.237 OA
ATOM     98  O   UNL A   1      47.386  24.325  38.360  1.00  0.00    -0.744 OA
ENDBRANCH  92  95
ENDBRANCH  65  88
ENDBRANCH  39  40
ENDBRANCH  32  34
ENDBRANCH  31  32
ENDBRANCH  30  31
ENDBRANCH  29  30
ENDBRANCH  28  29
ENDBRANCH  27  28
ENDBRANCH  26  27
ENDBRANCH   1  26
TORSDOF 27
ENDMDL
MODEL 2
REMARK VINA RESULT:      -9.0      3.686      6.222
REMARK SMILES COCCCNC(=O)/C(C#N)=C/c1ccc(C(=O)OCCOCCOCCOC(=O)c2ccc(-c3c4nc(c(-c5cccc(S(=O)(=O)[O-])c5F)c5ccc([nH]5)c(-c5cccc(S(=O)(=O)[O-])c5F)c5nc(c(-c6cccc(S(=O)(=O)[O-])c6F)c6ccc3[nH]6)C=C5)C=C4)cc2)cc1
REMARK SMILES IDX 22 1 21 2 20 3 19 4 17 5 18 6 16 7 13 8 14 9 95 10 15 11
REMARK SMILES IDX 94 12 12 13 9 14 7 15 6 16 8 18 5 19 4 20 3 21 2 22 1 23
REMARK SMILES IDX 10 24 11 25 23 26 24 27 25 28 26 29 27 30 28 31 29 32 30 33
REMARK SMILES IDX 31 34 32 35 93 36 33 37 92 38 34 39 35 40 36 41 86 42 37 43
REMARK SMILES IDX 91 44 85 45 87 46 38 47 90 48 84 49 83 50 39 52 71 53 51 54
REMARK SMILES IDX 70 55 52 56 55 57 69 58 88 59 53 60 54 61 68 63 89 64 56 65
REMARK SMILES IDX 40 66 41 67 49 68 42 69 44 70 50 71 43 72 45 73 46 74 47 75
REMARK SMILES IDX 48 76 72 77 73 78 81 79 74 80 76 81 82 82 75 83 77 84 78 85
REMARK SMILES IDX 79 86 80 87 57 88 58 89 66 90 59 91 61 92 67 93 60 94 62 95
REMARK SMILES IDX 63 96 64 97 65 98
REMARK H PARENT 6 17 87 51 55 62
REMARK Flexibility Score: inf
ROOT
ATOM      1  O   UNL A   1      33.437  23.954  26.860  1.00  0.00    -0.376 OA
ENDROOT
BRANCH   1   2
ATOM      2  C   UNL A   1      33.787  22.660  27.324  1.00  0.00     0.202 C 
BRANCH   2   3
ATOM      3  C   UNL A   1      33.212  21.320  26.817  1.00  0.00     0.261 C 
BRANCH   3   4
ATOM      4  O   UNL A   1      33.992  20.588  25.874  1.00  0.00    -0.460 OA
BRANCH   4   5
ATOM      5  C   UNL A   1      33.522  20.579  24.602  1.00  0.00     0.338 C 
ATOM      6  O   UNL A   1      33.009  19.642  24.017  1.00  0.00    -0.246 OA
BRANCH   5   7
ATOM      7  C   UNL A   1      33.542  21.962  24.070  1.00  0.00     0.060 A 
ATOM      8  C   UNL A   1      33.646  24.617  23.242  1.00  0.00    -0.024 A 
ATOM      9  C   UNL A   1      34.834  23.931  23.506  1.00  0.00     0.009 A 
ATOM     10  C   UNL A   1      32.427  23.919  23.210  1.00  0.00     0.009 A 
ATOM     11  C   UNL A   1      34.781  22.599  23.920  1.00  0.00     0.016 A 
ATOM     12  C   UNL A   1      32.367  22.606  23.672  1.00  0.00     0.016 A 
BRANCH   8  13
ATOM     13  C   UNL A   1      33.638  26.089  23.330  1.00  0.00     0.033 C 
ATOM     14  C   UNL A   1      33.277  26.825  22.250  1.00  0.00     0.117 C 
BRANCH  14  15
ATOM     15  C   UNL A   1      33.184  28.312  22.401  1.00  0.00     0.261 C 
ATOM     16  N   UNL A   1      31.994  28.984  22.480  1.00  0.00    -0.351 N 
ATOM     17  H   UNL A   1      32.091  29.943  22.679  1.00  0.00     0.163 HD
ATOM     18  O   UNL A   1      34.207  28.999  22.458  1.00  0.00    -0.268 OA
BRANCH  16  19
ATOM     19  C   UNL A   1      30.612  28.550  22.326  1.00  0.00     0.118 C 
BRANCH  19  20
ATOM     20  C   UNL A   1      29.564  29.580  22.718  1.00  0.00     0.050 C 
BRANCH  20  21
ATOM     21  C   UNL A   1      28.175  29.060  23.051  1.00  0.00     0.161 C 
BRANCH  21  22
ATOM     22  O   UNL A   1      27.179  30.076  23.075  1.00  0.00    -0.385 OA
ATOM     23  C   UNL A   1      27.677  31.392  23.258  1.00  0.00     0.194 C 
ENDBRANCH  21  22
ENDBRANCH  20  21
ENDBRANCH  19  20
ENDBRANCH  16  19
ENDBRANCH  14  15
BRANCH  14  24
ATOM     24  C   UNL A   1      32.993  26.177  21.014  1.00  0.00     0.105 C 
ATOM     25  N   UNL A   1      32.814  25.646  19.992  1.00  0.00    -0.192 NA
ENDBRANCH  14  24
ENDBRANCH   8  13
ENDBRANCH   5   7
ENDBRANCH   4   5
ENDBRANCH   3   4
ENDBRANCH   2   3
ENDBRANCH   1   2
BRANCH   1  26
ATOM     26  C   UNL A   1      32.095  24.385  26.853  1.00  0.00     0.188 C 
BRANCH  26  27
ATOM     27  C   UNL A   1      31.841  25.860  26.490  1.00  0.00     0.188 C 
BRANCH  27  28
ATOM     28  O   UNL A   1      32.914  26.770  26.578  1.00  0.00    -0.376 OA
BRANCH  28  29
ATOM     29  C   UNL A   1      32.800  27.890  27.441  1.00  0.00     0.202 C 
BRANCH  29  30
ATOM     30  C   UNL A   1      32.655  29.367  26.998  1.00  0.00     0.261 C 
BRANCH  30  31
ATOM     31  O   UNL A   1      33.829  30.105  26.638  1.00  0.00    -0.460 OA
BRANCH  31  32
ATOM     32  C   UNL A   1      34.423  30.797  27.643  1.00  0.00     0.338 C 
ATOM     33  O   UNL A   1      33.933  31.698  28.303  1.00  0.00    -0.246 OA
BRANCH  32  34
ATOM     34  C   UNL A   1      35.713  30.157  27.980  1.00  0.00     0.060 A 
ATOM     35  C   UNL A   1      35.918  29.685  29.285  1.00  0.00     0.016 A 
ATOM     36  C   UNL A   1      36.730  30.073  27.031  1.00  0.00     0.016 A 
ATOM     37  C   UNL A   1      37.153  29.153  29.654  1.00  0.00     0.010 A 
ATOM     38  C   UNL A   1      37.976  29.562  27.410  1.00  0.00     0.010 A 
ATOM     39  C   UNL A   1      38.205  29.134  28.731  1.00  0.00    -0.014 A 
BRANCH  39  40
ATOM     40  C   UNL A   1      39.583  28.831  29.193  1.00  0.00     0.031 A 
ATOM     41  C   UNL A   1      40.340  29.887  29.954  1.00  0.00     0.074 A 
ATOM     42  C   UNL A   1      40.152  27.636  28.952  1.00  0.00     0.049 A 
ATOM     43  N   UNL A   1      41.564  29.862  30.412  1.00  0.00    -0.248 NA
ATOM     44  C   UNL A   1      39.619  31.141  30.230  1.00  0.00     0.031 C 
ATOM     45  C   UNL A   1      39.519  26.525  28.245  1.00  0.00     0.029 A 
ATOM     46  N   UNL A   1      41.408  27.172  29.255  1.00  0.00    -0.354 N 
ATOM     47  C   UNL A   1      41.776  31.106  30.994  1.00  0.00     0.074 A 
ATOM     48  C   UNL A   1      40.557  31.866  30.823  1.00  0.00     0.031 C 
ATOM     49  C   UNL A   1      40.400  25.515  28.144  1.00  0.00     0.029 A 
ATOM     50  C   UNL A   1      41.669  25.921  28.746  1.00  0.00     0.049 A 
ATOM     51  H   UNL A   1      42.060  27.685  29.786  1.00  0.00     0.167 HD
ATOM     52  C   UNL A   1      42.882  31.573  31.621  1.00  0.00     0.034 A 
ATOM     53  C   UNL A   1      42.810  25.203  28.736  1.00  0.00     0.034 A 
ATOM     54  C   UNL A   1      44.092  30.814  31.792  1.00  0.00     0.049 A 
ATOM     55  C   UNL A   1      44.042  25.763  29.399  1.00  0.00     0.074 A 
ATOM     56  C   UNL A   1      45.250  31.184  32.451  1.00  0.00     0.029 A 
ATOM     57  N   UNL A   1      44.311  29.545  31.280  1.00  0.00    -0.354 N 
ATOM     58  N   UNL A   1      44.197  26.902  30.031  1.00  0.00    -0.248 NA
ATOM     59  C   UNL A   1      45.249  24.924  29.375  1.00  0.00     0.031 C 
ATOM     60  C   UNL A   1      46.190  30.161  32.289  1.00  0.00     0.029 A 
ATOM     61  C   UNL A   1      45.594  29.126  31.589  1.00  0.00     0.049 A 
ATOM     62  H   UNL A   1      43.652  29.020  30.771  1.00  0.00     0.167 HD
ATOM     63  C   UNL A   1      45.501  26.895  30.518  1.00  0.00     0.074 A 
ATOM     64  C   UNL A   1      46.087  25.632  30.121  1.00  0.00     0.031 C 
ATOM     65  C   UNL A   1      46.155  27.849  31.225  1.00  0.00     0.034 A 
BRANCH  52  66
ATOM     66  C   UNL A   1      42.838  32.980  32.162  1.00  0.00     0.023 A 
ATOM     67  C   UNL A   1      43.284  34.058  31.370  1.00  0.00     0.012 A 
ATOM     68  C   UNL A   1      42.306  33.237  33.441  1.00  0.00     0.148 A 
ATOM     69  C   UNL A   1      43.239  35.364  31.859  1.00  0.00     0.002 A 
ATOM     70  C   UNL A   1      42.216  34.545  33.900  1.00  0.00     0.091 A 
ATOM     71  F   UNL A   1      41.904  32.198  34.186  1.00  0.00    -0.205 F 
ATOM     72  C   UNL A   1      42.696  35.607  33.118  1.00  0.00     0.022 A 
BRANCH  70  73
ATOM     73  S   UNL A   1      41.457  34.971  35.471  1.00  0.00     0.127 S 
ATOM     74  O   UNL A   1      41.152  36.388  35.275  1.00  0.00    -0.237 OA
ATOM     75  O   UNL A   1      40.287  34.093  35.491  1.00  0.00    -0.237 OA
ATOM     76  O   UNL A   1      42.453  34.686  36.493  1.00  0.00    -0.744 OA
ENDBRANCH  70  73
ENDBRANCH  52  66
BRANCH  53  77
ATOM     77  C   UNL A   1      42.846  23.862  28.085  1.00  0.00     0.023 A 
ATOM     78  C   UNL A   1      42.148  22.784  28.663  1.00  0.00     0.012 A 
ATOM     79  C   UNL A   1      43.579  23.650  26.902  1.00  0.00     0.148 A 
ATOM     80  C   UNL A   1      42.210  21.511  28.097  1.00  0.00     0.002 A 
ATOM     81  C   UNL A   1      43.589  22.392  26.310  1.00  0.00     0.091 A 
ATOM     82  F   UNL A   1      44.246  24.686  26.374  1.00  0.00    -0.205 F 
ATOM     83  C   UNL A   1      42.922  21.317  26.916  1.00  0.00     0.022 A 
BRANCH  81  84
ATOM     84  S   UNL A   1      44.382  22.075  24.731  1.00  0.00     0.127 S 
ATOM     85  O   UNL A   1      44.227  20.629  24.604  1.00  0.00    -0.237 OA
ATOM     86  O   UNL A   1      43.554  22.866  23.820  1.00  0.00    -0.237 OA
ATOM     87  O   UNL A   1      45.751  22.550  24.871  1.00  0.00    -0.744 OA
ENDBRANCH  81  84
ENDBRANCH  53  77
BRANCH  65  88
ATOM     88  C   UNL A   1      47.561  27.547  31.683  1.00  0.00     0.023 A 
ATOM     89  C   UNL A   1      47.794  26.953  32.940  1.00  0.00     0.012 A 
ATOM     90  C   UNL A   1      48.654  27.804  30.830  1.00  0.00     0.148 A 
ATOM     91  C   UNL A   1      49.093  26.665  33.358  1.00  0.00     0.002 A 
ATOM     92  C   UNL A   1      49.939  27.460  31.230  1.00  0.00     0.091 A 
ATOM     93  F   UNL A   1      48.416  28.382  29.644  1.00  0.00    -0.205 F 
ATOM     94  C   UNL A   1      50.164  26.907  32.499  1.00  0.00     0.022 A 
BRANCH  92  95
ATOM     95  S   UNL A   1      51.366  27.643  30.153  1.00  0.00     0.127 S 
ATOM     96  O   UNL A   1      51.832  28.983  30.502  1.00  0.00    -0.237 OA
ATOM     97  O   UNL A   1      52.235  26.556  30.605  1.00  0.00    -0.237 OA
ATOM     98  O   UNL A   1      50.867  27.493  28.792  1.00  0.00    -0.744 OA
ENDBRANCH  92  95
ENDBRANCH  65  88
ENDBRANCH  39  40
ENDBRANCH  32  34
ENDBRANCH  31  32
ENDBRANCH  30  31
ENDBRANCH  29  30
ENDBRANCH  28  29
ENDBRANCH  27  28
ENDBRANCH  26  27
ENDBRANCH   1  26
TORSDOF 27
ENDMDL
MODEL 3
REMARK VINA RESULT:      -9.0      2.582      8.892
REMARK SMILES COCCCNC(=O)/C(C#N)=C/c1ccc(C(=O)OCCOCCOCCOC(=O)c2ccc(-c3c4nc(c(-c5cccc(S(=O)(=O)[O-])c5F)c5ccc([nH]5)c(-c5cccc(S(=O)(=O)[O-])c5F)c5nc(c(-c6cccc(S(=O)(=O)[O-])c6F)c6ccc3[nH]6)C=C5)C=C4)cc2)cc1
REMARK SMILES IDX 22 1 21 2 20 3 19 4 17 5 18 6 16 7 13 8 14 9 95 10 15 11
REMARK SMILES IDX 94 12 12 13 9 14 7 15 6 16 8 18 5 19 4 20 3 21 2 22 1 23
REMARK SMILES IDX 10 24 11 25 23 26 24 27 25 28 26 29 27 30 28 31 29 32 30 33
REMARK SMILES IDX 31 34 32 35 93 36 33 37 92 38 34 39 35 40 36 41 86 42 37 43
REMARK SMILES IDX 91 44 85 45 87 46 38 47 90 48 84 49 83 50 39 52 71 53 51 54
REMARK SMILES IDX 70 55 52 56 55 57 69 58 88 59 53 60 54 61 68 63 89 64 56 65
REMARK SMILES IDX 40 66 41 67 49 68 42 69 44 70 50 71 43 72 45 73 46 74 47 75
REMARK SMILES IDX 48 76 72 77 73 78 81 79 74 80 76 81 82 82 75 83 77 84 78 85
REMARK SMILES IDX 79 86 80 87 57 88 58 89 66 90 59 91 61 92 67 93 60 94 62 95
REMARK SMILES IDX 63 96 64 97 65 98
REMARK H PARENT 6 17 87 51 55 62
REMARK Flexibility Score: inf
ROOT
ATOM      1  O   UNL A   1      33.423  23.480  26.917  1.00  0.00    -0.376 OA
ENDROOT
BRANCH   1   2
ATOM      2  C   UNL A   1      33.809  22.170  27.297  1.00  0.00     0.202 C 
BRANCH   2   3
ATOM      3  C   UNL A   1      33.283  20.850  26.694  1.00  0.00     0.261 C 
BRANCH   3   4
ATOM      4  O   UNL A   1      33.895  20.390  25.491  1.00  0.00    -0.460 OA
BRANCH   4   5
ATOM      5  C   UNL A   1      33.147  20.513  24.366  1.00  0.00     0.338 C 
ATOM      6  O   UNL A   1      32.398  19.678  23.891  1.00  0.00    -0.246 OA
BRANCH   5   7
ATOM      7  C   UNL A   1      33.220  21.913  23.887  1.00  0.00     0.060 A 
ATOM      8  C   UNL A   1      33.440  24.589  23.156  1.00  0.00    -0.024 A 
ATOM      9  C   UNL A   1      34.596  23.821  23.311  1.00  0.00     0.009 A 
ATOM     10  C   UNL A   1      32.179  23.969  23.180  1.00  0.00     0.009 A 
ATOM     11  C   UNL A   1      34.485  22.478  23.676  1.00  0.00     0.016 A 
ATOM     12  C   UNL A   1      32.066  22.644  23.594  1.00  0.00     0.016 A 
BRANCH   8  13
ATOM     13  C   UNL A   1      33.532  26.053  23.300  1.00  0.00     0.033 C 
ATOM     14  C   UNL A   1      33.300  26.851  22.227  1.00  0.00     0.117 C 
BRANCH  14  15
ATOM     15  C   UNL A   1      33.304  28.335  22.429  1.00  0.00     0.261 C 
ATOM     16  N   UNL A   1      32.164  29.091  22.447  1.00  0.00    -0.351 N 
ATOM     17  H   UNL A   1      32.315  30.033  22.690  1.00  0.00     0.163 HD
ATOM     18  O   UNL A   1      34.367  28.940  22.587  1.00  0.00    -0.268 OA
BRANCH  16  19
ATOM     19  C   UNL A   1      30.769  28.768  22.177  1.00  0.00     0.118 C 
BRANCH  19  20
ATOM     20  C   UNL A   1      29.875  29.962  21.879  1.00  0.00     0.050 C 
BRANCH  20  21
ATOM     21  C   UNL A   1      28.374  29.727  21.914  1.00  0.00     0.161 C 
BRANCH  21  22
ATOM     22  O   UNL A   1      27.849  29.602  23.231  1.00  0.00    -0.385 OA
ATOM     23  C   UNL A   1      26.885  28.573  23.390  1.00  0.00     0.194 C 
ENDBRANCH  21  22
ENDBRANCH  20  21
ENDBRANCH  19  20
ENDBRANCH  16  19
ENDBRANCH  14  15
BRANCH  14  24
ATOM     24  C   UNL A   1      33.056  26.267  20.951  1.00  0.00     0.105 C 
ATOM     25  N   UNL A   1      32.909  25.799  19.894  1.00  0.00    -0.192 NA
ENDBRANCH  14  24
ENDBRANCH   8  13
ENDBRANCH   5   7
ENDBRANCH   4   5
ENDBRANCH   3   4
ENDBRANCH   2   3
ENDBRANCH   1   2
BRANCH   1  26
ATOM     26  C   UNL A   1      32.066  23.860  26.892  1.00  0.00     0.188 C 
BRANCH  26  27
ATOM     27  C   UNL A   1      31.762  25.323  26.517  1.00  0.00     0.188 C 
BRANCH  27  28
ATOM     28  O   UNL A   1      32.821  26.252  26.511  1.00  0.00    -0.376 OA
BRANCH  28  29
ATOM     29  C   UNL A   1      32.583  27.575  26.964  1.00  0.00     0.202 C 
BRANCH  29  30
ATOM     30  C   UNL A   1      32.750  28.866  26.127  1.00  0.00     0.261 C 
BRANCH  30  31
ATOM     31  O   UNL A   1      34.025  29.521  26.102  1.00  0.00    -0.460 OA
BRANCH  31  32
ATOM     32  C   UNL A   1      34.277  30.362  27.137  1.00  0.00     0.338 C 
ATOM     33  O   UNL A   1      33.534  31.221  27.582  1.00  0.00    -0.246 OA
BRANCH  32  34
ATOM     34  C   UNL A   1      35.530  29.950  27.805  1.00  0.00     0.060 A 
ATOM     35  C   UNL A   1      35.463  29.387  29.089  1.00  0.00     0.016 A 
ATOM     36  C   UNL A   1      36.764  30.168  27.194  1.00  0.00     0.016 A 
ATOM     37  C   UNL A   1      36.633  29.066  29.777  1.00  0.00     0.010 A 
ATOM     38  C   UNL A   1      37.935  29.870  27.896  1.00  0.00     0.010 A 
ATOM     39  C   UNL A   1      37.877  29.352  29.204  1.00  0.00    -0.014 A 
BRANCH  39  40
ATOM     40  C   UNL A   1      39.104  29.272  30.035  1.00  0.00     0.031 A 
ATOM     41  C   UNL A   1      40.153  28.252  29.679  1.00  0.00     0.074 A 
ATOM     42  C   UNL A   1      39.293  30.094  31.082  1.00  0.00     0.049 A 
ATOM     43  N   UNL A   1      41.276  27.971  30.286  1.00  0.00    -0.248 NA
ATOM     44  C   UNL A   1      39.896  27.436  28.480  1.00  0.00     0.031 C 
ATOM     45  C   UNL A   1      38.364  31.135  31.518  1.00  0.00     0.029 A 
ATOM     46  N   UNL A   1      40.323  30.160  31.988  1.00  0.00    -0.354 N 
ATOM     47  C   UNL A   1      41.842  26.923  29.570  1.00  0.00     0.074 A 
ATOM     48  C   UNL A   1      40.933  26.610  28.489  1.00  0.00     0.031 C 
ATOM     49  C   UNL A   1      38.854  31.720  32.625  1.00  0.00     0.029 A 
ATOM     50  C   UNL A   1      40.110  31.070  32.997  1.00  0.00     0.049 A 
ATOM     51  H   UNL A   1      41.135  29.608  31.922  1.00  0.00     0.167 HD
ATOM     52  C   UNL A   1      43.015  26.280  29.787  1.00  0.00     0.034 A 
ATOM     53  C   UNL A   1      40.828  31.326  34.109  1.00  0.00     0.034 A 
ATOM     54  C   UNL A   1      43.918  26.595  30.861  1.00  0.00     0.049 A 
ATOM     55  C   UNL A   1      42.107  30.565  34.353  1.00  0.00     0.074 A 
ATOM     56  C   UNL A   1      45.151  26.032  31.138  1.00  0.00     0.029 A 
ATOM     57  N   UNL A   1      43.677  27.536  31.850  1.00  0.00    -0.354 N 
ATOM     58  N   UNL A   1      42.677  29.645  33.614  1.00  0.00    -0.248 NA
ATOM     59  C   UNL A   1      42.857  30.903  35.572  1.00  0.00     0.031 C 
ATOM     60  C   UNL A   1      45.629  26.592  32.327  1.00  0.00     0.029 A 
ATOM     61  C   UNL A   1      44.728  27.554  32.752  1.00  0.00     0.049 A 
ATOM     62  H   UNL A   1      42.877  28.107  31.904  1.00  0.00     0.167 HD
ATOM     63  C   UNL A   1      43.872  29.327  34.252  1.00  0.00     0.074 A 
ATOM     64  C   UNL A   1      43.951  30.167  35.429  1.00  0.00     0.031 C 
ATOM     65  C   UNL A   1      44.817  28.422  33.899  1.00  0.00     0.034 A 
BRANCH  52  66
ATOM     66  C   UNL A   1      43.386  25.162  28.846  1.00  0.00     0.023 A 
ATOM     67  C   UNL A   1      42.823  23.880  29.011  1.00  0.00     0.012 A 
ATOM     68  C   UNL A   1      44.257  25.399  27.764  1.00  0.00     0.148 A 
ATOM     69  C   UNL A   1      43.153  22.842  28.140  1.00  0.00     0.002 A 
ATOM     70  C   UNL A   1      44.540  24.375  26.870  1.00  0.00     0.091 A 
ATOM     71  F   UNL A   1      44.796  26.620  27.633  1.00  0.00    -0.205 F 
ATOM     72  C   UNL A   1      44.002  23.092  27.065  1.00  0.00     0.022 A 
BRANCH  70  73
ATOM     73  S   UNL A   1      45.554  24.616  25.408  1.00  0.00     0.127 S 
ATOM     74  O   UNL A   1      44.897  25.764  24.781  1.00  0.00    -0.237 OA
ATOM     75  O   UNL A   1      46.864  24.908  25.989  1.00  0.00    -0.237 OA
ATOM     76  O   UNL A   1      45.482  23.373  24.655  1.00  0.00    -0.744 OA
ENDBRANCH  70  73
ENDBRANCH  52  66
BRANCH  53  77
ATOM     77  C   UNL A   1      40.365  32.359  35.079  1.00  0.00     0.023 A 
ATOM     78  C   UNL A   1      40.918  33.654  35.040  1.00  0.00     0.012 A 
ATOM     79  C   UNL A   1      39.389  32.058  36.047  1.00  0.00     0.148 A 
ATOM     80  C   UNL A   1      40.535  34.619  35.971  1.00  0.00     0.002 A 
ATOM     81  C   UNL A   1      38.968  33.041  36.935  1.00  0.00     0.091 A 
ATOM     82  F   UNL A   1      38.884  30.816  36.076  1.00  0.00    -0.205 F 
ATOM     83  C   UNL A   1      39.554  34.316  36.912  1.00  0.00     0.022 A 
BRANCH  81  84
ATOM     84  S   UNL A   1      37.632  32.779  38.105  1.00  0.00     0.127 S 
ATOM     85  O   UNL A   1      38.036  33.634  39.217  1.00  0.00    -0.237 OA
ATOM     86  O   UNL A   1      36.476  33.259  37.346  1.00  0.00    -0.237 OA
ATOM     87  O   UNL A   1      37.622  31.350  38.382  1.00  0.00    -0.744 OA
ENDBRANCH  81  84
ENDBRANCH  53  77
BRANCH  65  88
ATOM     88  C   UNL A   1      46.059  28.329  34.751  1.00  0.00     0.023 A 
ATOM     89  C   UNL A   1      47.172  29.154  34.490  1.00  0.00     0.012 A 
ATOM     90  C   UNL A   1      46.095  27.454  35.856  1.00  0.00     0.148 A 
ATOM     91  C   UNL A   1      48.315  29.075  35.285  1.00  0.00     0.002 A 
ATOM     92  C   UNL A   1      47.215  27.423  36.679  1.00  0.00     0.091 A 
ATOM     93  F   UNL A   1      45.034  26.666  36.083  1.00  0.00    -0.205 F 
ATOM     94  C   UNL A   1      48.332  28.220  36.385  1.00  0.00     0.022 A 
BRANCH  92  95
ATOM     95  S   UNL A   1      47.288  26.428  38.172  1.00  0.00     0.127 S 
ATOM     96  O   UNL A   1      46.210  27.008  38.969  1.00  0.00    -0.237 OA
ATOM     97  O   UNL A   1      47.015  25.085  37.661  1.00  0.00    -0.237 OA
ATOM     98  O   UNL A   1      48.629  26.609  38.714  1.00  0.00    -0.744 OA
ENDBRANCH  92  95
ENDBRANCH  65  88
ENDBRANCH  39  40
ENDBRANCH  32  34
ENDBRANCH  31  32
ENDBRANCH  30  31
ENDBRANCH  29  30
ENDBRANCH  28  29
ENDBRANCH  27  28
ENDBRANCH  26  27
ENDBRANCH   1  26
TORSDOF 27
ENDMDL
