MODEL 1
REMARK VINA RESULT:      -7.9      0.000      0.000
REMARK SMILES C=CCN(CC(=O)OCCOCCOCCOC(=O)c1ccc(-c2c3nc(c(-c4cccc(S(=O)(=O)[O-])c4F)c4ccc([nH]4)c(-c4cccc(S(=O)(=O)[O-])c4F)c4nc(c(-c5cccc(S(=O)(=O)[O-])c5F)c5ccc2[nH]5)C=C4)C=C3)cc1)c1ccc([N+](=O)[O-])cc1Br
REMARK SMILES IDX 12 1 11 2 10 3 9 4 8 5 6 6 7 7 5 8 4 9 3 10 2 11 1 12 83 13
REMARK SMILES IDX 84 14 91 15 85 16 90 17 92 18 86 19 87 20 88 21 89 22 13 23
REMARK SMILES IDX 14 24 15 25 16 26 17 27 18 28 19 29 20 30 21 31 82 32 22 33
REMARK SMILES IDX 81 34 23 35 24 36 25 37 75 38 26 39 80 40 74 41 76 42 27 43
REMARK SMILES IDX 79 44 73 45 72 46 28 48 60 49 40 50 59 51 41 52 44 53 58 54
REMARK SMILES IDX 77 55 42 56 43 57 57 59 78 60 45 61 29 62 30 63 38 64 31 65
REMARK SMILES IDX 33 66 39 67 32 68 34 69 35 70 36 71 37 72 61 73 62 74 70 75
REMARK SMILES IDX 63 76 65 77 71 78 64 79 66 80 67 81 68 82 69 83 46 84 47 85
REMARK SMILES IDX 55 86 48 87 50 88 56 89 49 90 51 91 52 92 53 93 54 94
REMARK H PARENT 76 47 44 58
REMARK Flexibility Score: inf
ROOT
ATOM      1  C   UNL A   1      38.512  34.591  29.806  1.00  0.00     0.188 C 
ENDROOT
BRANCH   1   2
ATOM      2  O   UNL A   1      39.813  34.082  29.521  1.00  0.00    -0.376 OA
BRANCH   2   3
ATOM      3  C   UNL A   1      40.944  34.904  29.783  1.00  0.00     0.202 C 
BRANCH   3   4
ATOM      4  C   UNL A   1      41.717  35.377  28.548  1.00  0.00     0.261 C 
BRANCH   4   5
ATOM      5  O   UNL A   1      42.746  36.321  28.900  1.00  0.00    -0.462 OA
BRANCH   5   6
ATOM      6  C   UNL A   1      43.022  37.292  27.989  1.00  0.00     0.325 C 
ATOM      7  O   UNL A   1      43.024  37.109  26.776  1.00  0.00    -0.250 OA
BRANCH   6   8
ATOM      8  C   UNL A   1      43.216  38.676  28.634  1.00  0.00     0.239 C 
BRANCH   8   9
ATOM      9  N   UNL A   1      42.241  39.711  28.226  1.00  0.00    -0.356 N 
BRANCH   9  10
ATOM     10  C   UNL A   1      41.235  40.157  29.190  1.00  0.00     0.144 C 
BRANCH  10  11
ATOM     11  C   UNL A   1      41.763  41.310  29.999  1.00  0.00    -0.014 C 
ATOM     12  C   UNL A   1      42.436  41.189  31.152  1.00  0.00     0.006 C 
ENDBRANCH  10  11
ENDBRANCH   9  10
BRANCH   9  13
ATOM     13  C   UNL A   1      42.504  40.532  27.126  1.00  0.00     0.052 A 
ATOM     14  C   UNL A   1      41.522  40.604  26.114  1.00  0.00     0.034 A 
ATOM     15  C   UNL A   1      43.672  41.311  26.946  1.00  0.00     0.048 A 
ATOM     16  C   UNL A   1      41.712  41.345  24.941  1.00  0.00     0.088 A 
ATOM     17  C   UNL A   1      43.860  42.092  25.795  1.00  0.00     0.103 A 
ATOM     18  Br  UNL A   1      45.051  41.435  28.252  1.00  0.00    -0.048 Br
ATOM     19  C   UNL A   1      42.885  42.079  24.800  1.00  0.00     0.270 A 
BRANCH  19  20
ATOM     20  N   UNL A   1      43.118  42.835  23.584  1.00  0.00     0.062 N 
ATOM     21  O   UNL A   1      43.089  44.067  23.668  1.00  0.00    -0.258 OA
ATOM     22  O   UNL A   1      43.311  42.182  22.550  1.00  0.00    -0.258 OA
ENDBRANCH  19  20
ENDBRANCH   9  13
ENDBRANCH   8   9
ENDBRANCH   6   8
ENDBRANCH   5   6
ENDBRANCH   4   5
ENDBRANCH   3   4
ENDBRANCH   2   3
ENDBRANCH   1   2
BRANCH   1  23
ATOM     23  C   UNL A   1      37.297  33.774  29.361  1.00  0.00     0.188 C 
BRANCH  23  24
ATOM     24  O   UNL A   1      36.169  34.573  29.032  1.00  0.00    -0.376 OA
BRANCH  24  25
ATOM     25  C   UNL A   1      34.923  33.898  29.143  1.00  0.00     0.202 C 
BRANCH  25  26
ATOM     26  C   UNL A   1      34.851  32.748  28.136  1.00  0.00     0.261 C 
BRANCH  26  27
ATOM     27  O   UNL A   1      34.573  31.473  28.750  1.00  0.00    -0.460 OA
BRANCH  27  28
ATOM     28  C   UNL A   1      34.819  30.392  27.971  1.00  0.00     0.338 C 
ATOM     29  O   UNL A   1      34.082  29.941  27.115  1.00  0.00    -0.246 OA
BRANCH  28  30
ATOM     30  C   UNL A   1      36.211  29.958  28.205  1.00  0.00     0.060 A 
ATOM     31  C   UNL A   1      36.534  29.283  29.389  1.00  0.00     0.016 A 
ATOM     32  C   UNL A   1      37.201  30.252  27.272  1.00  0.00     0.016 A 
ATOM     33  C   UNL A   1      37.853  28.925  29.665  1.00  0.00     0.010 A 
ATOM     34  C   UNL A   1      38.522  29.888  27.545  1.00  0.00     0.010 A 
ATOM     35  C   UNL A   1      38.862  29.242  28.750  1.00  0.00    -0.014 A 
BRANCH  35  36
ATOM     36  C   UNL A   1      40.289  28.996  29.071  1.00  0.00     0.031 A 
ATOM     37  C   UNL A   1      40.996  27.849  28.406  1.00  0.00     0.074 A 
ATOM     38  C   UNL A   1      40.929  29.742  29.990  1.00  0.00     0.049 A 
ATOM     39  N   UNL A   1      42.152  27.313  28.695  1.00  0.00    -0.248 NA
ATOM     40  C   UNL A   1      40.301  27.219  27.273  1.00  0.00     0.031 C 
ATOM     41  C   UNL A   1      40.369  30.903  30.679  1.00  0.00     0.029 A 
ATOM     42  N   UNL A   1      42.180  29.594  30.538  1.00  0.00    -0.354 N 
ATOM     43  C   UNL A   1      42.294  26.239  27.825  1.00  0.00     0.074 A 
ATOM     44  C   UNL A   1      41.117  26.215  26.984  1.00  0.00     0.031 C 
ATOM     45  C   UNL A   1      41.252  31.333  31.595  1.00  0.00     0.029 A 
ATOM     46  C   UNL A   1      42.413  30.446  31.593  1.00  0.00     0.049 A 
ATOM     47  H   UNL A   1      42.844  28.946  30.209  1.00  0.00     0.167 HD
ATOM     48  C   UNL A   1      43.314  25.352  27.739  1.00  0.00     0.034 A 
ATOM     49  C   UNL A   1      43.417  30.471  32.493  1.00  0.00     0.034 A 
ATOM     50  C   UNL A   1      44.502  25.404  28.547  1.00  0.00     0.049 A 
ATOM     51  C   UNL A   1      44.530  29.460  32.392  1.00  0.00     0.074 A 
ATOM     52  C   UNL A   1      45.615  24.583  28.492  1.00  0.00     0.029 A 
ATOM     53  N   UNL A   1      44.729  26.319  29.562  1.00  0.00    -0.354 N 
ATOM     54  N   UNL A   1      44.696  28.501  31.513  1.00  0.00    -0.248 NA
ATOM     55  C   UNL A   1      45.602  29.546  33.394  1.00  0.00     0.031 C 
ATOM     56  C   UNL A   1      46.506  24.989  29.491  1.00  0.00     0.029 A 
ATOM     57  C   UNL A   1      45.959  26.077  30.151  1.00  0.00     0.049 A 
ATOM     58  H   UNL A   1      44.108  27.035  29.827  1.00  0.00     0.167 HD
ATOM     59  C   UNL A   1      45.903  27.889  31.839  1.00  0.00     0.074 A 
ATOM     60  C   UNL A   1      46.436  28.600  32.982  1.00  0.00     0.031 C 
ATOM     61  C   UNL A   1      46.507  26.826  31.253  1.00  0.00     0.034 A 
BRANCH  48  62
ATOM     62  C   UNL A   1      43.191  24.246  26.726  1.00  0.00     0.023 A 
ATOM     63  C   UNL A   1      43.856  24.347  25.489  1.00  0.00     0.012 A 
ATOM     64  C   UNL A   1      42.458  23.080  27.025  1.00  0.00     0.148 A 
ATOM     65  C   UNL A   1      43.770  23.318  24.551  1.00  0.00     0.002 A 
ATOM     66  C   UNL A   1      42.412  22.041  26.104  1.00  0.00     0.091 A 
ATOM     67  F   UNL A   1      41.809  23.014  28.197  1.00  0.00    -0.205 F 
ATOM     68  C   UNL A   1      43.058  22.163  24.863  1.00  0.00     0.022 A 
BRANCH  66  69
ATOM     69  S   UNL A   1      41.589  20.483  26.450  1.00  0.00     0.127 S 
ATOM     70  O   UNL A   1      42.129  19.622  25.398  1.00  0.00    -0.237 OA
ATOM     71  O   UNL A   1      42.066  20.171  27.798  1.00  0.00    -0.237 OA
ATOM     72  O   UNL A   1      40.162  20.757  26.363  1.00  0.00    -0.744 OA
ENDBRANCH  66  69
ENDBRANCH  48  62
BRANCH  49  73
ATOM     73  C   UNL A   1      43.412  31.493  33.579  1.00  0.00     0.023 A 
ATOM     74  C   UNL A   1      43.974  32.761  33.342  1.00  0.00     0.012 A 
ATOM     75  C   UNL A   1      42.828  31.222  34.833  1.00  0.00     0.148 A 
ATOM     76  C   UNL A   1      43.974  33.735  34.341  1.00  0.00     0.002 A 
ATOM     77  C   UNL A   1      42.781  32.216  35.803  1.00  0.00     0.091 A 
ATOM     78  F   UNL A   1      42.320  30.000  35.046  1.00  0.00    -0.205 F 
ATOM     79  C   UNL A   1      43.367  33.468  35.565  1.00  0.00     0.022 A 
BRANCH  77  80
ATOM     80  S   UNL A   1      41.903  32.004  37.356  1.00  0.00     0.127 S 
ATOM     81  O   UNL A   1      42.675  30.941  37.994  1.00  0.00    -0.237 OA
ATOM     82  O   UNL A   1      42.049  33.325  37.967  1.00  0.00    -0.237 OA
ATOM     83  O   UNL A   1      40.535  31.661  36.990  1.00  0.00    -0.744 OA
ENDBRANCH  77  80
ENDBRANCH  49  73
BRANCH  61  84
ATOM     84  C   UNL A   1      47.835  26.379  31.808  1.00  0.00     0.023 A 
ATOM     85  C   UNL A   1      49.029  26.893  31.266  1.00  0.00     0.012 A 
ATOM     86  C   UNL A   1      47.896  25.512  32.918  1.00  0.00     0.148 A 
ATOM     87  C   UNL A   1      50.265  26.529  31.802  1.00  0.00     0.002 A 
ATOM     88  C   UNL A   1      49.129  25.192  33.476  1.00  0.00     0.091 A 
ATOM     89  F   UNL A   1      46.750  25.018  33.408  1.00  0.00    -0.205 F 
ATOM     90  C   UNL A   1      50.314  25.690  32.913  1.00  0.00     0.022 A 
BRANCH  88  91
ATOM     91  S   UNL A   1      49.280  24.193  34.963  1.00  0.00     0.127 S 
ATOM     92  O   UNL A   1      50.645  24.494  35.387  1.00  0.00    -0.237 OA
ATOM     93  O   UNL A   1      48.237  24.754  35.822  1.00  0.00    -0.237 OA
ATOM     94  O   UNL A   1      49.041  22.817  34.546  1.00  0.00    -0.744 OA
ENDBRANCH  88  91
ENDBRANCH  61  84
ENDBRANCH  35  36
ENDBRANCH  28  30
ENDBRANCH  27  28
ENDBRANCH  26  27
ENDBRANCH  25  26
ENDBRANCH  24  25
ENDBRANCH  23  24
ENDBRANCH   1  23
TORSDOF 25
ENDMDL
MODEL 2
REMARK VINA RESULT:      -7.7      5.983     13.863
REMARK SMILES C=CCN(CC(=O)OCCOCCOCCOC(=O)c1ccc(-c2c3nc(c(-c4cccc(S(=O)(=O)[O-])c4F)c4ccc([nH]4)c(-c4cccc(S(=O)(=O)[O-])c4F)c4nc(c(-c5cccc(S(=O)(=O)[O-])c5F)c5ccc2[nH]5)C=C4)C=C3)cc1)c1ccc([N+](=O)[O-])cc1Br
REMARK SMILES IDX 12 1 11 2 10 3 9 4 8 5 6 6 7 7 5 8 4 9 3 10 2 11 1 12 83 13
REMARK SMILES IDX 84 14 91 15 85 16 90 17 92 18 86 19 87 20 88 21 89 22 13 23
REMARK SMILES IDX 14 24 15 25 16 26 17 27 18 28 19 29 20 30 21 31 82 32 22 33
REMARK SMILES IDX 81 34 23 35 24 36 25 37 75 38 26 39 80 40 74 41 76 42 27 43
REMARK SMILES IDX 79 44 73 45 72 46 28 48 60 49 40 50 59 51 41 52 44 53 58 54
REMARK SMILES IDX 77 55 42 56 43 57 57 59 78 60 45 61 29 62 30 63 38 64 31 65
REMARK SMILES IDX 33 66 39 67 32 68 34 69 35 70 36 71 37 72 61 73 62 74 70 75
REMARK SMILES IDX 63 76 65 77 71 78 64 79 66 80 67 81 68 82 69 83 46 84 47 85
REMARK SMILES IDX 55 86 48 87 50 88 56 89 49 90 51 91 52 92 53 93 54 94
REMARK H PARENT 76 47 44 58
REMARK Flexibility Score: inf
ROOT
ATOM      1  C   UNL A   1      52.929  23.669  32.760  1.00  0.00     0.188 C 
ENDROOT
BRANCH   1   2
ATOM      2  O   UNL A   1      51.760  22.870  32.598  1.00  0.00    -0.376 OA
BRANCH   2   3
ATOM      3  C   UNL A   1      51.819  21.490  32.938  1.00  0.00     0.202 C 
BRANCH   3   4
ATOM      4  C   UNL A   1      51.233  21.119  34.304  1.00  0.00     0.261 C 
BRANCH   4   5
ATOM      5  O   UNL A   1      51.534  19.756  34.654  1.00  0.00    -0.462 OA
BRANCH   5   6
ATOM      6  C   UNL A   1      51.159  19.347  35.896  1.00  0.00     0.325 C 
ATOM      7  O   UNL A   1      51.339  18.212  36.325  1.00  0.00    -0.250 OA
BRANCH   6   8
ATOM      8  C   UNL A   1      50.589  20.492  36.752  1.00  0.00     0.239 C 
BRANCH   8   9
ATOM      9  N   UNL A   1      49.198  20.305  37.221  1.00  0.00    -0.356 N 
BRANCH   9  10
ATOM     10  C   UNL A   1      48.969  19.783  38.569  1.00  0.00     0.144 C 
BRANCH  10  11
ATOM     11  C   UNL A   1      50.276  19.410  39.213  1.00  0.00    -0.014 C 
ATOM     12  C   UNL A   1      50.807  20.030  40.277  1.00  0.00     0.006 C 
ENDBRANCH  10  11
ENDBRANCH   9  10
BRANCH   9  13
ATOM     13  C   UNL A   1      48.145  20.970  36.588  1.00  0.00     0.052 A 
ATOM     14  C   UNL A   1      47.657  20.424  35.380  1.00  0.00     0.034 A 
ATOM     15  C   UNL A   1      47.514  22.145  37.064  1.00  0.00     0.048 A 
ATOM     16  C   UNL A   1      46.650  21.046  34.633  1.00  0.00     0.088 A 
ATOM     17  C   UNL A   1      46.475  22.758  36.348  1.00  0.00     0.103 A 
ATOM     18  Br  UNL A   1      47.953  22.960  38.727  1.00  0.00    -0.048 Br
ATOM     19  C   UNL A   1      46.074  22.209  35.131  1.00  0.00     0.270 A 
BRANCH  19  20
ATOM     20  N   UNL A   1      45.045  22.887  34.365  1.00  0.00     0.062 N 
ATOM     21  O   UNL A   1      43.882  22.790  34.768  1.00  0.00    -0.258 OA
ATOM     22  O   UNL A   1      45.415  23.496  33.353  1.00  0.00    -0.258 OA
ENDBRANCH  19  20
ENDBRANCH   9  13
ENDBRANCH   8   9
ENDBRANCH   6   8
ENDBRANCH   5   6
ENDBRANCH   4   5
ENDBRANCH   3   4
ENDBRANCH   2   3
ENDBRANCH   1   2
BRANCH   1  23
ATOM     23  C   UNL A   1      52.967  24.679  33.908  1.00  0.00     0.188 C 
BRANCH  23  24
ATOM     24  O   UNL A   1      51.825  25.523  33.957  1.00  0.00    -0.376 OA
BRANCH  24  25
ATOM     25  C   UNL A   1      51.227  25.623  35.242  1.00  0.00     0.202 C 
BRANCH  25  26
ATOM     26  C   UNL A   1      49.820  25.021  35.221  1.00  0.00     0.261 C 
BRANCH  26  27
ATOM     27  O   UNL A   1      48.820  25.937  34.731  1.00  0.00    -0.460 OA
BRANCH  27  28
ATOM     28  C   UNL A   1      48.281  26.756  35.667  1.00  0.00     0.338 C 
ATOM     29  O   UNL A   1      48.845  27.186  36.655  1.00  0.00    -0.246 OA
BRANCH  28  30
ATOM     30  C   UNL A   1      46.950  27.190  35.196  1.00  0.00     0.060 A 
ATOM     31  C   UNL A   1      45.833  26.380  35.440  1.00  0.00     0.016 A 
ATOM     32  C   UNL A   1      46.814  28.375  34.479  1.00  0.00     0.016 A 
ATOM     33  C   UNL A   1      44.579  26.733  34.944  1.00  0.00     0.010 A 
ATOM     34  C   UNL A   1      45.556  28.732  33.987  1.00  0.00     0.010 A 
ATOM     35  C   UNL A   1      44.435  27.906  34.197  1.00  0.00    -0.014 A 
BRANCH  35  36
ATOM     36  C   UNL A   1      43.146  28.242  33.543  1.00  0.00     0.031 A 
ATOM     37  C   UNL A   1      42.906  27.782  32.133  1.00  0.00     0.074 A 
ATOM     38  C   UNL A   1      42.230  29.001  34.170  1.00  0.00     0.049 A 
ATOM     39  N   UNL A   1      41.971  28.143  31.295  1.00  0.00    -0.248 NA
ATOM     40  C   UNL A   1      43.853  26.792  31.596  1.00  0.00     0.031 C 
ATOM     41  C   UNL A   1      42.325  29.480  35.548  1.00  0.00     0.029 A 
ATOM     42  N   UNL A   1      41.058  29.546  33.704  1.00  0.00    -0.354 N 
ATOM     43  C   UNL A   1      42.254  27.478  30.109  1.00  0.00     0.074 A 
ATOM     44  C   UNL A   1      43.435  26.674  30.344  1.00  0.00     0.031 C 
ATOM     45  C   UNL A   1      41.283  30.289  35.802  1.00  0.00     0.029 A 
ATOM     46  C   UNL A   1      40.480  30.427  34.588  1.00  0.00     0.049 A 
ATOM     47  H   UNL A   1      40.670  29.328  32.826  1.00  0.00     0.167 HD
ATOM     48  C   UNL A   1      41.591  27.535  28.930  1.00  0.00     0.034 A 
ATOM     49  C   UNL A   1      39.458  31.291  34.422  1.00  0.00     0.034 A 
ATOM     50  C   UNL A   1      40.393  28.301  28.712  1.00  0.00     0.049 A 
ATOM     51  C   UNL A   1      38.748  31.354  33.094  1.00  0.00     0.074 A 
ATOM     52  C   UNL A   1      39.618  28.376  27.568  1.00  0.00     0.029 A 
ATOM     53  N   UNL A   1      39.803  29.131  29.650  1.00  0.00    -0.354 N 
ATOM     54  N   UNL A   1      38.972  30.659  32.005  1.00  0.00    -0.248 NA
ATOM     55  C   UNL A   1      37.634  32.307  32.979  1.00  0.00     0.031 C 
ATOM     56  C   UNL A   1      38.570  29.270  27.808  1.00  0.00     0.029 A 
ATOM     57  C   UNL A   1      38.679  29.733  29.110  1.00  0.00     0.049 A 
ATOM     58  H   UNL A   1      40.133  29.273  30.567  1.00  0.00     0.167 HD
ATOM     59  C   UNL A   1      38.011  31.069  31.086  1.00  0.00     0.074 A 
ATOM     60  C   UNL A   1      37.189  32.057  31.754  1.00  0.00     0.031 C 
ATOM     61  C   UNL A   1      37.834  30.673  29.801  1.00  0.00     0.034 A 
BRANCH  48  62
ATOM     62  C   UNL A   1      42.145  26.739  27.779  1.00  0.00     0.023 A 
ATOM     63  C   UNL A   1      43.039  27.341  26.873  1.00  0.00     0.012 A 
ATOM     64  C   UNL A   1      41.818  25.377  27.627  1.00  0.00     0.148 A 
ATOM     65  C   UNL A   1      43.578  26.608  25.816  1.00  0.00     0.002 A 
ATOM     66  C   UNL A   1      42.392  24.642  26.598  1.00  0.00     0.091 A 
ATOM     67  F   UNL A   1      40.943  24.829  28.484  1.00  0.00    -0.205 F 
ATOM     68  C   UNL A   1      43.264  25.258  25.685  1.00  0.00     0.022 A 
BRANCH  66  69
ATOM     69  S   UNL A   1      42.109  22.879  26.400  1.00  0.00     0.127 S 
ATOM     70  O   UNL A   1      42.923  22.579  25.222  1.00  0.00    -0.237 OA
ATOM     71  O   UNL A   1      42.631  22.337  27.655  1.00  0.00    -0.237 OA
ATOM     72  O   UNL A   1      40.673  22.722  26.225  1.00  0.00    -0.744 OA
ENDBRANCH  66  69
ENDBRANCH  48  62
BRANCH  49  73
ATOM     73  C   UNL A   1      39.046  32.175  35.549  1.00  0.00     0.023 A 
ATOM     74  C   UNL A   1      38.087  31.721  36.474  1.00  0.00     0.012 A 
ATOM     75  C   UNL A   1      39.621  33.451  35.724  1.00  0.00     0.148 A 
ATOM     76  C   UNL A   1      37.693  32.530  37.541  1.00  0.00     0.002 A 
ATOM     77  C   UNL A   1      39.265  34.226  36.820  1.00  0.00     0.091 A 
ATOM     78  F   UNL A   1      40.515  33.873  34.818  1.00  0.00    -0.205 F 
ATOM     79  C   UNL A   1      38.289  33.774  37.722  1.00  0.00     0.022 A 
BRANCH  77  80
ATOM     80  S   UNL A   1      40.079  35.781  37.205  1.00  0.00     0.127 S 
ATOM     81  O   UNL A   1      41.477  35.371  37.298  1.00  0.00    -0.237 OA
ATOM     82  O   UNL A   1      39.750  36.591  36.032  1.00  0.00    -0.237 OA
ATOM     83  O   UNL A   1      39.471  36.246  38.445  1.00  0.00    -0.744 OA
ENDBRANCH  77  80
ENDBRANCH  49  73
BRANCH  61  84
ATOM     84  C   UNL A   1      36.687  31.277  29.031  1.00  0.00     0.023 A 
ATOM     85  C   UNL A   1      36.727  32.636  28.666  1.00  0.00     0.012 A 
ATOM     86  C   UNL A   1      35.610  30.476  28.601  1.00  0.00     0.148 A 
ATOM     87  C   UNL A   1      35.698  33.197  27.908  1.00  0.00     0.002 A 
ATOM     88  C   UNL A   1      34.612  31.031  27.807  1.00  0.00     0.091 A 
ATOM     89  F   UNL A   1      35.580  29.189  28.974  1.00  0.00    -0.205 F 
ATOM     90  C   UNL A   1      34.649  32.393  27.469  1.00  0.00     0.022 A 
BRANCH  88  91
ATOM     91  S   UNL A   1      33.273  30.048  27.120  1.00  0.00     0.127 S 
ATOM     92  O   UNL A   1      32.145  30.972  27.216  1.00  0.00    -0.237 OA
ATOM     93  O   UNL A   1      33.740  29.796  25.756  1.00  0.00    -0.237 OA
ATOM     94  O   UNL A   1      33.182  28.858  27.955  1.00  0.00    -0.744 OA
ENDBRANCH  88  91
ENDBRANCH  61  84
ENDBRANCH  35  36
ENDBRANCH  28  30
ENDBRANCH  27  28
ENDBRANCH  26  27
ENDBRANCH  25  26
ENDBRANCH  24  25
ENDBRANCH  23  24
ENDBRANCH   1  23
TORSDOF 25
ENDMDL
MODEL 3
REMARK VINA RESULT:      -7.7      5.536     10.280
REMARK SMILES C=CCN(CC(=O)OCCOCCOCCOC(=O)c1ccc(-c2c3nc(c(-c4cccc(S(=O)(=O)[O-])c4F)c4ccc([nH]4)c(-c4cccc(S(=O)(=O)[O-])c4F)c4nc(c(-c5cccc(S(=O)(=O)[O-])c5F)c5ccc2[nH]5)C=C4)C=C3)cc1)c1ccc([N+](=O)[O-])cc1Br
REMARK SMILES IDX 12 1 11 2 10 3 9 4 8 5 6 6 7 7 5 8 4 9 3 10 2 11 1 12 83 13
REMARK SMILES IDX 84 14 91 15 85 16 90 17 92 18 86 19 87 20 88 21 89 22 13 23
REMARK SMILES IDX 14 24 15 25 16 26 17 27 18 28 19 29 20 30 21 31 82 32 22 33
REMARK SMILES IDX 81 34 23 35 24 36 25 37 75 38 26 39 80 40 74 41 76 42 27 43
REMARK SMILES IDX 79 44 73 45 72 46 28 48 60 49 40 50 59 51 41 52 44 53 58 54
REMARK SMILES IDX 77 55 42 56 43 57 57 59 78 60 45 61 29 62 30 63 38 64 31 65
REMARK SMILES IDX 33 66 39 67 32 68 34 69 35 70 36 71 37 72 61 73 62 74 70 75
REMARK SMILES IDX 63 76 65 77 71 78 64 79 66 80 67 81 68 82 69 83 46 84 47 85
REMARK SMILES IDX 55 86 48 87 50 88 56 89 49 90 51 91 52 92 53 93 54 94
REMARK H PARENT 76 47 44 58
REMARK Flexibility Score: inf
ROOT
ATOM      1  C   UNL A   1      33.241  28.608  26.800  1.00  0.00     0.188 C 
ENDROOT
BRANCH   1   2
ATOM      2  O   UNL A   1      32.061  29.215  26.277  1.00  0.00    -0.376 OA
BRANCH   2   3
ATOM      3  C   UNL A   1      31.618  28.845  24.976  1.00  0.00     0.202 C 
BRANCH   3   4
ATOM      4  C   UNL A   1      32.671  28.183  24.082  1.00  0.00     0.261 C 
BRANCH   4   5
ATOM      5  O   UNL A   1      32.100  27.733  22.840  1.00  0.00    -0.462 OA
BRANCH   5   6
ATOM      6  C   UNL A   1      32.864  26.902  22.081  1.00  0.00     0.325 C 
ATOM      7  O   UNL A   1      34.001  27.170  21.710  1.00  0.00    -0.250 OA
BRANCH   6   8
ATOM      8  C   UNL A   1      32.196  25.537  21.837  1.00  0.00     0.239 C 
BRANCH   8   9
ATOM      9  N   UNL A   1      31.790  24.800  23.054  1.00  0.00    -0.356 N 
BRANCH   9  10
ATOM     10  C   UNL A   1      30.514  25.129  23.690  1.00  0.00     0.144 C 
BRANCH  10  11
ATOM     11  C   UNL A   1      30.698  25.296  25.173  1.00  0.00    -0.014 C 
ATOM     12  C   UNL A   1      29.724  25.638  26.029  1.00  0.00     0.006 C 
ENDBRANCH  10  11
ENDBRANCH   9  10
BRANCH   9  13
ATOM     13  C   UNL A   1      32.378  23.571  23.362  1.00  0.00     0.052 A 
ATOM     14  C   UNL A   1      31.765  22.405  22.853  1.00  0.00     0.034 A 
ATOM     15  C   UNL A   1      33.552  23.395  24.135  1.00  0.00     0.048 A 
ATOM     16  C   UNL A   1      32.235  21.121  23.155  1.00  0.00     0.088 A 
ATOM     17  C   UNL A   1      34.060  22.116  24.412  1.00  0.00     0.103 A 
ATOM     18  Br  UNL A   1      34.582  24.847  24.806  1.00  0.00    -0.048 Br
ATOM     19  C   UNL A   1      33.380  20.998  23.935  1.00  0.00     0.270 A 
BRANCH  19  20
ATOM     20  N   UNL A   1      33.874  19.679  24.283  1.00  0.00     0.062 N 
ATOM     21  O   UNL A   1      33.341  18.711  23.731  1.00  0.00    -0.258 OA
ATOM     22  O   UNL A   1      34.782  19.628  25.123  1.00  0.00    -0.258 OA
ENDBRANCH  19  20
ENDBRANCH   9  13
ENDBRANCH   8   9
ENDBRANCH   6   8
ENDBRANCH   5   6
ENDBRANCH   4   5
ENDBRANCH   3   4
ENDBRANCH   2   3
ENDBRANCH   1   2
BRANCH   1  23
ATOM     23  C   UNL A   1      34.489  29.475  26.976  1.00  0.00     0.188 C 
BRANCH  23  24
ATOM     24  O   UNL A   1      34.298  30.566  27.866  1.00  0.00    -0.376 OA
BRANCH  24  25
ATOM     25  C   UNL A   1      34.002  31.798  27.224  1.00  0.00     0.202 C 
BRANCH  25  26
ATOM     26  C   UNL A   1      33.210  32.710  28.165  1.00  0.00     0.261 C 
BRANCH  26  27
ATOM     27  O   UNL A   1      34.035  33.351  29.159  1.00  0.00    -0.460 OA
BRANCH  27  28
ATOM     28  C   UNL A   1      35.121  34.000  28.673  1.00  0.00     0.338 C 
ATOM     29  O   UNL A   1      35.111  35.007  27.992  1.00  0.00    -0.246 OA
BRANCH  28  30
ATOM     30  C   UNL A   1      36.330  33.386  29.259  1.00  0.00     0.060 A 
ATOM     31  C   UNL A   1      36.199  32.292  30.124  1.00  0.00     0.016 A 
ATOM     32  C   UNL A   1      37.587  33.919  28.986  1.00  0.00     0.016 A 
ATOM     33  C   UNL A   1      37.319  31.740  30.745  1.00  0.00     0.010 A 
ATOM     34  C   UNL A   1      38.710  33.361  29.603  1.00  0.00     0.010 A 
ATOM     35  C   UNL A   1      38.583  32.284  30.502  1.00  0.00    -0.014 A 
BRANCH  35  36
ATOM     36  C   UNL A   1      39.775  31.810  31.247  1.00  0.00     0.031 A 
ATOM     37  C   UNL A   1      40.583  30.678  30.679  1.00  0.00     0.074 A 
ATOM     38  C   UNL A   1      40.097  32.334  32.443  1.00  0.00     0.049 A 
ATOM     39  N   UNL A   1      41.512  29.958  31.250  1.00  0.00    -0.248 NA
ATOM     40  C   UNL A   1      40.297  30.303  29.285  1.00  0.00     0.031 C 
ATOM     41  C   UNL A   1      39.418  33.457  33.087  1.00  0.00     0.029 A 
ATOM     42  N   UNL A   1      41.051  31.949  33.354  1.00  0.00    -0.354 N 
ATOM     43  C   UNL A   1      41.875  29.001  30.311  1.00  0.00     0.074 A 
ATOM     44  C   UNL A   1      41.082  29.246  29.126  1.00  0.00     0.031 C 
ATOM     45  C   UNL A   1      39.941  33.640  34.310  1.00  0.00     0.029 A 
ATOM     46  C   UNL A   1      40.953  32.614  34.555  1.00  0.00     0.049 A 
ATOM     47  H   UNL A   1      41.736  31.268  33.167  1.00  0.00     0.167 HD
ATOM     48  C   UNL A   1      42.785  28.005  30.429  1.00  0.00     0.034 A 
ATOM     49  C   UNL A   1      41.563  32.385  35.735  1.00  0.00     0.034 A 
ATOM     50  C   UNL A   1      43.602  27.789  31.593  1.00  0.00     0.049 A 
ATOM     51  C   UNL A   1      42.556  31.257  35.850  1.00  0.00     0.074 A 
ATOM     52  C   UNL A   1      44.592  26.842  31.784  1.00  0.00     0.029 A 
ATOM     53  N   UNL A   1      43.518  28.522  32.766  1.00  0.00    -0.354 N 
ATOM     54  N   UNL A   1      42.953  30.410  34.931  1.00  0.00    -0.248 NA
ATOM     55  C   UNL A   1      43.198  31.064  37.159  1.00  0.00     0.031 C 
ATOM     56  C   UNL A   1      45.093  26.988  33.082  1.00  0.00     0.029 A 
ATOM     57  C   UNL A   1      44.430  28.042  33.691  1.00  0.00     0.049 A 
ATOM     58  H   UNL A   1      42.901  29.274  32.920  1.00  0.00     0.167 HD
ATOM     59  C   UNL A   1      43.910  29.604  35.541  1.00  0.00     0.074 A 
ATOM     60  C   UNL A   1      44.049  30.079  36.903  1.00  0.00     0.031 C 
ATOM     61  C   UNL A   1      44.600  28.558  35.025  1.00  0.00     0.034 A 
BRANCH  48  62
ATOM     62  C   UNL A   1      42.950  27.070  29.262  1.00  0.00     0.023 A 
ATOM     63  C   UNL A   1      42.095  25.960  29.123  1.00  0.00     0.012 A 
ATOM     64  C   UNL A   1      43.922  27.324  28.274  1.00  0.00     0.148 A 
ATOM     65  C   UNL A   1      42.223  25.099  28.033  1.00  0.00     0.002 A 
ATOM     66  C   UNL A   1      44.016  26.487  27.169  1.00  0.00     0.091 A 
ATOM     67  F   UNL A   1      44.745  28.370  28.439  1.00  0.00    -0.205 F 
ATOM     68  C   UNL A   1      43.174  25.369  27.052  1.00  0.00     0.022 A 
BRANCH  66  69
ATOM     69  S   UNL A   1      45.155  26.801  25.816  1.00  0.00     0.127 S 
ATOM     70  O   UNL A   1      44.470  27.875  25.096  1.00  0.00    -0.237 OA
ATOM     71  O   UNL A   1      46.368  27.217  26.522  1.00  0.00    -0.237 OA
ATOM     72  O   UNL A   1      45.276  25.542  25.096  1.00  0.00    -0.744 OA
ENDBRANCH  66  69
ENDBRANCH  48  62
BRANCH  49  73
ATOM     73  C   UNL A   1      41.247  33.244  36.911  1.00  0.00     0.023 A 
ATOM     74  C   UNL A   1      41.900  34.481  37.064  1.00  0.00     0.012 A 
ATOM     75  C   UNL A   1      40.281  32.853  37.861  1.00  0.00     0.148 A 
ATOM     76  C   UNL A   1      41.613  35.304  38.154  1.00  0.00     0.002 A 
ATOM     77  C   UNL A   1      39.960  33.704  38.912  1.00  0.00     0.091 A 
ATOM     78  F   UNL A   1      39.687  31.660  37.710  1.00  0.00    -0.205 F 
ATOM     79  C   UNL A   1      40.636  34.923  39.069  1.00  0.00     0.022 A 
BRANCH  77  80
ATOM     80  S   UNL A   1      38.622  33.355  40.059  1.00  0.00     0.127 S 
ATOM     81  O   UNL A   1      39.043  32.078  40.629  1.00  0.00    -0.237 OA
ATOM     82  O   UNL A   1      38.704  34.495  40.973  1.00  0.00    -0.237 OA
ATOM     83  O   UNL A   1      37.411  33.320  39.251  1.00  0.00    -0.744 OA
ENDBRANCH  77  80
ENDBRANCH  49  73
BRANCH  61  84
ATOM     84  C   UNL A   1      45.600  27.867  35.917  1.00  0.00     0.023 A 
ATOM     85  C   UNL A   1      46.948  28.275  35.905  1.00  0.00     0.012 A 
ATOM     86  C   UNL A   1      45.187  26.870  36.824  1.00  0.00     0.148 A 
ATOM     87  C   UNL A   1      47.876  27.682  36.762  1.00  0.00     0.002 A 
ATOM     88  C   UNL A   1      46.108  26.317  37.707  1.00  0.00     0.091 A 
ATOM     89  F   UNL A   1      43.904  26.482  36.808  1.00  0.00    -0.205 F 
ATOM     90  C   UNL A   1      47.454  26.713  37.670  1.00  0.00     0.022 A 
BRANCH  88  91
ATOM     91  S   UNL A   1      45.633  25.131  38.972  1.00  0.00     0.127 S 
ATOM     92  O   UNL A   1      44.690  25.910  39.772  1.00  0.00    -0.237 OA
ATOM     93  O   UNL A   1      45.022  24.061  38.182  1.00  0.00    -0.237 OA
ATOM     94  O   UNL A   1      46.867  24.752  39.648  1.00  0.00    -0.744 OA
ENDBRANCH  88  91
ENDBRANCH  61  84
ENDBRANCH  35  36
ENDBRANCH  28  30
ENDBRANCH  27  28
ENDBRANCH  26  27
ENDBRANCH  25  26
ENDBRANCH  24  25
ENDBRANCH  23  24
ENDBRANCH   1  23
TORSDOF 25
ENDMDL
