MODEL 1
REMARK VINA RESULT:     -11.6      0.000      0.000
REMARK SMILES O=C(OCCOCCOCCOC(=O)c1ccccc1Nc1cccc(S(F)(F)(F)(F)F)c1)c1ccc(-c2c3nc(c(-c4cccc(S(=O)(=O)[O-])c4F)c4ccc([nH]4)c(-c4cccc(S(=O)(=O)[O-])c4F)c4nc(c(-c5cccc(S(=O)(=O)[O-])c5F)c5ccc2[nH]5)C=C4)C=C3)cc1
REMARK SMILES IDX 7 1 6 2 5 3 4 4 3 5 2 6 1 7 34 8 35 9 96 10 36 11 95 12
REMARK SMILES IDX 37 13 38 14 39 15 89 16 40 17 94 18 88 19 90 20 41 21 93 22
REMARK SMILES IDX 87 23 86 24 42 26 74 27 54 28 73 29 55 30 58 31 72 32 91 33
REMARK SMILES IDX 56 34 57 35 71 37 92 38 59 39 43 40 44 41 52 42 45 43 47 44
REMARK SMILES IDX 53 45 46 46 48 47 49 48 50 49 51 50 75 51 76 52 84 53 77 54
REMARK SMILES IDX 79 55 85 56 78 57 80 58 81 59 82 60 83 61 60 62 61 63 69 64
REMARK SMILES IDX 62 65 64 66 70 67 63 68 65 69 66 70 67 71 68 72 8 73 9 74
REMARK SMILES IDX 10 75 11 76 12 77 13 78 14 79 15 80 16 81 20 82 17 83 19 84
REMARK SMILES IDX 18 85 21 86 22 88 23 89 33 90 24 91 26 92 25 93 27 94 28 95
REMARK SMILES IDX 29 96 30 97 31 98 32 99
REMARK H PARENT 90 25 58 36 21 87
REMARK Flexibility Score: inf
ROOT
ATOM      1  C   UNL A   1      34.180  22.500  23.621  1.00  0.00     0.188 C 
ENDROOT
BRANCH   1   2
ATOM      2  O   UNL A   1      33.694  21.491  24.494  1.00  0.00    -0.376 OA
BRANCH   2   3
ATOM      3  C   UNL A   1      34.785  20.741  25.005  1.00  0.00     0.202 C 
BRANCH   3   4
ATOM      4  C   UNL A   1      36.080  21.499  24.760  1.00  0.00     0.261 C 
BRANCH   4   5
ATOM      5  O   UNL A   1      36.797  21.617  25.980  1.00  0.00    -0.460 OA
BRANCH   5   6
ATOM      6  C   UNL A   1      38.217  21.595  25.974  1.00  0.00     0.338 C 
ATOM      7  O   UNL A   1      38.835  20.580  25.522  1.00  0.00    -0.246 OA
BRANCH   6   8
ATOM      8  C   UNL A   1      38.999  22.785  26.507  1.00  0.00     0.060 A 
ATOM      9  C   UNL A   1      40.147  22.626  27.265  1.00  0.00     0.016 A 
ATOM     10  C   UNL A   1      38.590  23.987  26.119  1.00  0.00     0.016 A 
ATOM     11  C   UNL A   1      40.644  23.833  27.812  1.00  0.00     0.010 A 
ATOM     12  C   UNL A   1      39.209  25.121  26.587  1.00  0.00     0.010 A 
ATOM     13  C   UNL A   1      40.313  25.039  27.389  1.00  0.00    -0.014 A 
BRANCH  13  14
ATOM     14  C   UNL A   1      41.118  26.270  27.771  1.00  0.00     0.031 A 
ATOM     15  C   UNL A   1      40.427  27.225  28.520  1.00  0.00     0.074 A 
ATOM     16  C   UNL A   1      42.397  26.455  27.273  1.00  0.00     0.049 A 
ATOM     17  N   UNL A   1      40.862  28.425  28.908  1.00  0.00    -0.248 NA
ATOM     18  C   UNL A   1      39.056  27.046  29.021  1.00  0.00     0.031 C 
ATOM     19  C   UNL A   1      43.103  25.493  26.524  1.00  0.00     0.029 A 
ATOM     20  N   UNL A   1      43.202  27.564  27.401  1.00  0.00    -0.354 N 
ATOM     21  C   UNL A   1      39.924  29.045  29.627  1.00  0.00     0.074 A 
ATOM     22  C   UNL A   1      38.747  28.169  29.704  1.00  0.00     0.031 C 
ATOM     23  C   UNL A   1      44.312  26.020  26.195  1.00  0.00     0.029 A 
ATOM     24  C   UNL A   1      44.382  27.319  26.734  1.00  0.00     0.049 A 
ATOM     25  H   UNL A   1      42.974  28.390  27.886  1.00  0.00     0.167 HD
ATOM     26  C   UNL A   1      40.005  30.305  30.222  1.00  0.00     0.034 A 
ATOM     27  C   UNL A   1      45.468  28.167  26.591  1.00  0.00     0.034 A 
ATOM     28  C   UNL A   1      41.109  31.136  30.115  1.00  0.00     0.049 A 
ATOM     29  C   UNL A   1      45.526  29.452  27.137  1.00  0.00     0.074 A 
ATOM     30  C   UNL A   1      41.208  32.406  30.715  1.00  0.00     0.029 A 
ATOM     31  N   UNL A   1      42.279  30.901  29.428  1.00  0.00    -0.354 N 
ATOM     32  N   UNL A   1      44.604  30.055  27.889  1.00  0.00    -0.248 NA
ATOM     33  C   UNL A   1      46.658  30.371  26.965  1.00  0.00     0.031 C 
ATOM     34  C   UNL A   1      42.419  32.933  30.386  1.00  0.00     0.029 A 
ATOM     35  C   UNL A   1      43.093  32.001  29.574  1.00  0.00     0.049 A 
ATOM     36  H   UNL A   1      42.494  30.086  28.918  1.00  0.00     0.167 HD
ATOM     37  C   UNL A   1      45.023  31.271  28.242  1.00  0.00     0.074 A 
ATOM     38  C   UNL A   1      46.348  31.495  27.646  1.00  0.00     0.031 C 
ATOM     39  C   UNL A   1      44.356  32.202  29.040  1.00  0.00     0.034 A 
BRANCH  26  40
ATOM     40  C   UNL A   1      38.815  30.792  31.032  1.00  0.00     0.023 A 
ATOM     41  C   UNL A   1      38.599  30.315  32.315  1.00  0.00     0.012 A 
ATOM     42  C   UNL A   1      37.913  31.548  30.417  1.00  0.00     0.148 A 
ATOM     43  C   UNL A   1      37.263  30.452  32.759  1.00  0.00     0.002 A 
ATOM     44  C   UNL A   1      36.673  31.751  30.975  1.00  0.00     0.091 A 
ATOM     45  F   UNL A   1      38.211  32.114  29.251  1.00  0.00    -0.205 F 
ATOM     46  C   UNL A   1      36.370  31.258  32.213  1.00  0.00     0.022 A 
BRANCH  44  47
ATOM     47  S   UNL A   1      35.424  32.683  30.056  1.00  0.00     0.127 S 
ATOM     48  O   UNL A   1      35.996  34.044  29.653  1.00  0.00    -0.237 OA
ATOM     49  O   UNL A   1      35.027  31.904  28.800  1.00  0.00    -0.237 OA
ATOM     50  O   UNL A   1      34.046  32.915  31.042  1.00  0.00    -0.744 OA
ENDBRANCH  44  47
ENDBRANCH  26  40
BRANCH  27  51
ATOM     51  C   UNL A   1      46.665  27.673  25.794  1.00  0.00     0.023 A 
ATOM     52  C   UNL A   1      46.755  27.751  24.414  1.00  0.00     0.012 A 
ATOM     53  C   UNL A   1      47.697  27.279  26.531  1.00  0.00     0.148 A 
ATOM     54  C   UNL A   1      47.897  27.111  23.877  1.00  0.00     0.002 A 
ATOM     55  C   UNL A   1      48.834  26.789  25.936  1.00  0.00     0.091 A 
ATOM     56  F   UNL A   1      47.628  27.358  27.857  1.00  0.00    -0.205 F 
ATOM     57  C   UNL A   1      48.969  26.782  24.575  1.00  0.00     0.022 A 
BRANCH  55  58
ATOM     58  S   UNL A   1      50.175  26.147  26.968  1.00  0.00     0.127 S 
ATOM     59  O   UNL A   1      51.512  26.339  26.245  1.00  0.00    -0.237 OA
ATOM     60  O   UNL A   1      50.203  26.903  28.298  1.00  0.00    -0.237 OA
ATOM     61  O   UNL A   1      49.922  24.482  27.263  1.00  0.00    -0.744 OA
ENDBRANCH  55  58
ENDBRANCH  27  51
BRANCH  39  62
ATOM     62  C   UNL A   1      45.057  33.518  29.340  1.00  0.00     0.023 A 
ATOM     63  C   UNL A   1      45.950  33.668  30.389  1.00  0.00     0.012 A 
ATOM     64  C   UNL A   1      44.878  34.482  28.445  1.00  0.00     0.148 A 
ATOM     65  C   UNL A   1      46.398  34.996  30.574  1.00  0.00     0.002 A 
ATOM     66  C   UNL A   1      45.458  35.715  28.619  1.00  0.00     0.091 A 
ATOM     67  F   UNL A   1      44.131  34.252  27.369  1.00  0.00    -0.205 F 
ATOM     68  C   UNL A   1      46.304  35.952  29.667  1.00  0.00     0.022 A 
BRANCH  66  69
ATOM     69  S   UNL A   1      45.096  37.045  27.446  1.00  0.00     0.127 S 
ATOM     70  O   UNL A   1      45.787  36.751  26.113  1.00  0.00    -0.237 OA
ATOM     71  O   UNL A   1      43.584  37.136  27.229  1.00  0.00    -0.237 OA
ATOM     72  O   UNL A   1      45.672  38.529  28.071  1.00  0.00    -0.744 OA
ENDBRANCH  66  69
ENDBRANCH  39  62
ENDBRANCH  13  14
ENDBRANCH   6   8
ENDBRANCH   5   6
ENDBRANCH   4   5
ENDBRANCH   3   4
ENDBRANCH   2   3
ENDBRANCH   1   2
BRANCH   1  73
ATOM     73  C   UNL A   1      33.193  22.703  22.482  1.00  0.00     0.188 C 
BRANCH  73  74
ATOM     74  O   UNL A   1      33.614  23.797  21.680  1.00  0.00    -0.376 OA
BRANCH  74  75
ATOM     75  C   UNL A   1      32.854  24.949  22.014  1.00  0.00     0.202 C 
BRANCH  75  76
ATOM     76  C   UNL A   1      33.791  26.081  22.396  1.00  0.00     0.261 C 
BRANCH  76  77
ATOM     77  O   UNL A   1      34.264  25.879  23.720  1.00  0.00    -0.460 OA
BRANCH  77  78
ATOM     78  C   UNL A   1      33.406  26.126  24.825  1.00  0.00     0.340 C 
ATOM     79  O   UNL A   1      32.723  25.177  25.324  1.00  0.00    -0.246 OA
BRANCH  78  80
ATOM     80  C   UNL A   1      33.304  27.525  25.410  1.00  0.00     0.083 A 
ATOM     81  C   UNL A   1      34.098  27.771  26.518  1.00  0.00     0.018 A 
ATOM     82  C   UNL A   1      32.613  28.498  24.828  1.00  0.00     0.053 A 
ATOM     83  C   UNL A   1      33.871  29.033  27.117  1.00  0.00     0.001 A 
ATOM     84  C   UNL A   1      32.546  29.746  25.399  1.00  0.00     0.027 A 
ATOM     85  C   UNL A   1      33.258  30.043  26.527  1.00  0.00     0.002 A 
BRANCH  82  86
ATOM     86  N   UNL A   1      31.915  28.238  23.559  1.00  0.00    -0.355 N 
ATOM     87  H   UNL A   1      32.406  27.849  22.800  1.00  0.00     0.167 HD
BRANCH  86  88
ATOM     88  C   UNL A   1      30.487  28.557  23.428  1.00  0.00     0.040 A 
ATOM     89  C   UNL A   1      29.555  27.537  23.525  1.00  0.00     0.026 A 
ATOM     90  C   UNL A   1      30.112  29.817  23.239  1.00  0.00     0.050 A 
ATOM     91  C   UNL A   1      28.252  27.910  23.119  1.00  0.00     0.004 A 
ATOM     92  C   UNL A   1      28.798  30.124  22.981  1.00  0.00     0.109 A 
ATOM     93  C   UNL A   1      27.832  29.157  23.003  1.00  0.00     0.024 A 
BRANCH  92  94
ATOM     94  S   UNL A   1      28.339  31.835  22.607  1.00  0.00     0.310 S 
ATOM     95  F   UNL A   1      26.994  31.844  23.447  1.00  0.00    -0.094 F 
ATOM     96  F   UNL A   1      27.510  31.227  21.414  1.00  0.00    -0.094 F 
ATOM     97  F   UNL A   1      27.992  33.280  22.150  1.00  0.00    -0.094 F 
ATOM     98  F   UNL A   1      29.057  32.422  23.886  1.00  0.00    -0.094 F 
ATOM     99  F   UNL A   1      28.605  30.374  23.147  1.00  0.00    -0.094 F 
ENDBRANCH  92  94
ENDBRANCH  86  88
ENDBRANCH  82  86
ENDBRANCH  78  80
ENDBRANCH  77  78
ENDBRANCH  76  77
ENDBRANCH  75  76
ENDBRANCH  74  75
ENDBRANCH  73  74
ENDBRANCH   1  73
TORSDOF 23
ENDMDL
MODEL 2
REMARK VINA RESULT:     -11.6      6.116      9.159
REMARK SMILES O=C(OCCOCCOCCOC(=O)c1ccccc1Nc1cccc(S(F)(F)(F)(F)F)c1)c1ccc(-c2c3nc(c(-c4cccc(S(=O)(=O)[O-])c4F)c4ccc([nH]4)c(-c4cccc(S(=O)(=O)[O-])c4F)c4nc(c(-c5cccc(S(=O)(=O)[O-])c5F)c5ccc2[nH]5)C=C4)C=C3)cc1
REMARK SMILES IDX 7 1 6 2 5 3 4 4 3 5 2 6 1 7 34 8 35 9 96 10 36 11 95 12
REMARK SMILES IDX 37 13 38 14 39 15 89 16 40 17 94 18 88 19 90 20 41 21 93 22
REMARK SMILES IDX 87 23 86 24 42 26 74 27 54 28 73 29 55 30 58 31 72 32 91 33
REMARK SMILES IDX 56 34 57 35 71 37 92 38 59 39 43 40 44 41 52 42 45 43 47 44
REMARK SMILES IDX 53 45 46 46 48 47 49 48 50 49 51 50 75 51 76 52 84 53 77 54
REMARK SMILES IDX 79 55 85 56 78 57 80 58 81 59 82 60 83 61 60 62 61 63 69 64
REMARK SMILES IDX 62 65 64 66 70 67 63 68 65 69 66 70 67 71 68 72 8 73 9 74
REMARK SMILES IDX 10 75 11 76 12 77 13 78 14 79 15 80 16 81 20 82 17 83 19 84
REMARK SMILES IDX 18 85 21 86 22 88 23 89 33 90 24 91 26 92 25 93 27 94 28 95
REMARK SMILES IDX 29 96 30 97 31 98 32 99
REMARK H PARENT 90 25 58 36 21 87
REMARK Flexibility Score: inf
ROOT
ATOM      1  C   UNL A   1      32.232  29.333  26.778  1.00  0.00     0.188 C 
ENDROOT
BRANCH   1   2
ATOM      2  O   UNL A   1      31.882  30.617  27.274  1.00  0.00    -0.376 OA
BRANCH   2   3
ATOM      3  C   UNL A   1      31.506  31.456  26.192  1.00  0.00     0.202 C 
BRANCH   3   4
ATOM      4  C   UNL A   1      31.730  32.909  26.575  1.00  0.00     0.261 C 
BRANCH   4   5
ATOM      5  O   UNL A   1      32.535  32.972  27.743  1.00  0.00    -0.460 OA
BRANCH   5   6
ATOM      6  C   UNL A   1      33.813  33.592  27.692  1.00  0.00     0.338 C 
ATOM      7  O   UNL A   1      33.944  34.732  27.146  1.00  0.00    -0.246 OA
BRANCH   6   8
ATOM      8  C   UNL A   1      35.022  32.892  28.290  1.00  0.00     0.060 A 
ATOM      9  C   UNL A   1      36.230  33.545  28.472  1.00  0.00     0.016 A 
ATOM     10  C   UNL A   1      34.834  31.654  28.732  1.00  0.00     0.016 A 
ATOM     11  C   UNL A   1      37.285  32.695  28.883  1.00  0.00     0.010 A 
ATOM     12  C   UNL A   1      35.881  30.929  29.247  1.00  0.00     0.010 A 
ATOM     13  C   UNL A   1      37.118  31.492  29.401  1.00  0.00    -0.014 A 
BRANCH  13  14
ATOM     14  C   UNL A   1      38.241  30.771  30.129  1.00  0.00     0.031 A 
ATOM     15  C   UNL A   1      38.481  31.208  31.433  1.00  0.00     0.074 A 
ATOM     16  C   UNL A   1      39.032  29.852  29.462  1.00  0.00     0.049 A 
ATOM     17  N   UNL A   1      39.455  30.814  32.256  1.00  0.00    -0.248 NA
ATOM     18  C   UNL A   1      37.663  32.210  32.131  1.00  0.00     0.031 C 
ATOM     19  C   UNL A   1      38.790  29.400  28.150  1.00  0.00     0.029 A 
ATOM     20  N   UNL A   1      40.165  29.220  29.924  1.00  0.00    -0.354 N 
ATOM     21  C   UNL A   1      39.348  31.442  33.430  1.00  0.00     0.074 A 
ATOM     22  C   UNL A   1      38.198  32.354  33.363  1.00  0.00     0.031 C 
ATOM     23  C   UNL A   1      39.771  28.518  27.821  1.00  0.00     0.029 A 
ATOM     24  C   UNL A   1      40.641  28.402  28.922  1.00  0.00     0.049 A 
ATOM     25  H   UNL A   1      40.567  29.333  30.816  1.00  0.00     0.167 HD
ATOM     26  C   UNL A   1      40.164  31.288  34.551  1.00  0.00     0.034 A 
ATOM     27  C   UNL A   1      41.767  27.597  28.947  1.00  0.00     0.034 A 
ATOM     28  C   UNL A   1      41.266  30.449  34.591  1.00  0.00     0.049 A 
ATOM     29  C   UNL A   1      42.618  27.487  30.050  1.00  0.00     0.074 A 
ATOM     30  C   UNL A   1      42.095  30.278  35.717  1.00  0.00     0.029 A 
ATOM     31  N   UNL A   1      41.756  29.650  33.581  1.00  0.00    -0.354 N 
ATOM     32  N   UNL A   1      42.489  28.084  31.235  1.00  0.00    -0.248 NA
ATOM     33  C   UNL A   1      43.832  26.661  30.077  1.00  0.00     0.031 C 
ATOM     34  C   UNL A   1      43.075  29.394  35.387  1.00  0.00     0.029 A 
ATOM     35  C   UNL A   1      42.876  29.001  34.050  1.00  0.00     0.049 A 
ATOM     36  H   UNL A   1      41.371  29.560  32.680  1.00  0.00     0.167 HD
ATOM     37  C   UNL A   1      43.486  27.721  32.044  1.00  0.00     0.074 A 
ATOM     38  C   UNL A   1      44.368  26.806  31.308  1.00  0.00     0.031 C 
ATOM     39  C   UNL A   1      43.693  28.113  33.368  1.00  0.00     0.034 A 
BRANCH  26  40
ATOM     40  C   UNL A   1      39.825  32.087  35.799  1.00  0.00     0.023 A 
ATOM     41  C   UNL A   1      38.942  31.578  36.737  1.00  0.00     0.012 A 
ATOM     42  C   UNL A   1      40.264  33.338  35.874  1.00  0.00     0.148 A 
ATOM     43  C   UNL A   1      38.350  32.564  37.561  1.00  0.00     0.002 A 
ATOM     44  C   UNL A   1      39.737  34.210  36.795  1.00  0.00     0.091 A 
ATOM     45  F   UNL A   1      41.223  33.750  35.050  1.00  0.00    -0.205 F 
ATOM     46  C   UNL A   1      38.816  33.790  37.714  1.00  0.00     0.022 A 
BRANCH  44  47
ATOM     47  S   UNL A   1      40.268  35.940  36.791  1.00  0.00     0.127 S 
ATOM     48  O   UNL A   1      41.793  36.006  36.908  1.00  0.00    -0.237 OA
ATOM     49  O   UNL A   1      39.826  36.607  35.487  1.00  0.00    -0.237 OA
ATOM     50  O   UNL A   1      39.560  36.757  38.117  1.00  0.00    -0.744 OA
ENDBRANCH  44  47
ENDBRANCH  26  40
BRANCH  27  51
ATOM     51  C   UNL A   1      42.097  26.785  27.704  1.00  0.00     0.023 A 
ATOM     52  C   UNL A   1      42.837  27.274  26.641  1.00  0.00     0.012 A 
ATOM     53  C   UNL A   1      41.740  25.507  27.766  1.00  0.00     0.148 A 
ATOM     54  C   UNL A   1      42.907  26.392  25.537  1.00  0.00     0.002 A 
ATOM     55  C   UNL A   1      41.962  24.668  26.701  1.00  0.00     0.091 A 
ATOM     56  F   UNL A   1      41.163  25.036  28.868  1.00  0.00    -0.205 F 
ATOM     57  C   UNL A   1      42.635  25.100  25.592  1.00  0.00     0.022 A 
BRANCH  55  58
ATOM     58  S   UNL A   1      41.355  22.964  26.768  1.00  0.00     0.127 S 
ATOM     59  O   UNL A   1      41.751  22.231  25.483  1.00  0.00    -0.237 OA
ATOM     60  O   UNL A   1      41.972  22.249  27.973  1.00  0.00    -0.237 OA
ATOM     61  O   UNL A   1      39.652  22.969  26.918  1.00  0.00    -0.744 OA
ENDBRANCH  55  58
ENDBRANCH  27  51
BRANCH  39  62
ATOM     62  C   UNL A   1      44.888  27.531  34.106  1.00  0.00     0.023 A 
ATOM     63  C   UNL A   1      46.140  28.124  34.088  1.00  0.00     0.012 A 
ATOM     64  C   UNL A   1      44.627  26.496  34.896  1.00  0.00     0.148 A 
ATOM     65  C   UNL A   1      47.143  27.364  34.734  1.00  0.00     0.002 A 
ATOM     66  C   UNL A   1      45.634  25.885  35.604  1.00  0.00     0.091 A 
ATOM     67  F   UNL A   1      43.380  26.047  35.002  1.00  0.00    -0.205 F 
ATOM     68  C   UNL A   1      46.908  26.382  35.586  1.00  0.00     0.022 A 
BRANCH  66  69
ATOM     69  S   UNL A   1      45.268  24.402  36.575  1.00  0.00     0.127 S 
ATOM     70  O   UNL A   1      46.537  23.936  37.291  1.00  0.00    -0.237 OA
ATOM     71  O   UNL A   1      44.187  24.723  37.610  1.00  0.00    -0.237 OA
ATOM     72  O   UNL A   1      44.712  23.164  35.536  1.00  0.00    -0.744 OA
ENDBRANCH  66  69
ENDBRANCH  39  62
ENDBRANCH  13  14
ENDBRANCH   6   8
ENDBRANCH   5   6
ENDBRANCH   4   5
ENDBRANCH   3   4
ENDBRANCH   2   3
ENDBRANCH   1   2
BRANCH   1  73
ATOM     73  C   UNL A   1      31.454  28.268  27.534  1.00  0.00     0.188 C 
BRANCH  73  74
ATOM     74  O   UNL A   1      31.697  26.999  26.948  1.00  0.00    -0.376 OA
BRANCH  74  75
ATOM     75  C   UNL A   1      30.846  26.826  25.824  1.00  0.00     0.202 C 
BRANCH  75  76
ATOM     76  C   UNL A   1      29.947  25.622  26.048  1.00  0.00     0.261 C 
BRANCH  76  77
ATOM     77  O   UNL A   1      30.596  24.451  25.572  1.00  0.00    -0.460 OA
BRANCH  77  78
ATOM     78  C   UNL A   1      31.590  23.820  26.365  1.00  0.00     0.340 C 
ATOM     79  O   UNL A   1      31.322  23.460  27.554  1.00  0.00    -0.246 OA
BRANCH  78  80
ATOM     80  C   UNL A   1      32.977  23.575  25.792  1.00  0.00     0.083 A 
ATOM     81  C   UNL A   1      33.881  24.612  25.945  1.00  0.00     0.018 A 
ATOM     82  C   UNL A   1      33.352  22.400  25.299  1.00  0.00     0.053 A 
ATOM     83  C   UNL A   1      35.111  24.404  25.278  1.00  0.00     0.001 A 
ATOM     84  C   UNL A   1      34.615  22.229  24.787  1.00  0.00     0.027 A 
ATOM     85  C   UNL A   1      35.543  23.231  24.851  1.00  0.00     0.002 A 
BRANCH  82  86
ATOM     86  N   UNL A   1      32.409  21.272  25.305  1.00  0.00    -0.355 N 
ATOM     87  H   UNL A   1      31.634  21.283  25.912  1.00  0.00     0.167 HD
BRANCH  86  88
ATOM     88  C   UNL A   1      32.623  20.131  24.405  1.00  0.00     0.040 A 
ATOM     89  C   UNL A   1      32.170  20.206  23.098  1.00  0.00     0.026 A 
ATOM     90  C   UNL A   1      33.264  19.056  24.850  1.00  0.00     0.050 A 
ATOM     91  C   UNL A   1      32.187  18.970  22.412  1.00  0.00     0.004 A 
ATOM     92  C   UNL A   1      33.360  17.927  24.073  1.00  0.00     0.109 A 
ATOM     93  C   UNL A   1      32.882  17.912  22.792  1.00  0.00     0.024 A 
BRANCH  92  94
ATOM     94  S   UNL A   1      34.132  16.439  24.755  1.00  0.00     0.310 S 
ATOM     95  F   UNL A   1      32.916  15.462  24.467  1.00  0.00    -0.094 F 
ATOM     96  F   UNL A   1      33.413  16.826  26.102  1.00  0.00    -0.094 F 
ATOM     97  F   UNL A   1      34.848  15.245  25.448  1.00  0.00    -0.094 F 
ATOM     98  F   UNL A   1      34.734  15.982  23.368  1.00  0.00    -0.094 F 
ATOM     99  F   UNL A   1      33.325  17.578  24.014  1.00  0.00    -0.094 F 
ENDBRANCH  92  94
ENDBRANCH  86  88
ENDBRANCH  82  86
ENDBRANCH  78  80
ENDBRANCH  77  78
ENDBRANCH  76  77
ENDBRANCH  75  76
ENDBRANCH  74  75
ENDBRANCH  73  74
ENDBRANCH   1  73
TORSDOF 23
ENDMDL
MODEL 3
REMARK VINA RESULT:     -11.6      4.239      8.951
REMARK SMILES O=C(OCCOCCOCCOC(=O)c1ccccc1Nc1cccc(S(F)(F)(F)(F)F)c1)c1ccc(-c2c3nc(c(-c4cccc(S(=O)(=O)[O-])c4F)c4ccc([nH]4)c(-c4cccc(S(=O)(=O)[O-])c4F)c4nc(c(-c5cccc(S(=O)(=O)[O-])c5F)c5ccc2[nH]5)C=C4)C=C3)cc1
REMARK SMILES IDX 7 1 6 2 5 3 4 4 3 5 2 6 1 7 34 8 35 9 96 10 36 11 95 12
REMARK SMILES IDX 37 13 38 14 39 15 89 16 40 17 94 18 88 19 90 20 41 21 93 22
REMARK SMILES IDX 87 23 86 24 42 26 74 27 54 28 73 29 55 30 58 31 72 32 91 33
REMARK SMILES IDX 56 34 57 35 71 37 92 38 59 39 43 40 44 41 52 42 45 43 47 44
REMARK SMILES IDX 53 45 46 46 48 47 49 48 50 49 51 50 75 51 76 52 84 53 77 54
REMARK SMILES IDX 79 55 85 56 78 57 80 58 81 59 82 60 83 61 60 62 61 63 69 64
REMARK SMILES IDX 62 65 64 66 70 67 63 68 65 69 66 70 67 71 68 72 8 73 9 74
REMARK SMILES IDX 10 75 11 76 12 77 13 78 14 79 15 80 16 81 20 82 17 83 19 84
REMARK SMILES IDX 18 85 21 86 22 88 23 89 33 90 24 91 26 92 25 93 27 94 28 95
REMARK SMILES IDX 29 96 30 97 31 98 32 99
REMARK H PARENT 90 25 58 36 21 87
REMARK Flexibility Score: inf
ROOT
ATOM      1  C   UNL A   1      35.565  21.061  25.042  1.00  0.00     0.188 C 
ENDROOT
BRANCH   1   2
ATOM      2  O   UNL A   1      36.429  19.936  24.965  1.00  0.00    -0.376 OA
BRANCH   2   3
ATOM      3  C   UNL A   1      37.778  20.378  24.934  1.00  0.00     0.202 C 
BRANCH   3   4
ATOM      4  C   UNL A   1      38.702  19.204  25.214  1.00  0.00     0.261 C 
BRANCH   4   5
ATOM      5  O   UNL A   1      39.387  19.422  26.438  1.00  0.00    -0.460 OA
BRANCH   5   6
ATOM      6  C   UNL A   1      40.749  19.828  26.428  1.00  0.00     0.338 C 
ATOM      7  O   UNL A   1      41.657  18.997  26.111  1.00  0.00    -0.246 OA
BRANCH   6   8
ATOM      8  C   UNL A   1      41.119  21.255  26.796  1.00  0.00     0.060 A 
ATOM      9  C   UNL A   1      41.990  21.541  27.835  1.00  0.00     0.016 A 
ATOM     10  C   UNL A   1      40.654  22.214  26.004  1.00  0.00     0.016 A 
ATOM     11  C   UNL A   1      42.087  22.920  28.139  1.00  0.00     0.010 A 
ATOM     12  C   UNL A   1      40.901  23.536  26.286  1.00  0.00     0.010 A 
ATOM     13  C   UNL A   1      41.705  23.893  27.333  1.00  0.00    -0.014 A 
BRANCH  13  14
ATOM     14  C   UNL A   1      42.136  25.333  27.556  1.00  0.00     0.031 A 
ATOM     15  C   UNL A   1      43.450  25.625  27.187  1.00  0.00     0.074 A 
ATOM     16  C   UNL A   1      41.299  26.222  28.209  1.00  0.00     0.049 A 
ATOM     17  N   UNL A   1      44.106  26.775  27.356  1.00  0.00    -0.248 NA
ATOM     18  C   UNL A   1      44.352  24.672  26.525  1.00  0.00     0.031 C 
ATOM     19  C   UNL A   1      39.970  25.937  28.577  1.00  0.00     0.029 A 
ATOM     20  N   UNL A   1      41.583  27.507  28.615  1.00  0.00    -0.354 N 
ATOM     21  C   UNL A   1      45.340  26.679  26.856  1.00  0.00     0.074 A 
ATOM     22  C   UNL A   1      45.518  25.323  26.321  1.00  0.00     0.031 C 
ATOM     23  C   UNL A   1      39.463  27.030  29.206  1.00  0.00     0.029 A 
ATOM     24  C   UNL A   1      40.467  28.017  29.240  1.00  0.00     0.049 A 
ATOM     25  H   UNL A   1      42.436  27.980  28.481  1.00  0.00     0.167 HD
ATOM     26  C   UNL A   1      46.322  27.670  26.826  1.00  0.00     0.034 A 
ATOM     27  C   UNL A   1      40.314  29.268  29.817  1.00  0.00     0.034 A 
ATOM     28  C   UNL A   1      46.154  28.936  27.364  1.00  0.00     0.049 A 
ATOM     29  C   UNL A   1      41.317  30.240  29.838  1.00  0.00     0.074 A 
ATOM     30  C   UNL A   1      47.133  29.949  27.335  1.00  0.00     0.029 A 
ATOM     31  N   UNL A   1      45.047  29.438  28.011  1.00  0.00    -0.354 N 
ATOM     32  N   UNL A   1      42.536  30.157  29.304  1.00  0.00    -0.248 NA
ATOM     33  C   UNL A   1      41.177  31.556  30.474  1.00  0.00     0.031 C 
ATOM     34  C   UNL A   1      46.625  31.043  27.964  1.00  0.00     0.029 A 
ATOM     35  C   UNL A   1      45.322  30.730  28.397  1.00  0.00     0.049 A 
ATOM     36  H   UNL A   1      44.204  28.955  28.171  1.00  0.00     0.167 HD
ATOM     37  C   UNL A   1      43.206  31.293  29.510  1.00  0.00     0.074 A 
ATOM     38  C   UNL A   1      42.344  32.206  30.272  1.00  0.00     0.031 C 
ATOM     39  C   UNL A   1      44.500  31.606  29.089  1.00  0.00     0.034 A 
BRANCH  26  40
ATOM     40  C   UNL A   1      47.651  27.342  26.166  1.00  0.00     0.023 A 
ATOM     41  C   UNL A   1      48.797  27.201  26.931  1.00  0.00     0.012 A 
ATOM     42  C   UNL A   1      47.707  27.363  24.839  1.00  0.00     0.148 A 
ATOM     43  C   UNL A   1      49.998  27.380  26.204  1.00  0.00     0.002 A 
ATOM     44  C   UNL A   1      48.919  27.400  24.191  1.00  0.00     0.091 A 
ATOM     45  F   UNL A   1      46.582  27.347  24.132  1.00  0.00    -0.205 F 
ATOM     46  C   UNL A   1      50.092  27.325  24.888  1.00  0.00     0.022 A 
BRANCH  44  47
ATOM     47  S   UNL A   1      48.961  27.552  22.388  1.00  0.00     0.127 S 
ATOM     48  O   UNL A   1      50.351  28.016  21.947  1.00  0.00    -0.237 OA
ATOM     49  O   UNL A   1      48.651  26.194  21.754  1.00  0.00    -0.237 OA
ATOM     50  O   UNL A   1      47.794  28.696  21.885  1.00  0.00    -0.744 OA
ENDBRANCH  44  47
ENDBRANCH  26  40
BRANCH  27  51
ATOM     51  C   UNL A   1      38.979  29.602  30.463  1.00  0.00     0.023 A 
ATOM     52  C   UNL A   1      38.663  29.299  31.777  1.00  0.00     0.012 A 
ATOM     53  C   UNL A   1      38.169  30.340  29.712  1.00  0.00     0.148 A 
ATOM     54  C   UNL A   1      37.321  29.582  32.124  1.00  0.00     0.002 A 
ATOM     55  C   UNL A   1      36.923  30.695  30.169  1.00  0.00     0.091 A 
ATOM     56  F   UNL A   1      38.568  30.739  28.508  1.00  0.00    -0.205 F 
ATOM     57  C   UNL A   1      36.521  30.378  31.437  1.00  0.00     0.022 A 
BRANCH  55  58
ATOM     58  S   UNL A   1      35.796  31.597  29.077  1.00  0.00     0.127 S 
ATOM     59  O   UNL A   1      34.634  32.163  29.898  1.00  0.00    -0.237 OA
ATOM     60  O   UNL A   1      36.550  32.746  28.402  1.00  0.00    -0.237 OA
ATOM     61  O   UNL A   1      35.187  30.536  27.883  1.00  0.00    -0.744 OA
ENDBRANCH  55  58
ENDBRANCH  27  51
BRANCH  39  62
ATOM     62  C   UNL A   1      45.040  32.990  29.410  1.00  0.00     0.023 A 
ATOM     63  C   UNL A   1      45.717  33.276  30.584  1.00  0.00     0.012 A 
ATOM     64  C   UNL A   1      44.955  33.882  28.430  1.00  0.00     0.148 A 
ATOM     65  C   UNL A   1      46.029  34.646  30.747  1.00  0.00     0.002 A 
ATOM     66  C   UNL A   1      45.404  35.167  28.612  1.00  0.00     0.091 A 
ATOM     67  F   UNL A   1      44.430  33.527  27.260  1.00  0.00    -0.205 F 
ATOM     68  C   UNL A   1      46.030  35.535  29.771  1.00  0.00     0.022 A 
BRANCH  66  69
ATOM     69  S   UNL A   1      45.163  36.391  27.301  1.00  0.00     0.127 S 
ATOM     70  O   UNL A   1      43.673  36.495  26.969  1.00  0.00    -0.237 OA
ATOM     71  O   UNL A   1      45.677  37.753  27.772  1.00  0.00    -0.237 OA
ATOM     72  O   UNL A   1      46.025  35.908  25.905  1.00  0.00    -0.744 OA
ENDBRANCH  66  69
ENDBRANCH  39  62
ENDBRANCH  13  14
ENDBRANCH   6   8
ENDBRANCH   5   6
ENDBRANCH   4   5
ENDBRANCH   3   4
ENDBRANCH   2   3
ENDBRANCH   1   2
BRANCH   1  73
ATOM     73  C   UNL A   1      36.264  22.187  25.787  1.00  0.00     0.188 C 
BRANCH  73  74
ATOM     74  O   UNL A   1      35.364  22.765  26.721  1.00  0.00    -0.376 OA
BRANCH  74  75
ATOM     75  C   UNL A   1      34.422  21.788  27.138  1.00  0.00     0.202 C 
BRANCH  75  76
ATOM     76  C   UNL A   1      33.382  22.438  28.035  1.00  0.00     0.261 C 
BRANCH  76  77
ATOM     77  O   UNL A   1      32.174  22.615  27.308  1.00  0.00    -0.460 OA
BRANCH  77  78
ATOM     78  C   UNL A   1      31.966  23.802  26.558  1.00  0.00     0.340 C 
ATOM     79  O   UNL A   1      31.207  24.715  27.010  1.00  0.00    -0.246 OA
BRANCH  78  80
ATOM     80  C   UNL A   1      32.650  23.981  25.212  1.00  0.00     0.083 A 
ATOM     81  C   UNL A   1      33.489  25.078  25.107  1.00  0.00     0.018 A 
ATOM     82  C   UNL A   1      32.570  23.079  24.241  1.00  0.00     0.053 A 
ATOM     83  C   UNL A   1      33.995  25.291  23.803  1.00  0.00     0.001 A 
ATOM     84  C   UNL A   1      33.202  23.289  23.039  1.00  0.00     0.027 A 
ATOM     85  C   UNL A   1      34.000  24.382  22.844  1.00  0.00     0.002 A 
BRANCH  82  86
ATOM     86  N   UNL A   1      31.800  21.845  24.454  1.00  0.00    -0.355 N 
ATOM     87  H   UNL A   1      31.026  21.847  25.062  1.00  0.00     0.167 HD
BRANCH  86  88
ATOM     88  C   UNL A   1      32.185  20.609  23.758  1.00  0.00     0.040 A 
ATOM     89  C   UNL A   1      31.988  20.515  22.390  1.00  0.00     0.026 A 
ATOM     90  C   UNL A   1      32.734  19.614  24.445  1.00  0.00     0.050 A 
ATOM     91  C   UNL A   1      32.139  19.205  21.878  1.00  0.00     0.004 A 
ATOM     92  C   UNL A   1      32.979  18.403  23.845  1.00  0.00     0.109 A 
ATOM     93  C   UNL A   1      32.753  18.220  22.509  1.00  0.00     0.024 A 
BRANCH  92  94
ATOM     94  S   UNL A   1      33.614  17.029  24.838  1.00  0.00     0.310 S 
ATOM     95  F   UNL A   1      33.483  15.921  23.710  1.00  0.00    -0.094 F 
ATOM     96  F   UNL A   1      32.106  16.746  25.194  1.00  0.00    -0.094 F 
ATOM     97  F   UNL A   1      34.082  15.903  25.803  1.00  0.00    -0.094 F 
ATOM     98  F   UNL A   1      35.107  17.232  24.365  1.00  0.00    -0.094 F 
ATOM     99  F   UNL A   1      33.145  18.096  23.771  1.00  0.00    -0.094 F 
ENDBRANCH  92  94
ENDBRANCH  86  88
ENDBRANCH  82  86
ENDBRANCH  78  80
ENDBRANCH  77  78
ENDBRANCH  76  77
ENDBRANCH  75  76
ENDBRANCH  74  75
ENDBRANCH  73  74
ENDBRANCH   1  73
TORSDOF 23
ENDMDL
