MODEL 1
REMARK VINA RESULT:      -8.1      0.000      0.000
REMARK SMILES NS(=O)(=O)c1ccc(-n2nc(NC(=O)NCCCCCCCCCCC(=O)OCCOCCOCCOC(=O)c3ccc(-c4c5nc(c(-c6cccc(S(=O)(=O)[O-])c6F)c6ccc([nH]6)c(-c6cccc(S(=O)(=O)[O-])c6F)c6nc(c(-c7cccc(S(=O)(=O)[O-])c7F)c7ccc4[nH]7)C=C6)C=C5)cc3)cc2-c2ccccc2)cc1
REMARK SMILES IDX 26 1 27 2 25 3 24 4 23 5 22 6 21 7 20 8 19 9 18 10 17 11
REMARK SMILES IDX 16 12 15 13 12 14 13 15 14 17 11 19 9 20 10 21 104 22 103 23
REMARK SMILES IDX 8 24 5 25 6 26 112 27 7 28 111 29 2 30 3 31 4 32 1 33 105 36
REMARK SMILES IDX 106 37 110 38 107 39 109 40 108 41 28 42 29 43 30 44 31 45
REMARK SMILES IDX 32 46 33 47 34 48 35 49 36 50 37 51 38 52 39 53 40 54 41 55
REMARK SMILES IDX 102 56 42 57 101 58 43 59 44 60 45 61 95 62 46 63 100 64
REMARK SMILES IDX 94 65 96 66 47 67 99 68 93 69 92 70 48 72 80 73 60 74 79 75
REMARK SMILES IDX 61 76 64 77 78 78 97 79 62 80 63 81 77 83 98 84 65 85 49 86
REMARK SMILES IDX 50 87 58 88 51 89 53 90 59 91 52 92 54 93 55 94 56 95 57 96
REMARK SMILES IDX 81 97 82 98 90 99 83 100 85 101 91 102 84 103 86 104 87 105
REMARK SMILES IDX 88 106 89 107 66 108 67 109 75 110 68 111 70 112 76 113
REMARK SMILES IDX 69 114 71 115 72 116 73 117 74 118
REMARK H PARENT 12 16 15 18 1 34 1 35 96 71 64 82
REMARK Flexibility Score: inf
ROOT
ATOM      1  C   UNL A   1      32.355  32.712  27.241  1.00  0.00     0.305 C 
ATOM      2  O   UNL A   1      31.143  32.552  27.148  1.00  0.00    -0.252 OA
ENDROOT
BRANCH   1   3
ATOM      3  C   UNL A   1      33.348  31.627  26.817  1.00  0.00     0.123 C 
BRANCH   3   4
ATOM      4  C   UNL A   1      33.485  30.337  27.631  1.00  0.00     0.012 C 
BRANCH   4   5
ATOM      5  C   UNL A   1      32.618  29.179  27.157  1.00  0.00     0.001 C 
BRANCH   5   6
ATOM      6  C   UNL A   1      32.074  29.471  25.768  1.00  0.00     0.000 C 
BRANCH   6   7
ATOM      7  C   UNL A   1      32.068  28.201  24.926  1.00  0.00     0.000 C 
BRANCH   7   8
ATOM      8  C   UNL A   1      30.689  27.541  24.937  1.00  0.00     0.000 C 
BRANCH   8   9
ATOM      9  C   UNL A   1      30.559  26.457  26.015  1.00  0.00     0.000 C 
BRANCH   9  10
ATOM     10  C   UNL A   1      31.376  25.202  25.679  1.00  0.00     0.002 C 
BRANCH  10  11
ATOM     11  C   UNL A   1      30.557  24.129  24.985  1.00  0.00     0.021 C 
BRANCH  11  12
ATOM     12  C   UNL A   1      30.979  23.879  23.561  1.00  0.00     0.117 C 
BRANCH  12  13
ATOM     13  N   UNL A   1      30.659  24.900  22.605  1.00  0.00    -0.338 N 
ATOM     14  N   UNL A   1      32.856  25.730  22.212  1.00  0.00    -0.291 N 
ATOM     15  C   UNL A   1      31.513  25.772  22.025  1.00  0.00     0.320 C 
ATOM     16  H   UNL A   1      33.317  26.563  21.960  1.00  0.00     0.173 HD
ATOM     17  O   UNL A   1      31.032  26.719  21.393  1.00  0.00    -0.248 OA
ATOM     18  H   UNL A   1      29.713  24.974  22.343  1.00  0.00     0.165 HD
BRANCH  14  19
ATOM     19  C   UNL A   1      33.703  24.745  22.687  1.00  0.00     0.157 A 
ATOM     20  N   UNL A   1      34.286  22.849  23.428  1.00  0.00    -0.231 N 
ATOM     21  N   UNL A   1      33.669  23.441  22.378  1.00  0.00    -0.149 NA
ATOM     22  C   UNL A   1      35.186  23.737  24.002  1.00  0.00     0.076 A 
ATOM     23  C   UNL A   1      34.764  24.988  23.591  1.00  0.00     0.078 A 
BRANCH  20  24
ATOM     24  C   UNL A   1      33.981  21.509  23.835  1.00  0.00     0.065 A 
ATOM     25  C   UNL A   1      33.402  18.846  24.523  1.00  0.00     0.082 A 
ATOM     26  C   UNL A   1      34.679  19.354  24.761  1.00  0.00     0.024 A 
ATOM     27  C   UNL A   1      32.414  19.666  23.963  1.00  0.00     0.024 A 
ATOM     28  C   UNL A   1      34.969  20.682  24.412  1.00  0.00     0.030 A 
ATOM     29  C   UNL A   1      32.693  21.004  23.646  1.00  0.00     0.030 A 
BRANCH  25  30
ATOM     30  S   UNL A   1      33.002  17.146  24.824  1.00  0.00     0.238 S 
ATOM     31  O   UNL A   1      33.473  16.362  23.709  1.00  0.00    -0.207 OA
ATOM     32  O   UNL A   1      31.650  17.076  25.323  1.00  0.00    -0.207 OA
BRANCH  30  33
ATOM     33  N   UNL A   1      33.992  16.687  26.109  1.00  0.00    -0.225 NA
ATOM     34  H   UNL A   1      34.604  15.928  25.812  1.00  0.00     0.137 HD
ATOM     35  H   UNL A   1      33.413  16.372  26.888  1.00  0.00     0.137 HD
ENDBRANCH  30  33
ENDBRANCH  25  30
ENDBRANCH  20  24
BRANCH  22  36
ATOM     36  C   UNL A   1      36.335  23.289  24.769  1.00  0.00     0.000 A 
ATOM     37  C   UNL A   1      37.104  22.235  24.248  1.00  0.00     0.010 A 
ATOM     38  C   UNL A   1      36.651  23.826  26.015  1.00  0.00     0.010 A 
ATOM     39  C   UNL A   1      38.146  21.686  24.981  1.00  0.00     0.001 A 
ATOM     40  C   UNL A   1      37.709  23.280  26.746  1.00  0.00     0.001 A 
ATOM     41  C   UNL A   1      38.446  22.209  26.233  1.00  0.00     0.000 A 
ENDBRANCH  22  36
ENDBRANCH  14  19
ENDBRANCH  12  13
ENDBRANCH  11  12
ENDBRANCH  10  11
ENDBRANCH   9  10
ENDBRANCH   8   9
ENDBRANCH   7   8
ENDBRANCH   6   7
ENDBRANCH   5   6
ENDBRANCH   4   5
ENDBRANCH   3   4
ENDBRANCH   1   3
BRANCH   1  42
ATOM     42  O   UNL A   1      32.943  33.877  27.604  1.00  0.00    -0.463 OA
BRANCH  42  43
ATOM     43  C   UNL A   1      33.293  34.079  28.983  1.00  0.00     0.261 C 
BRANCH  43  44
ATOM     44  C   UNL A   1      34.721  34.614  29.191  1.00  0.00     0.202 C 
BRANCH  44  45
ATOM     45  O   UNL A   1      35.742  34.175  28.307  1.00  0.00    -0.376 OA
BRANCH  45  46
ATOM     46  C   UNL A   1      36.474  33.010  28.660  1.00  0.00     0.188 C 
BRANCH  46  47
ATOM     47  C   UNL A   1      37.775  33.212  29.425  1.00  0.00     0.188 C 
BRANCH  47  48
ATOM     48  O   UNL A   1      38.529  34.396  29.258  1.00  0.00    -0.376 OA
BRANCH  48  49
ATOM     49  C   UNL A   1      39.784  34.596  29.908  1.00  0.00     0.202 C 
BRANCH  49  50
ATOM     50  C   UNL A   1      41.143  34.797  29.219  1.00  0.00     0.261 C 
BRANCH  50  51
ATOM     51  O   UNL A   1      42.312  34.355  29.863  1.00  0.00    -0.460 OA
BRANCH  51  52
ATOM     52  C   UNL A   1      43.400  35.177  29.834  1.00  0.00     0.338 C 
ATOM     53  O   UNL A   1      43.469  36.322  30.158  1.00  0.00    -0.246 OA
BRANCH  52  54
ATOM     54  C   UNL A   1      44.511  34.334  29.354  1.00  0.00     0.060 A 
ATOM     55  C   UNL A   1      44.547  33.892  28.036  1.00  0.00     0.016 A 
ATOM     56  C   UNL A   1      45.413  33.831  30.271  1.00  0.00     0.016 A 
ATOM     57  C   UNL A   1      45.003  32.598  27.830  1.00  0.00     0.010 A 
ATOM     58  C   UNL A   1      46.027  32.670  29.939  1.00  0.00     0.010 A 
ATOM     59  C   UNL A   1      45.506  31.891  28.924  1.00  0.00    -0.014 A 
BRANCH  59  60
ATOM     60  C   UNL A   1      45.952  30.497  28.878  1.00  0.00     0.031 A 
ATOM     61  C   UNL A   1      44.708  29.673  28.688  1.00  0.00     0.074 A 
ATOM     62  C   UNL A   1      47.269  30.100  28.894  1.00  0.00     0.049 A 
ATOM     63  N   UNL A   1      44.009  29.160  29.654  1.00  0.00    -0.248 NA
ATOM     64  C   UNL A   1      43.910  29.767  27.437  1.00  0.00     0.031 C 
ATOM     65  C   UNL A   1      48.526  30.883  28.965  1.00  0.00     0.029 A 
ATOM     66  N   UNL A   1      47.794  28.823  28.820  1.00  0.00    -0.354 N 
ATOM     67  C   UNL A   1      42.951  28.515  29.017  1.00  0.00     0.074 A 
ATOM     68  C   UNL A   1      42.744  29.229  27.803  1.00  0.00     0.031 C 
ATOM     69  C   UNL A   1      49.603  30.106  28.647  1.00  0.00     0.029 A 
ATOM     70  C   UNL A   1      49.176  28.731  28.487  1.00  0.00     0.049 A 
ATOM     71  H   UNL A   1      47.245  28.023  28.988  1.00  0.00     0.167 HD
ATOM     72  C   UNL A   1      42.712  27.202  29.294  1.00  0.00     0.034 A 
ATOM     73  C   UNL A   1      49.885  27.592  28.157  1.00  0.00     0.034 A 
ATOM     74  C   UNL A   1      43.371  26.867  30.536  1.00  0.00     0.049 A 
ATOM     75  C   UNL A   1      49.099  26.446  28.680  1.00  0.00     0.074 A 
ATOM     76  C   UNL A   1      43.309  27.332  31.833  1.00  0.00     0.029 A 
ATOM     77  N   UNL A   1      44.613  26.314  30.368  1.00  0.00    -0.354 N 
ATOM     78  N   UNL A   1      48.929  26.272  29.962  1.00  0.00    -0.248 NA
ATOM     79  C   UNL A   1      48.047  25.958  27.801  1.00  0.00     0.031 C 
ATOM     80  C   UNL A   1      44.667  27.398  32.268  1.00  0.00     0.029 A 
ATOM     81  C   UNL A   1      45.477  26.799  31.304  1.00  0.00     0.049 A 
ATOM     82  H   UNL A   1      44.848  25.659  29.671  1.00  0.00     0.167 HD
ATOM     83  C   UNL A   1      47.553  26.168  30.081  1.00  0.00     0.074 A 
ATOM     84  C   UNL A   1      47.061  25.983  28.704  1.00  0.00     0.031 C 
ATOM     85  C   UNL A   1      46.906  26.628  31.192  1.00  0.00     0.034 A 
BRANCH  72  86
ATOM     86  C   UNL A   1      42.406  26.120  28.256  1.00  0.00     0.023 A 
ATOM     87  C   UNL A   1      41.236  25.360  28.492  1.00  0.00     0.012 A 
ATOM     88  C   UNL A   1      43.286  25.619  27.261  1.00  0.00     0.148 A 
ATOM     89  C   UNL A   1      40.984  24.153  27.830  1.00  0.00     0.002 A 
ATOM     90  C   UNL A   1      43.009  24.440  26.568  1.00  0.00     0.091 A 
ATOM     91  F   UNL A   1      44.452  26.216  27.021  1.00  0.00    -0.205 F 
ATOM     92  C   UNL A   1      41.871  23.692  26.868  1.00  0.00     0.022 A 
BRANCH  90  93
ATOM     93  S   UNL A   1      44.102  23.785  25.292  1.00  0.00     0.127 S 
ATOM     94  O   UNL A   1      43.221  22.847  24.600  1.00  0.00    -0.237 OA
ATOM     95  O   UNL A   1      44.428  24.996  24.539  1.00  0.00    -0.237 OA
ATOM     96  O   UNL A   1      45.230  23.188  25.994  1.00  0.00    -0.744 OA
ENDBRANCH  90  93
ENDBRANCH  72  86
BRANCH  73  97
ATOM     97  C   UNL A   1      50.901  27.337  27.068  1.00  0.00     0.023 A 
ATOM     98  C   UNL A   1      51.971  26.404  27.192  1.00  0.00     0.012 A 
ATOM     99  C   UNL A   1      50.600  27.779  25.769  1.00  0.00     0.148 A 
ATOM    100  C   UNL A   1      52.686  25.939  26.062  1.00  0.00     0.002 A 
ATOM    101  C   UNL A   1      51.298  27.310  24.655  1.00  0.00     0.091 A 
ATOM    102  F   UNL A   1      49.556  28.597  25.611  1.00  0.00    -0.205 F 
ATOM    103  C   UNL A   1      52.339  26.384  24.790  1.00  0.00     0.022 A 
BRANCH 101 104
ATOM    104  S   UNL A   1      50.846  27.828  22.994  1.00  0.00     0.127 S 
ATOM    105  O   UNL A   1      51.462  29.152  22.917  1.00  0.00    -0.237 OA
ATOM    106  O   UNL A   1      51.484  26.803  22.173  1.00  0.00    -0.237 OA
ATOM    107  O   UNL A   1      49.390  27.839  22.964  1.00  0.00    -0.744 OA
ENDBRANCH 101 104
ENDBRANCH  73  97
BRANCH  85 108
ATOM    108  C   UNL A   1      47.718  27.026  32.398  1.00  0.00     0.023 A 
ATOM    109  C   UNL A   1      48.199  28.326  32.679  1.00  0.00     0.012 A 
ATOM    110  C   UNL A   1      47.846  26.031  33.373  1.00  0.00     0.148 A 
ATOM    111  C   UNL A   1      48.821  28.599  33.908  1.00  0.00     0.002 A 
ATOM    112  C   UNL A   1      48.423  26.313  34.597  1.00  0.00     0.091 A 
ATOM    113  F   UNL A   1      47.345  24.818  33.093  1.00  0.00    -0.205 F 
ATOM    114  C   UNL A   1      48.929  27.593  34.868  1.00  0.00     0.022 A 
BRANCH 112 115
ATOM    115  S   UNL A   1      48.475  25.075  35.887  1.00  0.00     0.127 S 
ATOM    116  O   UNL A   1      49.815  25.272  36.436  1.00  0.00    -0.237 OA
ATOM    117  O   UNL A   1      47.382  25.495  36.764  1.00  0.00    -0.237 OA
ATOM    118  O   UNL A   1      48.254  23.792  35.232  1.00  0.00    -0.744 OA
ENDBRANCH 112 115
ENDBRANCH  85 108
ENDBRANCH  59  60
ENDBRANCH  52  54
ENDBRANCH  51  52
ENDBRANCH  50  51
ENDBRANCH  49  50
ENDBRANCH  48  49
ENDBRANCH  47  48
ENDBRANCH  46  47
ENDBRANCH  45  46
ENDBRANCH  44  45
ENDBRANCH  43  44
ENDBRANCH  42  43
ENDBRANCH   1  42
TORSDOF 35
ENDMDL
MODEL 2
REMARK VINA RESULT:      -7.5      5.558     11.571
REMARK SMILES NS(=O)(=O)c1ccc(-n2nc(NC(=O)NCCCCCCCCCCC(=O)OCCOCCOCCOC(=O)c3ccc(-c4c5nc(c(-c6cccc(S(=O)(=O)[O-])c6F)c6ccc([nH]6)c(-c6cccc(S(=O)(=O)[O-])c6F)c6nc(c(-c7cccc(S(=O)(=O)[O-])c7F)c7ccc4[nH]7)C=C6)C=C5)cc3)cc2-c2ccccc2)cc1
REMARK SMILES IDX 26 1 27 2 25 3 24 4 23 5 22 6 21 7 20 8 19 9 18 10 17 11
REMARK SMILES IDX 16 12 15 13 12 14 13 15 14 17 11 19 9 20 10 21 104 22 103 23
REMARK SMILES IDX 8 24 5 25 6 26 112 27 7 28 111 29 2 30 3 31 4 32 1 33 105 36
REMARK SMILES IDX 106 37 110 38 107 39 109 40 108 41 28 42 29 43 30 44 31 45
REMARK SMILES IDX 32 46 33 47 34 48 35 49 36 50 37 51 38 52 39 53 40 54 41 55
REMARK SMILES IDX 102 56 42 57 101 58 43 59 44 60 45 61 95 62 46 63 100 64
REMARK SMILES IDX 94 65 96 66 47 67 99 68 93 69 92 70 48 72 80 73 60 74 79 75
REMARK SMILES IDX 61 76 64 77 78 78 97 79 62 80 63 81 77 83 98 84 65 85 49 86
REMARK SMILES IDX 50 87 58 88 51 89 53 90 59 91 52 92 54 93 55 94 56 95 57 96
REMARK SMILES IDX 81 97 82 98 90 99 83 100 85 101 91 102 84 103 86 104 87 105
REMARK SMILES IDX 88 106 89 107 66 108 67 109 75 110 68 111 70 112 76 113
REMARK SMILES IDX 69 114 71 115 72 116 73 117 74 118
REMARK H PARENT 12 16 15 18 1 34 1 35 96 71 64 82
REMARK Flexibility Score: inf
ROOT
ATOM      1  C   UNL A   1      45.606  24.427  35.967  1.00  0.00     0.305 C 
ATOM      2  O   UNL A   1      45.630  23.455  35.220  1.00  0.00    -0.252 OA
ENDROOT
BRANCH   1   3
ATOM      3  C   UNL A   1      44.867  25.714  35.593  1.00  0.00     0.123 C 
BRANCH   3   4
ATOM      4  C   UNL A   1      45.502  27.082  35.859  1.00  0.00     0.012 C 
BRANCH   4   5
ATOM      5  C   UNL A   1      45.104  28.180  34.883  1.00  0.00     0.001 C 
BRANCH   5   6
ATOM      6  C   UNL A   1      46.007  29.389  35.063  1.00  0.00     0.000 C 
BRANCH   6   7
ATOM      7  C   UNL A   1      46.065  30.201  33.775  1.00  0.00     0.000 C 
BRANCH   7   8
ATOM      8  C   UNL A   1      44.707  30.830  33.459  1.00  0.00     0.000 C 
BRANCH   8   9
ATOM      9  C   UNL A   1      44.827  32.259  32.916  1.00  0.00     0.000 C 
BRANCH   9  10
ATOM     10  C   UNL A   1      43.480  32.816  32.441  1.00  0.00     0.002 C 
BRANCH  10  11
ATOM     11  C   UNL A   1      42.312  32.353  33.291  1.00  0.00     0.021 C 
BRANCH  11  12
ATOM     12  C   UNL A   1      41.616  31.134  32.744  1.00  0.00     0.117 C 
BRANCH  12  13
ATOM     13  N   UNL A   1      41.794  29.910  33.471  1.00  0.00    -0.338 N 
ATOM     14  N   UNL A   1      39.504  29.345  33.795  1.00  0.00    -0.291 N 
ATOM     15  C   UNL A   1      40.827  29.119  33.988  1.00  0.00     0.320 C 
ATOM     16  H   UNL A   1      38.923  28.870  34.433  1.00  0.00     0.173 HD
ATOM     17  O   UNL A   1      41.168  28.223  34.767  1.00  0.00    -0.248 OA
ATOM     18  H   UNL A   1      42.722  29.613  33.610  1.00  0.00     0.165 HD
BRANCH  14  19
ATOM     19  C   UNL A   1      38.810  30.113  32.877  1.00  0.00     0.157 A 
ATOM     20  N   UNL A   1      37.493  31.615  32.172  1.00  0.00    -0.231 N 
ATOM     21  N   UNL A   1      38.597  31.435  32.936  1.00  0.00    -0.149 NA
ATOM     22  C   UNL A   1      37.422  30.613  31.213  1.00  0.00     0.076 A 
ATOM     23  C   UNL A   1      38.214  29.591  31.705  1.00  0.00     0.078 A 
BRANCH  20  24
ATOM     24  C   UNL A   1      36.574  32.691  32.400  1.00  0.00     0.065 A 
ATOM     25  C   UNL A   1      34.767  34.817  32.731  1.00  0.00     0.082 A 
ATOM     26  C   UNL A   1      34.294  33.505  32.750  1.00  0.00     0.024 A 
ATOM     27  C   UNL A   1      36.136  35.067  32.566  1.00  0.00     0.024 A 
ATOM     28  C   UNL A   1      35.196  32.444  32.579  1.00  0.00     0.030 A 
ATOM     29  C   UNL A   1      37.043  34.006  32.430  1.00  0.00     0.030 A 
BRANCH  25  30
ATOM     30  S   UNL A   1      33.671  36.207  32.817  1.00  0.00     0.238 S 
ATOM     31  O   UNL A   1      34.128  37.084  33.868  1.00  0.00    -0.207 OA
ATOM     32  O   UNL A   1      32.314  35.727  32.724  1.00  0.00    -0.207 OA
BRANCH  30  33
ATOM     33  N   UNL A   1      33.953  37.072  31.397  1.00  0.00    -0.225 NA
ATOM     34  H   UNL A   1      33.867  36.447  30.596  1.00  0.00     0.137 HD
ATOM     35  H   UNL A   1      34.894  37.466  31.420  1.00  0.00     0.137 HD
ENDBRANCH  30  33
ENDBRANCH  25  30
ENDBRANCH  20  24
BRANCH  22  36
ATOM     36  C   UNL A   1      36.703  30.786  29.963  1.00  0.00     0.000 A 
ATOM     37  C   UNL A   1      36.090  29.657  29.395  1.00  0.00     0.010 A 
ATOM     38  C   UNL A   1      36.663  32.006  29.292  1.00  0.00     0.010 A 
ATOM     39  C   UNL A   1      35.485  29.729  28.148  1.00  0.00     0.001 A 
ATOM     40  C   UNL A   1      36.043  32.080  28.043  1.00  0.00     0.001 A 
ATOM     41  C   UNL A   1      35.464  30.943  27.471  1.00  0.00     0.000 A 
ENDBRANCH  22  36
ENDBRANCH  14  19
ENDBRANCH  12  13
ENDBRANCH  11  12
ENDBRANCH  10  11
ENDBRANCH   9  10
ENDBRANCH   8   9
ENDBRANCH   7   8
ENDBRANCH   6   7
ENDBRANCH   5   6
ENDBRANCH   4   5
ENDBRANCH   3   4
ENDBRANCH   1   3
BRANCH   1  42
ATOM     42  O   UNL A   1      46.112  24.434  37.223  1.00  0.00    -0.463 OA
BRANCH  42  43
ATOM     43  C   UNL A   1      47.140  23.489  37.564  1.00  0.00     0.261 C 
BRANCH  43  44
ATOM     44  C   UNL A   1      48.274  24.084  38.417  1.00  0.00     0.202 C 
BRANCH  44  45
ATOM     45  O   UNL A   1      47.946  25.067  39.388  1.00  0.00    -0.376 OA
BRANCH  45  46
ATOM     46  C   UNL A   1      48.852  26.145  39.578  1.00  0.00     0.188 C 
BRANCH  46  47
ATOM     47  C   UNL A   1      49.283  26.917  38.339  1.00  0.00     0.188 C 
BRANCH  47  48
ATOM     48  O   UNL A   1      50.527  27.588  38.309  1.00  0.00    -0.376 OA
BRANCH  48  49
ATOM     49  C   UNL A   1      51.120  28.036  37.090  1.00  0.00     0.202 C 
BRANCH  49  50
ATOM     50  C   UNL A   1      51.901  27.172  36.088  1.00  0.00     0.261 C 
BRANCH  50  51
ATOM     51  O   UNL A   1      51.377  26.968  34.800  1.00  0.00    -0.460 OA
BRANCH  51  52
ATOM     52  C   UNL A   1      50.651  25.833  34.584  1.00  0.00     0.338 C 
ATOM     53  O   UNL A   1      50.956  24.706  34.820  1.00  0.00    -0.246 OA
BRANCH  52  54
ATOM     54  C   UNL A   1      49.364  26.296  34.031  1.00  0.00     0.060 A 
ATOM     55  C   UNL A   1      48.399  25.382  33.621  1.00  0.00     0.016 A 
ATOM     56  C   UNL A   1      49.201  27.638  33.750  1.00  0.00     0.016 A 
ATOM     57  C   UNL A   1      47.690  25.706  32.473  1.00  0.00     0.010 A 
ATOM     58  C   UNL A   1      48.317  27.946  32.769  1.00  0.00     0.010 A 
ATOM     59  C   UNL A   1      47.898  26.960  31.897  1.00  0.00    -0.014 A 
BRANCH  59  60
ATOM     60  C   UNL A   1      47.282  27.414  30.649  1.00  0.00     0.031 A 
ATOM     61  C   UNL A   1      46.013  26.620  30.504  1.00  0.00     0.074 A 
ATOM     62  C   UNL A   1      47.761  28.445  29.874  1.00  0.00     0.049 A 
ATOM     63  N   UNL A   1      45.914  25.499  29.857  1.00  0.00    -0.248 NA
ATOM     64  C   UNL A   1      44.890  26.789  31.463  1.00  0.00     0.031 C 
ATOM     65  C   UNL A   1      48.942  29.326  30.040  1.00  0.00     0.029 A 
ATOM     66  N   UNL A   1      47.241  28.971  28.707  1.00  0.00    -0.354 N 
ATOM     67  C   UNL A   1      44.582  25.121  30.011  1.00  0.00     0.074 A 
ATOM     68  C   UNL A   1      44.165  25.687  31.248  1.00  0.00     0.031 C 
ATOM     69  C   UNL A   1      48.867  30.404  29.205  1.00  0.00     0.029 A 
ATOM     70  C   UNL A   1      47.726  30.255  28.325  1.00  0.00     0.049 A 
ATOM     71  H   UNL A   1      46.573  28.487  28.169  1.00  0.00     0.167 HD
ATOM     72  C   UNL A   1      43.842  24.837  28.903  1.00  0.00     0.034 A 
ATOM     73  C   UNL A   1      47.232  31.077  27.331  1.00  0.00     0.034 A 
ATOM     74  C   UNL A   1      44.741  24.581  27.801  1.00  0.00     0.049 A 
ATOM     75  C   UNL A   1      46.445  30.205  26.423  1.00  0.00     0.074 A 
ATOM     76  C   UNL A   1      45.764  23.687  27.560  1.00  0.00     0.029 A 
ATOM     77  N   UNL A   1      44.978  25.679  27.016  1.00  0.00    -0.354 N 
ATOM     78  N   UNL A   1      47.021  29.274  25.714  1.00  0.00    -0.248 NA
ATOM     79  C   UNL A   1      45.064  29.976  26.819  1.00  0.00     0.031 C 
ATOM     80  C   UNL A   1      46.792  24.458  26.939  1.00  0.00     0.029 A 
ATOM     81  C   UNL A   1      46.291  25.727  26.654  1.00  0.00     0.049 A 
ATOM     82  H   UNL A   1      44.297  26.339  26.752  1.00  0.00     0.167 HD
ATOM     83  C   UNL A   1      46.294  28.141  26.039  1.00  0.00     0.074 A 
ATOM     84  C   UNL A   1      45.094  28.642  26.732  1.00  0.00     0.031 C 
ATOM     85  C   UNL A   1      46.888  26.912  26.085  1.00  0.00     0.034 A 
BRANCH  72  86
ATOM     86  C   UNL A   1      42.412  25.319  28.646  1.00  0.00     0.023 A 
ATOM     87  C   UNL A   1      41.494  24.321  28.240  1.00  0.00     0.012 A 
ATOM     88  C   UNL A   1      41.978  26.663  28.502  1.00  0.00     0.148 A 
ATOM     89  C   UNL A   1      40.254  24.635  27.674  1.00  0.00     0.002 A 
ATOM     90  C   UNL A   1      40.721  26.972  27.982  1.00  0.00     0.091 A 
ATOM     91  F   UNL A   1      42.797  27.676  28.780  1.00  0.00    -0.205 F 
ATOM     92  C   UNL A   1      39.866  25.961  27.544  1.00  0.00     0.022 A 
BRANCH  90  93
ATOM     93  S   UNL A   1      40.137  28.668  27.797  1.00  0.00     0.127 S 
ATOM     94  O   UNL A   1      40.472  28.948  26.404  1.00  0.00    -0.237 OA
ATOM     95  O   UNL A   1      38.707  28.515  28.069  1.00  0.00    -0.237 OA
ATOM     96  O   UNL A   1      40.859  29.454  28.789  1.00  0.00    -0.744 OA
ENDBRANCH  90  93
ENDBRANCH  72  86
BRANCH  73  97
ATOM     97  C   UNL A   1      46.971  32.565  27.314  1.00  0.00     0.023 A 
ATOM     98  C   UNL A   1      45.938  33.192  28.070  1.00  0.00     0.012 A 
ATOM     99  C   UNL A   1      47.974  33.405  26.804  1.00  0.00     0.148 A 
ATOM    100  C   UNL A   1      45.931  34.588  28.304  1.00  0.00     0.002 A 
ATOM    101  C   UNL A   1      47.973  34.779  27.047  1.00  0.00     0.091 A 
ATOM    102  F   UNL A   1      48.995  32.839  26.154  1.00  0.00    -0.205 F 
ATOM    103  C   UNL A   1      46.959  35.381  27.801  1.00  0.00     0.022 A 
BRANCH 101 104
ATOM    104  S   UNL A   1      49.309  35.825  26.452  1.00  0.00     0.127 S 
ATOM    105  O   UNL A   1      48.580  37.005  25.988  1.00  0.00    -0.237 OA
ATOM    106  O   UNL A   1      50.099  36.026  27.663  1.00  0.00    -0.237 OA
ATOM    107  O   UNL A   1      49.964  35.069  25.393  1.00  0.00    -0.744 OA
ENDBRANCH 101 104
ENDBRANCH  73  97
BRANCH  85 108
ATOM    108  C   UNL A   1      48.284  26.755  25.538  1.00  0.00     0.023 A 
ATOM    109  C   UNL A   1      48.641  26.758  24.170  1.00  0.00     0.012 A 
ATOM    110  C   UNL A   1      49.297  26.775  26.504  1.00  0.00     0.148 A 
ATOM    111  C   UNL A   1      49.994  26.748  23.792  1.00  0.00     0.002 A 
ATOM    112  C   UNL A   1      50.627  26.806  26.128  1.00  0.00     0.091 A 
ATOM    113  F   UNL A   1      48.928  26.813  27.793  1.00  0.00    -0.205 F 
ATOM    114  C   UNL A   1      50.987  26.777  24.773  1.00  0.00     0.022 A 
BRANCH 112 115
ATOM    115  S   UNL A   1      51.918  26.955  27.358  1.00  0.00     0.127 S 
ATOM    116  O   UNL A   1      51.545  25.910  28.309  1.00  0.00    -0.237 OA
ATOM    117  O   UNL A   1      53.123  26.676  26.577  1.00  0.00    -0.237 OA
ATOM    118  O   UNL A   1      51.840  28.317  27.870  1.00  0.00    -0.744 OA
ENDBRANCH 112 115
ENDBRANCH  85 108
ENDBRANCH  59  60
ENDBRANCH  52  54
ENDBRANCH  51  52
ENDBRANCH  50  51
ENDBRANCH  49  50
ENDBRANCH  48  49
ENDBRANCH  47  48
ENDBRANCH  46  47
ENDBRANCH  45  46
ENDBRANCH  44  45
ENDBRANCH  43  44
ENDBRANCH  42  43
ENDBRANCH   1  42
TORSDOF 35
ENDMDL
MODEL 3
REMARK VINA RESULT:      -7.0      1.695      1.952
REMARK SMILES NS(=O)(=O)c1ccc(-n2nc(NC(=O)NCCCCCCCCCCC(=O)OCCOCCOCCOC(=O)c3ccc(-c4c5nc(c(-c6cccc(S(=O)(=O)[O-])c6F)c6ccc([nH]6)c(-c6cccc(S(=O)(=O)[O-])c6F)c6nc(c(-c7cccc(S(=O)(=O)[O-])c7F)c7ccc4[nH]7)C=C6)C=C5)cc3)cc2-c2ccccc2)cc1
REMARK SMILES IDX 26 1 27 2 25 3 24 4 23 5 22 6 21 7 20 8 19 9 18 10 17 11
REMARK SMILES IDX 16 12 15 13 12 14 13 15 14 17 11 19 9 20 10 21 104 22 103 23
REMARK SMILES IDX 8 24 5 25 6 26 112 27 7 28 111 29 2 30 3 31 4 32 1 33 105 36
REMARK SMILES IDX 106 37 110 38 107 39 109 40 108 41 28 42 29 43 30 44 31 45
REMARK SMILES IDX 32 46 33 47 34 48 35 49 36 50 37 51 38 52 39 53 40 54 41 55
REMARK SMILES IDX 102 56 42 57 101 58 43 59 44 60 45 61 95 62 46 63 100 64
REMARK SMILES IDX 94 65 96 66 47 67 99 68 93 69 92 70 48 72 80 73 60 74 79 75
REMARK SMILES IDX 61 76 64 77 78 78 97 79 62 80 63 81 77 83 98 84 65 85 49 86
REMARK SMILES IDX 50 87 58 88 51 89 53 90 59 91 52 92 54 93 55 94 56 95 57 96
REMARK SMILES IDX 81 97 82 98 90 99 83 100 85 101 91 102 84 103 86 104 87 105
REMARK SMILES IDX 88 106 89 107 66 108 67 109 75 110 68 111 70 112 76 113
REMARK SMILES IDX 69 114 71 115 72 116 73 117 74 118
REMARK H PARENT 12 16 15 18 1 34 1 35 96 71 64 82
REMARK Flexibility Score: inf
ROOT
ATOM      1  C   UNL A   1      32.439  32.506  27.224  1.00  0.00     0.305 C 
ATOM      2  O   UNL A   1      31.216  32.475  27.147  1.00  0.00    -0.252 OA
ENDROOT
BRANCH   1   3
ATOM      3  C   UNL A   1      33.306  31.321  26.790  1.00  0.00     0.123 C 
BRANCH   3   4
ATOM      4  C   UNL A   1      33.439  30.085  27.685  1.00  0.00     0.012 C 
BRANCH   4   5
ATOM      5  C   UNL A   1      32.746  28.834  27.165  1.00  0.00     0.001 C 
BRANCH   5   6
ATOM      6  C   UNL A   1      31.870  29.182  25.972  1.00  0.00     0.000 C 
BRANCH   6   7
ATOM      7  C   UNL A   1      31.944  28.080  24.923  1.00  0.00     0.000 C 
BRANCH   7   8
ATOM      8  C   UNL A   1      30.642  27.279  24.872  1.00  0.00     0.000 C 
BRANCH   8   9
ATOM      9  C   UNL A   1      30.575  26.188  25.947  1.00  0.00     0.000 C 
BRANCH   9  10
ATOM     10  C   UNL A   1      31.478  24.992  25.620  1.00  0.00     0.002 C 
BRANCH  10  11
ATOM     11  C   UNL A   1      30.757  23.893  24.862  1.00  0.00     0.021 C 
BRANCH  11  12
ATOM     12  C   UNL A   1      31.248  23.717  23.449  1.00  0.00     0.117 C 
BRANCH  12  13
ATOM     13  N   UNL A   1      31.007  24.802  22.542  1.00  0.00    -0.338 N 
ATOM     14  N   UNL A   1      33.223  25.660  22.406  1.00  0.00    -0.291 N 
ATOM     15  C   UNL A   1      31.902  25.714  22.103  1.00  0.00     0.320 C 
ATOM     16  H   UNL A   1      33.699  26.509  22.255  1.00  0.00     0.173 HD
ATOM     17  O   UNL A   1      31.473  26.703  21.499  1.00  0.00    -0.248 OA
ATOM     18  H   UNL A   1      30.087  24.893  22.202  1.00  0.00     0.165 HD
BRANCH  14  19
ATOM     19  C   UNL A   1      34.033  24.645  22.884  1.00  0.00     0.157 A 
ATOM     20  N   UNL A   1      34.542  22.732  23.635  1.00  0.00    -0.231 N 
ATOM     21  N   UNL A   1      33.946  23.342  22.583  1.00  0.00    -0.149 NA
ATOM     22  C   UNL A   1      35.478  23.587  24.202  1.00  0.00     0.076 A 
ATOM     23  C   UNL A   1      35.104  24.852  23.785  1.00  0.00     0.078 A 
BRANCH  20  24
ATOM     24  C   UNL A   1      34.185  21.407  24.051  1.00  0.00     0.065 A 
ATOM     25  C   UNL A   1      33.449  18.789  24.756  1.00  0.00     0.082 A 
ATOM     26  C   UNL A   1      34.776  19.063  24.426  1.00  0.00     0.024 A 
ATOM     27  C   UNL A   1      32.498  19.817  24.752  1.00  0.00     0.024 A 
ATOM     28  C   UNL A   1      35.142  20.370  24.069  1.00  0.00     0.030 A 
ATOM     29  C   UNL A   1      32.870  21.130  24.428  1.00  0.00     0.030 A 
BRANCH  25  30
ATOM     30  S   UNL A   1      32.892  17.141  25.097  1.00  0.00     0.238 S 
ATOM     31  O   UNL A   1      33.199  16.310  23.958  1.00  0.00    -0.207 OA
ATOM     32  O   UNL A   1      31.579  17.215  25.690  1.00  0.00    -0.207 OA
BRANCH  30  33
ATOM     33  N   UNL A   1      33.916  16.580  26.315  1.00  0.00    -0.225 NA
ATOM     34  H   UNL A   1      34.455  15.788  25.967  1.00  0.00     0.137 HD
ATOM     35  H   UNL A   1      33.359  16.286  27.118  1.00  0.00     0.137 HD
ENDBRANCH  30  33
ENDBRANCH  25  30
ENDBRANCH  20  24
BRANCH  22  36
ATOM     36  C   UNL A   1      36.611  23.099  24.968  1.00  0.00     0.000 A 
ATOM     37  C   UNL A   1      37.111  23.916  25.996  1.00  0.00     0.010 A 
ATOM     38  C   UNL A   1      37.242  21.893  24.673  1.00  0.00     0.010 A 
ATOM     39  C   UNL A   1      38.258  23.560  26.691  1.00  0.00     0.001 A 
ATOM     40  C   UNL A   1      38.390  21.531  25.383  1.00  0.00     0.001 A 
ATOM     41  C   UNL A   1      38.899  22.366  26.380  1.00  0.00     0.000 A 
ENDBRANCH  22  36
ENDBRANCH  14  19
ENDBRANCH  12  13
ENDBRANCH  11  12
ENDBRANCH  10  11
ENDBRANCH   9  10
ENDBRANCH   8   9
ENDBRANCH   7   8
ENDBRANCH   6   7
ENDBRANCH   5   6
ENDBRANCH   4   5
ENDBRANCH   3   4
ENDBRANCH   1   3
BRANCH   1  42
ATOM     42  O   UNL A   1      33.152  33.603  27.577  1.00  0.00    -0.463 OA
BRANCH  42  43
ATOM     43  C   UNL A   1      33.577  33.746  28.942  1.00  0.00     0.261 C 
BRANCH  43  44
ATOM     44  C   UNL A   1      35.034  34.218  29.093  1.00  0.00     0.202 C 
BRANCH  44  45
ATOM     45  O   UNL A   1      36.016  33.668  28.227  1.00  0.00    -0.376 OA
BRANCH  45  46
ATOM     46  C   UNL A   1      36.722  32.516  28.666  1.00  0.00     0.188 C 
BRANCH  46  47
ATOM     47  C   UNL A   1      38.022  32.744  29.425  1.00  0.00     0.188 C 
BRANCH  47  48
ATOM     48  O   UNL A   1      38.814  33.886  29.162  1.00  0.00    -0.376 OA
BRANCH  48  49
ATOM     49  C   UNL A   1      40.023  34.152  29.874  1.00  0.00     0.202 C 
BRANCH  49  50
ATOM     50  C   UNL A   1      41.429  34.269  29.265  1.00  0.00     0.261 C 
BRANCH  50  51
ATOM     51  O   UNL A   1      42.549  33.964  30.058  1.00  0.00    -0.460 OA
BRANCH  51  52
ATOM     52  C   UNL A   1      43.588  34.847  30.052  1.00  0.00     0.338 C 
ATOM     53  O   UNL A   1      43.562  36.019  30.269  1.00  0.00    -0.246 OA
BRANCH  52  54
ATOM     54  C   UNL A   1      44.785  34.036  29.763  1.00  0.00     0.060 A 
ATOM     55  C   UNL A   1      45.058  33.613  28.466  1.00  0.00     0.016 A 
ATOM     56  C   UNL A   1      45.529  33.542  30.816  1.00  0.00     0.016 A 
ATOM     57  C   UNL A   1      45.575  32.332  28.330  1.00  0.00     0.010 A 
ATOM     58  C   UNL A   1      46.220  32.399  30.584  1.00  0.00     0.010 A 
ATOM     59  C   UNL A   1      45.901  31.623  29.487  1.00  0.00    -0.014 A 
BRANCH  59  60
ATOM     60  C   UNL A   1      46.382  30.240  29.505  1.00  0.00     0.031 A 
ATOM     61  C   UNL A   1      45.186  29.384  29.192  1.00  0.00     0.074 A 
ATOM     62  C   UNL A   1      47.699  29.876  29.667  1.00  0.00     0.049 A 
ATOM     63  N   UNL A   1      44.399  28.861  30.083  1.00  0.00    -0.248 NA
ATOM     64  C   UNL A   1      44.526  29.446  27.862  1.00  0.00     0.031 C 
ATOM     65  C   UNL A   1      48.922  30.691  29.865  1.00  0.00     0.029 A 
ATOM     66  N   UNL A   1      48.259  28.612  29.665  1.00  0.00    -0.354 N 
ATOM     67  C   UNL A   1      43.432  28.184  29.343  1.00  0.00     0.074 A 
ATOM     68  C   UNL A   1      43.340  28.882  28.106  1.00  0.00     0.031 C 
ATOM     69  C   UNL A   1      50.045  29.939  29.674  1.00  0.00     0.029 A 
ATOM     70  C   UNL A   1      49.671  28.552  29.484  1.00  0.00     0.049 A 
ATOM     71  H   UNL A   1      47.715  27.800  29.783  1.00  0.00     0.167 HD
ATOM     72  C   UNL A   1      43.196  26.869  29.608  1.00  0.00     0.034 A 
ATOM     73  C   UNL A   1      50.438  27.428  29.246  1.00  0.00     0.034 A 
ATOM     74  C   UNL A   1      43.725  26.561  30.917  1.00  0.00     0.049 A 
ATOM     75  C   UNL A   1      49.628  26.268  29.694  1.00  0.00     0.074 A 
ATOM     76  C   UNL A   1      43.513  27.036  32.196  1.00  0.00     0.029 A 
ATOM     77  N   UNL A   1      44.991  26.038  30.891  1.00  0.00    -0.354 N 
ATOM     78  N   UNL A   1      49.325  26.101  30.952  1.00  0.00    -0.248 NA
ATOM     79  C   UNL A   1      48.690  25.745  28.713  1.00  0.00     0.031 C 
ATOM     80  C   UNL A   1      44.814  27.140  32.773  1.00  0.00     0.029 A 
ATOM     81  C   UNL A   1      45.737  26.553  31.909  1.00  0.00     0.049 A 
ATOM     82  H   UNL A   1      45.315  25.383  30.231  1.00  0.00     0.167 HD
ATOM     83  C   UNL A   1      47.947  25.963  30.924  1.00  0.00     0.074 A 
ATOM     84  C   UNL A   1      47.612  25.754  29.504  1.00  0.00     0.031 C 
ATOM     85  C   UNL A   1      47.173  26.417  31.953  1.00  0.00     0.034 A 
BRANCH  72  86
ATOM     86  C   UNL A   1      43.030  25.770  28.556  1.00  0.00     0.023 A 
ATOM     87  C   UNL A   1      41.923  24.908  28.742  1.00  0.00     0.012 A 
ATOM     88  C   UNL A   1      43.990  25.355  27.597  1.00  0.00     0.148 A 
ATOM     89  C   UNL A   1      41.807  23.687  28.068  1.00  0.00     0.002 A 
ATOM     90  C   UNL A   1      43.848  24.160  26.890  1.00  0.00     0.091 A 
ATOM     91  F   UNL A   1      45.108  26.055  27.406  1.00  0.00    -0.205 F 
ATOM     92  C   UNL A   1      42.770  23.312  27.142  1.00  0.00     0.022 A 
BRANCH  90  93
ATOM     93  S   UNL A   1      45.046  23.612  25.659  1.00  0.00     0.127 S 
ATOM     94  O   UNL A   1      44.589  24.320  24.465  1.00  0.00    -0.237 OA
ATOM     95  O   UNL A   1      46.298  24.109  26.230  1.00  0.00    -0.237 OA
ATOM     96  O   UNL A   1      44.939  22.161  25.609  1.00  0.00    -0.744 OA
ENDBRANCH  90  93
ENDBRANCH  72  86
BRANCH  73  97
ATOM     97  C   UNL A   1      51.571  27.190  28.276  1.00  0.00     0.023 A 
ATOM     98  C   UNL A   1      51.397  27.119  26.863  1.00  0.00     0.012 A 
ATOM     99  C   UNL A   1      52.886  27.373  28.738  1.00  0.00     0.148 A 
ATOM    100  C   UNL A   1      52.491  27.238  25.972  1.00  0.00     0.002 A 
ATOM    101  C   UNL A   1      53.960  27.504  27.857  1.00  0.00     0.091 A 
ATOM    102  F   UNL A   1      53.073  27.518  30.052  1.00  0.00    -0.205 F 
ATOM    103  C   UNL A   1      53.773  27.444  26.472  1.00  0.00     0.022 A 
BRANCH 101 104
ATOM    104  S   UNL A   1      55.622  27.817  28.467  1.00  0.00     0.127 S 
ATOM    105  O   UNL A   1      55.424  29.023  29.269  1.00  0.00    -0.237 OA
ATOM    106  O   UNL A   1      55.898  26.606  29.234  1.00  0.00    -0.237 OA
ATOM    107  O   UNL A   1      56.449  28.012  27.283  1.00  0.00    -0.744 OA
ENDBRANCH 101 104
ENDBRANCH  73  97
BRANCH  85 108
ATOM    108  C   UNL A   1      47.841  26.846  33.235  1.00  0.00     0.023 A 
ATOM    109  C   UNL A   1      48.251  28.161  33.554  1.00  0.00     0.012 A 
ATOM    110  C   UNL A   1      47.893  25.860  34.227  1.00  0.00     0.148 A 
ATOM    111  C   UNL A   1      48.731  28.460  34.840  1.00  0.00     0.002 A 
ATOM    112  C   UNL A   1      48.329  26.167  35.502  1.00  0.00     0.091 A 
ATOM    113  F   UNL A   1      47.461  24.631  33.906  1.00  0.00    -0.205 F 
ATOM    114  C   UNL A   1      48.766  27.463  35.815  1.00  0.00     0.022 A 
BRANCH 112 115
ATOM    115  S   UNL A   1      48.280  24.938  36.802  1.00  0.00     0.127 S 
ATOM    116  O   UNL A   1      46.859  24.915  37.137  1.00  0.00    -0.237 OA
ATOM    117  O   UNL A   1      48.771  23.742  36.115  1.00  0.00    -0.237 OA
ATOM    118  O   UNL A   1      49.161  25.423  37.857  1.00  0.00    -0.744 OA
ENDBRANCH 112 115
ENDBRANCH  85 108
ENDBRANCH  59  60
ENDBRANCH  52  54
ENDBRANCH  51  52
ENDBRANCH  50  51
ENDBRANCH  49  50
ENDBRANCH  48  49
ENDBRANCH  47  48
ENDBRANCH  46  47
ENDBRANCH  45  46
ENDBRANCH  44  45
ENDBRANCH  43  44
ENDBRANCH  42  43
ENDBRANCH   1  42
TORSDOF 35
ENDMDL
