MODEL 1
REMARK VINA RESULT:     -11.0      0.000      0.000
REMARK SMILES Cc1ccc(Cl)c(Nc2ccccc2C(=O)N[C@@H](C)C(=O)OCCOCCOCCOC(=O)c2ccc(-c3c4nc(c(-c5cccc(S(=O)(=O)[O-])c5F)c5ccc([nH]5)c(-c5cccc(S(=O)(=O)[O-])c5F)c5nc(c(-c6cccc(S(=O)(=O)[O-])c6F)c6ccc3[nH]6)C=C5)C=C4)cc2)c1Cl
REMARK SMILES IDX 26 1 25 2 24 3 23 4 22 5 20 6 21 7 18 8 19 9 17 10 15 11
REMARK SMILES IDX 16 12 14 14 9 15 10 16 11 17 13 18 12 19 8 20 7 22 1 23 2 24
REMARK SMILES IDX 3 25 97 26 4 27 98 28 5 29 6 30 27 31 28 32 29 33 30 34
REMARK SMILES IDX 31 35 32 36 33 37 34 38 35 39 96 40 36 41 95 42 37 43 38 44
REMARK SMILES IDX 39 45 89 46 40 47 94 48 88 49 90 50 41 51 93 52 87 53 86 54
REMARK SMILES IDX 42 56 74 57 54 58 73 59 55 60 58 61 72 62 91 63 56 64 57 65
REMARK SMILES IDX 71 67 92 68 59 69 43 70 44 71 52 72 45 73 47 74 53 75 46 76
REMARK SMILES IDX 48 77 49 78 50 79 51 80 75 81 76 82 84 83 77 84 79 85 85 86
REMARK SMILES IDX 78 87 80 88 81 89 82 90 83 91 60 92 61 93 69 94 62 95 64 96
REMARK SMILES IDX 70 97 63 98 65 99 66 100 67 101 68 102
REMARK H PARENT 17 13 8 21 90 55 58 66
REMARK Flexibility Score: inf
ROOT
ATOM      1  C   UNL A   1      41.786  19.571  26.596  1.00  0.00     0.188 C 
ENDROOT
BRANCH   1   2
ATOM      2  O   UNL A   1      40.457  20.137  26.355  1.00  0.00    -0.376 OA
BRANCH   2   3
ATOM      3  C   UNL A   1      39.388  19.416  25.704  1.00  0.00     0.202 C 
BRANCH   3   4
ATOM      4  C   UNL A   1      38.058  20.225  25.061  1.00  0.00     0.261 C 
BRANCH   4   5
ATOM      5  O   UNL A   1      38.086  21.719  24.850  1.00  0.00    -0.462 OA
BRANCH   5   6
ATOM      6  C   UNL A   1      38.012  22.667  25.871  1.00  0.00     0.328 C 
ATOM      7  O   UNL A   1      39.030  23.057  26.446  1.00  0.00    -0.250 OA
BRANCH   6   8
ATOM      8  C   UNL A   1      36.511  23.431  26.162  1.00  0.00     0.189 C 
ATOM      9  C   UNL A   1      35.552  22.477  26.873  1.00  0.00     0.043 C 
BRANCH   8  10
ATOM     10  N   UNL A   1      35.666  24.252  25.236  1.00  0.00    -0.339 N 
ATOM     11  C   UNL A   1      34.389  24.212  24.659  1.00  0.00     0.254 C 
ATOM     12  O   UNL A   1      34.331  25.016  23.707  1.00  0.00    -0.269 OA
ATOM     13  H   UNL A   1      36.151  25.059  24.949  1.00  0.00     0.164 HD
BRANCH  11  14
ATOM     14  C   UNL A   1      33.054  23.470  24.970  1.00  0.00     0.063 A 
ATOM     15  C   UNL A   1      32.581  22.147  24.763  1.00  0.00     0.051 A 
ATOM     16  C   UNL A   1      31.343  21.711  25.354  1.00  0.00     0.027 A 
ATOM     17  C   UNL A   1      30.549  22.532  26.136  1.00  0.00     0.002 A 
ATOM     18  C   UNL A   1      32.143  24.295  25.717  1.00  0.00     0.016 A 
ATOM     19  C   UNL A   1      30.937  23.842  26.295  1.00  0.00     0.001 A 
BRANCH  15  20
ATOM     20  N   UNL A   1      33.316  21.049  24.266  1.00  0.00    -0.352 N 
ATOM     21  H   UNL A   1      34.293  21.136  24.178  1.00  0.00     0.167 HD
BRANCH  20  22
ATOM     22  C   UNL A   1      32.702  19.818  23.886  1.00  0.00     0.077 A 
ATOM     23  C   UNL A   1      34.797  17.104  24.599  1.00  0.00     0.046 C 
ATOM     24  C   UNL A   1      33.569  17.658  23.934  1.00  0.00    -0.030 A 
ATOM     25  C   UNL A   1      33.013  17.405  22.675  1.00  0.00     0.006 A 
ATOM     26  C   UNL A   1      32.979  18.677  24.616  1.00  0.00     0.069 A 
ATOM     27  C   UNL A   1      32.274  18.385  22.011  1.00  0.00     0.023 A 
ATOM     28  Cl  UNL A   1      32.770  18.524  26.311  1.00  0.00    -0.082 Cl
ATOM     29  C   UNL A   1      32.243  19.646  22.576  1.00  0.00     0.066 A 
ATOM     30  Cl  UNL A   1      31.758  20.994  21.623  1.00  0.00    -0.082 Cl
ENDBRANCH  20  22
ENDBRANCH  15  20
ENDBRANCH  11  14
ENDBRANCH   8  10
ENDBRANCH   6   8
ENDBRANCH   5   6
ENDBRANCH   4   5
ENDBRANCH   3   4
ENDBRANCH   2   3
ENDBRANCH   1   2
BRANCH   1  31
ATOM     31  C   UNL A   1      43.053  19.980  25.751  1.00  0.00     0.188 C 
BRANCH  31  32
ATOM     32  O   UNL A   1      43.149  21.319  25.285  1.00  0.00    -0.376 OA
BRANCH  32  33
ATOM     33  C   UNL A   1      44.411  21.638  24.728  1.00  0.00     0.202 C 
BRANCH  33  34
ATOM     34  C   UNL A   1      44.741  23.141  24.526  1.00  0.00     0.261 C 
BRANCH  34  35
ATOM     35  O   UNL A   1      45.088  23.906  25.711  1.00  0.00    -0.460 OA
BRANCH  35  36
ATOM     36  C   UNL A   1      44.985  25.262  25.609  1.00  0.00     0.338 C 
ATOM     37  O   UNL A   1      45.422  25.944  24.675  1.00  0.00    -0.246 OA
BRANCH  36  38
ATOM     38  C   UNL A   1      44.074  25.840  26.639  1.00  0.00     0.060 A 
ATOM     39  C   UNL A   1      44.231  27.193  26.985  1.00  0.00     0.016 A 
ATOM     40  C   UNL A   1      43.120  25.076  27.314  1.00  0.00     0.016 A 
ATOM     41  C   UNL A   1      43.437  27.785  27.975  1.00  0.00     0.010 A 
ATOM     42  C   UNL A   1      42.350  25.667  28.338  1.00  0.00     0.010 A 
ATOM     43  C   UNL A   1      42.504  27.026  28.679  1.00  0.00    -0.014 A 
BRANCH  43  44
ATOM     44  C   UNL A   1      41.916  27.577  29.932  1.00  0.00     0.031 A 
ATOM     45  C   UNL A   1      40.552  28.200  29.830  1.00  0.00     0.074 A 
ATOM     46  C   UNL A   1      42.502  27.482  31.142  1.00  0.00     0.049 A 
ATOM     47  N   UNL A   1      39.919  28.973  30.668  1.00  0.00    -0.248 NA
ATOM     48  C   UNL A   1      39.798  27.888  28.604  1.00  0.00     0.031 C 
ATOM     49  C   UNL A   1      43.724  26.740  31.443  1.00  0.00     0.029 A 
ATOM     50  N   UNL A   1      42.146  28.043  32.349  1.00  0.00    -0.354 N 
ATOM     51  C   UNL A   1      38.731  29.313  30.033  1.00  0.00     0.074 A 
ATOM     52  C   UNL A   1      38.707  28.620  28.765  1.00  0.00     0.031 C 
ATOM     53  C   UNL A   1      44.045  26.932  32.735  1.00  0.00     0.029 A 
ATOM     54  C   UNL A   1      43.098  27.875  33.331  1.00  0.00     0.049 A 
ATOM     55  H   UNL A   1      41.295  28.517  32.495  1.00  0.00     0.167 HD
ATOM     56  C   UNL A   1      37.759  30.152  30.460  1.00  0.00     0.034 A 
ATOM     57  C   UNL A   1      43.227  28.476  34.533  1.00  0.00     0.034 A 
ATOM     58  C   UNL A   1      37.782  30.810  31.736  1.00  0.00     0.049 A 
ATOM     59  C   UNL A   1      42.199  29.503  34.950  1.00  0.00     0.074 A 
ATOM     60  C   UNL A   1      36.869  31.704  32.263  1.00  0.00     0.029 A 
ATOM     61  N   UNL A   1      38.781  30.648  32.683  1.00  0.00    -0.354 N 
ATOM     62  N   UNL A   1      41.095  29.865  34.338  1.00  0.00    -0.248 NA
ATOM     63  C   UNL A   1      42.436  30.213  36.217  1.00  0.00     0.031 C 
ATOM     64  C   UNL A   1      37.339  32.113  33.515  1.00  0.00     0.029 A 
ATOM     65  C   UNL A   1      38.520  31.440  33.786  1.00  0.00     0.049 A 
ATOM     66  H   UNL A   1      39.562  30.055  32.586  1.00  0.00     0.167 HD
ATOM     67  C   UNL A   1      40.497  30.821  35.154  1.00  0.00     0.074 A 
ATOM     68  C   UNL A   1      41.348  30.966  36.318  1.00  0.00     0.031 C 
ATOM     69  C   UNL A   1      39.358  31.531  34.954  1.00  0.00     0.034 A 
BRANCH  56  70
ATOM     70  C   UNL A   1      36.639  30.454  29.503  1.00  0.00     0.023 A 
ATOM     71  C   UNL A   1      36.007  29.422  28.783  1.00  0.00     0.012 A 
ATOM     72  C   UNL A   1      36.215  31.786  29.320  1.00  0.00     0.148 A 
ATOM     73  C   UNL A   1      34.998  29.716  27.866  1.00  0.00     0.002 A 
ATOM     74  C   UNL A   1      35.178  32.065  28.443  1.00  0.00     0.091 A 
ATOM     75  F   UNL A   1      36.851  32.755  29.994  1.00  0.00    -0.205 F 
ATOM     76  C   UNL A   1      34.577  31.034  27.702  1.00  0.00     0.022 A 
BRANCH  74  77
ATOM     77  S   UNL A   1      34.518  33.721  28.220  1.00  0.00     0.127 S 
ATOM     78  O   UNL A   1      33.150  33.439  27.789  1.00  0.00    -0.237 OA
ATOM     79  O   UNL A   1      34.631  34.277  29.568  1.00  0.00    -0.237 OA
ATOM     80  O   UNL A   1      35.364  34.362  27.223  1.00  0.00    -0.744 OA
ENDBRANCH  74  77
ENDBRANCH  56  70
BRANCH  57  81
ATOM     81  C   UNL A   1      44.408  28.193  35.408  1.00  0.00     0.023 A 
ATOM     82  C   UNL A   1      45.637  28.838  35.164  1.00  0.00     0.012 A 
ATOM     83  C   UNL A   1      44.325  27.265  36.467  1.00  0.00     0.148 A 
ATOM     84  C   UNL A   1      46.763  28.545  35.938  1.00  0.00     0.002 A 
ATOM     85  C   UNL A   1      45.433  27.024  37.272  1.00  0.00     0.091 A 
ATOM     86  F   UNL A   1      43.161  26.632  36.667  1.00  0.00    -0.205 F 
ATOM     87  C   UNL A   1      46.659  27.648  36.999  1.00  0.00     0.022 A 
BRANCH  85  88
ATOM     88  S   UNL A   1      45.360  25.973  38.728  1.00  0.00     0.127 S 
ATOM     89  O   UNL A   1      44.809  26.884  39.729  1.00  0.00    -0.237 OA
ATOM     90  O   UNL A   1      44.449  24.916  38.288  1.00  0.00    -0.237 OA
ATOM     91  O   UNL A   1      46.727  25.529  38.966  1.00  0.00    -0.744 OA
ENDBRANCH  85  88
ENDBRANCH  57  81
BRANCH  69  92
ATOM     92  C   UNL A   1      38.934  32.502  36.026  1.00  0.00     0.023 A 
ATOM     93  C   UNL A   1      38.047  32.089  37.039  1.00  0.00     0.012 A 
ATOM     94  C   UNL A   1      39.501  33.790  36.085  1.00  0.00     0.148 A 
ATOM     95  C   UNL A   1      37.710  32.953  38.080  1.00  0.00     0.002 A 
ATOM     96  C   UNL A   1      39.203  34.626  37.153  1.00  0.00     0.091 A 
ATOM     97  F   UNL A   1      40.334  34.166  35.104  1.00  0.00    -0.205 F 
ATOM     98  C   UNL A   1      38.299  34.215  38.145  1.00  0.00     0.022 A 
BRANCH  96  99
ATOM     99  S   UNL A   1      39.988  36.226  37.377  1.00  0.00     0.127 S 
ATOM    100  O   UNL A   1      39.142  36.832  38.404  1.00  0.00    -0.237 OA
ATOM    101  O   UNL A   1      41.328  35.851  37.832  1.00  0.00    -0.237 OA
ATOM    102  O   UNL A   1      39.951  36.882  36.077  1.00  0.00    -0.744 OA
ENDBRANCH  96  99
ENDBRANCH  69  92
ENDBRANCH  43  44
ENDBRANCH  36  38
ENDBRANCH  35  36
ENDBRANCH  34  35
ENDBRANCH  33  34
ENDBRANCH  32  33
ENDBRANCH  31  32
ENDBRANCH   1  31
TORSDOF 24
ENDMDL
MODEL 2
REMARK VINA RESULT:     -11.0      4.394      8.742
REMARK SMILES Cc1ccc(Cl)c(Nc2ccccc2C(=O)N[C@@H](C)C(=O)OCCOCCOCCOC(=O)c2ccc(-c3c4nc(c(-c5cccc(S(=O)(=O)[O-])c5F)c5ccc([nH]5)c(-c5cccc(S(=O)(=O)[O-])c5F)c5nc(c(-c6cccc(S(=O)(=O)[O-])c6F)c6ccc3[nH]6)C=C5)C=C4)cc2)c1Cl
REMARK SMILES IDX 26 1 25 2 24 3 23 4 22 5 20 6 21 7 18 8 19 9 17 10 15 11
REMARK SMILES IDX 16 12 14 14 9 15 10 16 11 17 13 18 12 19 8 20 7 22 1 23 2 24
REMARK SMILES IDX 3 25 97 26 4 27 98 28 5 29 6 30 27 31 28 32 29 33 30 34
REMARK SMILES IDX 31 35 32 36 33 37 34 38 35 39 96 40 36 41 95 42 37 43 38 44
REMARK SMILES IDX 39 45 89 46 40 47 94 48 88 49 90 50 41 51 93 52 87 53 86 54
REMARK SMILES IDX 42 56 74 57 54 58 73 59 55 60 58 61 72 62 91 63 56 64 57 65
REMARK SMILES IDX 71 67 92 68 59 69 43 70 44 71 52 72 45 73 47 74 53 75 46 76
REMARK SMILES IDX 48 77 49 78 50 79 51 80 75 81 76 82 84 83 77 84 79 85 85 86
REMARK SMILES IDX 78 87 80 88 81 89 82 90 83 91 60 92 61 93 69 94 62 95 64 96
REMARK SMILES IDX 70 97 63 98 65 99 66 100 67 101 68 102
REMARK H PARENT 17 13 8 21 90 55 58 66
REMARK Flexibility Score: inf
ROOT
ATOM      1  C   UNL A   1      37.900  21.072  25.156  1.00  0.00     0.188 C 
ENDROOT
BRANCH   1   2
ATOM      2  O   UNL A   1      36.512  20.928  24.710  1.00  0.00    -0.376 OA
BRANCH   2   3
ATOM      3  C   UNL A   1      35.729  19.730  24.908  1.00  0.00     0.202 C 
BRANCH   3   4
ATOM      4  C   UNL A   1      34.067  19.721  24.634  1.00  0.00     0.261 C 
BRANCH   4   5
ATOM      5  O   UNL A   1      33.336  20.987  24.259  1.00  0.00    -0.462 OA
BRANCH   5   6
ATOM      6  C   UNL A   1      32.274  21.535  24.981  1.00  0.00     0.328 C 
ATOM      7  O   UNL A   1      31.353  20.824  25.387  1.00  0.00    -0.250 OA
BRANCH   6   8
ATOM      8  C   UNL A   1      32.385  23.168  25.471  1.00  0.00     0.189 C 
ATOM      9  C   UNL A   1      33.284  23.300  26.701  1.00  0.00     0.043 C 
BRANCH   8  10
ATOM     10  N   UNL A   1      31.299  24.186  25.643  1.00  0.00    -0.339 N 
ATOM     11  C   UNL A   1      31.146  25.495  26.123  1.00  0.00     0.254 C 
ATOM     12  O   UNL A   1      29.937  25.734  26.315  1.00  0.00    -0.269 OA
ATOM     13  H   UNL A   1      30.438  23.831  25.324  1.00  0.00     0.164 HD
BRANCH  11  14
ATOM     14  C   UNL A   1      32.101  26.695  26.393  1.00  0.00     0.063 A 
ATOM     15  C   UNL A   1      33.389  27.067  25.922  1.00  0.00     0.051 A 
ATOM     16  C   UNL A   1      33.930  28.366  26.221  1.00  0.00     0.027 A 
ATOM     17  C   UNL A   1      33.256  29.312  26.974  1.00  0.00     0.002 A 
ATOM     18  C   UNL A   1      31.491  27.686  27.239  1.00  0.00     0.016 A 
ATOM     19  C   UNL A   1      32.039  28.958  27.512  1.00  0.00     0.001 A 
BRANCH  15  20
ATOM     20  N   UNL A   1      34.144  26.425  24.917  1.00  0.00    -0.352 N 
ATOM     21  H   UNL A   1      35.006  26.017  25.163  1.00  0.00     0.167 HD
BRANCH  20  22
ATOM     22  C   UNL A   1      33.710  26.344  23.560  1.00  0.00     0.077 A 
ATOM     23  C   UNL A   1      30.475  27.636  23.204  1.00  0.00     0.046 C 
ATOM     24  C   UNL A   1      31.640  26.876  22.637  1.00  0.00    -0.030 A 
ATOM     25  C   UNL A   1      31.687  25.714  21.857  1.00  0.00     0.006 A 
ATOM     26  C   UNL A   1      32.853  27.313  23.071  1.00  0.00     0.069 A 
ATOM     27  C   UNL A   1      32.782  24.852  21.927  1.00  0.00     0.023 A 
ATOM     28  Cl  UNL A   1      33.156  29.000  23.115  1.00  0.00    -0.082 Cl
ATOM     29  C   UNL A   1      33.733  25.113  22.895  1.00  0.00     0.066 A 
ATOM     30  Cl  UNL A   1      34.847  23.882  23.349  1.00  0.00    -0.082 Cl
ENDBRANCH  20  22
ENDBRANCH  15  20
ENDBRANCH  11  14
ENDBRANCH   8  10
ENDBRANCH   6   8
ENDBRANCH   5   6
ENDBRANCH   4   5
ENDBRANCH   3   4
ENDBRANCH   2   3
ENDBRANCH   1   2
BRANCH   1  31
ATOM     31  C   UNL A   1      38.460  22.406  25.780  1.00  0.00     0.188 C 
BRANCH  31  32
ATOM     32  O   UNL A   1      39.348  22.313  26.886  1.00  0.00    -0.376 OA
BRANCH  32  33
ATOM     33  C   UNL A   1      40.315  21.288  26.753  1.00  0.00     0.202 C 
BRANCH  33  34
ATOM     34  C   UNL A   1      41.599  21.404  27.618  1.00  0.00     0.261 C 
BRANCH  34  35
ATOM     35  O   UNL A   1      42.855  21.594  26.915  1.00  0.00    -0.460 OA
BRANCH  35  36
ATOM     36  C   UNL A   1      42.901  22.623  26.021  1.00  0.00     0.338 C 
ATOM     37  O   UNL A   1      42.934  22.500  24.791  1.00  0.00    -0.246 OA
BRANCH  36  38
ATOM     38  C   UNL A   1      42.671  23.946  26.668  1.00  0.00     0.060 A 
ATOM     39  C   UNL A   1      42.063  24.963  25.911  1.00  0.00     0.016 A 
ATOM     40  C   UNL A   1      43.092  24.232  27.968  1.00  0.00     0.016 A 
ATOM     41  C   UNL A   1      41.858  26.241  26.446  1.00  0.00     0.010 A 
ATOM     42  C   UNL A   1      42.920  25.533  28.488  1.00  0.00     0.010 A 
ATOM     43  C   UNL A   1      42.304  26.549  27.730  1.00  0.00    -0.014 A 
BRANCH  43  44
ATOM     44  C   UNL A   1      42.378  27.976  28.150  1.00  0.00     0.031 A 
ATOM     45  C   UNL A   1      43.737  28.615  28.159  1.00  0.00     0.074 A 
ATOM     46  C   UNL A   1      41.300  28.728  28.446  1.00  0.00     0.049 A 
ATOM     47  N   UNL A   1      44.137  29.727  28.712  1.00  0.00    -0.248 NA
ATOM     48  C   UNL A   1      44.789  27.892  27.424  1.00  0.00     0.031 C 
ATOM     49  C   UNL A   1      39.906  28.319  28.297  1.00  0.00     0.029 A 
ATOM     50  N   UNL A   1      41.220  30.004  28.962  1.00  0.00    -0.354 N 
ATOM     51  C   UNL A   1      45.504  29.792  28.468  1.00  0.00     0.074 A 
ATOM     52  C   UNL A   1      45.854  28.636  27.674  1.00  0.00     0.031 C 
ATOM     53  C   UNL A   1      39.110  29.301  28.758  1.00  0.00     0.029 A 
ATOM     54  C   UNL A   1      39.939  30.373  29.310  1.00  0.00     0.049 A 
ATOM     55  H   UNL A   1      42.002  30.593  29.071  1.00  0.00     0.167 HD
ATOM     56  C   UNL A   1      46.392  30.719  28.895  1.00  0.00     0.034 A 
ATOM     57  C   UNL A   1      39.501  31.411  30.056  1.00  0.00     0.034 A 
ATOM     58  C   UNL A   1      46.024  31.878  29.658  1.00  0.00     0.049 A 
ATOM     59  C   UNL A   1      40.515  32.376  30.629  1.00  0.00     0.074 A 
ATOM     60  C   UNL A   1      46.840  32.869  30.170  1.00  0.00     0.029 A 
ATOM     61  N   UNL A   1      44.726  32.195  30.026  1.00  0.00    -0.354 N 
ATOM     62  N   UNL A   1      41.813  32.421  30.442  1.00  0.00    -0.248 NA
ATOM     63  C   UNL A   1      40.007  33.427  31.524  1.00  0.00     0.031 C 
ATOM     64  C   UNL A   1      46.037  33.764  30.883  1.00  0.00     0.029 A 
ATOM     65  C   UNL A   1      44.717  33.355  30.777  1.00  0.00     0.049 A 
ATOM     66  H   UNL A   1      43.927  31.670  29.787  1.00  0.00     0.167 HD
ATOM     67  C   UNL A   1      42.271  33.514  31.172  1.00  0.00     0.074 A 
ATOM     68  C   UNL A   1      41.107  34.120  31.786  1.00  0.00     0.031 C 
ATOM     69  C   UNL A   1      43.539  33.967  31.337  1.00  0.00     0.034 A 
BRANCH  56  70
ATOM     70  C   UNL A   1      47.846  30.467  28.605  1.00  0.00     0.023 A 
ATOM     71  C   UNL A   1      48.457  31.011  27.459  1.00  0.00     0.012 A 
ATOM     72  C   UNL A   1      48.608  29.675  29.487  1.00  0.00     0.148 A 
ATOM     73  C   UNL A   1      49.796  30.737  27.175  1.00  0.00     0.002 A 
ATOM     74  C   UNL A   1      49.951  29.448  29.224  1.00  0.00     0.091 A 
ATOM     75  F   UNL A   1      47.998  29.144  30.555  1.00  0.00    -0.205 F 
ATOM     76  C   UNL A   1      50.544  29.964  28.060  1.00  0.00     0.022 A 
BRANCH  74  77
ATOM     77  S   UNL A   1      51.013  28.527  30.342  1.00  0.00     0.127 S 
ATOM     78  O   UNL A   1      50.648  29.100  31.636  1.00  0.00    -0.237 OA
ATOM     79  O   UNL A   1      50.558  27.154  30.132  1.00  0.00    -0.237 OA
ATOM     80  O   UNL A   1      52.379  28.790  29.909  1.00  0.00    -0.744 OA
ENDBRANCH  74  77
ENDBRANCH  56  70
BRANCH  57  81
ATOM     81  C   UNL A   1      38.048  31.564  30.377  1.00  0.00     0.023 A 
ATOM     82  C   UNL A   1      37.528  31.020  31.569  1.00  0.00     0.012 A 
ATOM     83  C   UNL A   1      37.170  32.224  29.491  1.00  0.00     0.148 A 
ATOM     84  C   UNL A   1      36.164  31.108  31.859  1.00  0.00     0.002 A 
ATOM     85  C   UNL A   1      35.825  32.361  29.815  1.00  0.00     0.091 A 
ATOM     86  F   UNL A   1      37.670  32.706  28.345  1.00  0.00    -0.205 F 
ATOM     87  C   UNL A   1      35.315  31.788  30.989  1.00  0.00     0.022 A 
BRANCH  85  88
ATOM     88  S   UNL A   1      34.682  33.319  28.812  1.00  0.00     0.127 S 
ATOM     89  O   UNL A   1      33.564  32.391  28.662  1.00  0.00    -0.237 OA
ATOM     90  O   UNL A   1      34.418  34.469  29.678  1.00  0.00    -0.237 OA
ATOM     91  O   UNL A   1      35.402  33.641  27.588  1.00  0.00    -0.744 OA
ENDBRANCH  85  88
ENDBRANCH  57  81
BRANCH  69  92
ATOM     92  C   UNL A   1      43.744  35.198  32.182  1.00  0.00     0.023 A 
ATOM     93  C   UNL A   1      43.918  35.075  33.574  1.00  0.00     0.012 A 
ATOM     94  C   UNL A   1      43.868  36.465  31.578  1.00  0.00     0.148 A 
ATOM     95  C   UNL A   1      44.186  36.199  34.355  1.00  0.00     0.002 A 
ATOM     96  C   UNL A   1      44.188  37.571  32.354  1.00  0.00     0.091 A 
ATOM     97  F   UNL A   1      43.687  36.560  30.252  1.00  0.00    -0.205 F 
ATOM     98  C   UNL A   1      44.335  37.443  33.744  1.00  0.00     0.022 A 
BRANCH  96  99
ATOM     99  S   UNL A   1      44.501  39.191  31.646  1.00  0.00     0.127 S 
ATOM    100  O   UNL A   1      45.405  39.778  32.634  1.00  0.00    -0.237 OA
ATOM    101  O   UNL A   1      45.128  38.854  30.368  1.00  0.00    -0.237 OA
ATOM    102  O   UNL A   1      43.202  39.842  31.532  1.00  0.00    -0.744 OA
ENDBRANCH  96  99
ENDBRANCH  69  92
ENDBRANCH  43  44
ENDBRANCH  36  38
ENDBRANCH  35  36
ENDBRANCH  34  35
ENDBRANCH  33  34
ENDBRANCH  32  33
ENDBRANCH  31  32
ENDBRANCH   1  31
TORSDOF 24
ENDMDL
MODEL 3
REMARK VINA RESULT:     -10.7      4.666      9.375
REMARK SMILES Cc1ccc(Cl)c(Nc2ccccc2C(=O)N[C@@H](C)C(=O)OCCOCCOCCOC(=O)c2ccc(-c3c4nc(c(-c5cccc(S(=O)(=O)[O-])c5F)c5ccc([nH]5)c(-c5cccc(S(=O)(=O)[O-])c5F)c5nc(c(-c6cccc(S(=O)(=O)[O-])c6F)c6ccc3[nH]6)C=C5)C=C4)cc2)c1Cl
REMARK SMILES IDX 26 1 25 2 24 3 23 4 22 5 20 6 21 7 18 8 19 9 17 10 15 11
REMARK SMILES IDX 16 12 14 14 9 15 10 16 11 17 13 18 12 19 8 20 7 22 1 23 2 24
REMARK SMILES IDX 3 25 97 26 4 27 98 28 5 29 6 30 27 31 28 32 29 33 30 34
REMARK SMILES IDX 31 35 32 36 33 37 34 38 35 39 96 40 36 41 95 42 37 43 38 44
REMARK SMILES IDX 39 45 89 46 40 47 94 48 88 49 90 50 41 51 93 52 87 53 86 54
REMARK SMILES IDX 42 56 74 57 54 58 73 59 55 60 58 61 72 62 91 63 56 64 57 65
REMARK SMILES IDX 71 67 92 68 59 69 43 70 44 71 52 72 45 73 47 74 53 75 46 76
REMARK SMILES IDX 48 77 49 78 50 79 51 80 75 81 76 82 84 83 77 84 79 85 85 86
REMARK SMILES IDX 78 87 80 88 81 89 82 90 83 91 60 92 61 93 69 94 62 95 64 96
REMARK SMILES IDX 70 97 63 98 65 99 66 100 67 101 68 102
REMARK H PARENT 17 13 8 21 90 55 58 66
REMARK Flexibility Score: inf
ROOT
ATOM      1  C   UNL A   1      38.036  20.469  24.992  1.00  0.00     0.188 C 
ENDROOT
BRANCH   1   2
ATOM      2  O   UNL A   1      36.592  20.644  24.823  1.00  0.00    -0.376 OA
BRANCH   2   3
ATOM      3  C   UNL A   1      35.631  19.581  25.003  1.00  0.00     0.202 C 
BRANCH   3   4
ATOM      4  C   UNL A   1      34.023  19.774  24.541  1.00  0.00     0.261 C 
BRANCH   4   5
ATOM      5  O   UNL A   1      33.391  21.143  24.482  1.00  0.00    -0.462 OA
BRANCH   5   6
ATOM      6  C   UNL A   1      32.214  21.505  25.139  1.00  0.00     0.328 C 
ATOM      7  O   UNL A   1      31.342  20.667  25.379  1.00  0.00    -0.250 OA
BRANCH   6   8
ATOM      8  C   UNL A   1      32.099  23.081  25.788  1.00  0.00     0.189 C 
ATOM      9  C   UNL A   1      32.196  23.042  27.313  1.00  0.00     0.043 C 
BRANCH   8  10
ATOM     10  N   UNL A   1      31.127  24.176  25.465  1.00  0.00    -0.339 N 
ATOM     11  C   UNL A   1      30.972  25.550  25.694  1.00  0.00     0.254 C 
ATOM     12  O   UNL A   1      29.796  25.887  25.452  1.00  0.00    -0.269 OA
ATOM     13  H   UNL A   1      30.376  23.826  24.933  1.00  0.00     0.164 HD
BRANCH  11  14
ATOM     14  C   UNL A   1      31.918  26.720  26.100  1.00  0.00     0.063 A 
ATOM     15  C   UNL A   1      33.245  27.090  25.757  1.00  0.00     0.051 A 
ATOM     16  C   UNL A   1      33.777  28.365  26.162  1.00  0.00     0.027 A 
ATOM     17  C   UNL A   1      33.054  29.287  26.898  1.00  0.00     0.002 A 
ATOM     18  C   UNL A   1      31.251  27.682  26.937  1.00  0.00     0.016 A 
ATOM     19  C   UNL A   1      31.791  28.931  27.314  1.00  0.00     0.001 A 
BRANCH  15  20
ATOM     20  N   UNL A   1      34.075  26.481  24.792  1.00  0.00    -0.352 N 
ATOM     21  H   UNL A   1      34.927  26.084  25.084  1.00  0.00     0.167 HD
BRANCH  20  22
ATOM     22  C   UNL A   1      33.729  26.417  23.408  1.00  0.00     0.077 A 
ATOM     23  C   UNL A   1      30.669  28.012  22.811  1.00  0.00     0.046 C 
ATOM     24  C   UNL A   1      31.790  27.131  22.337  1.00  0.00    -0.030 A 
ATOM     25  C   UNL A   1      31.775  25.956  21.576  1.00  0.00     0.006 A 
ATOM     26  C   UNL A   1      33.007  27.455  22.849  1.00  0.00     0.069 A 
ATOM     27  C   UNL A   1      32.771  24.993  21.733  1.00  0.00     0.023 A 
ATOM     28  Cl  UNL A   1      33.471  29.105  22.894  1.00  0.00    -0.082 Cl
ATOM     29  C   UNL A   1      33.676  25.178  22.761  1.00  0.00     0.066 A 
ATOM     30  Cl  UNL A   1      34.629  23.853  23.307  1.00  0.00    -0.082 Cl
ENDBRANCH  20  22
ENDBRANCH  15  20
ENDBRANCH  11  14
ENDBRANCH   8  10
ENDBRANCH   6   8
ENDBRANCH   5   6
ENDBRANCH   4   5
ENDBRANCH   3   4
ENDBRANCH   2   3
ENDBRANCH   1   2
BRANCH   1  31
ATOM     31  C   UNL A   1      38.933  21.495  25.783  1.00  0.00     0.188 C 
BRANCH  31  32
ATOM     32  O   UNL A   1      39.793  20.997  26.799  1.00  0.00    -0.376 OA
BRANCH  32  33
ATOM     33  C   UNL A   1      40.400  19.760  26.473  1.00  0.00     0.202 C 
BRANCH  33  34
ATOM     34  C   UNL A   1      41.575  19.286  27.369  1.00  0.00     0.261 C 
BRANCH  34  35
ATOM     35  O   UNL A   1      42.801  18.892  26.698  1.00  0.00    -0.460 OA
BRANCH  35  36
ATOM     36  C   UNL A   1      43.270  19.745  25.742  1.00  0.00     0.338 C 
ATOM     37  O   UNL A   1      43.579  19.425  24.588  1.00  0.00    -0.246 OA
BRANCH  36  38
ATOM     38  C   UNL A   1      43.158  21.174  26.153  1.00  0.00     0.060 A 
ATOM     39  C   UNL A   1      42.653  22.098  25.222  1.00  0.00     0.016 A 
ATOM     40  C   UNL A   1      43.592  21.636  27.397  1.00  0.00     0.016 A 
ATOM     41  C   UNL A   1      42.562  23.461  25.530  1.00  0.00     0.010 A 
ATOM     42  C   UNL A   1      43.536  23.016  27.688  1.00  0.00     0.010 A 
ATOM     43  C   UNL A   1      43.023  23.940  26.755  1.00  0.00    -0.014 A 
BRANCH  43  44
ATOM     44  C   UNL A   1      43.225  25.406  26.932  1.00  0.00     0.031 A 
ATOM     45  C   UNL A   1      44.515  25.983  26.424  1.00  0.00     0.074 A 
ATOM     46  C   UNL A   1      42.296  26.234  27.449  1.00  0.00     0.049 A 
ATOM     47  N   UNL A   1      45.069  27.140  26.665  1.00  0.00    -0.248 NA
ATOM     48  C   UNL A   1      45.279  25.127  25.500  1.00  0.00     0.031 C 
ATOM     49  C   UNL A   1      40.928  25.868  27.805  1.00  0.00     0.029 A 
ATOM     50  N   UNL A   1      42.383  27.568  27.785  1.00  0.00    -0.354 N 
ATOM     51  C   UNL A   1      46.287  27.114  25.996  1.00  0.00     0.074 A 
ATOM     52  C   UNL A   1      46.367  25.852  25.296  1.00  0.00     0.031 C 
ATOM     53  C   UNL A   1      40.319  26.934  28.356  1.00  0.00     0.029 A 
ATOM     54  C   UNL A   1      41.280  28.032  28.466  1.00  0.00     0.049 A 
ATOM     55  H   UNL A   1      43.158  28.133  27.560  1.00  0.00     0.167 HD
ATOM     56  C   UNL A   1      47.263  28.051  25.990  1.00  0.00     0.034 A 
ATOM     57  C   UNL A   1      41.101  29.175  29.163  1.00  0.00     0.034 A 
ATOM     58  C   UNL A   1      47.156  29.313  26.665  1.00  0.00     0.049 A 
ATOM     59  C   UNL A   1      42.243  30.163  29.250  1.00  0.00     0.074 A 
ATOM     60  C   UNL A   1      48.091  30.327  26.753  1.00  0.00     0.029 A 
ATOM     61  N   UNL A   1      46.042  29.729  27.378  1.00  0.00    -0.354 N 
ATOM     62  N   UNL A   1      43.414  30.129  28.658  1.00  0.00    -0.248 NA
ATOM     63  C   UNL A   1      42.045  31.342  30.109  1.00  0.00     0.031 C 
ATOM     64  C   UNL A   1      47.556  31.340  27.554  1.00  0.00     0.029 A 
ATOM     65  C   UNL A   1      46.271  30.977  27.928  1.00  0.00     0.049 A 
ATOM     66  H   UNL A   1      45.209  29.212  27.477  1.00  0.00     0.167 HD
ATOM     67  C   UNL A   1      44.079  31.287  29.050  1.00  0.00     0.074 A 
ATOM     68  C   UNL A   1      43.170  32.016  29.912  1.00  0.00     0.031 C 
ATOM     69  C   UNL A   1      45.333  31.704  28.743  1.00  0.00     0.034 A 
BRANCH  56  70
ATOM     70  C   UNL A   1      48.549  27.703  25.292  1.00  0.00     0.023 A 
ATOM     71  C   UNL A   1      48.667  27.827  23.894  1.00  0.00     0.012 A 
ATOM     72  C   UNL A   1      49.650  27.245  26.042  1.00  0.00     0.148 A 
ATOM     73  C   UNL A   1      49.850  27.460  23.250  1.00  0.00     0.002 A 
ATOM     74  C   UNL A   1      50.839  26.930  25.401  1.00  0.00     0.091 A 
ATOM     75  F   UNL A   1      49.505  27.108  27.368  1.00  0.00    -0.205 F 
ATOM     76  C   UNL A   1      50.937  27.022  24.003  1.00  0.00     0.022 A 
BRANCH  74  77
ATOM     77  S   UNL A   1      52.315  26.427  26.291  1.00  0.00     0.127 S 
ATOM     78  O   UNL A   1      53.313  26.406  25.223  1.00  0.00    -0.237 OA
ATOM     79  O   UNL A   1      52.475  27.516  27.254  1.00  0.00    -0.237 OA
ATOM     80  O   UNL A   1      52.009  25.132  26.882  1.00  0.00    -0.744 OA
ENDBRANCH  74  77
ENDBRANCH  56  70
BRANCH  57  81
ATOM     81  C   UNL A   1      39.826  29.430  29.904  1.00  0.00     0.023 A 
ATOM     82  C   UNL A   1      39.665  28.947  31.218  1.00  0.00     0.012 A 
ATOM     83  C   UNL A   1      38.758  30.127  29.300  1.00  0.00     0.148 A 
ATOM     84  C   UNL A   1      38.461  29.129  31.904  1.00  0.00     0.002 A 
ATOM     85  C   UNL A   1      37.586  30.358  30.010  1.00  0.00     0.091 A 
ATOM     86  F   UNL A   1      38.910  30.551  28.038  1.00  0.00    -0.205 F 
ATOM     87  C   UNL A   1      37.426  29.845  31.306  1.00  0.00     0.022 A 
BRANCH  85  88
ATOM     88  S   UNL A   1      36.246  31.367  29.363  1.00  0.00     0.127 S 
ATOM     89  O   UNL A   1      35.678  30.492  28.341  1.00  0.00    -0.237 OA
ATOM     90  O   UNL A   1      35.411  31.551  30.552  1.00  0.00    -0.237 OA
ATOM     91  O   UNL A   1      36.870  32.588  28.872  1.00  0.00    -0.744 OA
ENDBRANCH  85  88
ENDBRANCH  57  81
BRANCH  69  92
ATOM     92  C   UNL A   1      45.794  33.025  29.304  1.00  0.00     0.023 A 
ATOM     93  C   UNL A   1      45.538  34.217  28.599  1.00  0.00     0.012 A 
ATOM     94  C   UNL A   1      46.386  33.089  30.581  1.00  0.00     0.148 A 
ATOM     95  C   UNL A   1      45.889  35.451  29.145  1.00  0.00     0.002 A 
ATOM     96  C   UNL A   1      46.685  34.324  31.141  1.00  0.00     0.091 A 
ATOM     97  F   UNL A   1      46.631  31.941  31.228  1.00  0.00    -0.205 F 
ATOM     98  C   UNL A   1      46.449  35.506  30.420  1.00  0.00     0.022 A 
BRANCH  96  99
ATOM     99  S   UNL A   1      47.310  34.501  32.815  1.00  0.00     0.127 S 
ATOM    100  O   UNL A   1      48.612  33.842  32.718  1.00  0.00    -0.237 OA
ATOM    101  O   UNL A   1      47.371  35.955  32.970  1.00  0.00    -0.237 OA
ATOM    102  O   UNL A   1      46.344  33.838  33.681  1.00  0.00    -0.744 OA
ENDBRANCH  96  99
ENDBRANCH  69  92
ENDBRANCH  43  44
ENDBRANCH  36  38
ENDBRANCH  35  36
ENDBRANCH  34  35
ENDBRANCH  33  34
ENDBRANCH  32  33
ENDBRANCH  31  32
ENDBRANCH   1  31
TORSDOF 24
ENDMDL
