MODEL 1
REMARK VINA RESULT:      -9.0      0.000      0.000
REMARK SMILES CCOc1cc(CO)cc(Br)c1OCC(C)(C)C(=O)OCCOCCOCCOC(=O)c1ccc(-c2c3nc(c(-c4cccc(S(=O)(=O)[O-])c4F)c4ccc([nH]4)c(-c4cccc(S(=O)(=O)[O-])c4F)c4nc(c(-c5cccc(S(=O)(=O)[O-])c5F)c5ccc2[nH]5)C=C4)C=C3)cc1
REMARK SMILES IDX 24 1 23 2 22 3 21 4 20 5 18 6 19 7 15 8 16 9 17 10 14 11
REMARK SMILES IDX 13 12 12 13 4 14 5 15 6 16 10 17 9 18 11 19 3 20 2 21 1 22
REMARK SMILES IDX 7 23 8 24 25 26 26 27 27 28 28 29 29 30 30 31 31 32 32 33
REMARK SMILES IDX 33 34 94 35 34 36 93 37 35 38 36 39 37 40 87 41 38 42 92 43
REMARK SMILES IDX 86 44 88 45 39 46 91 47 85 48 84 49 40 51 72 52 52 53 71 54
REMARK SMILES IDX 53 55 56 56 70 57 89 58 54 59 55 60 69 62 90 63 57 64 41 65
REMARK SMILES IDX 42 66 50 67 43 68 45 69 51 70 44 71 46 72 47 73 48 74 49 75
REMARK SMILES IDX 73 76 74 77 82 78 75 79 77 80 83 81 76 82 78 83 79 84 80 85
REMARK SMILES IDX 81 86 58 87 59 88 67 89 60 90 62 91 68 92 61 93 63 94 64 95
REMARK SMILES IDX 65 96 66 97
REMARK H PARENT 8 25 88 50 56 61
REMARK Flexibility Score: inf
ROOT
ATOM      1  C   UNL A   1      39.965  22.805  26.605  1.00  0.00     0.188 C 
ENDROOT
BRANCH   1   2
ATOM      2  O   UNL A   1      38.604  22.405  26.533  1.00  0.00    -0.376 OA
BRANCH   2   3
ATOM      3  C   UNL A   1      38.133  21.745  25.364  1.00  0.00     0.202 C 
BRANCH   3   4
ATOM      4  C   UNL A   1      36.675  21.262  25.290  1.00  0.00     0.261 C 
BRANCH   4   5
ATOM      5  O   UNL A   1      35.683  22.301  25.140  1.00  0.00    -0.463 OA
BRANCH   5   6
ATOM      6  C   UNL A   1      34.386  21.900  25.193  1.00  0.00     0.315 C 
ATOM      7  O   UNL A   1      33.905  21.093  24.405  1.00  0.00    -0.251 OA
BRANCH   6   8
ATOM      8  C   UNL A   1      33.540  22.623  26.254  1.00  0.00     0.096 C 
ATOM      9  C   UNL A   1      33.802  21.815  27.533  1.00  0.00     0.027 C 
ATOM     10  C   UNL A   1      31.995  22.581  26.087  1.00  0.00     0.027 C 
BRANCH   8  11
ATOM     11  C   UNL A   1      33.932  24.142  26.231  1.00  0.00     0.248 C 
BRANCH  11  12
ATOM     12  O   UNL A   1      34.130  24.887  25.023  1.00  0.00    -0.487 OA
BRANCH  12  13
ATOM     13  C   UNL A   1      33.065  25.506  24.437  1.00  0.00     0.175 A 
ATOM     14  C   UNL A   1      32.677  26.732  25.014  1.00  0.00     0.162 A 
ATOM     15  C   UNL A   1      31.431  27.270  24.699  1.00  0.00     0.056 A 
ATOM     16  C   UNL A   1      30.576  26.618  23.802  1.00  0.00    -0.018 A 
ATOM     17  C   UNL A   1      32.334  25.006  23.356  1.00  0.00     0.064 A 
ATOM     18  C   UNL A   1      31.070  25.531  23.074  1.00  0.00     0.026 A 
ATOM     19  Br  UNL A   1      32.983  23.676  22.162  1.00  0.00    -0.047 Br
BRANCH  14  20
ATOM     20  O   UNL A   1      33.617  27.409  25.745  1.00  0.00    -0.490 OA
BRANCH  20  21
ATOM     21  C   UNL A   1      33.220  28.111  26.924  1.00  0.00     0.226 C 
ATOM     22  C   UNL A   1      33.753  29.537  27.007  1.00  0.00     0.049 C 
ENDBRANCH  20  21
ENDBRANCH  14  20
BRANCH  16  23
ATOM     23  C   UNL A   1      29.184  27.129  23.559  1.00  0.00     0.191 C 
BRANCH  23  24
ATOM     24  O   UNL A   1      28.202  26.165  23.929  1.00  0.00    -0.392 OA
ATOM     25  H   UNL A   1      27.529  26.587  24.486  1.00  0.00     0.211 HD
ENDBRANCH  23  24
ENDBRANCH  16  23
ENDBRANCH  12  13
ENDBRANCH  11  12
ENDBRANCH   8  11
ENDBRANCH   6   8
ENDBRANCH   5   6
ENDBRANCH   4   5
ENDBRANCH   3   4
ENDBRANCH   2   3
ENDBRANCH   1   2
BRANCH   1  26
ATOM     26  C   UNL A   1      40.922  21.972  27.468  1.00  0.00     0.188 C 
BRANCH  26  27
ATOM     27  O   UNL A   1      40.691  20.585  27.463  1.00  0.00    -0.376 OA
BRANCH  27  28
ATOM     28  C   UNL A   1      41.795  19.699  27.474  1.00  0.00     0.202 C 
BRANCH  28  29
ATOM     29  C   UNL A   1      42.204  18.872  26.242  1.00  0.00     0.261 C 
BRANCH  29  30
ATOM     30  O   UNL A   1      42.666  19.581  25.084  1.00  0.00    -0.460 OA
BRANCH  30  31
ATOM     31  C   UNL A   1      44.000  19.671  24.891  1.00  0.00     0.338 C 
ATOM     32  O   UNL A   1      44.733  18.808  24.423  1.00  0.00    -0.246 OA
BRANCH  31  33
ATOM     33  C   UNL A   1      44.376  21.087  25.103  1.00  0.00     0.060 A 
ATOM     34  C   UNL A   1      45.083  21.443  26.263  1.00  0.00     0.016 A 
ATOM     35  C   UNL A   1      44.075  22.049  24.138  1.00  0.00     0.016 A 
ATOM     36  C   UNL A   1      45.470  22.769  26.471  1.00  0.00     0.010 A 
ATOM     37  C   UNL A   1      44.437  23.379  24.360  1.00  0.00     0.010 A 
ATOM     38  C   UNL A   1      45.109  23.751  25.539  1.00  0.00    -0.014 A 
BRANCH  38  39
ATOM     39  C   UNL A   1      45.218  25.190  25.878  1.00  0.00     0.031 A 
ATOM     40  C   UNL A   1      46.591  25.806  25.875  1.00  0.00     0.074 A 
ATOM     41  C   UNL A   1      44.149  25.922  26.236  1.00  0.00     0.049 A 
ATOM     42  N   UNL A   1      46.973  26.989  26.274  1.00  0.00    -0.248 NA
ATOM     43  C   UNL A   1      47.683  24.962  25.360  1.00  0.00     0.031 C 
ATOM     44  C   UNL A   1      42.766  25.453  26.256  1.00  0.00     0.029 A 
ATOM     45  N   UNL A   1      44.074  27.216  26.695  1.00  0.00    -0.354 N 
ATOM     46  C   UNL A   1      48.351  27.018  26.100  1.00  0.00     0.074 A 
ATOM     47  C   UNL A   1      48.739  25.734  25.559  1.00  0.00     0.031 C 
ATOM     48  C   UNL A   1      41.982  26.430  26.747  1.00  0.00     0.029 A 
ATOM     49  C   UNL A   1      42.814  27.577  27.110  1.00  0.00     0.049 A 
ATOM     50  H   UNL A   1      44.847  27.824  26.722  1.00  0.00     0.167 HD
ATOM     51  C   UNL A   1      49.217  28.023  26.360  1.00  0.00     0.034 A 
ATOM     52  C   UNL A   1      42.391  28.690  27.744  1.00  0.00     0.034 A 
ATOM     53  C   UNL A   1      48.829  29.303  26.886  1.00  0.00     0.049 A 
ATOM     54  C   UNL A   1      43.382  29.785  28.060  1.00  0.00     0.074 A 
ATOM     55  C   UNL A   1      49.628  30.402  27.147  1.00  0.00     0.029 A 
ATOM     56  N   UNL A   1      47.536  29.651  27.243  1.00  0.00    -0.354 N 
ATOM     57  N   UNL A   1      44.667  29.840  27.800  1.00  0.00    -0.248 NA
ATOM     58  C   UNL A   1      42.860  30.985  28.733  1.00  0.00     0.031 C 
ATOM     59  C   UNL A   1      48.822  31.404  27.696  1.00  0.00     0.029 A 
ATOM     60  C   UNL A   1      47.515  30.944  27.736  1.00  0.00     0.049 A 
ATOM     61  H   UNL A   1      46.750  29.064  27.160  1.00  0.00     0.167 HD
ATOM     62  C   UNL A   1      45.094  31.092  28.233  1.00  0.00     0.074 A 
ATOM     63  C   UNL A   1      43.929  31.768  28.765  1.00  0.00     0.031 C 
ATOM     64  C   UNL A   1      46.337  31.630  28.202  1.00  0.00     0.034 A 
BRANCH  51  65
ATOM     65  C   UNL A   1      50.674  27.780  26.074  1.00  0.00     0.023 A 
ATOM     66  C   UNL A   1      51.551  27.453  27.128  1.00  0.00     0.012 A 
ATOM     67  C   UNL A   1      51.166  27.831  24.755  1.00  0.00     0.148 A 
ATOM     68  C   UNL A   1      52.901  27.214  26.878  1.00  0.00     0.002 A 
ATOM     69  C   UNL A   1      52.502  27.544  24.509  1.00  0.00     0.091 A 
ATOM     70  F   UNL A   1      50.321  28.169  23.770  1.00  0.00    -0.205 F 
ATOM     71  C   UNL A   1      53.374  27.248  25.569  1.00  0.00     0.022 A 
BRANCH  69  72
ATOM     72  S   UNL A   1      53.188  27.484  22.850  1.00  0.00     0.127 S 
ATOM     73  O   UNL A   1      54.201  26.438  22.988  1.00  0.00    -0.237 OA
ATOM     74  O   UNL A   1      52.024  27.102  22.051  1.00  0.00    -0.237 OA
ATOM     75  O   UNL A   1      53.702  28.819  22.577  1.00  0.00    -0.744 OA
ENDBRANCH  69  72
ENDBRANCH  51  65
BRANCH  52  76
ATOM     76  C   UNL A   1      40.954  28.842  28.116  1.00  0.00     0.023 A 
ATOM     77  C   UNL A   1      40.019  29.223  27.134  1.00  0.00     0.012 A 
ATOM     78  C   UNL A   1      40.510  28.614  29.433  1.00  0.00     0.148 A 
ATOM     79  C   UNL A   1      38.676  29.410  27.463  1.00  0.00     0.002 A 
ATOM     80  C   UNL A   1      39.162  28.750  29.743  1.00  0.00     0.091 A 
ATOM     81  F   UNL A   1      41.417  28.271  30.358  1.00  0.00    -0.205 F 
ATOM     82  C   UNL A   1      38.246  29.165  28.764  1.00  0.00     0.022 A 
BRANCH  80  83
ATOM     83  S   UNL A   1      38.495  28.347  31.363  1.00  0.00     0.127 S 
ATOM     84  O   UNL A   1      39.307  29.190  32.238  1.00  0.00    -0.237 OA
ATOM     85  O   UNL A   1      37.101  28.766  31.227  1.00  0.00    -0.237 OA
ATOM     86  O   UNL A   1      38.682  26.911  31.522  1.00  0.00    -0.744 OA
ENDBRANCH  80  83
ENDBRANCH  52  76
BRANCH  64  87
ATOM     87  C   UNL A   1      46.517  33.045  28.693  1.00  0.00     0.023 A 
ATOM     88  C   UNL A   1      46.895  33.289  30.026  1.00  0.00     0.012 A 
ATOM     89  C   UNL A   1      46.408  34.127  27.794  1.00  0.00     0.148 A 
ATOM     90  C   UNL A   1      47.138  34.591  30.466  1.00  0.00     0.002 A 
ATOM     91  C   UNL A   1      46.702  35.414  28.226  1.00  0.00     0.091 A 
ATOM     92  F   UNL A   1      46.032  33.874  26.533  1.00  0.00    -0.205 F 
ATOM     93  C   UNL A   1      47.056  35.650  29.564  1.00  0.00     0.022 A 
BRANCH  91  94
ATOM     94  S   UNL A   1      46.722  36.825  27.113  1.00  0.00     0.127 S 
ATOM     95  O   UNL A   1      45.505  37.532  27.507  1.00  0.00    -0.237 OA
ATOM     96  O   UNL A   1      47.967  37.497  27.488  1.00  0.00    -0.237 OA
ATOM     97  O   UNL A   1      46.714  36.276  25.764  1.00  0.00    -0.744 OA
ENDBRANCH  91  94
ENDBRANCH  64  87
ENDBRANCH  38  39
ENDBRANCH  31  33
ENDBRANCH  30  31
ENDBRANCH  29  30
ENDBRANCH  28  29
ENDBRANCH  27  28
ENDBRANCH  26  27
ENDBRANCH   1  26
TORSDOF 27
ENDMDL
MODEL 2
REMARK VINA RESULT:      -8.8      2.802      8.705
REMARK SMILES CCOc1cc(CO)cc(Br)c1OCC(C)(C)C(=O)OCCOCCOCCOC(=O)c1ccc(-c2c3nc(c(-c4cccc(S(=O)(=O)[O-])c4F)c4ccc([nH]4)c(-c4cccc(S(=O)(=O)[O-])c4F)c4nc(c(-c5cccc(S(=O)(=O)[O-])c5F)c5ccc2[nH]5)C=C4)C=C3)cc1
REMARK SMILES IDX 24 1 23 2 22 3 21 4 20 5 18 6 19 7 15 8 16 9 17 10 14 11
REMARK SMILES IDX 13 12 12 13 4 14 5 15 6 16 10 17 9 18 11 19 3 20 2 21 1 22
REMARK SMILES IDX 7 23 8 24 25 26 26 27 27 28 28 29 29 30 30 31 31 32 32 33
REMARK SMILES IDX 33 34 94 35 34 36 93 37 35 38 36 39 37 40 87 41 38 42 92 43
REMARK SMILES IDX 86 44 88 45 39 46 91 47 85 48 84 49 40 51 72 52 52 53 71 54
REMARK SMILES IDX 53 55 56 56 70 57 89 58 54 59 55 60 69 62 90 63 57 64 41 65
REMARK SMILES IDX 42 66 50 67 43 68 45 69 51 70 44 71 46 72 47 73 48 74 49 75
REMARK SMILES IDX 73 76 74 77 82 78 75 79 77 80 83 81 76 82 78 83 79 84 80 85
REMARK SMILES IDX 81 86 58 87 59 88 67 89 60 90 62 91 68 92 61 93 63 94 64 95
REMARK SMILES IDX 65 96 66 97
REMARK H PARENT 8 25 88 50 56 61
REMARK Flexibility Score: inf
ROOT
ATOM      1  C   UNL A   1      32.723  22.760  23.453  1.00  0.00     0.188 C 
ENDROOT
BRANCH   1   2
ATOM      2  O   UNL A   1      33.284  24.055  23.288  1.00  0.00    -0.376 OA
BRANCH   2   3
ATOM      3  C   UNL A   1      32.506  25.080  22.680  1.00  0.00     0.202 C 
BRANCH   3   4
ATOM      4  C   UNL A   1      31.473  25.856  23.513  1.00  0.00     0.261 C 
BRANCH   4   5
ATOM      5  O   UNL A   1      31.751  27.260  23.698  1.00  0.00    -0.463 OA
BRANCH   5   6
ATOM      6  C   UNL A   1      32.990  27.568  24.163  1.00  0.00     0.315 C 
ATOM      7  O   UNL A   1      33.961  27.711  23.428  1.00  0.00    -0.251 OA
BRANCH   6   8
ATOM      8  C   UNL A   1      33.100  27.613  25.696  1.00  0.00     0.096 C 
ATOM      9  C   UNL A   1      33.665  26.232  26.055  1.00  0.00     0.027 C 
ATOM     10  C   UNL A   1      31.775  27.705  26.505  1.00  0.00     0.027 C 
BRANCH   8  11
ATOM     11  C   UNL A   1      33.927  28.889  26.084  1.00  0.00     0.248 C 
BRANCH  11  12
ATOM     12  O   UNL A   1      33.812  29.548  27.351  1.00  0.00    -0.487 OA
BRANCH  12  13
ATOM     13  C   UNL A   1      33.998  30.898  27.421  1.00  0.00     0.175 A 
ATOM     14  C   UNL A   1      35.324  31.322  27.635  1.00  0.00     0.162 A 
ATOM     15  C   UNL A   1      35.565  32.634  28.034  1.00  0.00     0.056 A 
ATOM     16  C   UNL A   1      34.507  33.537  28.202  1.00  0.00    -0.018 A 
ATOM     17  C   UNL A   1      32.987  31.859  27.331  1.00  0.00     0.064 A 
ATOM     18  C   UNL A   1      33.232  33.163  27.769  1.00  0.00     0.026 A 
ATOM     19  Br  UNL A   1      31.277  31.530  26.565  1.00  0.00    -0.047 Br
BRANCH  14  20
ATOM     20  O   UNL A   1      36.326  30.454  27.291  1.00  0.00    -0.490 OA
BRANCH  20  21
ATOM     21  C   UNL A   1      37.290  30.066  28.271  1.00  0.00     0.226 C 
ATOM     22  C   UNL A   1      38.596  29.544  27.685  1.00  0.00     0.049 C 
ENDBRANCH  20  21
ENDBRANCH  14  20
BRANCH  16  23
ATOM     23  C   UNL A   1      34.752  34.913  28.755  1.00  0.00     0.191 C 
BRANCH  23  24
ATOM     24  O   UNL A   1      33.827  35.232  29.791  1.00  0.00    -0.392 OA
ATOM     25  H   UNL A   1      34.265  35.788  30.454  1.00  0.00     0.211 HD
ENDBRANCH  23  24
ENDBRANCH  16  23
ENDBRANCH  12  13
ENDBRANCH  11  12
ENDBRANCH   8  11
ENDBRANCH   6   8
ENDBRANCH   5   6
ENDBRANCH   4   5
ENDBRANCH   3   4
ENDBRANCH   2   3
ENDBRANCH   1   2
BRANCH   1  26
ATOM     26  C   UNL A   1      33.350  21.825  24.494  1.00  0.00     0.188 C 
BRANCH  26  27
ATOM     27  O   UNL A   1      34.049  22.458  25.537  1.00  0.00    -0.376 OA
BRANCH  27  28
ATOM     28  C   UNL A   1      35.200  21.836  26.077  1.00  0.00     0.202 C 
BRANCH  28  29
ATOM     29  C   UNL A   1      36.462  21.559  25.240  1.00  0.00     0.261 C 
BRANCH  29  30
ATOM     30  O   UNL A   1      37.599  22.409  25.443  1.00  0.00    -0.460 OA
BRANCH  30  31
ATOM     31  C   UNL A   1      38.711  21.856  25.974  1.00  0.00     0.338 C 
ATOM     32  O   UNL A   1      39.120  20.714  25.794  1.00  0.00    -0.246 OA
BRANCH  31  33
ATOM     33  C   UNL A   1      39.484  22.950  26.604  1.00  0.00     0.060 A 
ATOM     34  C   UNL A   1      39.200  24.280  26.256  1.00  0.00     0.016 A 
ATOM     35  C   UNL A   1      40.450  22.665  27.570  1.00  0.00     0.016 A 
ATOM     36  C   UNL A   1      39.900  25.328  26.857  1.00  0.00     0.010 A 
ATOM     37  C   UNL A   1      41.169  23.712  28.150  1.00  0.00     0.010 A 
ATOM     38  C   UNL A   1      40.919  25.046  27.775  1.00  0.00    -0.014 A 
BRANCH  38  39
ATOM     39  C   UNL A   1      41.882  26.097  28.182  1.00  0.00     0.031 A 
ATOM     40  C   UNL A   1      41.399  27.156  29.134  1.00  0.00     0.074 A 
ATOM     41  C   UNL A   1      43.129  26.153  27.683  1.00  0.00     0.049 A 
ATOM     42  N   UNL A   1      41.987  28.255  29.525  1.00  0.00    -0.248 NA
ATOM     43  C   UNL A   1      40.061  26.948  29.716  1.00  0.00     0.031 C 
ATOM     44  C   UNL A   1      43.727  25.178  26.775  1.00  0.00     0.029 A 
ATOM     45  N   UNL A   1      44.106  27.107  27.846  1.00  0.00    -0.354 N 
ATOM     46  C   UNL A   1      41.077  28.890  30.361  1.00  0.00     0.074 A 
ATOM     47  C   UNL A   1      39.898  28.056  30.423  1.00  0.00     0.031 C 
ATOM     48  C   UNL A   1      44.953  25.605  26.423  1.00  0.00     0.029 A 
ATOM     49  C   UNL A   1      45.210  26.900  27.052  1.00  0.00     0.049 A 
ATOM     50  H   UNL A   1      44.024  27.863  28.471  1.00  0.00     0.167 HD
ATOM     51  C   UNL A   1      41.212  30.061  31.025  1.00  0.00     0.034 A 
ATOM     52  C   UNL A   1      46.283  27.686  26.831  1.00  0.00     0.034 A 
ATOM     53  C   UNL A   1      42.388  30.884  30.974  1.00  0.00     0.049 A 
ATOM     54  C   UNL A   1      46.396  29.008  27.553  1.00  0.00     0.074 A 
ATOM     55  C   UNL A   1      42.637  32.069  31.642  1.00  0.00     0.029 A 
ATOM     56  N   UNL A   1      43.507  30.615  30.201  1.00  0.00    -0.354 N 
ATOM     57  N   UNL A   1      45.573  29.552  28.418  1.00  0.00    -0.248 NA
ATOM     58  C   UNL A   1      47.599  29.813  27.289  1.00  0.00     0.031 C 
ATOM     59  C   UNL A   1      43.893  32.537  31.246  1.00  0.00     0.029 A 
ATOM     60  C   UNL A   1      44.445  31.619  30.365  1.00  0.00     0.049 A 
ATOM     61  H   UNL A   1      43.616  29.828  29.621  1.00  0.00     0.167 HD
ATOM     62  C   UNL A   1      46.179  30.734  28.834  1.00  0.00     0.074 A 
ATOM     63  C   UNL A   1      47.443  30.824  28.133  1.00  0.00     0.031 C 
ATOM     64  C   UNL A   1      45.728  31.665  29.711  1.00  0.00     0.034 A 
BRANCH  51  65
ATOM     65  C   UNL A   1      40.054  30.520  31.871  1.00  0.00     0.023 A 
ATOM     66  C   UNL A   1      39.896  30.015  33.177  1.00  0.00     0.012 A 
ATOM     67  C   UNL A   1      39.150  31.486  31.386  1.00  0.00     0.148 A 
ATOM     68  C   UNL A   1      38.835  30.439  33.976  1.00  0.00     0.002 A 
ATOM     69  C   UNL A   1      38.125  31.938  32.207  1.00  0.00     0.091 A 
ATOM     70  F   UNL A   1      39.304  31.934  30.132  1.00  0.00    -0.205 F 
ATOM     71  C   UNL A   1      37.957  31.407  33.496  1.00  0.00     0.022 A 
BRANCH  69  72
ATOM     72  S   UNL A   1      36.992  33.240  31.709  1.00  0.00     0.127 S 
ATOM     73  O   UNL A   1      37.088  34.162  32.840  1.00  0.00    -0.237 OA
ATOM     74  O   UNL A   1      37.607  33.725  30.474  1.00  0.00    -0.237 OA
ATOM     75  O   UNL A   1      35.696  32.601  31.533  1.00  0.00    -0.744 OA
ENDBRANCH  69  72
ENDBRANCH  51  65
BRANCH  52  76
ATOM     76  C   UNL A   1      47.356  27.245  25.892  1.00  0.00     0.023 A 
ATOM     77  C   UNL A   1      48.347  26.351  26.341  1.00  0.00     0.012 A 
ATOM     78  C   UNL A   1      47.402  27.709  24.562  1.00  0.00     0.148 A 
ATOM     79  C   UNL A   1      49.383  25.953  25.495  1.00  0.00     0.002 A 
ATOM     80  C   UNL A   1      48.406  27.266  23.709  1.00  0.00     0.091 A 
ATOM     81  F   UNL A   1      46.461  28.574  24.159  1.00  0.00    -0.205 F 
ATOM     82  C   UNL A   1      49.408  26.403  24.178  1.00  0.00     0.022 A 
BRANCH  80  83
ATOM     83  S   UNL A   1      48.456  27.701  21.966  1.00  0.00     0.127 S 
ATOM     84  O   UNL A   1      47.114  28.239  21.753  1.00  0.00    -0.237 OA
ATOM     85  O   UNL A   1      49.529  28.695  21.935  1.00  0.00    -0.237 OA
ATOM     86  O   UNL A   1      48.759  26.465  21.258  1.00  0.00    -0.744 OA
ENDBRANCH  80  83
ENDBRANCH  52  76
BRANCH  64  87
ATOM     87  C   UNL A   1      46.619  32.839  30.028  1.00  0.00     0.023 A 
ATOM     88  C   UNL A   1      47.548  32.759  31.082  1.00  0.00     0.012 A 
ATOM     89  C   UNL A   1      46.600  33.986  29.207  1.00  0.00     0.148 A 
ATOM     90  C   UNL A   1      48.429  33.812  31.331  1.00  0.00     0.002 A 
ATOM     91  C   UNL A   1      47.515  35.008  29.429  1.00  0.00     0.091 A 
ATOM     92  F   UNL A   1      45.698  34.048  28.218  1.00  0.00    -0.205 F 
ATOM     93  C   UNL A   1      48.421  34.929  30.498  1.00  0.00     0.022 A 
BRANCH  91  94
ATOM     94  S   UNL A   1      47.648  36.436  28.346  1.00  0.00     0.127 S 
ATOM     95  O   UNL A   1      46.320  37.034  28.476  1.00  0.00    -0.237 OA
ATOM     96  O   UNL A   1      48.726  37.201  28.975  1.00  0.00    -0.237 OA
ATOM     97  O   UNL A   1      47.968  35.913  27.025  1.00  0.00    -0.744 OA
ENDBRANCH  91  94
ENDBRANCH  64  87
ENDBRANCH  38  39
ENDBRANCH  31  33
ENDBRANCH  30  31
ENDBRANCH  29  30
ENDBRANCH  28  29
ENDBRANCH  27  28
ENDBRANCH  26  27
ENDBRANCH   1  26
TORSDOF 27
ENDMDL
MODEL 3
REMARK VINA RESULT:      -8.6      5.214     11.775
REMARK SMILES CCOc1cc(CO)cc(Br)c1OCC(C)(C)C(=O)OCCOCCOCCOC(=O)c1ccc(-c2c3nc(c(-c4cccc(S(=O)(=O)[O-])c4F)c4ccc([nH]4)c(-c4cccc(S(=O)(=O)[O-])c4F)c4nc(c(-c5cccc(S(=O)(=O)[O-])c5F)c5ccc2[nH]5)C=C4)C=C3)cc1
REMARK SMILES IDX 24 1 23 2 22 3 21 4 20 5 18 6 19 7 15 8 16 9 17 10 14 11
REMARK SMILES IDX 13 12 12 13 4 14 5 15 6 16 10 17 9 18 11 19 3 20 2 21 1 22
REMARK SMILES IDX 7 23 8 24 25 26 26 27 27 28 28 29 29 30 30 31 31 32 32 33
REMARK SMILES IDX 33 34 94 35 34 36 93 37 35 38 36 39 37 40 87 41 38 42 92 43
REMARK SMILES IDX 86 44 88 45 39 46 91 47 85 48 84 49 40 51 72 52 52 53 71 54
REMARK SMILES IDX 53 55 56 56 70 57 89 58 54 59 55 60 69 62 90 63 57 64 41 65
REMARK SMILES IDX 42 66 50 67 43 68 45 69 51 70 44 71 46 72 47 73 48 74 49 75
REMARK SMILES IDX 73 76 74 77 82 78 75 79 77 80 83 81 76 82 78 83 79 84 80 85
REMARK SMILES IDX 81 86 58 87 59 88 67 89 60 90 62 91 68 92 61 93 63 94 64 95
REMARK SMILES IDX 65 96 66 97
REMARK H PARENT 8 25 88 50 56 61
REMARK Flexibility Score: inf
ROOT
ATOM      1  C   UNL A   1      32.844  35.868  29.195  1.00  0.00     0.188 C 
ENDROOT
BRANCH   1   2
ATOM      2  O   UNL A   1      32.624  36.847  30.201  1.00  0.00    -0.376 OA
BRANCH   2   3
ATOM      3  C   UNL A   1      32.645  36.458  31.569  1.00  0.00     0.202 C 
BRANCH   3   4
ATOM      4  C   UNL A   1      33.761  36.968  32.496  1.00  0.00     0.261 C 
BRANCH   4   5
ATOM      5  O   UNL A   1      34.935  36.132  32.573  1.00  0.00    -0.463 OA
BRANCH   5   6
ATOM      6  C   UNL A   1      35.001  35.291  33.638  1.00  0.00     0.315 C 
ATOM      7  O   UNL A   1      34.700  35.632  34.776  1.00  0.00    -0.251 OA
BRANCH   6   8
ATOM      8  C   UNL A   1      35.590  33.906  33.319  1.00  0.00     0.096 C 
ATOM      9  C   UNL A   1      34.364  33.086  32.894  1.00  0.00     0.027 C 
ATOM     10  C   UNL A   1      36.198  33.099  34.500  1.00  0.00     0.027 C 
BRANCH   8  11
ATOM     11  C   UNL A   1      36.757  34.103  32.289  1.00  0.00     0.248 C 
BRANCH  11  12
ATOM     12  O   UNL A   1      37.710  33.080  31.973  1.00  0.00    -0.487 OA
BRANCH  12  13
ATOM     13  C   UNL A   1      39.015  33.422  31.771  1.00  0.00     0.175 A 
ATOM     14  C   UNL A   1      39.875  33.229  32.870  1.00  0.00     0.162 A 
ATOM     15  C   UNL A   1      41.129  33.835  32.869  1.00  0.00     0.056 A 
ATOM     16  C   UNL A   1      41.549  34.610  31.781  1.00  0.00    -0.018 A 
ATOM     17  C   UNL A   1      39.535  33.965  30.593  1.00  0.00     0.064 A 
ATOM     18  C   UNL A   1      40.779  34.601  30.615  1.00  0.00     0.026 A 
ATOM     19  Br  UNL A   1      38.682  33.833  28.898  1.00  0.00    -0.047 Br
BRANCH  14  20
ATOM     20  O   UNL A   1      39.486  32.326  33.823  1.00  0.00    -0.490 OA
BRANCH  20  21
ATOM     21  C   UNL A   1      40.111  32.344  35.108  1.00  0.00     0.226 C 
ATOM     22  C   UNL A   1      39.204  31.891  36.246  1.00  0.00     0.049 C 
ENDBRANCH  20  21
ENDBRANCH  14  20
BRANCH  16  23
ATOM     23  C   UNL A   1      42.847  35.367  31.833  1.00  0.00     0.191 C 
BRANCH  23  24
ATOM     24  O   UNL A   1      43.724  34.972  30.781  1.00  0.00    -0.392 OA
ATOM     25  H   UNL A   1      43.685  35.626  30.066  1.00  0.00     0.211 HD
ENDBRANCH  23  24
ENDBRANCH  16  23
ENDBRANCH  12  13
ENDBRANCH  11  12
ENDBRANCH   8  11
ENDBRANCH   6   8
ENDBRANCH   5   6
ENDBRANCH   4   5
ENDBRANCH   3   4
ENDBRANCH   2   3
ENDBRANCH   1   2
BRANCH   1  26
ATOM     26  C   UNL A   1      34.235  35.785  28.554  1.00  0.00     0.188 C 
BRANCH  26  27
ATOM     27  O   UNL A   1      34.413  34.746  27.624  1.00  0.00    -0.376 OA
BRANCH  27  28
ATOM     28  C   UNL A   1      35.202  33.626  27.980  1.00  0.00     0.202 C 
BRANCH  28  29
ATOM     29  C   UNL A   1      34.907  32.767  29.223  1.00  0.00     0.261 C 
BRANCH  29  30
ATOM     30  O   UNL A   1      35.834  31.723  29.549  1.00  0.00    -0.460 OA
BRANCH  30  31
ATOM     31  C   UNL A   1      35.676  30.527  28.941  1.00  0.00     0.338 C 
ATOM     32  O   UNL A   1      34.737  30.184  28.233  1.00  0.00    -0.246 OA
BRANCH  31  33
ATOM     33  C   UNL A   1      36.957  29.798  29.073  1.00  0.00     0.060 A 
ATOM     34  C   UNL A   1      37.163  28.963  30.183  1.00  0.00     0.016 A 
ATOM     35  C   UNL A   1      37.932  29.901  28.078  1.00  0.00     0.016 A 
ATOM     36  C   UNL A   1      38.354  28.247  30.313  1.00  0.00     0.010 A 
ATOM     37  C   UNL A   1      39.133  29.206  28.223  1.00  0.00     0.010 A 
ATOM     38  C   UNL A   1      39.364  28.401  29.354  1.00  0.00    -0.014 A 
BRANCH  38  39
ATOM     39  C   UNL A   1      40.739  27.917  29.621  1.00  0.00     0.031 A 
ATOM     40  C   UNL A   1      41.560  28.668  30.634  1.00  0.00     0.074 A 
ATOM     41  C   UNL A   1      41.274  26.882  28.951  1.00  0.00     0.049 A 
ATOM     42  N   UNL A   1      42.824  28.544  30.939  1.00  0.00    -0.248 NA
ATOM     43  C   UNL A   1      40.855  29.711  31.400  1.00  0.00     0.031 C 
ATOM     44  C   UNL A   1      40.580  26.057  27.965  1.00  0.00     0.029 A 
ATOM     45  N   UNL A   1      42.553  26.377  28.974  1.00  0.00    -0.354 N 
ATOM     46  C   UNL A   1      43.077  29.518  31.897  1.00  0.00     0.074 A 
ATOM     47  C   UNL A   1      41.836  30.225  32.124  1.00  0.00     0.031 C 
ATOM     48  C   UNL A   1      41.452  25.176  27.443  1.00  0.00     0.029 A 
ATOM     49  C   UNL A   1      42.772  25.400  28.031  1.00  0.00     0.049 A 
ATOM     50  H   UNL A   1      43.243  26.683  29.605  1.00  0.00     0.167 HD
ATOM     51  C   UNL A   1      44.235  29.796  32.536  1.00  0.00     0.034 A 
ATOM     52  C   UNL A   1      43.916  24.788  27.660  1.00  0.00     0.034 A 
ATOM     53  C   UNL A   1      45.465  29.084  32.320  1.00  0.00     0.049 A 
ATOM     54  C   UNL A   1      45.206  25.142  28.361  1.00  0.00     0.074 A 
ATOM     55  C   UNL A   1      46.684  29.265  32.947  1.00  0.00     0.029 A 
ATOM     56  N   UNL A   1      45.635  28.066  31.395  1.00  0.00    -0.354 N 
ATOM     57  N   UNL A   1      45.413  25.996  29.335  1.00  0.00    -0.248 NA
ATOM     58  C   UNL A   1      46.418  24.426  27.930  1.00  0.00     0.031 C 
ATOM     59  C   UNL A   1      47.602  28.379  32.377  1.00  0.00     0.029 A 
ATOM     60  C   UNL A   1      46.943  27.616  31.425  1.00  0.00     0.049 A 
ATOM     61  H   UNL A   1      44.930  27.716  30.804  1.00  0.00     0.167 HD
ATOM     62  C   UNL A   1      46.762  25.886  29.662  1.00  0.00     0.074 A 
ATOM     63  C   UNL A   1      47.322  24.876  28.789  1.00  0.00     0.031 C 
ATOM     64  C   UNL A   1      47.474  26.565  30.595  1.00  0.00     0.034 A 
BRANCH  51  65
ATOM     65  C   UNL A   1      44.227  30.919  33.538  1.00  0.00     0.023 A 
ATOM     66  C   UNL A   1      44.458  32.242  33.112  1.00  0.00     0.012 A 
ATOM     67  C   UNL A   1      43.945  30.668  34.895  1.00  0.00     0.148 A 
ATOM     68  C   UNL A   1      44.442  33.294  34.026  1.00  0.00     0.002 A 
ATOM     69  C   UNL A   1      43.883  31.727  35.791  1.00  0.00     0.091 A 
ATOM     70  F   UNL A   1      43.753  29.399  35.285  1.00  0.00    -0.205 F 
ATOM     71  C   UNL A   1      44.144  33.039  35.362  1.00  0.00     0.022 A 
BRANCH  69  72
ATOM     72  S   UNL A   1      43.429  31.511  37.515  1.00  0.00     0.127 S 
ATOM     73  O   UNL A   1      42.211  30.708  37.400  1.00  0.00    -0.237 OA
ATOM     74  O   UNL A   1      44.585  30.790  38.048  1.00  0.00    -0.237 OA
ATOM     75  O   UNL A   1      43.245  32.850  38.055  1.00  0.00    -0.744 OA
ENDBRANCH  69  72
ENDBRANCH  51  65
BRANCH  52  76
ATOM     76  C   UNL A   1      43.901  23.761  26.578  1.00  0.00     0.023 A 
ATOM     77  C   UNL A   1      44.369  24.100  25.293  1.00  0.00     0.012 A 
ATOM     78  C   UNL A   1      43.423  22.457  26.812  1.00  0.00     0.148 A 
ATOM     79  C   UNL A   1      44.329  23.170  24.253  1.00  0.00     0.002 A 
ATOM     80  C   UNL A   1      43.436  21.520  25.786  1.00  0.00     0.091 A 
ATOM     81  F   UNL A   1      42.963  22.159  28.035  1.00  0.00    -0.205 F 
ATOM     82  C   UNL A   1      43.872  21.879  24.501  1.00  0.00     0.022 A 
BRANCH  80  83
ATOM     83  S   UNL A   1      42.973  19.802  26.037  1.00  0.00     0.127 S 
ATOM     84  O   UNL A   1      41.936  19.620  25.023  1.00  0.00    -0.237 OA
ATOM     85  O   UNL A   1      44.231  19.107  25.762  1.00  0.00    -0.237 OA
ATOM     86  O   UNL A   1      42.524  19.711  27.420  1.00  0.00    -0.744 OA
ENDBRANCH  80  83
ENDBRANCH  52  76
BRANCH  64  87
ATOM     87  C   UNL A   1      48.927  26.208  30.784  1.00  0.00     0.023 A 
ATOM     88  C   UNL A   1      49.305  25.272  31.765  1.00  0.00     0.012 A 
ATOM     89  C   UNL A   1      49.905  26.731  29.912  1.00  0.00     0.148 A 
ATOM     90  C   UNL A   1      50.638  24.880  31.893  1.00  0.00     0.002 A 
ATOM     91  C   UNL A   1      51.221  26.296  30.012  1.00  0.00     0.091 A 
ATOM     92  F   UNL A   1      49.526  27.632  28.995  1.00  0.00    -0.205 F 
ATOM     93  C   UNL A   1      51.591  25.380  31.009  1.00  0.00     0.022 A 
BRANCH  91  94
ATOM     94  S   UNL A   1      52.496  26.807  28.854  1.00  0.00     0.127 S 
ATOM     95  O   UNL A   1      52.110  26.080  27.646  1.00  0.00    -0.237 OA
ATOM     96  O   UNL A   1      52.291  28.254  28.786  1.00  0.00    -0.237 OA
ATOM     97  O   UNL A   1      53.765  26.402  29.444  1.00  0.00    -0.744 OA
ENDBRANCH  91  94
ENDBRANCH  64  87
ENDBRANCH  38  39
ENDBRANCH  31  33
ENDBRANCH  30  31
ENDBRANCH  29  30
ENDBRANCH  28  29
ENDBRANCH  27  28
ENDBRANCH  26  27
ENDBRANCH   1  26
TORSDOF 27
ENDMDL
