MODEL 1
REMARK VINA RESULT:     -10.8      0.000      0.000
REMARK SMILES CC1=NN(c2ccc(Cl)c(C(=O)OCCOCCOCCOC(=O)c3ccc(-c4c5nc(c(-c6cccc(S(=O)(=O)[O-])c6F)c6ccc([nH]6)c(-c6cccc(S(=O)(=O)[O-])c6F)c6nc(c(-c7cccc(S(=O)(=O)[O-])c7F)c7ccc4[nH]7)C=C6)C=C5)cc3)c2)C(=O)/C1=C\c1ccccc1Cl
REMARK SMILES IDX 18 1 17 2 16 3 15 4 14 5 13 6 11 7 12 8 10 9 5 10 6 11 88 12
REMARK SMILES IDX 7 13 8 14 9 15 4 16 1 17 2 18 3 19 91 20 89 21 92 22 90 23
REMARK SMILES IDX 93 24 94 25 98 26 95 27 97 28 99 29 96 30 19 31 20 32 21 33
REMARK SMILES IDX 22 34 23 35 24 36 25 37 26 38 87 39 27 40 86 41 28 42 29 43
REMARK SMILES IDX 30 44 80 45 31 46 85 47 79 48 81 49 32 50 84 51 78 52 77 53
REMARK SMILES IDX 33 55 65 56 45 57 64 58 46 59 49 60 63 61 82 62 47 63 48 64
REMARK SMILES IDX 62 66 83 67 50 68 34 69 35 70 43 71 36 72 38 73 44 74 37 75
REMARK SMILES IDX 39 76 40 77 41 78 42 79 66 80 67 81 75 82 68 83 70 84 76 85
REMARK SMILES IDX 69 86 71 87 72 88 73 89 74 90 51 91 52 92 60 93 53 94 55 95
REMARK SMILES IDX 61 96 54 97 56 98 57 99 58 100 59 101
REMARK H PARENT 81 54 49 65
REMARK Flexibility Score: inf
ROOT
ATOM      1  C   UNL A   1      42.229  21.276  27.160  1.00  0.00     0.188 C 
ENDROOT
BRANCH   1   2
ATOM      2  C   UNL A   1      40.698  21.480  27.199  1.00  0.00     0.188 C 
BRANCH   2   3
ATOM      3  O   UNL A   1      39.873  20.871  26.223  1.00  0.00    -0.376 OA
BRANCH   3   4
ATOM      4  C   UNL A   1      38.776  21.583  25.668  1.00  0.00     0.202 C 
BRANCH   4   5
ATOM      5  C   UNL A   1      37.509  20.857  25.212  1.00  0.00     0.261 C 
BRANCH   5   6
ATOM      6  O   UNL A   1      36.327  21.646  25.379  1.00  0.00    -0.460 OA
BRANCH   6   7
ATOM      7  C   UNL A   1      35.791  22.128  24.232  1.00  0.00     0.339 C 
ATOM      8  O   UNL A   1      36.388  22.464  23.224  1.00  0.00    -0.246 OA
BRANCH   7   9
ATOM      9  C   UNL A   1      34.322  22.046  24.291  1.00  0.00     0.080 A 
ATOM     10  C   UNL A   1      32.228  23.260  24.408  1.00  0.00     0.070 A 
ATOM     11  C   UNL A   1      31.562  22.056  24.651  1.00  0.00     0.030 A 
ATOM     12  C   UNL A   1      33.608  23.256  24.200  1.00  0.00     0.045 A 
ATOM     13  C   UNL A   1      32.261  20.847  24.665  1.00  0.00     0.023 A 
ATOM     14  C   UNL A   1      33.648  20.838  24.504  1.00  0.00     0.055 A 
ATOM     15  Cl  UNL A   1      34.456  19.319  24.646  1.00  0.00    -0.083 Cl
BRANCH  10  16
ATOM     16  N   UNL A   1      31.539  24.470  24.541  1.00  0.00    -0.196 N 
ATOM     17  C   UNL A   1      28.710  26.560  23.760  1.00  0.00     0.069 C 
ATOM     18  C   UNL A   1      29.987  25.913  24.184  1.00  0.00     0.071 C 
ATOM     19  N   UNL A   1      30.373  24.708  23.827  1.00  0.00    -0.169 NA
ATOM     20  C   UNL A   1      30.972  26.568  25.068  1.00  0.00     0.065 C 
ATOM     21  C   UNL A   1      31.939  25.498  25.397  1.00  0.00     0.280 C 
ATOM     22  C   UNL A   1      31.075  27.875  25.349  1.00  0.00     0.025 C 
ATOM     23  O   UNL A   1      32.852  25.538  26.203  1.00  0.00    -0.267 OA
BRANCH  22  24
ATOM     24  C   UNL A   1      32.300  28.435  25.946  1.00  0.00    -0.006 A 
ATOM     25  C   UNL A   1      32.320  28.725  27.317  1.00  0.00     0.009 A 
ATOM     26  C   UNL A   1      33.480  28.617  25.196  1.00  0.00     0.048 A 
ATOM     27  C   UNL A   1      33.502  29.152  27.930  1.00  0.00     0.001 A 
ATOM     28  C   UNL A   1      34.660  29.035  25.815  1.00  0.00     0.021 A 
ATOM     29  Cl  UNL A   1      33.537  28.318  23.491  1.00  0.00    -0.084 Cl
ATOM     30  C   UNL A   1      34.672  29.297  27.183  1.00  0.00     0.002 A 
ENDBRANCH  22  24
ENDBRANCH  10  16
ENDBRANCH   7   9
ENDBRANCH   6   7
ENDBRANCH   5   6
ENDBRANCH   4   5
ENDBRANCH   3   4
ENDBRANCH   2   3
ENDBRANCH   1   2
BRANCH   1  31
ATOM     31  O   UNL A   1      43.117  22.361  26.971  1.00  0.00    -0.376 OA
BRANCH  31  32
ATOM     32  C   UNL A   1      42.657  23.689  27.161  1.00  0.00     0.202 C 
BRANCH  32  33
ATOM     33  C   UNL A   1      42.302  24.596  25.978  1.00  0.00     0.261 C 
BRANCH  33  34
ATOM     34  O   UNL A   1      41.652  25.822  26.329  1.00  0.00    -0.460 OA
BRANCH  34  35
ATOM     35  C   UNL A   1      40.328  25.705  26.604  1.00  0.00     0.338 C 
ATOM     36  O   UNL A   1      39.561  24.849  26.197  1.00  0.00    -0.246 OA
BRANCH  35  37
ATOM     37  C   UNL A   1      39.956  26.687  27.635  1.00  0.00     0.060 A 
ATOM     38  C   UNL A   1      40.362  28.018  27.462  1.00  0.00     0.016 A 
ATOM     39  C   UNL A   1      39.271  26.294  28.785  1.00  0.00     0.016 A 
ATOM     40  C   UNL A   1      40.112  28.956  28.459  1.00  0.00     0.010 A 
ATOM     41  C   UNL A   1      39.041  27.233  29.793  1.00  0.00     0.010 A 
ATOM     42  C   UNL A   1      39.491  28.558  29.649  1.00  0.00    -0.014 A 
BRANCH  42  43
ATOM     43  C   UNL A   1      39.476  29.473  30.814  1.00  0.00     0.031 A 
ATOM     44  C   UNL A   1      40.550  29.324  31.857  1.00  0.00     0.074 A 
ATOM     45  C   UNL A   1      38.520  30.409  30.952  1.00  0.00     0.049 A 
ATOM     46  N   UNL A   1      40.707  29.968  32.983  1.00  0.00    -0.248 NA
ATOM     47  C   UNL A   1      41.587  28.311  31.593  1.00  0.00     0.031 C 
ATOM     48  C   UNL A   1      37.434  30.658  30.005  1.00  0.00     0.029 A 
ATOM     49  N   UNL A   1      38.295  31.305  31.968  1.00  0.00    -0.354 N 
ATOM     50  C   UNL A   1      41.841  29.423  33.575  1.00  0.00     0.074 A 
ATOM     51  C   UNL A   1      42.329  28.390  32.688  1.00  0.00     0.031 C 
ATOM     52  C   UNL A   1      36.630  31.611  30.507  1.00  0.00     0.029 A 
ATOM     53  C   UNL A   1      37.133  32.024  31.815  1.00  0.00     0.049 A 
ATOM     54  H   UNL A   1      38.906  31.420  32.731  1.00  0.00     0.167 HD
ATOM     55  C   UNL A   1      42.433  29.762  34.744  1.00  0.00     0.034 A 
ATOM     56  C   UNL A   1      36.534  32.894  32.654  1.00  0.00     0.034 A 
ATOM     57  C   UNL A   1      41.954  30.795  35.620  1.00  0.00     0.049 A 
ATOM     58  C   UNL A   1      37.193  33.224  33.970  1.00  0.00     0.074 A 
ATOM     59  C   UNL A   1      42.505  31.239  36.808  1.00  0.00     0.029 A 
ATOM     60  N   UNL A   1      40.802  31.537  35.411  1.00  0.00    -0.354 N 
ATOM     61  N   UNL A   1      38.331  32.792  34.457  1.00  0.00    -0.248 NA
ATOM     62  C   UNL A   1      36.500  34.189  34.837  1.00  0.00     0.031 C 
ATOM     63  C   UNL A   1      41.674  32.238  37.328  1.00  0.00     0.029 A 
ATOM     64  C   UNL A   1      40.621  32.432  36.449  1.00  0.00     0.049 A 
ATOM     65  H   UNL A   1      40.201  31.439  34.637  1.00  0.00     0.167 HD
ATOM     66  C   UNL A   1      38.511  33.464  35.662  1.00  0.00     0.074 A 
ATOM     67  C   UNL A   1      37.373  34.344  35.824  1.00  0.00     0.031 C 
ATOM     68  C   UNL A   1      39.520  33.353  36.562  1.00  0.00     0.034 A 
BRANCH  55  69
ATOM     69  C   UNL A   1      43.689  29.029  35.129  1.00  0.00     0.023 A 
ATOM     70  C   UNL A   1      43.593  27.789  35.795  1.00  0.00     0.012 A 
ATOM     71  C   UNL A   1      44.958  29.531  34.781  1.00  0.00     0.148 A 
ATOM     72  C   UNL A   1      44.740  27.074  36.131  1.00  0.00     0.002 A 
ATOM     73  C   UNL A   1      46.095  28.791  35.082  1.00  0.00     0.091 A 
ATOM     74  F   UNL A   1      45.028  30.721  34.169  1.00  0.00    -0.205 F 
ATOM     75  C   UNL A   1      45.989  27.569  35.766  1.00  0.00     0.022 A 
BRANCH  73  76
ATOM     76  S   UNL A   1      47.744  29.305  34.590  1.00  0.00     0.127 S 
ATOM     77  O   UNL A   1      48.579  28.329  35.290  1.00  0.00    -0.237 OA
ATOM     78  O   UNL A   1      47.697  29.136  33.137  1.00  0.00    -0.237 OA
ATOM     79  O   UNL A   1      47.887  30.683  35.037  1.00  0.00    -0.744 OA
ENDBRANCH  73  76
ENDBRANCH  55  69
BRANCH  56  80
ATOM     80  C   UNL A   1      35.249  33.545  32.269  1.00  0.00     0.023 A 
ATOM     81  C   UNL A   1      34.169  33.530  33.173  1.00  0.00     0.012 A 
ATOM     82  C   UNL A   1      35.087  34.163  31.015  1.00  0.00     0.148 A 
ATOM     83  C   UNL A   1      32.939  34.087  32.819  1.00  0.00     0.002 A 
ATOM     84  C   UNL A   1      33.875  34.761  30.688  1.00  0.00     0.091 A 
ATOM     85  F   UNL A   1      36.121  34.148  30.161  1.00  0.00    -0.205 F 
ATOM     86  C   UNL A   1      32.795  34.710  31.582  1.00  0.00     0.022 A 
BRANCH  84  87
ATOM     87  S   UNL A   1      33.634  35.677  29.162  1.00  0.00     0.127 S 
ATOM     88  O   UNL A   1      34.922  35.497  28.500  1.00  0.00    -0.237 OA
ATOM     89  O   UNL A   1      32.519  34.954  28.549  1.00  0.00    -0.237 OA
ATOM     90  O   UNL A   1      33.315  37.038  29.571  1.00  0.00    -0.744 OA
ENDBRANCH  84  87
ENDBRANCH  56  80
BRANCH  68  91
ATOM     91  C   UNL A   1      39.481  34.242  37.778  1.00  0.00     0.023 A 
ATOM     92  C   UNL A   1      39.961  35.564  37.699  1.00  0.00     0.012 A 
ATOM     93  C   UNL A   1      38.890  33.792  38.975  1.00  0.00     0.148 A 
ATOM     94  C   UNL A   1      39.881  36.414  38.802  1.00  0.00     0.002 A 
ATOM     95  C   UNL A   1      38.770  34.659  40.055  1.00  0.00     0.091 A 
ATOM     96  F   UNL A   1      38.457  32.524  39.037  1.00  0.00    -0.205 F 
ATOM     97  C   UNL A   1      39.274  35.966  39.974  1.00  0.00     0.022 A 
BRANCH  95  98
ATOM     98  S   UNL A   1      37.917  34.198  41.567  1.00  0.00     0.127 S 
ATOM     99  O   UNL A   1      36.706  33.565  41.045  1.00  0.00    -0.237 OA
ATOM    100  O   UNL A   1      38.866  33.276  42.192  1.00  0.00    -0.237 OA
ATOM    101  O   UNL A   1      37.706  35.438  42.302  1.00  0.00    -0.744 OA
ENDBRANCH  95  98
ENDBRANCH  68  91
ENDBRANCH  42  43
ENDBRANCH  35  37
ENDBRANCH  34  35
ENDBRANCH  33  34
ENDBRANCH  32  33
ENDBRANCH  31  32
ENDBRANCH   1  31
TORSDOF 22
ENDMDL
MODEL 2
REMARK VINA RESULT:     -10.7      4.670      6.331
REMARK SMILES CC1=NN(c2ccc(Cl)c(C(=O)OCCOCCOCCOC(=O)c3ccc(-c4c5nc(c(-c6cccc(S(=O)(=O)[O-])c6F)c6ccc([nH]6)c(-c6cccc(S(=O)(=O)[O-])c6F)c6nc(c(-c7cccc(S(=O)(=O)[O-])c7F)c7ccc4[nH]7)C=C6)C=C5)cc3)c2)C(=O)/C1=C\c1ccccc1Cl
REMARK SMILES IDX 18 1 17 2 16 3 15 4 14 5 13 6 11 7 12 8 10 9 5 10 6 11 88 12
REMARK SMILES IDX 7 13 8 14 9 15 4 16 1 17 2 18 3 19 91 20 89 21 92 22 90 23
REMARK SMILES IDX 93 24 94 25 98 26 95 27 97 28 99 29 96 30 19 31 20 32 21 33
REMARK SMILES IDX 22 34 23 35 24 36 25 37 26 38 87 39 27 40 86 41 28 42 29 43
REMARK SMILES IDX 30 44 80 45 31 46 85 47 79 48 81 49 32 50 84 51 78 52 77 53
REMARK SMILES IDX 33 55 65 56 45 57 64 58 46 59 49 60 63 61 82 62 47 63 48 64
REMARK SMILES IDX 62 66 83 67 50 68 34 69 35 70 43 71 36 72 38 73 44 74 37 75
REMARK SMILES IDX 39 76 40 77 41 78 42 79 66 80 67 81 75 82 68 83 70 84 76 85
REMARK SMILES IDX 69 86 71 87 72 88 73 89 74 90 51 91 52 92 60 93 53 94 55 95
REMARK SMILES IDX 61 96 54 97 56 98 57 99 58 100 59 101
REMARK H PARENT 81 54 49 65
REMARK Flexibility Score: inf
ROOT
ATOM      1  C   UNL A   1      45.375  18.686  25.385  1.00  0.00     0.188 C 
ENDROOT
BRANCH   1   2
ATOM      2  C   UNL A   1      43.889  18.947  25.051  1.00  0.00     0.188 C 
BRANCH   2   3
ATOM      3  O   UNL A   1      42.870  18.268  25.760  1.00  0.00    -0.376 OA
BRANCH   3   4
ATOM      4  C   UNL A   1      42.339  18.820  26.957  1.00  0.00     0.202 C 
BRANCH   4   5
ATOM      5  C   UNL A   1      41.968  20.300  27.050  1.00  0.00     0.261 C 
BRANCH   5   6
ATOM      6  O   UNL A   1      40.563  20.511  27.222  1.00  0.00    -0.460 OA
BRANCH   6   7
ATOM      7  C   UNL A   1      39.835  20.499  26.080  1.00  0.00     0.339 C 
ATOM      8  O   UNL A   1      39.883  19.673  25.185  1.00  0.00    -0.246 OA
BRANCH   7   9
ATOM      9  C   UNL A   1      38.818  21.563  26.121  1.00  0.00     0.080 A 
ATOM     10  C   UNL A   1      36.527  22.194  25.648  1.00  0.00     0.070 A 
ATOM     11  C   UNL A   1      36.858  23.528  25.903  1.00  0.00     0.030 A 
ATOM     12  C   UNL A   1      37.500  21.203  25.782  1.00  0.00     0.045 A 
ATOM     13  C   UNL A   1      38.147  23.873  26.313  1.00  0.00     0.023 A 
ATOM     14  C   UNL A   1      39.139  22.895  26.405  1.00  0.00     0.055 A 
ATOM     15  Cl  UNL A   1      40.735  23.416  26.808  1.00  0.00    -0.083 Cl
BRANCH  10  16
ATOM     16  N   UNL A   1      35.277  21.885  25.100  1.00  0.00    -0.196 N 
ATOM     17  C   UNL A   1      32.824  19.448  24.086  1.00  0.00     0.069 C 
ATOM     18  C   UNL A   1      33.690  20.629  24.377  1.00  0.00     0.071 C 
ATOM     19  N   UNL A   1      34.900  20.566  24.885  1.00  0.00    -0.169 NA
ATOM     20  C   UNL A   1      33.271  22.022  24.122  1.00  0.00     0.065 C 
ATOM     21  C   UNL A   1      34.322  22.844  24.760  1.00  0.00     0.280 C 
ATOM     22  C   UNL A   1      32.275  22.444  23.329  1.00  0.00     0.025 C 
ATOM     23  O   UNL A   1      34.332  24.052  24.920  1.00  0.00    -0.267 OA
BRANCH  22  24
ATOM     24  C   UNL A   1      32.192  23.846  22.884  1.00  0.00    -0.006 A 
ATOM     25  C   UNL A   1      32.846  24.228  21.707  1.00  0.00     0.009 A 
ATOM     26  C   UNL A   1      31.410  24.800  23.567  1.00  0.00     0.048 A 
ATOM     27  C   UNL A   1      32.694  25.525  21.204  1.00  0.00     0.001 A 
ATOM     28  C   UNL A   1      31.252  26.090  23.055  1.00  0.00     0.021 A 
ATOM     29  Cl  UNL A   1      30.595  24.425  25.049  1.00  0.00    -0.084 Cl
ATOM     30  C   UNL A   1      31.890  26.450  21.870  1.00  0.00     0.002 A 
ENDBRANCH  22  24
ENDBRANCH  10  16
ENDBRANCH   7   9
ENDBRANCH   6   7
ENDBRANCH   5   6
ENDBRANCH   4   5
ENDBRANCH   3   4
ENDBRANCH   2   3
ENDBRANCH   1   2
BRANCH   1  31
ATOM     31  O   UNL A   1      46.330  19.729  25.381  1.00  0.00    -0.376 OA
BRANCH  31  32
ATOM     32  C   UNL A   1      46.054  20.933  24.685  1.00  0.00     0.202 C 
BRANCH  32  33
ATOM     33  C   UNL A   1      45.937  22.277  25.413  1.00  0.00     0.261 C 
BRANCH  33  34
ATOM     34  O   UNL A   1      45.292  23.316  24.669  1.00  0.00    -0.460 OA
BRANCH  34  35
ATOM     35  C   UNL A   1      43.952  23.407  24.864  1.00  0.00     0.338 C 
ATOM     36  O   UNL A   1      43.104  22.580  24.574  1.00  0.00    -0.246 OA
BRANCH  35  37
ATOM     37  C   UNL A   1      43.656  24.610  25.658  1.00  0.00     0.060 A 
ATOM     38  C   UNL A   1      43.154  25.738  24.993  1.00  0.00     0.016 A 
ATOM     39  C   UNL A   1      43.926  24.651  27.026  1.00  0.00     0.016 A 
ATOM     40  C   UNL A   1      42.950  26.924  25.691  1.00  0.00     0.010 A 
ATOM     41  C   UNL A   1      43.742  25.849  27.719  1.00  0.00     0.010 A 
ATOM     42  C   UNL A   1      43.286  26.999  27.048  1.00  0.00    -0.014 A 
BRANCH  42  43
ATOM     43  C   UNL A   1      43.340  28.317  27.722  1.00  0.00     0.031 A 
ATOM     44  C   UNL A   1      44.669  29.014  27.829  1.00  0.00     0.074 A 
ATOM     45  C   UNL A   1      42.234  28.878  28.242  1.00  0.00     0.049 A 
ATOM     46  N   UNL A   1      44.969  30.139  28.421  1.00  0.00    -0.248 NA
ATOM     47  C   UNL A   1      45.814  28.351  27.180  1.00  0.00     0.031 C 
ATOM     48  C   UNL A   1      40.890  28.306  28.193  1.00  0.00     0.029 A 
ATOM     49  N   UNL A   1      42.080  30.047  28.946  1.00  0.00    -0.354 N 
ATOM     50  C   UNL A   1      46.338  30.308  28.241  1.00  0.00     0.074 A 
ATOM     51  C   UNL A   1      46.811  29.166  27.491  1.00  0.00     0.031 C 
ATOM     52  C   UNL A   1      40.053  29.104  28.880  1.00  0.00     0.029 A 
ATOM     53  C   UNL A   1      40.806  30.228  29.431  1.00  0.00     0.049 A 
ATOM     54  H   UNL A   1      42.809  30.691  29.090  1.00  0.00     0.167 HD
ATOM     55  C   UNL A   1      47.127  31.329  28.648  1.00  0.00     0.034 A 
ATOM     56  C   UNL A   1      40.316  31.181  30.251  1.00  0.00     0.034 A 
ATOM     57  C   UNL A   1      46.654  32.470  29.383  1.00  0.00     0.049 A 
ATOM     58  C   UNL A   1      41.227  32.286  30.726  1.00  0.00     0.074 A 
ATOM     59  C   UNL A   1      47.368  33.575  29.809  1.00  0.00     0.029 A 
ATOM     60  N   UNL A   1      45.349  32.644  29.815  1.00  0.00    -0.354 N 
ATOM     61  N   UNL A   1      42.489  32.498  30.441  1.00  0.00    -0.248 NA
ATOM     62  C   UNL A   1      40.634  33.304  31.607  1.00  0.00     0.031 C 
ATOM     63  C   UNL A   1      46.497  34.411  30.517  1.00  0.00     0.029 A 
ATOM     64  C   UNL A   1      45.236  33.837  30.507  1.00  0.00     0.049 A 
ATOM     65  H   UNL A   1      44.611  32.012  29.654  1.00  0.00     0.167 HD
ATOM     66  C   UNL A   1      42.828  33.692  31.071  1.00  0.00     0.074 A 
ATOM     67  C   UNL A   1      41.633  34.165  31.738  1.00  0.00     0.031 C 
ATOM     68  C   UNL A   1      44.023  34.331  31.106  1.00  0.00     0.034 A 
BRANCH  55  69
ATOM     69  C   UNL A   1      48.584  31.277  28.276  1.00  0.00     0.023 A 
ATOM     70  C   UNL A   1      49.030  31.952  27.121  1.00  0.00     0.012 A 
ATOM     71  C   UNL A   1      49.519  30.616  29.097  1.00  0.00     0.148 A 
ATOM     72  C   UNL A   1      50.379  31.948  26.774  1.00  0.00     0.002 A 
ATOM     73  C   UNL A   1      50.868  30.653  28.766  1.00  0.00     0.091 A 
ATOM     74  F   UNL A   1      49.071  29.962  30.177  1.00  0.00    -0.205 F 
ATOM     75  C   UNL A   1      51.298  31.309  27.601  1.00  0.00     0.022 A 
BRANCH  73  76
ATOM     76  S   UNL A   1      52.140  29.925  29.804  1.00  0.00     0.127 S 
ATOM     77  O   UNL A   1      53.345  30.179  29.016  1.00  0.00    -0.237 OA
ATOM     78  O   UNL A   1      52.031  30.721  31.027  1.00  0.00    -0.237 OA
ATOM     79  O   UNL A   1      51.780  28.523  29.959  1.00  0.00    -0.744 OA
ENDBRANCH  73  76
ENDBRANCH  55  69
BRANCH  56  80
ATOM     80  C   UNL A   1      38.883  31.157  30.659  1.00  0.00     0.023 A 
ATOM     81  C   UNL A   1      38.489  30.372  31.760  1.00  0.00     0.012 A 
ATOM     82  C   UNL A   1      37.908  31.893  29.957  1.00  0.00     0.148 A 
ATOM     83  C   UNL A   1      37.146  30.291  32.132  1.00  0.00     0.002 A 
ATOM     84  C   UNL A   1      36.580  31.849  30.364  1.00  0.00     0.091 A 
ATOM     85  F   UNL A   1      38.300  32.618  28.898  1.00  0.00    -0.205 F 
ATOM     86  C   UNL A   1      36.194  31.036  31.440  1.00  0.00     0.022 A 
BRANCH  84  87
ATOM     87  S   UNL A   1      35.305  32.856  29.599  1.00  0.00     0.127 S 
ATOM     88  O   UNL A   1      35.880  34.194  29.703  1.00  0.00    -0.237 OA
ATOM     89  O   UNL A   1      35.259  32.308  28.243  1.00  0.00    -0.237 OA
ATOM     90  O   UNL A   1      34.100  32.620  30.383  1.00  0.00    -0.744 OA
ENDBRANCH  84  87
ENDBRANCH  56  80
BRANCH  68  91
ATOM     91  C   UNL A   1      44.098  35.646  31.838  1.00  0.00     0.023 A 
ATOM     92  C   UNL A   1      43.934  36.855  31.134  1.00  0.00     0.012 A 
ATOM     93  C   UNL A   1      44.246  35.677  33.240  1.00  0.00     0.148 A 
ATOM     94  C   UNL A   1      43.946  38.076  31.809  1.00  0.00     0.002 A 
ATOM     95  C   UNL A   1      44.209  36.894  33.911  1.00  0.00     0.091 A 
ATOM     96  F   UNL A   1      44.419  34.518  33.890  1.00  0.00    -0.205 F 
ATOM     97  C   UNL A   1      44.071  38.094  33.197  1.00  0.00     0.022 A 
BRANCH  95  98
ATOM     98  S   UNL A   1      44.263  37.004  35.703  1.00  0.00     0.127 S 
ATOM     99  O   UNL A   1      45.426  36.174  36.018  1.00  0.00    -0.237 OA
ATOM    100  O   UNL A   1      44.459  38.438  35.921  1.00  0.00    -0.237 OA
ATOM    101  O   UNL A   1      42.984  36.491  36.175  1.00  0.00    -0.744 OA
ENDBRANCH  95  98
ENDBRANCH  68  91
ENDBRANCH  42  43
ENDBRANCH  35  37
ENDBRANCH  34  35
ENDBRANCH  33  34
ENDBRANCH  32  33
ENDBRANCH  31  32
ENDBRANCH   1  31
TORSDOF 22
ENDMDL
MODEL 3
REMARK VINA RESULT:     -10.6      4.316      7.583
REMARK SMILES CC1=NN(c2ccc(Cl)c(C(=O)OCCOCCOCCOC(=O)c3ccc(-c4c5nc(c(-c6cccc(S(=O)(=O)[O-])c6F)c6ccc([nH]6)c(-c6cccc(S(=O)(=O)[O-])c6F)c6nc(c(-c7cccc(S(=O)(=O)[O-])c7F)c7ccc4[nH]7)C=C6)C=C5)cc3)c2)C(=O)/C1=C\c1ccccc1Cl
REMARK SMILES IDX 18 1 17 2 16 3 15 4 14 5 13 6 11 7 12 8 10 9 5 10 6 11 88 12
REMARK SMILES IDX 7 13 8 14 9 15 4 16 1 17 2 18 3 19 91 20 89 21 92 22 90 23
REMARK SMILES IDX 93 24 94 25 98 26 95 27 97 28 99 29 96 30 19 31 20 32 21 33
REMARK SMILES IDX 22 34 23 35 24 36 25 37 26 38 87 39 27 40 86 41 28 42 29 43
REMARK SMILES IDX 30 44 80 45 31 46 85 47 79 48 81 49 32 50 84 51 78 52 77 53
REMARK SMILES IDX 33 55 65 56 45 57 64 58 46 59 49 60 63 61 82 62 47 63 48 64
REMARK SMILES IDX 62 66 83 67 50 68 34 69 35 70 43 71 36 72 38 73 44 74 37 75
REMARK SMILES IDX 39 76 40 77 41 78 42 79 66 80 67 81 75 82 68 83 70 84 76 85
REMARK SMILES IDX 69 86 71 87 72 88 73 89 74 90 51 91 52 92 60 93 53 94 55 95
REMARK SMILES IDX 61 96 54 97 56 98 57 99 58 100 59 101
REMARK H PARENT 81 54 49 65
REMARK Flexibility Score: inf
ROOT
ATOM      1  C   UNL A   1      41.642  20.504  26.578  1.00  0.00     0.188 C 
ENDROOT
BRANCH   1   2
ATOM      2  C   UNL A   1      40.357  21.254  26.996  1.00  0.00     0.188 C 
BRANCH   2   3
ATOM      3  O   UNL A   1      39.148  21.043  26.291  1.00  0.00    -0.376 OA
BRANCH   3   4
ATOM      4  C   UNL A   1      38.519  22.119  25.610  1.00  0.00     0.202 C 
BRANCH   4   5
ATOM      5  C   UNL A   1      37.007  22.334  25.692  1.00  0.00     0.261 C 
BRANCH   5   6
ATOM      6  O   UNL A   1      36.272  21.106  25.708  1.00  0.00    -0.460 OA
BRANCH   6   7
ATOM      7  C   UNL A   1      34.980  21.214  26.100  1.00  0.00     0.339 C 
ATOM      8  O   UNL A   1      34.568  21.431  27.227  1.00  0.00    -0.246 OA
BRANCH   7   9
ATOM      9  C   UNL A   1      34.094  21.195  24.924  1.00  0.00     0.080 A 
ATOM     10  C   UNL A   1      33.100  22.466  23.117  1.00  0.00     0.070 A 
ATOM     11  C   UNL A   1      32.266  21.381  22.834  1.00  0.00     0.030 A 
ATOM     12  C   UNL A   1      34.037  22.367  24.146  1.00  0.00     0.045 A 
ATOM     13  C   UNL A   1      32.377  20.192  23.557  1.00  0.00     0.023 A 
ATOM     14  C   UNL A   1      33.279  20.099  24.619  1.00  0.00     0.055 A 
ATOM     15  Cl  UNL A   1      33.279  18.638  25.537  1.00  0.00    -0.083 Cl
BRANCH  10  16
ATOM     16  N   UNL A   1      32.877  23.693  22.483  1.00  0.00    -0.196 N 
ATOM     17  C   UNL A   1      32.724  25.677  19.479  1.00  0.00     0.069 C 
ATOM     18  C   UNL A   1      32.773  25.085  20.849  1.00  0.00     0.071 C 
ATOM     19  N   UNL A   1      33.072  23.834  21.115  1.00  0.00    -0.169 NA
ATOM     20  C   UNL A   1      32.485  25.856  22.075  1.00  0.00     0.065 C 
ATOM     21  C   UNL A   1      32.428  24.837  23.145  1.00  0.00     0.280 C 
ATOM     22  C   UNL A   1      32.472  27.190  22.218  1.00  0.00     0.025 C 
ATOM     23  O   UNL A   1      32.088  24.988  24.305  1.00  0.00    -0.267 OA
BRANCH  22  24
ATOM     24  C   UNL A   1      32.526  27.817  23.550  1.00  0.00    -0.006 A 
ATOM     25  C   UNL A   1      33.767  27.980  24.178  1.00  0.00     0.009 A 
ATOM     26  C   UNL A   1      31.373  28.331  24.179  1.00  0.00     0.048 A 
ATOM     27  C   UNL A   1      33.859  28.670  25.391  1.00  0.00     0.001 A 
ATOM     28  C   UNL A   1      31.472  29.028  25.386  1.00  0.00     0.021 A 
ATOM     29  Cl  UNL A   1      29.794  28.144  23.493  1.00  0.00    -0.084 Cl
ATOM     30  C   UNL A   1      32.716  29.203  25.988  1.00  0.00     0.002 A 
ENDBRANCH  22  24
ENDBRANCH  10  16
ENDBRANCH   7   9
ENDBRANCH   6   7
ENDBRANCH   5   6
ENDBRANCH   4   5
ENDBRANCH   3   4
ENDBRANCH   2   3
ENDBRANCH   1   2
BRANCH   1  31
ATOM     31  O   UNL A   1      42.486  20.995  25.556  1.00  0.00    -0.376 OA
BRANCH  31  32
ATOM     32  C   UNL A   1      43.174  22.222  25.737  1.00  0.00     0.202 C 
BRANCH  32  33
ATOM     33  C   UNL A   1      43.855  22.944  24.569  1.00  0.00     0.261 C 
BRANCH  33  34
ATOM     34  O   UNL A   1      43.829  24.373  24.642  1.00  0.00    -0.460 OA
BRANCH  34  35
ATOM     35  C   UNL A   1      45.004  24.946  25.003  1.00  0.00     0.338 C 
ATOM     36  O   UNL A   1      46.113  24.706  24.556  1.00  0.00    -0.246 OA
BRANCH  35  37
ATOM     37  C   UNL A   1      44.739  26.064  25.923  1.00  0.00     0.060 A 
ATOM     38  C   UNL A   1      45.826  26.651  26.586  1.00  0.00     0.016 A 
ATOM     39  C   UNL A   1      43.435  26.490  26.177  1.00  0.00     0.016 A 
ATOM     40  C   UNL A   1      45.609  27.646  27.534  1.00  0.00     0.010 A 
ATOM     41  C   UNL A   1      43.218  27.474  27.145  1.00  0.00     0.010 A 
ATOM     42  C   UNL A   1      44.301  28.030  27.851  1.00  0.00    -0.014 A 
BRANCH  42  43
ATOM     43  C   UNL A   1      44.048  28.873  29.043  1.00  0.00     0.031 A 
ATOM     44  C   UNL A   1      43.969  30.364  28.863  1.00  0.00     0.074 A 
ATOM     45  C   UNL A   1      43.906  28.327  30.264  1.00  0.00     0.049 A 
ATOM     46  N   UNL A   1      43.815  31.301  29.761  1.00  0.00    -0.248 NA
ATOM     47  C   UNL A   1      44.079  30.867  27.482  1.00  0.00     0.031 C 
ATOM     48  C   UNL A   1      43.952  26.897  30.563  1.00  0.00     0.029 A 
ATOM     49  N   UNL A   1      43.726  28.924  31.487  1.00  0.00    -0.354 N 
ATOM     50  C   UNL A   1      43.836  32.503  29.062  1.00  0.00     0.074 A 
ATOM     51  C   UNL A   1      44.026  32.178  27.665  1.00  0.00     0.031 C 
ATOM     52  C   UNL A   1      43.850  26.729  31.894  1.00  0.00     0.029 A 
ATOM     53  C   UNL A   1      43.751  28.037  32.537  1.00  0.00     0.049 A 
ATOM     54  H   UNL A   1      43.593  29.893  31.600  1.00  0.00     0.167 HD
ATOM     55  C   UNL A   1      43.693  33.762  29.536  1.00  0.00     0.034 A 
ATOM     56  C   UNL A   1      43.727  28.264  33.866  1.00  0.00     0.034 A 
ATOM     57  C   UNL A   1      43.494  34.083  30.922  1.00  0.00     0.049 A 
ATOM     58  C   UNL A   1      43.610  29.681  34.372  1.00  0.00     0.074 A 
ATOM     59  C   UNL A   1      43.302  35.326  31.498  1.00  0.00     0.029 A 
ATOM     60  N   UNL A   1      43.476  33.156  31.953  1.00  0.00    -0.354 N 
ATOM     61  N   UNL A   1      43.504  30.796  33.691  1.00  0.00    -0.248 NA
ATOM     62  C   UNL A   1      43.574  29.866  35.831  1.00  0.00     0.031 C 
ATOM     63  C   UNL A   1      43.187  35.152  32.882  1.00  0.00     0.029 A 
ATOM     64  C   UNL A   1      43.281  33.798  33.162  1.00  0.00     0.049 A 
ATOM     65  H   UNL A   1      43.587  32.185  31.840  1.00  0.00     0.167 HD
ATOM     66  C   UNL A   1      43.345  31.807  34.634  1.00  0.00     0.074 A 
ATOM     67  C   UNL A   1      43.353  31.169  35.934  1.00  0.00     0.031 C 
ATOM     68  C   UNL A   1      43.220  33.143  34.443  1.00  0.00     0.034 A 
BRANCH  55  69
ATOM     69  C   UNL A   1      43.714  34.890  28.541  1.00  0.00     0.023 A 
ATOM     70  C   UNL A   1      42.501  35.356  27.994  1.00  0.00     0.012 A 
ATOM     71  C   UNL A   1      44.921  35.528  28.192  1.00  0.00     0.148 A 
ATOM     72  C   UNL A   1      42.489  36.422  27.097  1.00  0.00     0.002 A 
ATOM     73  C   UNL A   1      44.896  36.617  27.329  1.00  0.00     0.091 A 
ATOM     74  F   UNL A   1      46.065  35.055  28.705  1.00  0.00    -0.205 F 
ATOM     75  C   UNL A   1      43.684  37.059  26.774  1.00  0.00     0.022 A 
BRANCH  73  76
ATOM     76  S   UNL A   1      46.370  37.553  26.908  1.00  0.00     0.127 S 
ATOM     77  O   UNL A   1      47.106  37.528  28.172  1.00  0.00    -0.237 OA
ATOM     78  O   UNL A   1      46.957  36.738  25.844  1.00  0.00    -0.237 OA
ATOM     79  O   UNL A   1      45.906  38.865  26.482  1.00  0.00    -0.744 OA
ENDBRANCH  73  76
ENDBRANCH  55  69
BRANCH  56  80
ATOM     80  C   UNL A   1      43.784  27.124  34.825  1.00  0.00     0.023 A 
ATOM     81  C   UNL A   1      42.585  26.523  35.257  1.00  0.00     0.012 A 
ATOM     82  C   UNL A   1      45.011  26.643  35.321  1.00  0.00     0.148 A 
ATOM     83  C   UNL A   1      42.606  25.488  36.192  1.00  0.00     0.002 A 
ATOM     84  C   UNL A   1      45.027  25.578  36.214  1.00  0.00     0.091 A 
ATOM     85  F   UNL A   1      46.139  27.243  34.914  1.00  0.00    -0.205 F 
ATOM     86  C   UNL A   1      43.826  25.010  36.664  1.00  0.00     0.022 A 
BRANCH  84  87
ATOM     87  S   UNL A   1      46.555  24.829  36.791  1.00  0.00     0.127 S 
ATOM     88  O   UNL A   1      47.040  25.832  37.735  1.00  0.00    -0.237 OA
ATOM     89  O   UNL A   1      46.073  23.590  37.401  1.00  0.00    -0.237 OA
ATOM     90  O   UNL A   1      47.368  24.634  35.598  1.00  0.00    -0.744 OA
ENDBRANCH  84  87
ENDBRANCH  56  80
BRANCH  68  91
ATOM     91  C   UNL A   1      43.018  34.013  35.658  1.00  0.00     0.023 A 
ATOM     92  C   UNL A   1      44.130  34.448  36.405  1.00  0.00     0.012 A 
ATOM     93  C   UNL A   1      41.730  34.467  36.007  1.00  0.00     0.148 A 
ATOM     94  C   UNL A   1      43.961  35.297  37.498  1.00  0.00     0.002 A 
ATOM     95  C   UNL A   1      41.574  35.352  37.067  1.00  0.00     0.091 A 
ATOM     96  F   UNL A   1      40.683  34.027  35.295  1.00  0.00    -0.205 F 
ATOM     97  C   UNL A   1      42.686  35.759  37.821  1.00  0.00     0.022 A 
BRANCH  95  98
ATOM     98  S   UNL A   1      39.984  36.072  37.491  1.00  0.00     0.127 S 
ATOM     99  O   UNL A   1      39.594  36.698  36.228  1.00  0.00    -0.237 OA
ATOM    100  O   UNL A   1      39.196  34.895  37.858  1.00  0.00    -0.237 OA
ATOM    101  O   UNL A   1      40.242  36.993  38.590  1.00  0.00    -0.744 OA
ENDBRANCH  95  98
ENDBRANCH  68  91
ENDBRANCH  42  43
ENDBRANCH  35  37
ENDBRANCH  34  35
ENDBRANCH  33  34
ENDBRANCH  32  33
ENDBRANCH  31  32
ENDBRANCH   1  31
TORSDOF 22
ENDMDL
