MODEL 1
REMARK VINA RESULT:     -10.4      0.000      0.000
REMARK SMILES Cc1cc(-c2cc(C(=O)OCCOCCOCCOC(=O)c3ccc(-c4c5nc(c(-c6cccc(S(=O)(=O)[O-])c6F)c6ccc([nH]6)c(-c6cccc(S(=O)(=O)[O-])c6F)c6nc(c(-c7cccc(S(=O)(=O)[O-])c7F)c7ccc4[nH]7)C=C6)C=C5)cc3)c[nH]c2=O)ccc1Cl
REMARK SMILES IDX 15 1 14 2 13 3 12 4 11 5 10 6 8 7 9 8 7 9 5 10 6 11 87 12
REMARK SMILES IDX 86 13 88 14 85 15 4 17 1 18 2 19 3 20 91 21 90 22 92 23
REMARK SMILES IDX 89 24 16 25 17 26 18 27 19 28 20 29 21 30 22 31 23 32 84 33
REMARK SMILES IDX 24 34 83 35 25 36 26 37 27 38 77 39 28 40 82 41 76 42 78 43
REMARK SMILES IDX 29 44 81 45 75 46 74 47 30 49 62 50 42 51 61 52 43 53 46 54
REMARK SMILES IDX 60 55 79 56 44 57 45 58 59 60 80 61 47 62 31 63 32 64 40 65
REMARK SMILES IDX 33 66 35 67 41 68 34 69 36 70 37 71 38 72 39 73 63 74 64 75
REMARK SMILES IDX 72 76 65 77 67 78 73 79 66 80 68 81 69 82 70 83 71 84 48 85
REMARK SMILES IDX 49 86 57 87 50 88 52 89 58 90 51 91 53 92 54 93 55 94 56 95
REMARK H PARENT 86 16 78 48 46 59
REMARK Flexibility Score: inf
ROOT
ATOM      1  C   UNL A   1      34.842  33.215  29.435  1.00  0.00     0.188 C 
ENDROOT
BRANCH   1   2
ATOM      2  C   UNL A   1      35.577  32.236  28.497  1.00  0.00     0.188 C 
BRANCH   2   3
ATOM      3  O   UNL A   1      34.917  31.047  28.128  1.00  0.00    -0.376 OA
BRANCH   3   4
ATOM      4  C   UNL A   1      33.672  31.075  27.455  1.00  0.00     0.202 C 
BRANCH   4   5
ATOM      5  C   UNL A   1      33.167  30.012  26.461  1.00  0.00     0.261 C 
BRANCH   5   6
ATOM      6  O   UNL A   1      31.810  29.581  26.599  1.00  0.00    -0.460 OA
BRANCH   6   7
ATOM      7  C   UNL A   1      31.641  28.307  27.043  1.00  0.00     0.339 C 
ATOM      8  O   UNL A   1      31.357  27.966  28.179  1.00  0.00    -0.246 OA
BRANCH   7   9
ATOM      9  C   UNL A   1      31.713  27.369  25.896  1.00  0.00     0.077 A 
ATOM     10  C   UNL A   1      32.676  25.404  24.805  1.00  0.00     0.048 A 
ATOM     11  C   UNL A   1      32.662  26.277  25.835  1.00  0.00     0.031 A 
ATOM     12  C   UNL A   1      31.734  25.659  23.650  1.00  0.00     0.255 A 
ATOM     13  N   UNL A   1      30.895  26.745  23.781  1.00  0.00    -0.328 N 
ATOM     14  O   UNL A   1      31.701  24.949  22.650  1.00  0.00    -0.269 OA
ATOM     15  C   UNL A   1      30.864  27.569  24.878  1.00  0.00     0.101 A 
ATOM     16  H   UNL A   1      30.280  26.941  23.039  1.00  0.00     0.169 HD
BRANCH  10  17
ATOM     17  C   UNL A   1      33.555  24.215  24.849  1.00  0.00    -0.012 A 
ATOM     18  C   UNL A   1      36.755  22.892  23.236  1.00  0.00     0.046 C 
ATOM     19  C   UNL A   1      35.525  22.962  24.096  1.00  0.00    -0.032 A 
ATOM     20  C   UNL A   1      34.724  24.121  24.078  1.00  0.00     0.014 A 
ATOM     21  C   UNL A   1      35.138  21.888  24.911  1.00  0.00     0.044 A 
ATOM     22  C   UNL A   1      33.978  21.966  25.681  1.00  0.00     0.021 A 
ATOM     23  Cl  UNL A   1      36.058  20.428  24.994  1.00  0.00    -0.084 Cl
ATOM     24  C   UNL A   1      33.191  23.116  25.644  1.00  0.00     0.010 A 
ENDBRANCH  10  17
ENDBRANCH   7   9
ENDBRANCH   6   7
ENDBRANCH   5   6
ENDBRANCH   4   5
ENDBRANCH   3   4
ENDBRANCH   2   3
ENDBRANCH   1   2
BRANCH   1  25
ATOM     25  O   UNL A   1      34.581  34.533  29.006  1.00  0.00    -0.376 OA
BRANCH  25  26
ATOM     26  C   UNL A   1      33.253  35.030  29.018  1.00  0.00     0.202 C 
BRANCH  26  27
ATOM     27  C   UNL A   1      32.714  36.085  30.006  1.00  0.00     0.261 C 
BRANCH  27  28
ATOM     28  O   UNL A   1      32.161  35.622  31.241  1.00  0.00    -0.460 OA
BRANCH  28  29
ATOM     29  C   UNL A   1      32.799  36.034  32.363  1.00  0.00     0.338 C 
ATOM     30  O   UNL A   1      32.426  36.891  33.154  1.00  0.00    -0.246 OA
BRANCH  29  31
ATOM     31  C   UNL A   1      33.951  35.150  32.609  1.00  0.00     0.060 A 
ATOM     32  C   UNL A   1      33.725  33.868  33.132  1.00  0.00     0.016 A 
ATOM     33  C   UNL A   1      35.249  35.587  32.341  1.00  0.00     0.016 A 
ATOM     34  C   UNL A   1      34.800  33.016  33.385  1.00  0.00     0.010 A 
ATOM     35  C   UNL A   1      36.325  34.741  32.622  1.00  0.00     0.010 A 
ATOM     36  C   UNL A   1      36.108  33.459  33.159  1.00  0.00    -0.014 A 
BRANCH  36  37
ATOM     37  C   UNL A   1      37.261  32.639  33.603  1.00  0.00     0.031 A 
ATOM     38  C   UNL A   1      38.023  33.061  34.827  1.00  0.00     0.074 A 
ATOM     39  C   UNL A   1      37.649  31.558  32.905  1.00  0.00     0.049 A 
ATOM     40  N   UNL A   1      39.111  32.552  35.342  1.00  0.00    -0.248 NA
ATOM     41  C   UNL A   1      37.488  34.218  35.565  1.00  0.00     0.031 C 
ATOM     42  C   UNL A   1      36.992  31.047  31.704  1.00  0.00     0.029 A 
ATOM     43  N   UNL A   1      38.722  30.719  33.087  1.00  0.00    -0.354 N 
ATOM     44  C   UNL A   1      39.416  33.346  36.439  1.00  0.00     0.074 A 
ATOM     45  C   UNL A   1      38.399  34.373  36.515  1.00  0.00     0.031 C 
ATOM     46  C   UNL A   1      37.703  30.010  31.227  1.00  0.00     0.029 A 
ATOM     47  C   UNL A   1      38.881  29.807  32.070  1.00  0.00     0.049 A 
ATOM     48  H   UNL A   1      39.317  30.766  33.870  1.00  0.00     0.167 HD
ATOM     49  C   UNL A   1      40.449  33.231  37.308  1.00  0.00     0.034 A 
ATOM     50  C   UNL A   1      39.883  28.940  31.823  1.00  0.00     0.034 A 
ATOM     51  C   UNL A   1      41.456  32.209  37.232  1.00  0.00     0.049 A 
ATOM     52  C   UNL A   1      41.040  28.850  32.785  1.00  0.00     0.074 A 
ATOM     53  C   UNL A   1      42.507  31.971  38.101  1.00  0.00     0.029 A 
ATOM     54  N   UNL A   1      41.560  31.270  36.216  1.00  0.00    -0.354 N 
ATOM     55  N   UNL A   1      41.250  29.524  33.890  1.00  0.00    -0.248 NA
ATOM     56  C   UNL A   1      42.086  27.862  32.479  1.00  0.00     0.031 C 
ATOM     57  C   UNL A   1      43.273  30.921  37.585  1.00  0.00     0.029 A 
ATOM     58  C   UNL A   1      42.670  30.470  36.421  1.00  0.00     0.049 A 
ATOM     59  H   UNL A   1      40.935  31.186  35.460  1.00  0.00     0.167 HD
ATOM     60  C   UNL A   1      42.432  29.020  34.428  1.00  0.00     0.074 A 
ATOM     61  C   UNL A   1      42.880  27.971  33.535  1.00  0.00     0.031 C 
ATOM     62  C   UNL A   1      43.090  29.400  35.551  1.00  0.00     0.034 A 
BRANCH  49  63
ATOM     63  C   UNL A   1      40.540  34.243  38.420  1.00  0.00     0.023 A 
ATOM     64  C   UNL A   1      41.387  35.362  38.288  1.00  0.00     0.012 A 
ATOM     65  C   UNL A   1      39.753  34.106  39.580  1.00  0.00     0.148 A 
ATOM     66  C   UNL A   1      41.482  36.306  39.310  1.00  0.00     0.002 A 
ATOM     67  C   UNL A   1      39.814  35.077  40.572  1.00  0.00     0.091 A 
ATOM     68  F   UNL A   1      38.968  33.025  39.697  1.00  0.00    -0.205 F 
ATOM     69  C   UNL A   1      40.688  36.169  40.446  1.00  0.00     0.022 A 
BRANCH  67  70
ATOM     70  S   UNL A   1      38.772  35.033  42.034  1.00  0.00     0.127 S 
ATOM     71  O   UNL A   1      39.268  33.836  42.713  1.00  0.00    -0.237 OA
ATOM     72  O   UNL A   1      39.115  36.293  42.693  1.00  0.00    -0.237 OA
ATOM     73  O   UNL A   1      37.401  34.953  41.550  1.00  0.00    -0.744 OA
ENDBRANCH  67  70
ENDBRANCH  49  63
BRANCH  50  74
ATOM     74  C   UNL A   1      39.838  28.085  30.604  1.00  0.00     0.023 A 
ATOM     75  C   UNL A   1      39.018  26.940  30.579  1.00  0.00     0.012 A 
ATOM     76  C   UNL A   1      40.592  28.415  29.460  1.00  0.00     0.148 A 
ATOM     77  C   UNL A   1      38.971  26.125  29.448  1.00  0.00     0.002 A 
ATOM     78  C   UNL A   1      40.495  27.632  28.316  1.00  0.00     0.091 A 
ATOM     79  F   UNL A   1      41.378  29.499  29.510  1.00  0.00    -0.205 F 
ATOM     80  C   UNL A   1      39.699  26.476  28.315  1.00  0.00     0.022 A 
BRANCH  78  81
ATOM     81  S   UNL A   1      41.295  28.075  26.771  1.00  0.00     0.127 S 
ATOM     82  O   UNL A   1      40.563  29.281  26.391  1.00  0.00    -0.237 OA
ATOM     83  O   UNL A   1      42.674  28.302  27.206  1.00  0.00    -0.237 OA
ATOM     84  O   UNL A   1      41.122  26.928  25.891  1.00  0.00    -0.744 OA
ENDBRANCH  78  81
ENDBRANCH  50  74
BRANCH  62  85
ATOM     85  C   UNL A   1      44.351  28.657  35.916  1.00  0.00     0.023 A 
ATOM     86  C   UNL A   1      45.604  29.137  35.486  1.00  0.00     0.012 A 
ATOM     87  C   UNL A   1      44.298  27.529  36.760  1.00  0.00     0.148 A 
ATOM     88  C   UNL A   1      46.780  28.489  35.862  1.00  0.00     0.002 A 
ATOM     89  C   UNL A   1      45.476  26.919  37.174  1.00  0.00     0.091 A 
ATOM     90  F   UNL A   1      43.097  27.077  37.148  1.00  0.00    -0.205 F 
ATOM     91  C   UNL A   1      46.717  27.389  36.715  1.00  0.00     0.022 A 
BRANCH  89  92
ATOM     92  S   UNL A   1      45.502  25.558  38.347  1.00  0.00     0.127 S 
ATOM     93  O   UNL A   1      45.207  26.244  39.605  1.00  0.00    -0.237 OA
ATOM     94  O   UNL A   1      44.423  24.704  37.851  1.00  0.00    -0.237 OA
ATOM     95  O   UNL A   1      46.831  24.971  38.255  1.00  0.00    -0.744 OA
ENDBRANCH  89  92
ENDBRANCH  62  85
ENDBRANCH  36  37
ENDBRANCH  29  31
ENDBRANCH  28  29
ENDBRANCH  27  28
ENDBRANCH  26  27
ENDBRANCH  25  26
ENDBRANCH   1  25
TORSDOF 21
ENDMDL
MODEL 2
REMARK VINA RESULT:     -10.2      6.173     11.899
REMARK SMILES Cc1cc(-c2cc(C(=O)OCCOCCOCCOC(=O)c3ccc(-c4c5nc(c(-c6cccc(S(=O)(=O)[O-])c6F)c6ccc([nH]6)c(-c6cccc(S(=O)(=O)[O-])c6F)c6nc(c(-c7cccc(S(=O)(=O)[O-])c7F)c7ccc4[nH]7)C=C6)C=C5)cc3)c[nH]c2=O)ccc1Cl
REMARK SMILES IDX 15 1 14 2 13 3 12 4 11 5 10 6 8 7 9 8 7 9 5 10 6 11 87 12
REMARK SMILES IDX 86 13 88 14 85 15 4 17 1 18 2 19 3 20 91 21 90 22 92 23
REMARK SMILES IDX 89 24 16 25 17 26 18 27 19 28 20 29 21 30 22 31 23 32 84 33
REMARK SMILES IDX 24 34 83 35 25 36 26 37 27 38 77 39 28 40 82 41 76 42 78 43
REMARK SMILES IDX 29 44 81 45 75 46 74 47 30 49 62 50 42 51 61 52 43 53 46 54
REMARK SMILES IDX 60 55 79 56 44 57 45 58 59 60 80 61 47 62 31 63 32 64 40 65
REMARK SMILES IDX 33 66 35 67 41 68 34 69 36 70 37 71 38 72 39 73 63 74 64 75
REMARK SMILES IDX 72 76 65 77 67 78 73 79 66 80 68 81 69 82 70 83 71 84 48 85
REMARK SMILES IDX 49 86 57 87 50 88 52 89 58 90 51 91 53 92 54 93 55 94 56 95
REMARK H PARENT 86 16 78 48 46 59
REMARK Flexibility Score: inf
ROOT
ATOM      1  C   UNL A   1      36.098  18.177  24.752  1.00  0.00     0.188 C 
ENDROOT
BRANCH   1   2
ATOM      2  C   UNL A   1      34.732  17.667  24.249  1.00  0.00     0.188 C 
BRANCH   2   3
ATOM      3  O   UNL A   1      33.681  17.553  25.181  1.00  0.00    -0.376 OA
BRANCH   3   4
ATOM      4  C   UNL A   1      32.454  18.234  24.992  1.00  0.00     0.202 C 
BRANCH   4   5
ATOM      5  C   UNL A   1      32.276  19.763  24.946  1.00  0.00     0.261 C 
BRANCH   5   6
ATOM      6  O   UNL A   1      33.463  20.558  24.887  1.00  0.00    -0.460 OA
BRANCH   6   7
ATOM      7  C   UNL A   1      33.450  21.689  25.641  1.00  0.00     0.339 C 
ATOM      8  O   UNL A   1      33.476  21.750  26.858  1.00  0.00    -0.246 OA
BRANCH   7   9
ATOM      9  C   UNL A   1      33.545  22.876  24.756  1.00  0.00     0.077 A 
ATOM     10  C   UNL A   1      33.270  25.274  24.368  1.00  0.00     0.048 A 
ATOM     11  C   UNL A   1      33.128  24.199  25.171  1.00  0.00     0.031 A 
ATOM     12  C   UNL A   1      33.783  25.045  22.964  1.00  0.00     0.255 A 
ATOM     13  N   UNL A   1      34.117  23.746  22.647  1.00  0.00    -0.328 N 
ATOM     14  O   UNL A   1      33.907  25.950  22.146  1.00  0.00    -0.269 OA
ATOM     15  C   UNL A   1      34.024  22.689  23.518  1.00  0.00     0.101 A 
ATOM     16  H   UNL A   1      34.443  23.565  21.736  1.00  0.00     0.169 HD
BRANCH  10  17
ATOM     17  C   UNL A   1      32.976  26.631  24.880  1.00  0.00    -0.012 A 
ATOM     18  C   UNL A   1      34.591  29.355  27.015  1.00  0.00     0.046 C 
ATOM     19  C   UNL A   1      33.584  28.625  26.172  1.00  0.00    -0.032 A 
ATOM     20  C   UNL A   1      33.899  27.354  25.652  1.00  0.00     0.014 A 
ATOM     21  C   UNL A   1      32.320  29.171  25.902  1.00  0.00     0.044 A 
ATOM     22  C   UNL A   1      31.392  28.463  25.139  1.00  0.00     0.021 A 
ATOM     23  Cl  UNL A   1      31.850  30.721  26.501  1.00  0.00    -0.084 Cl
ATOM     24  C   UNL A   1      31.716  27.202  24.640  1.00  0.00     0.010 A 
ENDBRANCH  10  17
ENDBRANCH   7   9
ENDBRANCH   6   7
ENDBRANCH   5   6
ENDBRANCH   4   5
ENDBRANCH   3   4
ENDBRANCH   2   3
ENDBRANCH   1   2
BRANCH   1  25
ATOM     25  O   UNL A   1      36.289  19.555  24.982  1.00  0.00    -0.376 OA
BRANCH  25  26
ATOM     26  C   UNL A   1      37.595  20.105  24.931  1.00  0.00     0.202 C 
BRANCH  26  27
ATOM     27  C   UNL A   1      38.859  19.434  25.506  1.00  0.00     0.261 C 
BRANCH  27  28
ATOM     28  O   UNL A   1      40.023  20.245  25.687  1.00  0.00    -0.460 OA
BRANCH  28  29
ATOM     29  C   UNL A   1      40.475  20.351  26.960  1.00  0.00     0.338 C 
ATOM     30  O   UNL A   1      40.767  19.437  27.720  1.00  0.00    -0.246 OA
BRANCH  29  31
ATOM     31  C   UNL A   1      40.753  21.769  27.251  1.00  0.00     0.060 A 
ATOM     32  C   UNL A   1      40.134  22.757  26.471  1.00  0.00     0.016 A 
ATOM     33  C   UNL A   1      41.632  22.121  28.275  1.00  0.00     0.016 A 
ATOM     34  C   UNL A   1      40.390  24.105  26.719  1.00  0.00     0.010 A 
ATOM     35  C   UNL A   1      41.908  23.472  28.502  1.00  0.00     0.010 A 
ATOM     36  C   UNL A   1      41.301  24.470  27.717  1.00  0.00    -0.014 A 
BRANCH  36  37
ATOM     37  C   UNL A   1      41.726  25.882  27.860  1.00  0.00     0.031 A 
ATOM     38  C   UNL A   1      43.081  26.288  27.355  1.00  0.00     0.074 A 
ATOM     39  C   UNL A   1      40.933  26.784  28.465  1.00  0.00     0.049 A 
ATOM     40  N   UNL A   1      43.693  27.438  27.456  1.00  0.00    -0.248 NA
ATOM     41  C   UNL A   1      43.853  25.252  26.648  1.00  0.00     0.031 C 
ATOM     42  C   UNL A   1      39.599  26.514  28.995  1.00  0.00     0.029 A 
ATOM     43  N   UNL A   1      41.161  28.103  28.774  1.00  0.00    -0.354 N 
ATOM     44  C   UNL A   1      44.935  27.258  26.862  1.00  0.00     0.074 A 
ATOM     45  C   UNL A   1      44.991  25.886  26.404  1.00  0.00     0.031 C 
ATOM     46  C   UNL A   1      39.142  27.621  29.607  1.00  0.00     0.029 A 
ATOM     47  C   UNL A   1      40.166  28.664  29.541  1.00  0.00     0.049 A 
ATOM     48  H   UNL A   1      41.957  28.599  28.475  1.00  0.00     0.167 HD
ATOM     49  C   UNL A   1      45.939  28.154  26.708  1.00  0.00     0.034 A 
ATOM     50  C   UNL A   1      40.107  29.862  30.156  1.00  0.00     0.034 A 
ATOM     51  C   UNL A   1      45.880  29.517  27.161  1.00  0.00     0.049 A 
ATOM     52  C   UNL A   1      41.250  30.833  30.000  1.00  0.00     0.074 A 
ATOM     53  C   UNL A   1      46.821  30.519  26.997  1.00  0.00     0.029 A 
ATOM     54  N   UNL A   1      44.838  30.066  27.891  1.00  0.00    -0.354 N 
ATOM     55  N   UNL A   1      42.367  30.693  29.327  1.00  0.00    -0.248 NA
ATOM     56  C   UNL A   1      41.113  32.137  30.667  1.00  0.00     0.031 C 
ATOM     57  C   UNL A   1      46.369  31.658  27.669  1.00  0.00     0.029 A 
ATOM     58  C   UNL A   1      45.122  31.383  28.209  1.00  0.00     0.049 A 
ATOM     59  H   UNL A   1      44.015  29.589  28.147  1.00  0.00     0.167 HD
ATOM     60  C   UNL A   1      43.049  31.899  29.462  1.00  0.00     0.074 A 
ATOM     61  C   UNL A   1      42.210  32.764  30.265  1.00  0.00     0.031 C 
ATOM     62  C   UNL A   1      44.264  32.253  28.974  1.00  0.00     0.034 A 
BRANCH  49  63
ATOM     63  C   UNL A   1      47.194  27.683  26.019  1.00  0.00     0.023 A 
ATOM     64  C   UNL A   1      47.337  27.845  24.626  1.00  0.00     0.012 A 
ATOM     65  C   UNL A   1      48.248  27.116  26.761  1.00  0.00     0.148 A 
ATOM     66  C   UNL A   1      48.492  27.412  23.976  1.00  0.00     0.002 A 
ATOM     67  C   UNL A   1      49.416  26.734  26.115  1.00  0.00     0.091 A 
ATOM     68  F   UNL A   1      48.085  26.951  28.082  1.00  0.00    -0.205 F 
ATOM     69  C   UNL A   1      49.535  26.866  24.721  1.00  0.00     0.022 A 
BRANCH  67  70
ATOM     70  S   UNL A   1      50.846  26.097  26.995  1.00  0.00     0.127 S 
ATOM     71  O   UNL A   1      51.862  26.091  25.943  1.00  0.00    -0.237 OA
ATOM     72  O   UNL A   1      51.047  27.111  28.030  1.00  0.00    -0.237 OA
ATOM     73  O   UNL A   1      50.459  24.786  27.497  1.00  0.00    -0.744 OA
ENDBRANCH  67  70
ENDBRANCH  49  63
BRANCH  50  74
ATOM     74  C   UNL A   1      38.919  30.212  30.983  1.00  0.00     0.023 A 
ATOM     75  C   UNL A   1      38.862  29.816  32.334  1.00  0.00     0.012 A 
ATOM     76  C   UNL A   1      37.852  30.954  30.439  1.00  0.00     0.148 A 
ATOM     77  C   UNL A   1      37.752  30.129  33.119  1.00  0.00     0.002 A 
ATOM     78  C   UNL A   1      36.776  31.313  31.243  1.00  0.00     0.091 A 
ATOM     79  F   UNL A   1      37.919  31.306  29.148  1.00  0.00    -0.205 F 
ATOM     80  C   UNL A   1      36.716  30.886  32.578  1.00  0.00     0.022 A 
BRANCH  78  81
ATOM     81  S   UNL A   1      35.460  32.391  30.669  1.00  0.00     0.127 S 
ATOM     82  O   UNL A   1      35.090  31.763  29.403  1.00  0.00    -0.237 OA
ATOM     83  O   UNL A   1      34.472  32.249  31.739  1.00  0.00    -0.237 OA
ATOM     84  O   UNL A   1      36.051  33.717  30.565  1.00  0.00    -0.744 OA
ENDBRANCH  78  81
ENDBRANCH  50  74
BRANCH  62  85
ATOM     85  C   UNL A   1      44.758  33.650  29.254  1.00  0.00     0.023 A 
ATOM     86  C   UNL A   1      45.401  33.942  30.474  1.00  0.00     0.012 A 
ATOM     87  C   UNL A   1      44.661  34.655  28.269  1.00  0.00     0.148 A 
ATOM     88  C   UNL A   1      45.909  35.217  30.722  1.00  0.00     0.002 A 
ATOM     89  C   UNL A   1      45.216  35.907  28.502  1.00  0.00     0.091 A 
ATOM     90  F   UNL A   1      44.034  34.364  27.121  1.00  0.00    -0.205 F 
ATOM     91  C   UNL A   1      45.828  36.195  29.733  1.00  0.00     0.022 A 
BRANCH  89  92
ATOM     92  S   UNL A   1      45.246  37.199  27.254  1.00  0.00     0.127 S 
ATOM     93  O   UNL A   1      45.988  38.257  27.938  1.00  0.00    -0.237 OA
ATOM     94  O   UNL A   1      45.973  36.554  26.161  1.00  0.00    -0.237 OA
ATOM     95  O   UNL A   1      43.854  37.508  26.958  1.00  0.00    -0.744 OA
ENDBRANCH  89  92
ENDBRANCH  62  85
ENDBRANCH  36  37
ENDBRANCH  29  31
ENDBRANCH  28  29
ENDBRANCH  27  28
ENDBRANCH  26  27
ENDBRANCH  25  26
ENDBRANCH   1  25
TORSDOF 21
ENDMDL
MODEL 3
REMARK VINA RESULT:     -10.1      5.651     10.195
REMARK SMILES Cc1cc(-c2cc(C(=O)OCCOCCOCCOC(=O)c3ccc(-c4c5nc(c(-c6cccc(S(=O)(=O)[O-])c6F)c6ccc([nH]6)c(-c6cccc(S(=O)(=O)[O-])c6F)c6nc(c(-c7cccc(S(=O)(=O)[O-])c7F)c7ccc4[nH]7)C=C6)C=C5)cc3)c[nH]c2=O)ccc1Cl
REMARK SMILES IDX 15 1 14 2 13 3 12 4 11 5 10 6 8 7 9 8 7 9 5 10 6 11 87 12
REMARK SMILES IDX 86 13 88 14 85 15 4 17 1 18 2 19 3 20 91 21 90 22 92 23
REMARK SMILES IDX 89 24 16 25 17 26 18 27 19 28 20 29 21 30 22 31 23 32 84 33
REMARK SMILES IDX 24 34 83 35 25 36 26 37 27 38 77 39 28 40 82 41 76 42 78 43
REMARK SMILES IDX 29 44 81 45 75 46 74 47 30 49 62 50 42 51 61 52 43 53 46 54
REMARK SMILES IDX 60 55 79 56 44 57 45 58 59 60 80 61 47 62 31 63 32 64 40 65
REMARK SMILES IDX 33 66 35 67 41 68 34 69 36 70 37 71 38 72 39 73 63 74 64 75
REMARK SMILES IDX 72 76 65 77 67 78 73 79 66 80 68 81 69 82 70 83 71 84 48 85
REMARK SMILES IDX 49 86 57 87 50 88 52 89 58 90 51 91 53 92 54 93 55 94 56 95
REMARK H PARENT 86 16 78 48 46 59
REMARK Flexibility Score: inf
ROOT
ATOM      1  C   UNL A   1      35.050  24.020  23.328  1.00  0.00     0.188 C 
ENDROOT
BRANCH   1   2
ATOM      2  C   UNL A   1      33.908  24.306  22.332  1.00  0.00     0.188 C 
BRANCH   2   3
ATOM      3  O   UNL A   1      33.906  25.545  21.661  1.00  0.00    -0.376 OA
BRANCH   3   4
ATOM      4  C   UNL A   1      33.431  26.721  22.289  1.00  0.00     0.202 C 
BRANCH   4   5
ATOM      5  C   UNL A   1      32.139  26.834  23.121  1.00  0.00     0.261 C 
BRANCH   5   6
ATOM      6  O   UNL A   1      31.030  26.027  22.717  1.00  0.00    -0.460 OA
BRANCH   6   7
ATOM      7  C   UNL A   1      30.084  25.812  23.669  1.00  0.00     0.339 C 
ATOM      8  O   UNL A   1      28.915  26.157  23.623  1.00  0.00    -0.246 OA
BRANCH   7   9
ATOM      9  C   UNL A   1      30.646  24.953  24.741  1.00  0.00     0.077 A 
ATOM     10  C   UNL A   1      31.842  22.945  25.458  1.00  0.00     0.048 A 
ATOM     11  C   UNL A   1      31.292  23.686  24.473  1.00  0.00     0.031 A 
ATOM     12  C   UNL A   1      31.672  23.425  26.881  1.00  0.00     0.255 A 
ATOM     13  N   UNL A   1      31.009  24.623  27.041  1.00  0.00    -0.328 N 
ATOM     14  O   UNL A   1      32.097  22.802  27.848  1.00  0.00    -0.269 OA
ATOM     15  C   UNL A   1      30.525  25.382  26.006  1.00  0.00     0.101 A 
ATOM     16  H   UNL A   1      30.873  24.953  27.958  1.00  0.00     0.169 HD
BRANCH  10  17
ATOM     17  C   UNL A   1      32.625  21.734  25.130  1.00  0.00    -0.012 A 
ATOM     18  C   UNL A   1      32.231  18.419  23.273  1.00  0.00     0.046 C 
ATOM     19  C   UNL A   1      32.842  19.523  24.089  1.00  0.00    -0.032 A 
ATOM     20  C   UNL A   1      32.098  20.691  24.352  1.00  0.00     0.014 A 
ATOM     21  C   UNL A   1      34.138  19.415  24.616  1.00  0.00     0.044 A 
ATOM     22  C   UNL A   1      34.673  20.442  25.392  1.00  0.00     0.021 A 
ATOM     23  Cl  UNL A   1      35.118  18.019  24.344  1.00  0.00    -0.084 Cl
ATOM     24  C   UNL A   1      33.921  21.587  25.652  1.00  0.00     0.010 A 
ENDBRANCH  10  17
ENDBRANCH   7   9
ENDBRANCH   6   7
ENDBRANCH   5   6
ENDBRANCH   4   5
ENDBRANCH   3   4
ENDBRANCH   2   3
ENDBRANCH   1   2
BRANCH   1  25
ATOM     25  O   UNL A   1      35.855  22.874  23.161  1.00  0.00    -0.376 OA
BRANCH  25  26
ATOM     26  C   UNL A   1      37.092  22.773  23.846  1.00  0.00     0.202 C 
BRANCH  26  27
ATOM     27  C   UNL A   1      37.348  23.270  25.284  1.00  0.00     0.261 C 
BRANCH  27  28
ATOM     28  O   UNL A   1      37.977  22.371  26.200  1.00  0.00    -0.460 OA
BRANCH  28  29
ATOM     29  C   UNL A   1      39.307  22.554  26.386  1.00  0.00     0.338 C 
ATOM     30  O   UNL A   1      40.206  21.767  26.122  1.00  0.00    -0.246 OA
BRANCH  29  31
ATOM     31  C   UNL A   1      39.543  23.951  26.792  1.00  0.00     0.060 A 
ATOM     32  C   UNL A   1      40.135  24.834  25.878  1.00  0.00     0.016 A 
ATOM     33  C   UNL A   1      39.198  24.383  28.073  1.00  0.00     0.016 A 
ATOM     34  C   UNL A   1      40.380  26.157  26.242  1.00  0.00     0.010 A 
ATOM     35  C   UNL A   1      39.471  25.702  28.444  1.00  0.00     0.010 A 
ATOM     36  C   UNL A   1      40.076  26.591  27.537  1.00  0.00    -0.014 A 
BRANCH  36  37
ATOM     37  C   UNL A   1      40.507  27.934  27.995  1.00  0.00     0.031 A 
ATOM     38  C   UNL A   1      41.976  28.241  28.062  1.00  0.00     0.074 A 
ATOM     39  C   UNL A   1      39.607  28.853  28.383  1.00  0.00     0.049 A 
ATOM     40  N   UNL A   1      42.580  29.308  28.515  1.00  0.00    -0.248 NA
ATOM     41  C   UNL A   1      42.887  27.200  27.556  1.00  0.00     0.031 C 
ATOM     42  C   UNL A   1      38.157  28.676  28.363  1.00  0.00     0.029 A 
ATOM     43  N   UNL A   1      39.788  30.108  28.912  1.00  0.00    -0.354 N 
ATOM     44  C   UNL A   1      43.939  29.055  28.388  1.00  0.00     0.074 A 
ATOM     45  C   UNL A   1      44.072  27.732  27.816  1.00  0.00     0.031 C 
ATOM     46  C   UNL A   1      37.579  29.764  28.903  1.00  0.00     0.029 A 
ATOM     47  C   UNL A   1      38.619  30.696  29.335  1.00  0.00     0.049 A 
ATOM     48  H   UNL A   1      40.668  30.544  28.981  1.00  0.00     0.167 HD
ATOM     49  C   UNL A   1      44.984  29.853  28.714  1.00  0.00     0.034 A 
ATOM     50  C   UNL A   1      38.414  31.833  30.031  1.00  0.00     0.034 A 
ATOM     51  C   UNL A   1      44.849  31.168  29.279  1.00  0.00     0.049 A 
ATOM     52  C   UNL A   1      39.593  32.691  30.414  1.00  0.00     0.074 A 
ATOM     53  C   UNL A   1      45.846  32.077  29.587  1.00  0.00     0.029 A 
ATOM     54  N   UNL A   1      43.648  31.753  29.650  1.00  0.00    -0.354 N 
ATOM     55  N   UNL A   1      40.868  32.498  30.173  1.00  0.00    -0.248 NA
ATOM     56  C   UNL A   1      39.304  33.935  31.142  1.00  0.00     0.031 C 
ATOM     57  C   UNL A   1      45.252  33.191  30.187  1.00  0.00     0.029 A 
ATOM     58  C   UNL A   1      43.879  32.998  30.208  1.00  0.00     0.049 A 
ATOM     59  H   UNL A   1      42.761  31.342  29.534  1.00  0.00     0.167 HD
ATOM     60  C   UNL A   1      41.528  33.610  30.690  1.00  0.00     0.074 A 
ATOM     61  C   UNL A   1      40.509  34.480  31.239  1.00  0.00     0.031 C 
ATOM     62  C   UNL A   1      42.857  33.879  30.716  1.00  0.00     0.034 A 
BRANCH  49  63
ATOM     63  C   UNL A   1      46.371  29.319  28.467  1.00  0.00     0.023 A 
ATOM     64  C   UNL A   1      47.010  29.560  27.234  1.00  0.00     0.012 A 
ATOM     65  C   UNL A   1      47.057  28.613  29.475  1.00  0.00     0.148 A 
ATOM     66  C   UNL A   1      48.294  29.070  26.992  1.00  0.00     0.002 A 
ATOM     67  C   UNL A   1      48.354  28.173  29.245  1.00  0.00     0.091 A 
ATOM     68  F   UNL A   1      46.424  28.376  30.633  1.00  0.00    -0.205 F 
ATOM     69  C   UNL A   1      48.968  28.387  28.000  1.00  0.00     0.022 A 
BRANCH  67  70
ATOM     70  S   UNL A   1      49.336  27.355  30.507  1.00  0.00     0.127 S 
ATOM     71  O   UNL A   1      50.626  27.215  29.832  1.00  0.00    -0.237 OA
ATOM     72  O   UNL A   1      49.319  28.334  31.593  1.00  0.00    -0.237 OA
ATOM     73  O   UNL A   1      48.649  26.105  30.804  1.00  0.00    -0.744 OA
ENDBRANCH  67  70
ENDBRANCH  49  63
BRANCH  50  74
ATOM     74  C   UNL A   1      37.030  32.227  30.415  1.00  0.00     0.023 A 
ATOM     75  C   UNL A   1      36.552  31.943  31.709  1.00  0.00     0.012 A 
ATOM     76  C   UNL A   1      36.191  32.901  29.505  1.00  0.00     0.148 A 
ATOM     77  C   UNL A   1      35.255  32.298  32.080  1.00  0.00     0.002 A 
ATOM     78  C   UNL A   1      34.922  33.304  29.901  1.00  0.00     0.091 A 
ATOM     79  F   UNL A   1      36.660  33.147  28.274  1.00  0.00    -0.205 F 
ATOM     80  C   UNL A   1      34.445  32.988  31.182  1.00  0.00     0.022 A 
BRANCH  78  81
ATOM     81  S   UNL A   1      33.858  34.306  28.857  1.00  0.00     0.127 S 
ATOM     82  O   UNL A   1      34.785  35.330  28.381  1.00  0.00    -0.237 OA
ATOM     83  O   UNL A   1      33.437  33.337  27.845  1.00  0.00    -0.237 OA
ATOM     84  O   UNL A   1      32.786  34.779  29.722  1.00  0.00    -0.744 OA
ENDBRANCH  78  81
ENDBRANCH  50  74
BRANCH  62  85
ATOM     85  C   UNL A   1      43.301  35.186  31.323  1.00  0.00     0.023 A 
ATOM     86  C   UNL A   1      43.589  35.264  32.701  1.00  0.00     0.012 A 
ATOM     87  C   UNL A   1      43.517  36.317  30.510  1.00  0.00     0.148 A 
ATOM     88  C   UNL A   1      44.051  36.454  33.264  1.00  0.00     0.002 A 
ATOM     89  C   UNL A   1      44.027  37.483  31.068  1.00  0.00     0.091 A 
ATOM     90  F   UNL A   1      43.225  36.229  29.204  1.00  0.00    -0.205 F 
ATOM     91  C   UNL A   1      44.282  37.558  32.446  1.00  0.00     0.022 A 
BRANCH  89  92
ATOM     92  S   UNL A   1      44.449  38.924  30.080  1.00  0.00     0.127 S 
ATOM     93  O   UNL A   1      45.087  38.311  28.916  1.00  0.00    -0.237 OA
ATOM     94  O   UNL A   1      43.135  39.511  29.817  1.00  0.00    -0.237 OA
ATOM     95  O   UNL A   1      45.323  39.741  30.910  1.00  0.00    -0.744 OA
ENDBRANCH  89  92
ENDBRANCH  62  85
ENDBRANCH  36  37
ENDBRANCH  29  31
ENDBRANCH  28  29
ENDBRANCH  27  28
ENDBRANCH  26  27
ENDBRANCH  25  26
ENDBRANCH   1  25
TORSDOF 21
ENDMDL
