MODEL 1
REMARK VINA RESULT:     -13.6      0.000      0.000
REMARK SMILES Cc1cccc(-n2ncc(C(=O)Nc3cccc(C(=O)OCCOCCOCCOC(=O)c4ccc(-c5c6nc(c(-c7cccc(S(=O)(=O)[O-])c7F)c7ccc([nH]7)c(-c7cccc(S(=O)(=O)[O-])c7F)c7nc(c(-c8cccc(S(=O)(=O)[O-])c8F)c8ccc5[nH]8)C=C7)C=C6)cc4)c3C)c2C)c1
REMARK SMILES IDX 25 1 24 2 23 3 22 4 21 5 19 6 20 7 18 8 14 9 15 10 96 11
REMARK SMILES IDX 16 12 97 13 17 14 13 15 11 16 12 17 10 19 7 20 8 21 98 22
REMARK SMILES IDX 9 23 99 24 6 25 1 26 2 27 3 28 100 29 4 30 5 31 26 32 27 33
REMARK SMILES IDX 28 34 29 35 30 36 31 37 32 38 33 39 34 40 95 41 35 42 94 43
REMARK SMILES IDX 36 44 37 45 38 46 88 47 39 48 93 49 87 50 89 51 40 52 92 53
REMARK SMILES IDX 86 54 85 55 41 57 73 58 53 59 72 60 54 61 57 62 71 63 90 64
REMARK SMILES IDX 55 65 56 66 70 68 91 69 58 70 42 71 43 72 51 73 44 74 46 75
REMARK SMILES IDX 52 76 45 77 47 78 48 79 49 80 50 81 74 82 75 83 83 84 76 85
REMARK SMILES IDX 78 86 84 87 77 88 79 89 80 90 81 91 82 92 59 93 60 94 68 95
REMARK SMILES IDX 61 96 63 97 69 98 62 99 64 100 65 101 66 102 67 103
REMARK H PARENT 13 18 89 56 57 67
REMARK Flexibility Score: inf
ROOT
ATOM      1  C   UNL A   1      32.911  30.630  27.279  1.00  0.00     0.188 C 
ENDROOT
BRANCH   1   2
ATOM      2  O   UNL A   1      32.395  30.456  25.940  1.00  0.00    -0.376 OA
BRANCH   2   3
ATOM      3  C   UNL A   1      31.142  30.963  25.418  1.00  0.00     0.202 C 
BRANCH   3   4
ATOM      4  C   UNL A   1      30.134  30.473  24.078  1.00  0.00     0.261 C 
BRANCH   4   5
ATOM      5  O   UNL A   1      30.292  29.120  22.850  1.00  0.00    -0.460 OA
BRANCH   5   6
ATOM      6  C   UNL A   1      30.979  27.806  22.606  1.00  0.00     0.338 C 
ATOM      7  O   UNL A   1      31.131  27.219  21.532  1.00  0.00    -0.246 OA
BRANCH   6   8
ATOM      8  C   UNL A   1      31.691  26.900  23.547  1.00  0.00     0.065 A 
ATOM      9  C   UNL A   1      31.642  25.679  25.723  1.00  0.00     0.045 A 
ATOM     10  C   UNL A   1      32.967  26.055  25.926  1.00  0.00     0.026 A 
ATOM     11  C   UNL A   1      30.963  26.111  24.559  1.00  0.00    -0.013 A 
ATOM     12  C   UNL A   1      33.633  26.849  24.981  1.00  0.00     0.003 A 
ATOM     13  C   UNL A   1      29.431  26.012  24.656  1.00  0.00     0.047 C 
ATOM     14  C   UNL A   1      33.007  27.268  23.802  1.00  0.00     0.016 A 
BRANCH   9  15
ATOM     15  N   UNL A   1      30.972  24.918  26.711  1.00  0.00    -0.322 N 
ATOM     16  C   UNL A   1      30.735  23.553  26.751  1.00  0.00     0.259 C 
ATOM     17  O   UNL A   1      29.921  23.103  27.560  1.00  0.00    -0.269 OA
ATOM     18  H   UNL A   1      30.626  25.429  27.479  1.00  0.00     0.170 HD
BRANCH  16  19
ATOM     19  C   UNL A   1      31.508  22.655  25.890  1.00  0.00     0.081 A 
ATOM     20  N   UNL A   1      33.073  21.292  25.074  1.00  0.00    -0.237 N 
ATOM     21  N   UNL A   1      32.271  21.567  24.029  1.00  0.00    -0.175 NA
ATOM     22  C   UNL A   1      32.734  22.052  26.188  1.00  0.00     0.054 A 
ATOM     23  C   UNL A   1      31.321  22.348  24.526  1.00  0.00     0.149 A 
ATOM     24  C   UNL A   1      33.633  22.268  27.354  1.00  0.00     0.068 C 
BRANCH  20  25
ATOM     25  C   UNL A   1      34.096  20.327  24.905  1.00  0.00     0.065 A 
ATOM     26  C   UNL A   1      34.282  16.637  24.013  1.00  0.00     0.044 C 
ATOM     27  C   UNL A   1      34.694  18.023  24.420  1.00  0.00    -0.049 A 
ATOM     28  C   UNL A   1      36.044  18.361  24.572  1.00  0.00     0.003 A 
ATOM     29  C   UNL A   1      33.722  19.006  24.623  1.00  0.00     0.031 A 
ATOM     30  C   UNL A   1      36.416  19.667  24.905  1.00  0.00     0.002 A 
ATOM     31  C   UNL A   1      35.445  20.658  25.061  1.00  0.00     0.028 A 
ENDBRANCH  20  25
ENDBRANCH  16  19
ENDBRANCH   9  15
ENDBRANCH   6   8
ENDBRANCH   5   6
ENDBRANCH   4   5
ENDBRANCH   3   4
ENDBRANCH   2   3
ENDBRANCH   1   2
BRANCH   1  32
ATOM     32  C   UNL A   1      34.155  31.429  27.593  1.00  0.00     0.188 C 
BRANCH  32  33
ATOM     33  O   UNL A   1      33.785  32.734  27.951  1.00  0.00    -0.376 OA
BRANCH  33  34
ATOM     34  C   UNL A   1      34.829  33.665  28.064  1.00  0.00     0.202 C 
BRANCH  34  35
ATOM     35  C   UNL A   1      35.334  33.832  29.505  1.00  0.00     0.261 C 
BRANCH  35  36
ATOM     36  O   UNL A   1      36.493  33.009  29.771  1.00  0.00    -0.460 OA
BRANCH  36  37
ATOM     37  C   UNL A   1      36.256  31.743  30.293  1.00  0.00     0.338 C 
ATOM     38  O   UNL A   1      35.529  31.545  31.229  1.00  0.00    -0.246 OA
BRANCH  37  39
ATOM     39  C   UNL A   1      37.131  30.739  29.587  1.00  0.00     0.060 A 
ATOM     40  C   UNL A   1      37.011  29.340  29.544  1.00  0.00     0.016 A 
ATOM     41  C   UNL A   1      38.317  31.224  29.199  1.00  0.00     0.016 A 
ATOM     42  C   UNL A   1      38.160  28.433  29.345  1.00  0.00     0.010 A 
ATOM     43  C   UNL A   1      39.378  30.338  29.267  1.00  0.00     0.010 A 
ATOM     44  C   UNL A   1      39.482  28.886  29.268  1.00  0.00    -0.014 A 
BRANCH  44  45
ATOM     45  C   UNL A   1      40.976  27.919  29.194  1.00  0.00     0.031 A 
ATOM     46  C   UNL A   1      41.319  26.224  28.703  1.00  0.00     0.074 A 
ATOM     47  C   UNL A   1      42.138  28.530  29.507  1.00  0.00     0.049 A 
ATOM     48  N   UNL A   1      42.137  25.408  29.334  1.00  0.00    -0.248 NA
ATOM     49  C   UNL A   1      40.569  25.316  27.679  1.00  0.00     0.031 C 
ATOM     50  C   UNL A   1      43.512  28.068  29.306  1.00  0.00     0.029 A 
ATOM     51  N   UNL A   1      42.318  29.786  30.087  1.00  0.00    -0.354 N 
ATOM     52  C   UNL A   1      41.955  24.113  28.775  1.00  0.00     0.074 A 
ATOM     53  C   UNL A   1      40.724  24.093  28.118  1.00  0.00     0.031 C 
ATOM     54  C   UNL A   1      44.333  28.850  30.035  1.00  0.00     0.029 A 
ATOM     55  C   UNL A   1      43.488  29.711  30.846  1.00  0.00     0.049 A 
ATOM     56  H   UNL A   1      41.735  30.572  29.981  1.00  0.00     0.167 HD
ATOM     57  C   UNL A   1      42.960  23.230  28.527  1.00  0.00     0.034 A 
ATOM     58  C   UNL A   1      43.352  29.743  32.202  1.00  0.00     0.034 A 
ATOM     59  C   UNL A   1      44.147  23.774  29.156  1.00  0.00     0.049 A 
ATOM     60  C   UNL A   1      43.769  28.409  32.805  1.00  0.00     0.074 A 
ATOM     61  C   UNL A   1      45.183  24.594  28.747  1.00  0.00     0.029 A 
ATOM     62  N   UNL A   1      44.052  23.945  30.520  1.00  0.00    -0.354 N 
ATOM     63  N   UNL A   1      44.283  27.414  32.121  1.00  0.00    -0.248 NA
ATOM     64  C   UNL A   1      43.631  28.077  34.216  1.00  0.00     0.031 C 
ATOM     65  C   UNL A   1      45.664  25.295  29.911  1.00  0.00     0.029 A 
ATOM     66  C   UNL A   1      44.955  24.859  31.019  1.00  0.00     0.049 A 
ATOM     67  H   UNL A   1      43.403  23.461  31.083  1.00  0.00     0.167 HD
ATOM     68  C   UNL A   1      44.449  26.313  32.915  1.00  0.00     0.074 A 
ATOM     69  C   UNL A   1      44.037  26.794  34.230  1.00  0.00     0.031 C 
ATOM     70  C   UNL A   1      44.883  25.089  32.459  1.00  0.00     0.034 A 
BRANCH  57  71
ATOM     71  C   UNL A   1      42.868  22.154  27.404  1.00  0.00     0.023 A 
ATOM     72  C   UNL A   1      41.877  21.171  27.563  1.00  0.00     0.012 A 
ATOM     73  C   UNL A   1      43.726  21.955  26.268  1.00  0.00     0.148 A 
ATOM     74  C   UNL A   1      41.808  20.025  26.750  1.00  0.00     0.002 A 
ATOM     75  C   UNL A   1      43.740  20.753  25.539  1.00  0.00     0.091 A 
ATOM     76  F   UNL A   1      44.454  22.966  25.778  1.00  0.00    -0.205 F 
ATOM     77  C   UNL A   1      42.771  19.785  25.776  1.00  0.00     0.022 A 
BRANCH  75  78
ATOM     78  S   UNL A   1      45.055  20.318  24.365  1.00  0.00     0.127 S 
ATOM     79  O   UNL A   1      44.867  18.874  24.200  1.00  0.00    -0.237 OA
ATOM     80  O   UNL A   1      44.711  21.106  23.184  1.00  0.00    -0.237 OA
ATOM     81  O   UNL A   1      46.308  20.670  25.025  1.00  0.00    -0.744 OA
ENDBRANCH  75  78
ENDBRANCH  57  71
BRANCH  58  82
ATOM     82  C   UNL A   1      42.308  30.766  32.636  1.00  0.00     0.023 A 
ATOM     83  C   UNL A   1      42.399  32.038  31.989  1.00  0.00     0.012 A 
ATOM     84  C   UNL A   1      41.119  30.506  33.350  1.00  0.00     0.148 A 
ATOM     85  C   UNL A   1      41.315  32.917  31.895  1.00  0.00     0.002 A 
ATOM     86  C   UNL A   1      40.050  31.429  33.306  1.00  0.00     0.091 A 
ATOM     87  F   UNL A   1      40.998  29.349  34.011  1.00  0.00    -0.205 F 
ATOM     88  C   UNL A   1      40.127  32.596  32.528  1.00  0.00     0.022 A 
BRANCH  86  89
ATOM     89  S   UNL A   1      38.487  31.144  34.175  1.00  0.00     0.127 S 
ATOM     90  O   UNL A   1      38.864  31.404  35.560  1.00  0.00    -0.237 OA
ATOM     91  O   UNL A   1      37.595  32.150  33.597  1.00  0.00    -0.237 OA
ATOM     92  O   UNL A   1      38.118  29.774  33.848  1.00  0.00    -0.744 OA
ENDBRANCH  86  89
ENDBRANCH  58  82
BRANCH  70  93
ATOM     93  C   UNL A   1      45.183  23.922  33.394  1.00  0.00     0.023 A 
ATOM     94  C   UNL A   1      44.135  23.104  33.846  1.00  0.00     0.012 A 
ATOM     95  C   UNL A   1      46.468  23.654  33.948  1.00  0.00     0.148 A 
ATOM     96  C   UNL A   1      44.370  21.988  34.654  1.00  0.00     0.002 A 
ATOM     97  C   UNL A   1      46.699  22.564  34.773  1.00  0.00     0.091 A 
ATOM     98  F   UNL A   1      47.496  24.475  33.735  1.00  0.00    -0.205 F 
ATOM     99  C   UNL A   1      45.655  21.702  35.097  1.00  0.00     0.022 A 
BRANCH  97 100
ATOM    100  S   UNL A   1      48.317  22.243  35.497  1.00  0.00     0.127 S 
ATOM    101  O   UNL A   1      49.197  22.472  34.351  1.00  0.00    -0.237 OA
ATOM    102  O   UNL A   1      48.390  23.267  36.539  1.00  0.00    -0.237 OA
ATOM    103  O   UNL A   1      48.294  20.874  35.992  1.00  0.00    -0.744 OA
ENDBRANCH  97 100
ENDBRANCH  70  93
ENDBRANCH  44  45
ENDBRANCH  37  39
ENDBRANCH  36  37
ENDBRANCH  35  36
ENDBRANCH  34  35
ENDBRANCH  33  34
ENDBRANCH  32  33
ENDBRANCH   1  32
TORSDOF 23
ENDMDL
MODEL 2
REMARK VINA RESULT:     -13.4      1.564      2.558
REMARK SMILES Cc1cccc(-n2ncc(C(=O)Nc3cccc(C(=O)OCCOCCOCCOC(=O)c4ccc(-c5c6nc(c(-c7cccc(S(=O)(=O)[O-])c7F)c7ccc([nH]7)c(-c7cccc(S(=O)(=O)[O-])c7F)c7nc(c(-c8cccc(S(=O)(=O)[O-])c8F)c8ccc5[nH]8)C=C7)C=C6)cc4)c3C)c2C)c1
REMARK SMILES IDX 25 1 24 2 23 3 22 4 21 5 19 6 20 7 18 8 14 9 15 10 96 11
REMARK SMILES IDX 16 12 97 13 17 14 13 15 11 16 12 17 10 19 7 20 8 21 98 22
REMARK SMILES IDX 9 23 99 24 6 25 1 26 2 27 3 28 100 29 4 30 5 31 26 32 27 33
REMARK SMILES IDX 28 34 29 35 30 36 31 37 32 38 33 39 34 40 95 41 35 42 94 43
REMARK SMILES IDX 36 44 37 45 38 46 88 47 39 48 93 49 87 50 89 51 40 52 92 53
REMARK SMILES IDX 86 54 85 55 41 57 73 58 53 59 72 60 54 61 57 62 71 63 90 64
REMARK SMILES IDX 55 65 56 66 70 68 91 69 58 70 42 71 43 72 51 73 44 74 46 75
REMARK SMILES IDX 52 76 45 77 47 78 48 79 49 80 50 81 74 82 75 83 83 84 76 85
REMARK SMILES IDX 78 86 84 87 77 88 79 89 80 90 81 91 82 92 59 93 60 94 68 95
REMARK SMILES IDX 61 96 63 97 69 98 62 99 64 100 65 101 66 102 67 103
REMARK H PARENT 13 18 89 56 57 67
REMARK Flexibility Score: inf
ROOT
ATOM      1  C   UNL A   1      32.419  28.592  23.072  1.00  0.00     0.188 C 
ENDROOT
BRANCH   1   2
ATOM      2  O   UNL A   1      31.708  29.631  22.364  1.00  0.00    -0.376 OA
BRANCH   2   3
ATOM      3  C   UNL A   1      30.292  29.663  22.058  1.00  0.00     0.202 C 
BRANCH   3   4
ATOM      4  C   UNL A   1      28.918  28.818  22.728  1.00  0.00     0.261 C 
BRANCH   4   5
ATOM      5  O   UNL A   1      28.757  27.182  23.542  1.00  0.00    -0.460 OA
BRANCH   5   6
ATOM      6  C   UNL A   1      29.508  26.193  24.390  1.00  0.00     0.338 C 
ATOM      7  O   UNL A   1      29.275  25.865  25.555  1.00  0.00    -0.246 OA
BRANCH   6   8
ATOM      8  C   UNL A   1      30.669  25.324  24.059  1.00  0.00     0.065 A 
ATOM      9  C   UNL A   1      33.009  24.652  24.609  1.00  0.00     0.045 A 
ATOM     10  C   UNL A   1      33.288  24.631  23.244  1.00  0.00     0.026 A 
ATOM     11  C   UNL A   1      31.717  25.025  25.052  1.00  0.00    -0.013 A 
ATOM     12  C   UNL A   1      32.297  24.968  22.312  1.00  0.00     0.003 A 
ATOM     13  C   UNL A   1      31.659  25.427  26.536  1.00  0.00     0.047 C 
ATOM     14  C   UNL A   1      31.000  25.311  22.709  1.00  0.00     0.016 A 
BRANCH   9  15
ATOM     15  N   UNL A   1      34.035  24.355  25.537  1.00  0.00    -0.322 N 
ATOM     16  C   UNL A   1      34.253  23.190  26.255  1.00  0.00     0.259 C 
ATOM     17  O   UNL A   1      35.046  23.199  27.199  1.00  0.00    -0.269 OA
ATOM     18  H   UNL A   1      34.686  25.077  25.695  1.00  0.00     0.170 HD
BRANCH  16  19
ATOM     19  C   UNL A   1      33.605  21.944  25.837  1.00  0.00     0.081 A 
ATOM     20  N   UNL A   1      33.212  19.884  25.082  1.00  0.00    -0.237 N 
ATOM     21  N   UNL A   1      31.999  20.462  25.164  1.00  0.00    -0.175 NA
ATOM     22  C   UNL A   1      34.228  20.797  25.336  1.00  0.00     0.054 A 
ATOM     23  C   UNL A   1      32.233  21.675  25.647  1.00  0.00     0.149 A 
ATOM     24  C   UNL A   1      35.653  20.585  24.961  1.00  0.00     0.068 C 
BRANCH  20  25
ATOM     25  C   UNL A   1      33.283  18.506  24.762  1.00  0.00     0.065 A 
ATOM     26  C   UNL A   1      32.065  15.252  26.304  1.00  0.00     0.044 C 
ATOM     27  C   UNL A   1      32.752  16.217  25.380  1.00  0.00    -0.049 A 
ATOM     28  C   UNL A   1      33.392  15.774  24.217  1.00  0.00     0.003 A 
ATOM     29  C   UNL A   1      32.733  17.585  25.664  1.00  0.00     0.031 A 
ATOM     30  C   UNL A   1      33.988  16.687  23.342  1.00  0.00     0.002 A 
ATOM     31  C   UNL A   1      33.924  18.058  23.604  1.00  0.00     0.028 A 
ENDBRANCH  20  25
ENDBRANCH  16  19
ENDBRANCH   9  15
ENDBRANCH   6   8
ENDBRANCH   5   6
ENDBRANCH   4   5
ENDBRANCH   3   4
ENDBRANCH   2   3
ENDBRANCH   1   2
BRANCH   1  32
ATOM     32  C   UNL A   1      32.835  28.707  24.521  1.00  0.00     0.188 C 
BRANCH  32  33
ATOM     33  O   UNL A   1      31.687  28.780  25.324  1.00  0.00    -0.376 OA
BRANCH  33  34
ATOM     34  C   UNL A   1      31.860  29.329  26.604  1.00  0.00     0.202 C 
BRANCH  34  35
ATOM     35  C   UNL A   1      32.815  30.531  26.620  1.00  0.00     0.261 C 
BRANCH  35  36
ATOM     36  O   UNL A   1      33.976  30.290  27.449  1.00  0.00    -0.460 OA
BRANCH  36  37
ATOM     37  C   UNL A   1      34.701  31.404  27.852  1.00  0.00     0.338 C 
ATOM     38  O   UNL A   1      34.405  32.527  27.544  1.00  0.00    -0.246 OA
BRANCH  37  39
ATOM     39  C   UNL A   1      35.929  30.956  28.602  1.00  0.00     0.060 A 
ATOM     40  C   UNL A   1      37.066  31.700  28.958  1.00  0.00     0.016 A 
ATOM     41  C   UNL A   1      36.069  29.627  28.680  1.00  0.00     0.016 A 
ATOM     42  C   UNL A   1      38.402  31.099  29.153  1.00  0.00     0.010 A 
ATOM     43  C   UNL A   1      37.369  29.156  28.628  1.00  0.00     0.010 A 
ATOM     44  C   UNL A   1      38.668  29.745  28.916  1.00  0.00    -0.014 A 
BRANCH  44  45
ATOM     45  C   UNL A   1      40.241  28.909  28.948  1.00  0.00     0.031 A 
ATOM     46  C   UNL A   1      40.753  27.240  28.522  1.00  0.00     0.074 A 
ATOM     47  C   UNL A   1      41.327  29.625  29.307  1.00  0.00     0.049 A 
ATOM     48  N   UNL A   1      41.601  26.512  29.218  1.00  0.00    -0.248 NA
ATOM     49  C   UNL A   1      40.141  26.248  27.484  1.00  0.00     0.031 C 
ATOM     50  C   UNL A   1      42.745  29.279  29.192  1.00  0.00     0.029 A 
ATOM     51  N   UNL A   1      41.367  30.904  29.861  1.00  0.00    -0.354 N 
ATOM     52  C   UNL A   1      41.561  25.194  28.685  1.00  0.00     0.074 A 
ATOM     53  C   UNL A   1      40.375  25.053  27.963  1.00  0.00     0.031 C 
ATOM     54  C   UNL A   1      43.454  30.145  29.943  1.00  0.00     0.029 A 
ATOM     55  C   UNL A   1      42.495  30.947  30.684  1.00  0.00     0.049 A 
ATOM     56  H   UNL A   1      40.726  31.634  29.703  1.00  0.00     0.167 HD
ATOM     57  C   UNL A   1      42.650  24.396  28.514  1.00  0.00     0.034 A 
ATOM     58  C   UNL A   1      42.281  30.998  32.029  1.00  0.00     0.034 A 
ATOM     59  C   UNL A   1      43.749  25.054  29.192  1.00  0.00     0.049 A 
ATOM     60  C   UNL A   1      42.776  29.718  32.690  1.00  0.00     0.074 A 
ATOM     61  C   UNL A   1      44.733  25.951  28.818  1.00  0.00     0.029 A 
ATOM     62  N   UNL A   1      43.564  25.246  30.544  1.00  0.00    -0.354 N 
ATOM     63  N   UNL A   1      43.410  28.756  32.061  1.00  0.00    -0.248 NA
ATOM     64  C   UNL A   1      42.587  29.407  34.100  1.00  0.00     0.031 C 
ATOM     65  C   UNL A   1      45.087  26.716  29.986  1.00  0.00     0.029 A 
ATOM     66  C   UNL A   1      44.357  26.245  31.066  1.00  0.00     0.049 A 
ATOM     67  H   UNL A   1      42.928  24.721  31.084  1.00  0.00     0.167 HD
ATOM     68  C   UNL A   1      43.624  27.692  32.892  1.00  0.00     0.074 A 
ATOM     69  C   UNL A   1      43.099  28.165  34.170  1.00  0.00     0.031 C 
ATOM     70  C   UNL A   1      44.185  26.500  32.493  1.00  0.00     0.034 A 
BRANCH  57  71
ATOM     71  C   UNL A   1      42.712  23.291  27.418  1.00  0.00     0.023 A 
ATOM     72  C   UNL A   1      41.903  22.161  27.625  1.00  0.00     0.012 A 
ATOM     73  C   UNL A   1      43.564  23.208  26.263  1.00  0.00     0.148 A 
ATOM     74  C   UNL A   1      42.007  20.999  26.838  1.00  0.00     0.002 A 
ATOM     75  C   UNL A   1      43.761  22.007  25.559  1.00  0.00     0.091 A 
ATOM     76  F   UNL A   1      44.101  24.314  25.732  1.00  0.00    -0.205 F 
ATOM     77  C   UNL A   1      42.973  20.898  25.844  1.00  0.00     0.022 A 
BRANCH  75  78
ATOM     78  S   UNL A   1      45.102  21.768  24.359  1.00  0.00     0.127 S 
ATOM     79  O   UNL A   1      45.044  23.003  23.571  1.00  0.00    -0.237 OA
ATOM     80  O   UNL A   1      46.285  21.656  25.209  1.00  0.00    -0.237 OA
ATOM     81  O   UNL A   1      44.746  20.575  23.598  1.00  0.00    -0.744 OA
ENDBRANCH  75  78
ENDBRANCH  57  71
BRANCH  58  82
ATOM     82  C   UNL A   1      41.132  31.936  32.379  1.00  0.00     0.023 A 
ATOM     83  C   UNL A   1      41.319  33.299  31.986  1.00  0.00     0.012 A 
ATOM     84  C   UNL A   1      39.824  31.564  32.755  1.00  0.00     0.148 A 
ATOM     85  C   UNL A   1      40.252  34.183  31.796  1.00  0.00     0.002 A 
ATOM     86  C   UNL A   1      38.759  32.484  32.623  1.00  0.00     0.091 A 
ATOM     87  F   UNL A   1      39.599  30.313  33.174  1.00  0.00    -0.205 F 
ATOM     88  C   UNL A   1      38.966  33.764  32.084  1.00  0.00     0.022 A 
BRANCH  86  89
ATOM     89  S   UNL A   1      37.053  32.061  33.061  1.00  0.00     0.127 S 
ATOM     90  O   UNL A   1      36.313  33.181  32.492  1.00  0.00    -0.237 OA
ATOM     91  O   UNL A   1      36.838  30.787  32.373  1.00  0.00    -0.237 OA
ATOM     92  O   UNL A   1      37.053  31.952  34.512  1.00  0.00    -0.744 OA
ENDBRANCH  86  89
ENDBRANCH  58  82
BRANCH  70  93
ATOM     93  C   UNL A   1      44.531  25.384  33.474  1.00  0.00     0.023 A 
ATOM     94  C   UNL A   1      43.502  24.632  34.064  1.00  0.00     0.012 A 
ATOM     95  C   UNL A   1      45.850  25.107  33.935  1.00  0.00     0.148 A 
ATOM     96  C   UNL A   1      43.773  23.561  34.921  1.00  0.00     0.002 A 
ATOM     97  C   UNL A   1      46.120  24.065  34.808  1.00  0.00     0.091 A 
ATOM     98  F   UNL A   1      46.879  25.878  33.584  1.00  0.00    -0.205 F 
ATOM     99  C   UNL A   1      45.083  23.261  35.273  1.00  0.00     0.022 A 
BRANCH  97 100
ATOM    100  S   UNL A   1      47.783  23.734  35.413  1.00  0.00     0.127 S 
ATOM    101  O   UNL A   1      48.073  24.965  36.150  1.00  0.00    -0.237 OA
ATOM    102  O   UNL A   1      47.570  22.555  36.252  1.00  0.00    -0.237 OA
ATOM    103  O   UNL A   1      48.620  23.504  34.244  1.00  0.00    -0.744 OA
ENDBRANCH  97 100
ENDBRANCH  70  93
ENDBRANCH  44  45
ENDBRANCH  37  39
ENDBRANCH  36  37
ENDBRANCH  35  36
ENDBRANCH  34  35
ENDBRANCH  33  34
ENDBRANCH  32  33
ENDBRANCH   1  32
TORSDOF 23
ENDMDL
MODEL 3
REMARK VINA RESULT:     -12.9      3.368     10.520
REMARK SMILES Cc1cccc(-n2ncc(C(=O)Nc3cccc(C(=O)OCCOCCOCCOC(=O)c4ccc(-c5c6nc(c(-c7cccc(S(=O)(=O)[O-])c7F)c7ccc([nH]7)c(-c7cccc(S(=O)(=O)[O-])c7F)c7nc(c(-c8cccc(S(=O)(=O)[O-])c8F)c8ccc5[nH]8)C=C7)C=C6)cc4)c3C)c2C)c1
REMARK SMILES IDX 25 1 24 2 23 3 22 4 21 5 19 6 20 7 18 8 14 9 15 10 96 11
REMARK SMILES IDX 16 12 97 13 17 14 13 15 11 16 12 17 10 19 7 20 8 21 98 22
REMARK SMILES IDX 9 23 99 24 6 25 1 26 2 27 3 28 100 29 4 30 5 31 26 32 27 33
REMARK SMILES IDX 28 34 29 35 30 36 31 37 32 38 33 39 34 40 95 41 35 42 94 43
REMARK SMILES IDX 36 44 37 45 38 46 88 47 39 48 93 49 87 50 89 51 40 52 92 53
REMARK SMILES IDX 86 54 85 55 41 57 73 58 53 59 72 60 54 61 57 62 71 63 90 64
REMARK SMILES IDX 55 65 56 66 70 68 91 69 58 70 42 71 43 72 51 73 44 74 46 75
REMARK SMILES IDX 52 76 45 77 47 78 48 79 49 80 50 81 74 82 75 83 83 84 76 85
REMARK SMILES IDX 78 86 84 87 77 88 79 89 80 90 81 91 82 92 59 93 60 94 68 95
REMARK SMILES IDX 61 96 63 97 69 98 62 99 64 100 65 101 66 102 67 103
REMARK H PARENT 13 18 89 56 57 67
REMARK Flexibility Score: inf
ROOT
ATOM      1  C   UNL A   1      40.727  21.104  26.565  1.00  0.00     0.188 C 
ENDROOT
BRANCH   1   2
ATOM      2  O   UNL A   1      39.403  21.513  26.153  1.00  0.00    -0.376 OA
BRANCH   2   3
ATOM      3  C   UNL A   1      38.855  22.853  26.195  1.00  0.00     0.202 C 
BRANCH   3   4
ATOM      4  C   UNL A   1      37.263  23.492  25.863  1.00  0.00     0.261 C 
BRANCH   4   5
ATOM      5  O   UNL A   1      35.583  22.874  26.260  1.00  0.00    -0.460 OA
BRANCH   5   6
ATOM      6  C   UNL A   1      34.533  21.899  25.805  1.00  0.00     0.338 C 
ATOM      7  O   UNL A   1      34.328  20.758  26.223  1.00  0.00    -0.246 OA
BRANCH   6   8
ATOM      8  C   UNL A   1      33.449  22.050  24.797  1.00  0.00     0.065 A 
ATOM      9  C   UNL A   1      32.609  23.270  22.788  1.00  0.00     0.045 A 
ATOM     10  C   UNL A   1      31.341  23.278  23.365  1.00  0.00     0.026 A 
ATOM     11  C   UNL A   1      33.693  22.692  23.491  1.00  0.00    -0.013 A 
ATOM     12  C   UNL A   1      31.133  22.710  24.630  1.00  0.00     0.003 A 
ATOM     13  C   UNL A   1      35.075  23.123  22.971  1.00  0.00     0.047 C 
ATOM     14  C   UNL A   1      32.171  22.100  25.342  1.00  0.00     0.016 A 
BRANCH   9  15
ATOM     15  N   UNL A   1      32.809  23.890  21.532  1.00  0.00    -0.322 N 
ATOM     16  C   UNL A   1      32.871  25.240  21.224  1.00  0.00     0.259 C 
ATOM     17  O   UNL A   1      32.800  25.596  20.045  1.00  0.00    -0.269 OA
ATOM     18  H   UNL A   1      32.921  23.277  20.769  1.00  0.00     0.170 HD
BRANCH  16  19
ATOM     19  C   UNL A   1      33.098  26.220  22.288  1.00  0.00     0.081 A 
ATOM     20  N   UNL A   1      32.830  27.626  23.997  1.00  0.00    -0.237 N 
ATOM     21  N   UNL A   1      34.070  27.871  23.536  1.00  0.00    -0.175 NA
ATOM     22  C   UNL A   1      32.148  26.737  23.174  1.00  0.00     0.054 A 
ATOM     23  C   UNL A   1      34.240  27.009  22.543  1.00  0.00     0.149 A 
ATOM     24  C   UNL A   1      30.671  26.557  23.183  1.00  0.00     0.068 C 
BRANCH  20  25
ATOM     25  C   UNL A   1      32.410  28.272  25.186  1.00  0.00     0.065 A 
ATOM     26  C   UNL A   1      31.191  31.740  26.152  1.00  0.00     0.044 C 
ATOM     27  C   UNL A   1      31.638  30.310  26.259  1.00  0.00    -0.049 A 
ATOM     28  C   UNL A   1      31.589  29.627  27.480  1.00  0.00     0.003 A 
ATOM     29  C   UNL A   1      32.084  29.635  25.121  1.00  0.00     0.031 A 
ATOM     30  C   UNL A   1      31.965  28.283  27.557  1.00  0.00     0.002 A 
ATOM     31  C   UNL A   1      32.365  27.597  26.408  1.00  0.00     0.028 A 
ENDBRANCH  20  25
ENDBRANCH  16  19
ENDBRANCH   9  15
ENDBRANCH   6   8
ENDBRANCH   5   6
ENDBRANCH   4   5
ENDBRANCH   3   4
ENDBRANCH   2   3
ENDBRANCH   1   2
BRANCH   1  32
ATOM     32  C   UNL A   1      41.164  19.659  26.647  1.00  0.00     0.188 C 
BRANCH  32  33
ATOM     33  O   UNL A   1      41.763  19.291  25.433  1.00  0.00    -0.376 OA
BRANCH  33  34
ATOM     34  C   UNL A   1      43.093  18.851  25.507  1.00  0.00     0.202 C 
BRANCH  34  35
ATOM     35  C   UNL A   1      44.092  19.845  24.895  1.00  0.00     0.261 C 
BRANCH  35  36
ATOM     36  O   UNL A   1      44.370  20.950  25.786  1.00  0.00    -0.460 OA
BRANCH  36  37
ATOM     37  C   UNL A   1      43.960  22.210  25.369  1.00  0.00     0.338 C 
ATOM     38  O   UNL A   1      43.676  22.465  24.229  1.00  0.00    -0.246 OA
BRANCH  37  39
ATOM     39  C   UNL A   1      44.056  23.174  26.524  1.00  0.00     0.060 A 
ATOM     40  C   UNL A   1      43.747  22.962  27.878  1.00  0.00     0.016 A 
ATOM     41  C   UNL A   1      44.174  24.456  26.158  1.00  0.00     0.016 A 
ATOM     42  C   UNL A   1      43.323  24.042  28.793  1.00  0.00     0.010 A 
ATOM     43  C   UNL A   1      43.540  25.374  26.977  1.00  0.00     0.010 A 
ATOM     44  C   UNL A   1      43.107  25.358  28.367  1.00  0.00    -0.014 A 
BRANCH  44  45
ATOM     45  C   UNL A   1      42.446  26.724  29.299  1.00  0.00     0.031 A 
ATOM     46  C   UNL A   1      41.058  27.834  29.034  1.00  0.00     0.074 A 
ATOM     47  C   UNL A   1      43.021  27.014  30.485  1.00  0.00     0.049 A 
ATOM     48  N   UNL A   1      41.078  29.132  29.254  1.00  0.00    -0.248 NA
ATOM     49  C   UNL A   1      39.719  27.585  28.271  1.00  0.00     0.031 C 
ATOM     50  C   UNL A   1      42.552  27.900  31.552  1.00  0.00     0.029 A 
ATOM     51  N   UNL A   1      44.214  26.512  31.006  1.00  0.00    -0.354 N 
ATOM     52  C   UNL A   1      39.880  29.672  28.710  1.00  0.00     0.074 A 
ATOM     53  C   UNL A   1      39.367  28.752  27.794  1.00  0.00     0.031 C 
ATOM     54  C   UNL A   1      43.574  28.120  32.401  1.00  0.00     0.029 A 
ATOM     55  C   UNL A   1      44.757  27.522  31.803  1.00  0.00     0.049 A 
ATOM     56  H   UNL A   1      44.598  25.621  30.843  1.00  0.00     0.167 HD
ATOM     57  C   UNL A   1      39.139  30.652  29.294  1.00  0.00     0.034 A 
ATOM     58  C   UNL A   1      45.886  28.135  31.346  1.00  0.00     0.034 A 
ATOM     59  C   UNL A   1      39.933  31.165  30.392  1.00  0.00     0.049 A 
ATOM     60  C   UNL A   1      45.597  29.591  31.011  1.00  0.00     0.074 A 
ATOM     61  C   UNL A   1      40.043  30.874  31.740  1.00  0.00     0.029 A 
ATOM     62  N   UNL A   1      41.148  31.704  30.027  1.00  0.00    -0.354 N 
ATOM     63  N   UNL A   1      44.450  30.189  31.232  1.00  0.00    -0.248 NA
ATOM     64  C   UNL A   1      46.561  30.489  30.390  1.00  0.00     0.031 C 
ATOM     65  C   UNL A   1      41.384  31.212  32.147  1.00  0.00     0.029 A 
ATOM     66  C   UNL A   1      42.057  31.751  31.061  1.00  0.00     0.049 A 
ATOM     67  H   UNL A   1      41.346  32.024  29.116  1.00  0.00     0.167 HD
ATOM     68  C   UNL A   1      44.458  31.458  30.723  1.00  0.00     0.074 A 
ATOM     69  C   UNL A   1      45.820  31.599  30.218  1.00  0.00     0.031 C 
ATOM     70  C   UNL A   1      43.367  32.298  30.721  1.00  0.00     0.034 A 
BRANCH  57  71
ATOM     71  C   UNL A   1      37.605  30.789  29.063  1.00  0.00     0.023 A 
ATOM     72  C   UNL A   1      37.003  29.797  28.271  1.00  0.00     0.012 A 
ATOM     73  C   UNL A   1      36.720  31.850  29.460  1.00  0.00     0.148 A 
ATOM     74  C   UNL A   1      35.679  29.899  27.804  1.00  0.00     0.002 A 
ATOM     75  C   UNL A   1      35.445  32.018  28.892  1.00  0.00     0.091 A 
ATOM     76  F   UNL A   1      37.031  32.646  30.491  1.00  0.00    -0.205 F 
ATOM     77  C   UNL A   1      34.918  31.032  28.065  1.00  0.00     0.022 A 
BRANCH  75  78
ATOM     78  S   UNL A   1      34.469  33.538  29.073  1.00  0.00     0.127 S 
ATOM     79  O   UNL A   1      34.036  33.470  30.472  1.00  0.00    -0.237 OA
ATOM     80  O   UNL A   1      35.447  34.588  28.800  1.00  0.00    -0.237 OA
ATOM     81  O   UNL A   1      33.372  33.421  28.118  1.00  0.00    -0.744 OA
ENDBRANCH  75  78
ENDBRANCH  57  71
BRANCH  58  82
ATOM     82  C   UNL A   1      46.861  27.132  30.738  1.00  0.00     0.023 A 
ATOM     83  C   UNL A   1      46.699  26.902  29.336  1.00  0.00     0.012 A 
ATOM     84  C   UNL A   1      48.056  26.659  31.320  1.00  0.00     0.148 A 
ATOM     85  C   UNL A   1      47.728  26.408  28.528  1.00  0.00     0.002 A 
ATOM     86  C   UNL A   1      49.067  26.099  30.506  1.00  0.00     0.091 A 
ATOM     87  F   UNL A   1      48.241  26.808  32.637  1.00  0.00    -0.205 F 
ATOM     88  C   UNL A   1      48.926  26.037  29.111  1.00  0.00     0.022 A 
BRANCH  86  89
ATOM     89  S   UNL A   1      50.636  25.500  31.185  1.00  0.00     0.127 S 
ATOM     90  O   UNL A   1      51.492  25.505  30.005  1.00  0.00    -0.237 OA
ATOM     91  O   UNL A   1      50.978  26.516  32.181  1.00  0.00    -0.237 OA
ATOM     92  O   UNL A   1      50.325  24.197  31.756  1.00  0.00    -0.744 OA
ENDBRANCH  86  89
ENDBRANCH  58  82
BRANCH  70  93
ATOM     93  C   UNL A   1      43.447  33.751  30.265  1.00  0.00     0.023 A 
ATOM     94  C   UNL A   1      43.237  34.785  31.192  1.00  0.00     0.012 A 
ATOM     95  C   UNL A   1      43.615  34.154  28.909  1.00  0.00     0.148 A 
ATOM     96  C   UNL A   1      43.360  36.130  30.834  1.00  0.00     0.002 A 
ATOM     97  C   UNL A   1      43.708  35.488  28.545  1.00  0.00     0.091 A 
ATOM     98  F   UNL A   1      43.637  33.259  27.922  1.00  0.00    -0.205 F 
ATOM     99  C   UNL A   1      43.621  36.482  29.515  1.00  0.00     0.022 A 
BRANCH  97 100
ATOM    100  S   UNL A   1      43.891  35.997  26.827  1.00  0.00     0.127 S 
ATOM    101  O   UNL A   1      42.621  35.549  26.255  1.00  0.00    -0.237 OA
ATOM    102  O   UNL A   1      44.026  37.448  26.955  1.00  0.00    -0.237 OA
ATOM    103  O   UNL A   1      45.072  35.321  26.310  1.00  0.00    -0.744 OA
ENDBRANCH  97 100
ENDBRANCH  70  93
ENDBRANCH  44  45
ENDBRANCH  37  39
ENDBRANCH  36  37
ENDBRANCH  35  36
ENDBRANCH  34  35
ENDBRANCH  33  34
ENDBRANCH  32  33
ENDBRANCH   1  32
TORSDOF 23
ENDMDL
