MODEL 1
REMARK VINA RESULT:      -8.5      0.000      0.000
REMARK SMILES O=C(Nc1ccc(Br)cc1)Nc1ccc(CC(=O)OCCOCCOCCOC(=O)c2ccc(-c3c4nc(c(-c5cccc(S(=O)(=O)[O-])c5F)c5ccc([nH]5)c(-c5cccc(S(=O)(=O)[O-])c5F)c5nc(c(-c6cccc(S(=O)(=O)[O-])c6F)c6ccc3[nH]6)C=C5)C=C4)cc2)cc1
REMARK SMILES IDX 23 1 22 2 21 3 20 4 19 5 17 6 18 7 16 8 15 9 12 10 13 11
REMARK SMILES IDX 95 12 14 13 94 14 11 15 1 16 2 17 3 18 4 21 5 22 10 23 6 24
REMARK SMILES IDX 9 25 7 26 8 27 24 28 25 29 26 30 27 31 28 32 29 33 30 34
REMARK SMILES IDX 31 35 32 36 93 37 33 38 92 39 34 40 35 41 36 42 86 43 37 44
REMARK SMILES IDX 91 45 85 46 87 47 38 48 90 49 84 50 83 51 39 53 71 54 51 55
REMARK SMILES IDX 70 56 52 57 55 58 69 59 88 60 53 61 54 62 68 64 89 65 56 66
REMARK SMILES IDX 40 67 41 68 49 69 42 70 44 71 50 72 43 73 45 74 46 75 47 76
REMARK SMILES IDX 48 77 72 78 73 79 81 80 74 81 76 82 82 83 75 84 77 85 78 86
REMARK SMILES IDX 79 87 80 88 57 89 58 90 66 91 59 92 61 93 67 94 60 95 62 96
REMARK SMILES IDX 63 97 64 98 65 99
REMARK H PARENT 3 19 11 20 87 52 55 63
REMARK Flexibility Score: inf
ROOT
ATOM      1  C   UNL A   1      46.118  20.934  25.330  1.00  0.00     0.188 C 
ENDROOT
BRANCH   1   2
ATOM      2  O   UNL A   1      46.106  22.355  25.402  1.00  0.00    -0.376 OA
BRANCH   2   3
ATOM      3  C   UNL A   1      44.856  23.024  25.451  1.00  0.00     0.202 C 
BRANCH   3   4
ATOM      4  C   UNL A   1      44.835  24.474  24.952  1.00  0.00     0.261 C 
BRANCH   4   5
ATOM      5  O   UNL A   1      46.133  25.116  24.877  1.00  0.00    -0.463 OA
BRANCH   5   6
ATOM      6  C   UNL A   1      46.139  26.465  25.006  1.00  0.00     0.310 C 
ATOM      7  O   UNL A   1      46.456  27.227  24.094  1.00  0.00    -0.252 OA
BRANCH   6   8
ATOM      8  C   UNL A   1      45.737  27.040  26.351  1.00  0.00     0.158 C 
BRANCH   8   9
ATOM      9  C   UNL A   1      45.334  28.487  26.575  1.00  0.00    -0.037 A 
ATOM     10  C   UNL A   1      44.530  31.219  26.653  1.00  0.00     0.042 A 
ATOM     11  C   UNL A   1      43.584  30.194  26.707  1.00  0.00     0.026 A 
ATOM     12  C   UNL A   1      45.880  30.876  26.573  1.00  0.00     0.026 A 
ATOM     13  C   UNL A   1      43.981  28.851  26.615  1.00  0.00     0.006 A 
ATOM     14  C   UNL A   1      46.280  29.523  26.566  1.00  0.00     0.006 A 
BRANCH  10  15
ATOM     15  N   UNL A   1      44.062  32.551  26.671  1.00  0.00    -0.308 N 
ATOM     16  O   UNL A   1      44.266  33.097  24.429  1.00  0.00    -0.248 OA
ATOM     17  C   UNL A   1      44.010  33.402  25.591  1.00  0.00     0.323 C 
ATOM     18  N   UNL A   1      43.446  34.631  25.852  1.00  0.00    -0.308 N 
ATOM     19  H   UNL A   1      42.899  35.005  25.124  1.00  0.00     0.171 HD
ATOM     20  H   UNL A   1      43.743  32.901  27.533  1.00  0.00     0.171 HD
BRANCH  18  21
ATOM     21  C   UNL A   1      43.535  35.432  27.004  1.00  0.00     0.042 A 
ATOM     22  C   UNL A   1      42.692  35.248  28.104  1.00  0.00     0.027 A 
ATOM     23  C   UNL A   1      44.567  36.374  27.081  1.00  0.00     0.027 A 
ATOM     24  C   UNL A   1      42.872  36.007  29.266  1.00  0.00     0.018 A 
ATOM     25  C   UNL A   1      44.729  37.157  28.230  1.00  0.00     0.018 A 
ATOM     26  C   UNL A   1      43.882  36.965  29.320  1.00  0.00     0.018 A 
ATOM     27  Br  UNL A   1      44.117  37.996  30.887  1.00  0.00    -0.051 Br
ENDBRANCH  18  21
ENDBRANCH  10  15
ENDBRANCH   8   9
ENDBRANCH   6   8
ENDBRANCH   5   6
ENDBRANCH   4   5
ENDBRANCH   3   4
ENDBRANCH   2   3
ENDBRANCH   1   2
BRANCH   1  28
ATOM     28  C   UNL A   1      45.602  20.250  24.055  1.00  0.00     0.188 C 
BRANCH  28  29
ATOM     29  O   UNL A   1      44.324  19.659  24.227  1.00  0.00    -0.376 OA
BRANCH  29  30
ATOM     30  C   UNL A   1      44.223  18.788  25.334  1.00  0.00     0.202 C 
BRANCH  30  31
ATOM     31  C   UNL A   1      42.849  18.900  25.997  1.00  0.00     0.261 C 
BRANCH  31  32
ATOM     32  O   UNL A   1      41.968  19.896  25.442  1.00  0.00    -0.460 OA
BRANCH  32  33
ATOM     33  C   UNL A   1      40.898  20.271  26.173  1.00  0.00     0.338 C 
ATOM     34  O   UNL A   1      39.889  19.611  26.391  1.00  0.00    -0.246 OA
BRANCH  33  35
ATOM     35  C   UNL A   1      41.214  21.558  26.829  1.00  0.00     0.060 A 
ATOM     36  C   UNL A   1      41.268  22.730  26.064  1.00  0.00     0.016 A 
ATOM     37  C   UNL A   1      41.467  21.607  28.200  1.00  0.00     0.016 A 
ATOM     38  C   UNL A   1      41.591  23.953  26.662  1.00  0.00     0.010 A 
ATOM     39  C   UNL A   1      41.807  22.825  28.794  1.00  0.00     0.010 A 
ATOM     40  C   UNL A   1      41.896  24.003  28.027  1.00  0.00    -0.014 A 
BRANCH  40  41
ATOM     41  C   UNL A   1      42.451  25.234  28.649  1.00  0.00     0.031 A 
ATOM     42  C   UNL A   1      41.545  26.425  28.816  1.00  0.00     0.074 A 
ATOM     43  C   UNL A   1      43.745  25.322  29.007  1.00  0.00     0.049 A 
ATOM     44  N   UNL A   1      41.837  27.649  29.170  1.00  0.00    -0.248 NA
ATOM     45  C   UNL A   1      40.117  26.205  28.532  1.00  0.00     0.031 C 
ATOM     46  C   UNL A   1      44.721  24.238  28.924  1.00  0.00     0.029 A 
ATOM     47  N   UNL A   1      44.468  26.394  29.473  1.00  0.00    -0.354 N 
ATOM     48  C   UNL A   1      40.642  28.357  29.103  1.00  0.00     0.074 A 
ATOM     49  C   UNL A   1      39.621  27.425  28.679  1.00  0.00     0.031 C 
ATOM     50  C   UNL A   1      45.927  24.711  29.286  1.00  0.00     0.029 A 
ATOM     51  C   UNL A   1      45.817  26.139  29.580  1.00  0.00     0.049 A 
ATOM     52  H   UNL A   1      44.062  27.260  29.706  1.00  0.00     0.167 HD
ATOM     53  C   UNL A   1      40.416  29.665  29.371  1.00  0.00     0.034 A 
ATOM     54  C   UNL A   1      46.848  26.970  29.838  1.00  0.00     0.034 A 
ATOM     55  C   UNL A   1      41.429  30.586  29.810  1.00  0.00     0.049 A 
ATOM     56  C   UNL A   1      46.578  28.433  30.093  1.00  0.00     0.074 A 
ATOM     57  C   UNL A   1      41.286  31.919  30.152  1.00  0.00     0.029 A 
ATOM     58  N   UNL A   1      42.772  30.278  29.951  1.00  0.00    -0.354 N 
ATOM     59  N   UNL A   1      45.432  29.070  30.115  1.00  0.00    -0.248 NA
ATOM     60  C   UNL A   1      47.740  29.288  30.380  1.00  0.00     0.031 C 
ATOM     61  C   UNL A   1      42.552  32.428  30.459  1.00  0.00     0.029 A 
ATOM     62  C   UNL A   1      43.474  31.400  30.357  1.00  0.00     0.049 A 
ATOM     63  H   UNL A   1      43.169  29.392  29.786  1.00  0.00     0.167 HD
ATOM     64  C   UNL A   1      45.730  30.386  30.458  1.00  0.00     0.074 A 
ATOM     65  C   UNL A   1      47.164  30.453  30.647  1.00  0.00     0.031 C 
ATOM     66  C   UNL A   1      44.893  31.443  30.598  1.00  0.00     0.034 A 
BRANCH  53  67
ATOM     67  C   UNL A   1      39.013  30.184  29.196  1.00  0.00     0.023 A 
ATOM     68  C   UNL A   1      38.383  30.101  27.938  1.00  0.00     0.012 A 
ATOM     69  C   UNL A   1      38.299  30.704  30.294  1.00  0.00     0.148 A 
ATOM     70  C   UNL A   1      37.078  30.561  27.767  1.00  0.00     0.002 A 
ATOM     71  C   UNL A   1      36.983  31.115  30.127  1.00  0.00     0.091 A 
ATOM     72  F   UNL A   1      38.923  30.793  31.477  1.00  0.00    -0.205 F 
ATOM     73  C   UNL A   1      36.375  31.057  28.862  1.00  0.00     0.022 A 
BRANCH  71  74
ATOM     74  S   UNL A   1      35.968  31.693  31.491  1.00  0.00     0.127 S 
ATOM     75  O   UNL A   1      35.933  30.512  32.353  1.00  0.00    -0.237 OA
ATOM     76  O   UNL A   1      36.763  32.805  32.013  1.00  0.00    -0.237 OA
ATOM     77  O   UNL A   1      34.690  32.077  30.909  1.00  0.00    -0.744 OA
ENDBRANCH  71  74
ENDBRANCH  53  67
BRANCH  54  78
ATOM     78  C   UNL A   1      48.243  26.444  29.872  1.00  0.00     0.023 A 
ATOM     79  C   UNL A   1      48.727  25.827  31.042  1.00  0.00     0.012 A 
ATOM     80  C   UNL A   1      49.094  26.553  28.754  1.00  0.00     0.148 A 
ATOM     81  C   UNL A   1      50.040  25.356  31.109  1.00  0.00     0.002 A 
ATOM     82  C   UNL A   1      50.381  26.033  28.808  1.00  0.00     0.091 A 
ATOM     83  F   UNL A   1      48.622  27.162  27.657  1.00  0.00    -0.205 F 
ATOM     84  C   UNL A   1      50.862  25.449  29.990  1.00  0.00     0.022 A 
BRANCH  82  85
ATOM     85  S   UNL A   1      51.472  26.001  27.381  1.00  0.00     0.127 S 
ATOM     86  O   UNL A   1      52.786  25.902  28.012  1.00  0.00    -0.237 OA
ATOM     87  O   UNL A   1      51.028  24.790  26.691  1.00  0.00    -0.237 OA
ATOM     88  O   UNL A   1      51.213  27.238  26.658  1.00  0.00    -0.744 OA
ENDBRANCH  82  85
ENDBRANCH  54  78
BRANCH  66  89
ATOM     89  C   UNL A   1      45.480  32.762  31.033  1.00  0.00     0.023 A 
ATOM     90  C   UNL A   1      45.994  33.661  30.079  1.00  0.00     0.012 A 
ATOM     91  C   UNL A   1      45.424  33.150  32.388  1.00  0.00     0.148 A 
ATOM     92  C   UNL A   1      46.467  34.914  30.469  1.00  0.00     0.002 A 
ATOM     93  C   UNL A   1      45.849  34.419  32.762  1.00  0.00     0.091 A 
ATOM     94  F   UNL A   1      44.944  32.274  33.284  1.00  0.00    -0.205 F 
ATOM     95  C   UNL A   1      46.382  35.298  31.806  1.00  0.00     0.022 A 
BRANCH  93  96
ATOM     96  S   UNL A   1      45.681  35.040  34.440  1.00  0.00     0.127 S 
ATOM     97  O   UNL A   1      44.243  34.902  34.665  1.00  0.00    -0.237 OA
ATOM     98  O   UNL A   1      46.510  34.103  35.199  1.00  0.00    -0.237 OA
ATOM     99  O   UNL A   1      46.177  36.410  34.417  1.00  0.00    -0.744 OA
ENDBRANCH  93  96
ENDBRANCH  66  89
ENDBRANCH  40  41
ENDBRANCH  33  35
ENDBRANCH  32  33
ENDBRANCH  31  32
ENDBRANCH  30  31
ENDBRANCH  29  30
ENDBRANCH  28  29
ENDBRANCH   1  28
TORSDOF 23
ENDMDL
MODEL 2
REMARK VINA RESULT:      -8.3      5.955     12.133
REMARK SMILES O=C(Nc1ccc(Br)cc1)Nc1ccc(CC(=O)OCCOCCOCCOC(=O)c2ccc(-c3c4nc(c(-c5cccc(S(=O)(=O)[O-])c5F)c5ccc([nH]5)c(-c5cccc(S(=O)(=O)[O-])c5F)c5nc(c(-c6cccc(S(=O)(=O)[O-])c6F)c6ccc3[nH]6)C=C5)C=C4)cc2)cc1
REMARK SMILES IDX 23 1 22 2 21 3 20 4 19 5 17 6 18 7 16 8 15 9 12 10 13 11
REMARK SMILES IDX 95 12 14 13 94 14 11 15 1 16 2 17 3 18 4 21 5 22 10 23 6 24
REMARK SMILES IDX 9 25 7 26 8 27 24 28 25 29 26 30 27 31 28 32 29 33 30 34
REMARK SMILES IDX 31 35 32 36 93 37 33 38 92 39 34 40 35 41 36 42 86 43 37 44
REMARK SMILES IDX 91 45 85 46 87 47 38 48 90 49 84 50 83 51 39 53 71 54 51 55
REMARK SMILES IDX 70 56 52 57 55 58 69 59 88 60 53 61 54 62 68 64 89 65 56 66
REMARK SMILES IDX 40 67 41 68 49 69 42 70 44 71 50 72 43 73 45 74 46 75 47 76
REMARK SMILES IDX 48 77 72 78 73 79 81 80 74 81 76 82 82 83 75 84 77 85 78 86
REMARK SMILES IDX 79 87 80 88 57 89 58 90 66 91 59 92 61 93 67 94 60 95 62 96
REMARK SMILES IDX 63 97 64 98 65 99
REMARK H PARENT 3 19 11 20 87 52 55 63
REMARK Flexibility Score: inf
ROOT
ATOM      1  C   UNL A   1      33.594  28.300  26.538  1.00  0.00     0.188 C 
ENDROOT
BRANCH   1   2
ATOM      2  O   UNL A   1      32.830  27.138  26.240  1.00  0.00    -0.376 OA
BRANCH   2   3
ATOM      3  C   UNL A   1      32.830  26.645  24.909  1.00  0.00     0.202 C 
BRANCH   3   4
ATOM      4  C   UNL A   1      31.897  25.463  24.617  1.00  0.00     0.261 C 
BRANCH   4   5
ATOM      5  O   UNL A   1      31.685  25.183  23.210  1.00  0.00    -0.463 OA
BRANCH   5   6
ATOM      6  C   UNL A   1      32.691  24.539  22.572  1.00  0.00     0.310 C 
ATOM      7  O   UNL A   1      33.314  25.028  21.631  1.00  0.00    -0.252 OA
BRANCH   6   8
ATOM      8  C   UNL A   1      33.045  23.145  23.056  1.00  0.00     0.158 C 
BRANCH   8   9
ATOM      9  C   UNL A   1      34.396  22.759  23.633  1.00  0.00    -0.037 A 
ATOM     10  C   UNL A   1      36.907  22.323  24.906  1.00  0.00     0.042 A 
ATOM     11  C   UNL A   1      35.722  21.879  25.494  1.00  0.00     0.026 A 
ATOM     12  C   UNL A   1      36.836  22.974  23.674  1.00  0.00     0.026 A 
ATOM     13  C   UNL A   1      34.483  22.142  24.890  1.00  0.00     0.006 A 
ATOM     14  C   UNL A   1      35.596  23.162  23.029  1.00  0.00     0.006 A 
BRANCH  10  15
ATOM     15  N   UNL A   1      38.114  22.096  25.602  1.00  0.00    -0.308 N 
ATOM     16  O   UNL A   1      38.204  24.001  26.917  1.00  0.00    -0.248 OA
ATOM     17  C   UNL A   1      38.699  22.955  26.504  1.00  0.00     0.323 C 
ATOM     18  N   UNL A   1      39.842  22.473  27.102  1.00  0.00    -0.308 N 
ATOM     19  H   UNL A   1      39.956  22.720  28.049  1.00  0.00     0.171 HD
ATOM     20  H   UNL A   1      38.579  21.247  25.426  1.00  0.00     0.171 HD
BRANCH  18  21
ATOM     21  C   UNL A   1      40.870  21.681  26.564  1.00  0.00     0.042 A 
ATOM     22  C   UNL A   1      42.090  22.226  26.152  1.00  0.00     0.027 A 
ATOM     23  C   UNL A   1      40.695  20.292  26.536  1.00  0.00     0.027 A 
ATOM     24  C   UNL A   1      43.121  21.391  25.707  1.00  0.00     0.018 A 
ATOM     25  C   UNL A   1      41.714  19.458  26.061  1.00  0.00     0.018 A 
ATOM     26  C   UNL A   1      42.925  20.013  25.653  1.00  0.00     0.018 A 
ATOM     27  Br  UNL A   1      44.316  18.888  25.041  1.00  0.00    -0.051 Br
ENDBRANCH  18  21
ENDBRANCH  10  15
ENDBRANCH   8   9
ENDBRANCH   6   8
ENDBRANCH   5   6
ENDBRANCH   4   5
ENDBRANCH   3   4
ENDBRANCH   2   3
ENDBRANCH   1   2
BRANCH   1  28
ATOM     28  C   UNL A   1      32.862  29.576  26.981  1.00  0.00     0.188 C 
BRANCH  28  29
ATOM     29  O   UNL A   1      33.661  30.412  27.802  1.00  0.00    -0.376 OA
BRANCH  29  30
ATOM     30  C   UNL A   1      33.915  31.695  27.267  1.00  0.00     0.202 C 
BRANCH  30  31
ATOM     31  C   UNL A   1      32.800  32.674  27.636  1.00  0.00     0.261 C 
BRANCH  31  32
ATOM     32  O   UNL A   1      33.216  34.035  27.866  1.00  0.00    -0.460 OA
BRANCH  32  33
ATOM     33  C   UNL A   1      33.377  34.439  29.143  1.00  0.00     0.338 C 
ATOM     34  O   UNL A   1      32.583  35.087  29.814  1.00  0.00    -0.246 OA
BRANCH  33  35
ATOM     35  C   UNL A   1      34.608  33.815  29.674  1.00  0.00     0.060 A 
ATOM     36  C   UNL A   1      34.515  32.861  30.697  1.00  0.00     0.016 A 
ATOM     37  C   UNL A   1      35.857  34.178  29.170  1.00  0.00     0.016 A 
ATOM     38  C   UNL A   1      35.669  32.279  31.231  1.00  0.00     0.010 A 
ATOM     39  C   UNL A   1      37.011  33.610  29.717  1.00  0.00     0.010 A 
ATOM     40  C   UNL A   1      36.929  32.675  30.767  1.00  0.00    -0.014 A 
BRANCH  40  41
ATOM     41  C   UNL A   1      38.175  32.244  31.454  1.00  0.00     0.031 A 
ATOM     42  C   UNL A   1      38.995  31.145  30.831  1.00  0.00     0.074 A 
ATOM     43  C   UNL A   1      38.546  32.769  32.636  1.00  0.00     0.049 A 
ATOM     44  N   UNL A   1      40.015  30.490  31.320  1.00  0.00    -0.248 NA
ATOM     45  C   UNL A   1      38.600  30.723  29.477  1.00  0.00     0.031 C 
ATOM     46  C   UNL A   1      37.859  33.854  33.333  1.00  0.00     0.029 A 
ATOM     47  N   UNL A   1      39.576  32.424  33.478  1.00  0.00    -0.354 N 
ATOM     48  C   UNL A   1      40.353  29.545  30.358  1.00  0.00     0.074 A 
ATOM     49  C   UNL A   1      39.433  29.715  29.255  1.00  0.00     0.031 C 
ATOM     50  C   UNL A   1      38.461  34.058  34.518  1.00  0.00     0.029 A 
ATOM     51  C   UNL A   1      39.544  33.089  34.683  1.00  0.00     0.049 A 
ATOM     52  H   UNL A   1      40.269  31.765  33.244  1.00  0.00     0.167 HD
ATOM     53  C   UNL A   1      41.341  28.620  30.389  1.00  0.00     0.034 A 
ATOM     54  C   UNL A   1      40.271  32.907  35.805  1.00  0.00     0.034 A 
ATOM     55  C   UNL A   1      42.266  28.463  31.478  1.00  0.00     0.049 A 
ATOM     56  C   UNL A   1      41.339  31.841  35.832  1.00  0.00     0.074 A 
ATOM     57  C   UNL A   1      43.331  27.585  31.580  1.00  0.00     0.029 A 
ATOM     58  N   UNL A   1      42.229  29.186  32.659  1.00  0.00    -0.354 N 
ATOM     59  N   UNL A   1      41.708  31.016  34.883  1.00  0.00    -0.248 NA
ATOM     60  C   UNL A   1      42.108  31.696  37.079  1.00  0.00     0.031 C 
ATOM     61  C   UNL A   1      43.911  27.749  32.842  1.00  0.00     0.029 A 
ATOM     62  C   UNL A   1      43.240  28.763  33.504  1.00  0.00     0.049 A 
ATOM     63  H   UNL A   1      41.580  29.897  32.866  1.00  0.00     0.167 HD
ATOM     64  C   UNL A   1      42.774  30.285  35.401  1.00  0.00     0.074 A 
ATOM     65  C   UNL A   1      43.001  30.774  36.745  1.00  0.00     0.031 C 
ATOM     66  C   UNL A   1      43.495  29.295  34.818  1.00  0.00     0.034 A 
BRANCH  53  67
ATOM     67  C   UNL A   1      41.474  27.696  29.207  1.00  0.00     0.023 A 
ATOM     68  C   UNL A   1      40.711  26.512  29.147  1.00  0.00     0.012 A 
ATOM     69  C   UNL A   1      42.316  28.031  28.127  1.00  0.00     0.148 A 
ATOM     70  C   UNL A   1      40.811  25.659  28.050  1.00  0.00     0.002 A 
ATOM     71  C   UNL A   1      42.373  27.201  27.015  1.00  0.00     0.091 A 
ATOM     72  F   UNL A   1      43.048  29.151  28.212  1.00  0.00    -0.205 F 
ATOM     73  C   UNL A   1      41.633  26.008  26.980  1.00  0.00     0.022 A 
BRANCH  71  74
ATOM     74  S   UNL A   1      43.339  27.602  25.555  1.00  0.00     0.127 S 
ATOM     75  O   UNL A   1      42.344  28.277  24.721  1.00  0.00    -0.237 OA
ATOM     76  O   UNL A   1      44.371  28.482  26.104  1.00  0.00    -0.237 OA
ATOM     77  O   UNL A   1      43.831  26.334  25.036  1.00  0.00    -0.744 OA
ENDBRANCH  71  74
ENDBRANCH  53  67
BRANCH  54  78
ATOM     78  C   UNL A   1      40.020  33.754  37.006  1.00  0.00     0.023 A 
ATOM     79  C   UNL A   1      40.573  35.048  37.075  1.00  0.00     0.012 A 
ATOM     80  C   UNL A   1      39.239  33.285  38.082  1.00  0.00     0.148 A 
ATOM     81  C   UNL A   1      40.379  35.847  38.203  1.00  0.00     0.002 A 
ATOM     82  C   UNL A   1      39.004  34.107  39.178  1.00  0.00     0.091 A 
ATOM     83  F   UNL A   1      38.739  32.044  38.007  1.00  0.00    -0.205 F 
ATOM     84  C   UNL A   1      39.586  35.381  39.248  1.00  0.00     0.022 A 
BRANCH  82  85
ATOM     85  S   UNL A   1      37.902  33.639  40.517  1.00  0.00     0.127 S 
ATOM     86  O   UNL A   1      36.712  33.207  39.788  1.00  0.00    -0.237 OA
ATOM     87  O   UNL A   1      38.654  32.562  41.161  1.00  0.00    -0.237 OA
ATOM     88  O   UNL A   1      37.741  34.834  41.332  1.00  0.00    -0.744 OA
ENDBRANCH  82  85
ENDBRANCH  54  78
BRANCH  66  89
ATOM     89  C   UNL A   1      44.644  28.702  35.593  1.00  0.00     0.023 A 
ATOM     90  C   UNL A   1      45.945  29.219  35.444  1.00  0.00     0.012 A 
ATOM     91  C   UNL A   1      44.407  27.694  36.551  1.00  0.00     0.148 A 
ATOM     92  C   UNL A   1      46.997  28.725  36.215  1.00  0.00     0.002 A 
ATOM     93  C   UNL A   1      45.449  27.243  37.352  1.00  0.00     0.091 A 
ATOM     94  F   UNL A   1      43.163  27.205  36.669  1.00  0.00    -0.205 F 
ATOM     95  C   UNL A   1      46.747  27.748  37.178  1.00  0.00     0.022 A 
BRANCH  93  96
ATOM     96  S   UNL A   1      45.202  26.065  38.687  1.00  0.00     0.127 S 
ATOM     97  O   UNL A   1      44.668  26.923  39.745  1.00  0.00    -0.237 OA
ATOM     98  O   UNL A   1      44.232  25.138  38.105  1.00  0.00    -0.237 OA
ATOM     99  O   UNL A   1      46.510  25.484  38.962  1.00  0.00    -0.744 OA
ENDBRANCH  93  96
ENDBRANCH  66  89
ENDBRANCH  40  41
ENDBRANCH  33  35
ENDBRANCH  32  33
ENDBRANCH  31  32
ENDBRANCH  30  31
ENDBRANCH  29  30
ENDBRANCH  28  29
ENDBRANCH   1  28
TORSDOF 23
ENDMDL
MODEL 3
REMARK VINA RESULT:      -7.7      5.770     12.137
REMARK SMILES O=C(Nc1ccc(Br)cc1)Nc1ccc(CC(=O)OCCOCCOCCOC(=O)c2ccc(-c3c4nc(c(-c5cccc(S(=O)(=O)[O-])c5F)c5ccc([nH]5)c(-c5cccc(S(=O)(=O)[O-])c5F)c5nc(c(-c6cccc(S(=O)(=O)[O-])c6F)c6ccc3[nH]6)C=C5)C=C4)cc2)cc1
REMARK SMILES IDX 23 1 22 2 21 3 20 4 19 5 17 6 18 7 16 8 15 9 12 10 13 11
REMARK SMILES IDX 95 12 14 13 94 14 11 15 1 16 2 17 3 18 4 21 5 22 10 23 6 24
REMARK SMILES IDX 9 25 7 26 8 27 24 28 25 29 26 30 27 31 28 32 29 33 30 34
REMARK SMILES IDX 31 35 32 36 93 37 33 38 92 39 34 40 35 41 36 42 86 43 37 44
REMARK SMILES IDX 91 45 85 46 87 47 38 48 90 49 84 50 83 51 39 53 71 54 51 55
REMARK SMILES IDX 70 56 52 57 55 58 69 59 88 60 53 61 54 62 68 64 89 65 56 66
REMARK SMILES IDX 40 67 41 68 49 69 42 70 44 71 50 72 43 73 45 74 46 75 47 76
REMARK SMILES IDX 48 77 72 78 73 79 81 80 74 81 76 82 82 83 75 84 77 85 78 86
REMARK SMILES IDX 79 87 80 88 57 89 58 90 66 91 59 92 61 93 67 94 60 95 62 96
REMARK SMILES IDX 63 97 64 98 65 99
REMARK H PARENT 3 19 11 20 87 52 55 63
REMARK Flexibility Score: inf
ROOT
ATOM      1  C   UNL A   1      33.644  26.127  25.370  1.00  0.00     0.188 C 
ENDROOT
BRANCH   1   2
ATOM      2  O   UNL A   1      33.937  27.410  25.909  1.00  0.00    -0.376 OA
BRANCH   2   3
ATOM      3  C   UNL A   1      32.862  28.240  26.319  1.00  0.00     0.202 C 
BRANCH   3   4
ATOM      4  C   UNL A   1      31.470  27.868  25.793  1.00  0.00     0.261 C 
BRANCH   4   5
ATOM      5  O   UNL A   1      31.327  27.915  24.351  1.00  0.00    -0.463 OA
BRANCH   5   6
ATOM      6  C   UNL A   1      30.090  27.651  23.866  1.00  0.00     0.310 C 
ATOM      7  O   UNL A   1      29.468  28.431  23.147  1.00  0.00    -0.252 OA
BRANCH   6   8
ATOM      8  C   UNL A   1      29.460  26.324  24.246  1.00  0.00     0.158 C 
BRANCH   8   9
ATOM      9  C   UNL A   1      30.213  25.006  24.302  1.00  0.00    -0.037 A 
ATOM     10  C   UNL A   1      31.905  22.722  24.490  1.00  0.00     0.042 A 
ATOM     11  C   UNL A   1      31.265  23.232  25.621  1.00  0.00     0.026 A 
ATOM     12  C   UNL A   1      31.688  23.348  23.262  1.00  0.00     0.026 A 
ATOM     13  C   UNL A   1      30.475  24.388  25.534  1.00  0.00     0.006 A 
ATOM     14  C   UNL A   1      30.825  24.460  23.164  1.00  0.00     0.006 A 
BRANCH  10  15
ATOM     15  N   UNL A   1      32.749  21.603  24.658  1.00  0.00    -0.308 N 
ATOM     16  O   UNL A   1      34.635  22.326  23.524  1.00  0.00    -0.248 OA
ATOM     17  C   UNL A   1      34.013  21.459  24.132  1.00  0.00     0.323 C 
ATOM     18  N   UNL A   1      34.661  20.301  24.498  1.00  0.00    -0.308 N 
ATOM     19  H   UNL A   1      35.630  20.392  24.647  1.00  0.00     0.171 HD
ATOM     20  H   UNL A   1      32.403  20.859  25.201  1.00  0.00     0.171 HD
BRANCH  18  21
ATOM     21  C   UNL A   1      34.147  19.007  24.692  1.00  0.00     0.042 A 
ATOM     22  C   UNL A   1      34.808  17.867  24.225  1.00  0.00     0.027 A 
ATOM     23  C   UNL A   1      32.989  18.861  25.464  1.00  0.00     0.027 A 
ATOM     24  C   UNL A   1      34.310  16.593  24.519  1.00  0.00     0.018 A 
ATOM     25  C   UNL A   1      32.471  17.588  25.732  1.00  0.00     0.018 A 
ATOM     26  C   UNL A   1      33.139  16.459  25.261  1.00  0.00     0.018 A 
ATOM     27  Br  UNL A   1      32.462  14.737  25.647  1.00  0.00    -0.051 Br
ENDBRANCH  18  21
ENDBRANCH  10  15
ENDBRANCH   8   9
ENDBRANCH   6   8
ENDBRANCH   5   6
ENDBRANCH   4   5
ENDBRANCH   3   4
ENDBRANCH   2   3
ENDBRANCH   1   2
BRANCH   1  28
ATOM     28  C   UNL A   1      34.734  25.044  25.396  1.00  0.00     0.188 C 
BRANCH  28  29
ATOM     29  O   UNL A   1      34.481  24.030  26.353  1.00  0.00    -0.376 OA
BRANCH  29  30
ATOM     30  C   UNL A   1      35.580  23.183  26.619  1.00  0.00     0.202 C 
BRANCH  30  31
ATOM     31  C   UNL A   1      36.894  23.838  26.191  1.00  0.00     0.261 C 
BRANCH  31  32
ATOM     32  O   UNL A   1      37.869  22.955  25.603  1.00  0.00    -0.460 OA
BRANCH  32  33
ATOM     33  C   UNL A   1      38.990  22.693  26.307  1.00  0.00     0.338 C 
ATOM     34  O   UNL A   1      39.540  21.606  26.436  1.00  0.00    -0.246 OA
BRANCH  33  35
ATOM     35  C   UNL A   1      39.561  23.979  26.762  1.00  0.00     0.060 A 
ATOM     36  C   UNL A   1      39.467  24.339  28.113  1.00  0.00     0.016 A 
ATOM     37  C   UNL A   1      40.183  24.835  25.854  1.00  0.00     0.016 A 
ATOM     38  C   UNL A   1      39.978  25.562  28.558  1.00  0.00     0.010 A 
ATOM     39  C   UNL A   1      40.677  26.066  26.295  1.00  0.00     0.010 A 
ATOM     40  C   UNL A   1      40.557  26.450  27.644  1.00  0.00    -0.014 A 
BRANCH  40  41
ATOM     41  C   UNL A   1      40.912  27.840  28.038  1.00  0.00     0.031 A 
ATOM     42  C   UNL A   1      42.366  28.228  28.070  1.00  0.00     0.074 A 
ATOM     43  C   UNL A   1      39.974  28.727  28.417  1.00  0.00     0.049 A 
ATOM     44  N   UNL A   1      42.928  29.312  28.535  1.00  0.00    -0.248 NA
ATOM     45  C   UNL A   1      43.315  27.252  27.509  1.00  0.00     0.031 C 
ATOM     46  C   UNL A   1      38.532  28.490  28.408  1.00  0.00     0.029 A 
ATOM     47  N   UNL A   1      40.105  29.996  28.927  1.00  0.00    -0.354 N 
ATOM     48  C   UNL A   1      44.296  29.130  28.372  1.00  0.00     0.074 A 
ATOM     49  C   UNL A   1      44.480  27.833  27.760  1.00  0.00     0.031 C 
ATOM     50  C   UNL A   1      37.912  29.563  28.929  1.00  0.00     0.029 A 
ATOM     51  C   UNL A   1      38.914  30.541  29.352  1.00  0.00     0.049 A 
ATOM     52  H   UNL A   1      40.966  30.470  28.985  1.00  0.00     0.167 HD
ATOM     53  C   UNL A   1      45.309  29.967  28.701  1.00  0.00     0.034 A 
ATOM     54  C   UNL A   1      38.664  31.673  30.043  1.00  0.00     0.034 A 
ATOM     55  C   UNL A   1      45.123  31.264  29.294  1.00  0.00     0.049 A 
ATOM     56  C   UNL A   1      39.812  32.570  30.437  1.00  0.00     0.074 A 
ATOM     57  C   UNL A   1      46.085  32.204  29.619  1.00  0.00     0.029 A 
ATOM     58  N   UNL A   1      43.900  31.798  29.665  1.00  0.00    -0.354 N 
ATOM     59  N   UNL A   1      41.093  32.429  30.196  1.00  0.00    -0.248 NA
ATOM     60  C   UNL A   1      39.477  33.797  31.178  1.00  0.00     0.031 C 
ATOM     61  C   UNL A   1      45.446  33.289  30.227  1.00  0.00     0.029 A 
ATOM     62  C   UNL A   1      44.082  33.046  30.234  1.00  0.00     0.049 A 
ATOM     63  H   UNL A   1      43.029  31.354  29.543  1.00  0.00     0.167 HD
ATOM     64  C   UNL A   1      41.710  33.563  30.717  1.00  0.00     0.074 A 
ATOM     65  C   UNL A   1      40.660  34.388  31.277  1.00  0.00     0.031 C 
ATOM     66  C   UNL A   1      43.026  33.887  30.736  1.00  0.00     0.034 A 
BRANCH  53  67
ATOM     67  C   UNL A   1      46.716  29.505  28.430  1.00  0.00     0.023 A 
ATOM     68  C   UNL A   1      47.343  29.832  27.211  1.00  0.00     0.012 A 
ATOM     69  C   UNL A   1      47.437  28.793  29.409  1.00  0.00     0.148 A 
ATOM     70  C   UNL A   1      48.652  29.427  26.956  1.00  0.00     0.002 A 
ATOM     71  C   UNL A   1      48.757  28.435  29.167  1.00  0.00     0.091 A 
ATOM     72  F   UNL A   1      46.816  28.474  30.554  1.00  0.00    -0.205 F 
ATOM     73  C   UNL A   1      49.362  28.738  27.937  1.00  0.00     0.022 A 
BRANCH  71  74
ATOM     74  S   UNL A   1      49.780  27.618  30.397  1.00  0.00     0.127 S 
ATOM     75  O   UNL A   1      49.465  26.210  30.153  1.00  0.00    -0.237 OA
ATOM     76  O   UNL A   1      51.127  28.019  29.989  1.00  0.00    -0.237 OA
ATOM     77  O   UNL A   1      49.353  28.138  31.687  1.00  0.00    -0.744 OA
ENDBRANCH  71  74
ENDBRANCH  53  67
BRANCH  54  78
ATOM     78  C   UNL A   1      37.265  32.032  30.412  1.00  0.00     0.023 A 
ATOM     79  C   UNL A   1      36.767  31.684  31.683  1.00  0.00     0.012 A 
ATOM     80  C   UNL A   1      36.423  32.714  29.511  1.00  0.00     0.148 A 
ATOM     81  C   UNL A   1      35.450  31.980  32.039  1.00  0.00     0.002 A 
ATOM     82  C   UNL A   1      35.131  33.056  29.892  1.00  0.00     0.091 A 
ATOM     83  F   UNL A   1      36.907  33.019  28.299  1.00  0.00    -0.205 F 
ATOM     84  C   UNL A   1      34.637  32.675  31.149  1.00  0.00     0.022 A 
BRANCH  82  85
ATOM     85  S   UNL A   1      34.049  34.051  28.859  1.00  0.00     0.127 S 
ATOM     86  O   UNL A   1      33.538  33.057  27.918  1.00  0.00    -0.237 OA
ATOM     87  O   UNL A   1      33.072  34.538  29.831  1.00  0.00    -0.237 OA
ATOM     88  O   UNL A   1      34.896  35.086  28.282  1.00  0.00    -0.744 OA
ENDBRANCH  82  85
ENDBRANCH  54  78
BRANCH  66  89
ATOM     89  C   UNL A   1      43.423  35.217  31.325  1.00  0.00     0.023 A 
ATOM     90  C   UNL A   1      43.788  35.313  32.682  1.00  0.00     0.012 A 
ATOM     91  C   UNL A   1      43.532  36.354  30.498  1.00  0.00     0.148 A 
ATOM     92  C   UNL A   1      44.229  36.525  33.213  1.00  0.00     0.002 A 
ATOM     93  C   UNL A   1      44.022  37.545  31.021  1.00  0.00     0.091 A 
ATOM     94  F   UNL A   1      43.166  36.245  29.212  1.00  0.00    -0.205 F 
ATOM     95  C   UNL A   1      44.360  37.636  32.380  1.00  0.00     0.022 A 
BRANCH  93  96
ATOM     96  S   UNL A   1      44.322  38.996  30.005  1.00  0.00     0.127 S 
ATOM     97  O   UNL A   1      43.283  39.911  30.478  1.00  0.00    -0.237 OA
ATOM     98  O   UNL A   1      45.683  39.366  30.390  1.00  0.00    -0.237 OA
ATOM     99  O   UNL A   1      44.179  38.559  28.622  1.00  0.00    -0.744 OA
ENDBRANCH  93  96
ENDBRANCH  66  89
ENDBRANCH  40  41
ENDBRANCH  33  35
ENDBRANCH  32  33
ENDBRANCH  31  32
ENDBRANCH  30  31
ENDBRANCH  29  30
ENDBRANCH  28  29
ENDBRANCH   1  28
TORSDOF 23
ENDMDL
