MODEL 1
REMARK VINA RESULT:     -10.8      0.000      0.000
REMARK SMILES CCc1cc(C)c2c(c1)C=C(C(=O)OCCOCCOCCOC(=O)c1ccc(-c3c4nc(c(-c5cccc(S(=O)(=O)[O-])c5F)c5ccc([nH]5)c(-c5cccc(S(=O)(=O)[O-])c5F)c5nc(c(-c6cccc(S(=O)(=O)[O-])c6F)c6ccc3[nH]6)C=C5)C=C4)cc1)[C@@H](C(F)(F)F)O2
REMARK SMILES IDX 19 1 18 2 17 3 16 4 15 5 14 6 12 7 13 8 11 9 3 10 4 11 9 12
REMARK SMILES IDX 5 13 8 14 6 15 7 16 10 17 94 18 89 19 2 20 1 21 90 22 91 23
REMARK SMILES IDX 92 24 93 25 20 26 21 27 22 28 23 29 24 30 25 31 26 32 27 33
REMARK SMILES IDX 88 34 28 35 87 36 29 37 30 38 31 39 81 40 32 41 86 42 80 43
REMARK SMILES IDX 82 44 33 45 85 46 79 47 78 48 34 50 66 51 46 52 65 53 47 54
REMARK SMILES IDX 50 55 64 56 83 57 48 58 49 59 63 61 84 62 51 63 35 64 36 65
REMARK SMILES IDX 44 66 37 67 39 68 45 69 38 70 40 71 41 72 42 73 43 74 67 75
REMARK SMILES IDX 68 76 76 77 69 78 71 79 77 80 70 81 72 82 73 83 74 84 75 85
REMARK SMILES IDX 52 86 53 87 61 88 54 89 56 90 62 91 55 92 57 93 58 94 59 95
REMARK SMILES IDX 60 96
REMARK H PARENT 82 49 50 60
REMARK Flexibility Score: inf
ROOT
ATOM      1  C   UNL A   1      32.804  28.539  26.789  1.00  0.00     0.188 C 
ENDROOT
BRANCH   1   2
ATOM      2  C   UNL A   1      33.841  28.955  25.720  1.00  0.00     0.188 C 
BRANCH   2   3
ATOM      3  O   UNL A   1      33.770  28.155  24.561  1.00  0.00    -0.376 OA
BRANCH   3   4
ATOM      4  C   UNL A   1      34.018  28.742  23.299  1.00  0.00     0.202 C 
BRANCH   4   5
ATOM      5  C   UNL A   1      33.642  28.049  21.975  1.00  0.00     0.261 C 
BRANCH   5   6
ATOM      6  O   UNL A   1      33.965  26.659  21.844  1.00  0.00    -0.460 OA
BRANCH   6   7
ATOM      7  C   UNL A   1      32.929  25.797  21.745  1.00  0.00     0.338 C 
ATOM      8  O   UNL A   1      32.166  25.685  20.802  1.00  0.00    -0.246 OA
BRANCH   7   9
ATOM      9  C   UNL A   1      32.921  24.914  22.930  1.00  0.00     0.087 C 
ATOM     10  C   UNL A   1      33.567  20.521  24.819  1.00  0.00    -0.047 A 
ATOM     11  C   UNL A   1      32.989  20.966  26.015  1.00  0.00     0.011 A 
ATOM     12  C   UNL A   1      33.744  21.437  23.773  1.00  0.00     0.015 A 
ATOM     13  C   UNL A   1      32.598  22.305  26.178  1.00  0.00    -0.008 A 
ATOM     14  C   UNL A   1      33.339  22.772  23.913  1.00  0.00     0.018 A 
ATOM     15  C   UNL A   1      31.937  22.741  27.456  1.00  0.00     0.048 C 
ATOM     16  C   UNL A   1      32.791  23.209  25.122  1.00  0.00     0.130 A 
ATOM     17  C   UNL A   1      33.409  23.677  22.775  1.00  0.00     0.027 C 
ATOM     18  O   UNL A   1      32.407  24.503  25.343  1.00  0.00    -0.475 OA
ATOM     19  C   UNL A   1      32.390  25.443  24.236  1.00  0.00     0.316 C 
BRANCH  10  20
ATOM     20  C   UNL A   1      33.901  19.059  24.631  1.00  0.00     0.032 C 
ATOM     21  C   UNL A   1      32.773  18.112  25.014  1.00  0.00     0.009 C 
ENDBRANCH  10  20
BRANCH  19  22
ATOM     22  C   UNL A   1      30.965  25.998  24.104  1.00  0.00     0.430 C 
ATOM     23  F   UNL A   1      30.976  27.279  23.656  1.00  0.00    -0.167 F 
ATOM     24  F   UNL A   1      30.228  25.291  23.216  1.00  0.00    -0.167 F 
ATOM     25  F   UNL A   1      30.301  25.988  25.281  1.00  0.00    -0.167 F 
ENDBRANCH  19  22
ENDBRANCH   7   9
ENDBRANCH   6   7
ENDBRANCH   5   6
ENDBRANCH   4   5
ENDBRANCH   3   4
ENDBRANCH   2   3
ENDBRANCH   1   2
BRANCH   1  26
ATOM     26  O   UNL A   1      31.808  29.468  27.199  1.00  0.00    -0.376 OA
BRANCH  26  27
ATOM     27  C   UNL A   1      31.461  30.526  26.310  1.00  0.00     0.202 C 
BRANCH  27  28
ATOM     28  C   UNL A   1      31.531  31.991  26.781  1.00  0.00     0.261 C 
BRANCH  28  29
ATOM     29  O   UNL A   1      32.792  32.653  26.587  1.00  0.00    -0.460 OA
BRANCH  29  30
ATOM     30  C   UNL A   1      33.281  33.330  27.656  1.00  0.00     0.338 C 
ATOM     31  O   UNL A   1      32.753  34.258  28.250  1.00  0.00    -0.246 OA
BRANCH  30  32
ATOM     32  C   UNL A   1      34.505  32.657  28.131  1.00  0.00     0.060 A 
ATOM     33  C   UNL A   1      34.447  31.298  28.476  1.00  0.00     0.016 A 
ATOM     34  C   UNL A   1      35.697  33.369  28.259  1.00  0.00     0.016 A 
ATOM     35  C   UNL A   1      35.590  30.639  28.924  1.00  0.00     0.010 A 
ATOM     36  C   UNL A   1      36.832  32.719  28.752  1.00  0.00     0.010 A 
ATOM     37  C   UNL A   1      36.779  31.356  29.096  1.00  0.00    -0.014 A 
BRANCH  37  38
ATOM     38  C   UNL A   1      37.913  30.721  29.804  1.00  0.00     0.031 A 
ATOM     39  C   UNL A   1      38.162  31.099  31.236  1.00  0.00     0.074 A 
ATOM     40  C   UNL A   1      38.703  29.823  29.189  1.00  0.00     0.049 A 
ATOM     41  N   UNL A   1      39.088  30.673  32.051  1.00  0.00    -0.248 NA
ATOM     42  C   UNL A   1      37.241  32.084  31.832  1.00  0.00     0.031 C 
ATOM     43  C   UNL A   1      38.553  29.367  27.809  1.00  0.00     0.029 A 
ATOM     44  N   UNL A   1      39.806  29.146  29.650  1.00  0.00    -0.354 N 
ATOM     45  C   UNL A   1      38.873  31.344  33.247  1.00  0.00     0.074 A 
ATOM     46  C   UNL A   1      37.733  32.210  33.055  1.00  0.00     0.031 C 
ATOM     47  C   UNL A   1      39.542  28.501  27.527  1.00  0.00     0.029 A 
ATOM     48  C   UNL A   1      40.403  28.354  28.701  1.00  0.00     0.049 A 
ATOM     49  H   UNL A   1      40.136  29.222  30.575  1.00  0.00     0.167 HD
ATOM     50  C   UNL A   1      39.557  31.234  34.407  1.00  0.00     0.034 A 
ATOM     51  C   UNL A   1      41.522  27.604  28.768  1.00  0.00     0.034 A 
ATOM     52  C   UNL A   1      40.683  30.369  34.602  1.00  0.00     0.049 A 
ATOM     53  C   UNL A   1      42.294  27.533  30.059  1.00  0.00     0.074 A 
ATOM     54  C   UNL A   1      41.413  30.166  35.759  1.00  0.00     0.029 A 
ATOM     55  N   UNL A   1      41.251  29.576  33.619  1.00  0.00    -0.354 N 
ATOM     56  N   UNL A   1      42.019  28.096  31.212  1.00  0.00    -0.248 NA
ATOM     57  C   UNL A   1      43.513  26.708  30.074  1.00  0.00     0.031 C 
ATOM     58  C   UNL A   1      42.438  29.263  35.470  1.00  0.00     0.029 A 
ATOM     59  C   UNL A   1      42.330  28.889  34.140  1.00  0.00     0.049 A 
ATOM     60  H   UNL A   1      40.934  29.512  32.689  1.00  0.00     0.167 HD
ATOM     61  C   UNL A   1      43.009  27.672  32.091  1.00  0.00     0.074 A 
ATOM     62  C   UNL A   1      43.892  26.802  31.343  1.00  0.00     0.031 C 
ATOM     63  C   UNL A   1      43.171  27.984  33.400  1.00  0.00     0.034 A 
BRANCH  50  64
ATOM     64  C   UNL A   1      39.085  32.038  35.582  1.00  0.00     0.023 A 
ATOM     65  C   UNL A   1      38.203  31.448  36.508  1.00  0.00     0.012 A 
ATOM     66  C   UNL A   1      39.595  33.327  35.826  1.00  0.00     0.148 A 
ATOM     67  C   UNL A   1      37.832  32.131  37.663  1.00  0.00     0.002 A 
ATOM     68  C   UNL A   1      39.244  33.990  36.995  1.00  0.00     0.091 A 
ATOM     69  F   UNL A   1      40.421  33.868  34.920  1.00  0.00    -0.205 F 
ATOM     70  C   UNL A   1      38.362  33.396  37.912  1.00  0.00     0.022 A 
BRANCH  68  71
ATOM     71  S   UNL A   1      39.908  35.599  37.437  1.00  0.00     0.127 S 
ATOM     72  O   UNL A   1      39.131  35.918  38.634  1.00  0.00    -0.237 OA
ATOM     73  O   UNL A   1      41.315  35.290  37.687  1.00  0.00    -0.237 OA
ATOM     74  O   UNL A   1      39.661  36.467  36.294  1.00  0.00    -0.744 OA
ENDBRANCH  68  71
ENDBRANCH  50  64
BRANCH  51  75
ATOM     75  C   UNL A   1      41.950  26.818  27.578  1.00  0.00     0.023 A 
ATOM     76  C   UNL A   1      42.642  27.465  26.538  1.00  0.00     0.012 A 
ATOM     77  C   UNL A   1      41.722  25.430  27.500  1.00  0.00     0.148 A 
ATOM     78  C   UNL A   1      43.096  26.744  25.434  1.00  0.00     0.002 A 
ATOM     79  C   UNL A   1      42.207  24.712  26.412  1.00  0.00     0.091 A 
ATOM     80  F   UNL A   1      41.056  24.840  28.501  1.00  0.00    -0.205 F 
ATOM     81  C   UNL A   1      42.887  25.368  25.375  1.00  0.00     0.022 A 
BRANCH  79  82
ATOM     82  S   UNL A   1      42.059  22.927  26.282  1.00  0.00     0.127 S 
ATOM     83  O   UNL A   1      42.655  22.672  24.972  1.00  0.00    -0.237 OA
ATOM     84  O   UNL A   1      42.862  22.479  27.420  1.00  0.00    -0.237 OA
ATOM     85  O   UNL A   1      40.637  22.636  26.387  1.00  0.00    -0.744 OA
ENDBRANCH  79  82
ENDBRANCH  51  75
BRANCH  63  86
ATOM     86  C   UNL A   1      44.323  27.382  34.156  1.00  0.00     0.023 A 
ATOM     87  C   UNL A   1      45.525  28.106  34.270  1.00  0.00     0.012 A 
ATOM     88  C   UNL A   1      44.139  26.208  34.914  1.00  0.00     0.148 A 
ATOM     89  C   UNL A   1      46.525  27.675  35.140  1.00  0.00     0.002 A 
ATOM     90  C   UNL A   1      45.126  25.804  35.804  1.00  0.00     0.091 A 
ATOM     91  F   UNL A   1      42.982  25.544  34.786  1.00  0.00    -0.205 F 
ATOM     92  C   UNL A   1      46.321  26.535  35.916  1.00  0.00     0.022 A 
BRANCH  90  93
ATOM     93  S   UNL A   1      44.924  24.400  36.906  1.00  0.00     0.127 S 
ATOM     94  O   UNL A   1      43.800  24.832  37.736  1.00  0.00    -0.237 OA
ATOM     95  O   UNL A   1      44.612  23.319  35.971  1.00  0.00    -0.237 OA
ATOM     96  O   UNL A   1      46.188  24.253  37.614  1.00  0.00    -0.744 OA
ENDBRANCH  90  93
ENDBRANCH  63  86
ENDBRANCH  37  38
ENDBRANCH  30  32
ENDBRANCH  29  30
ENDBRANCH  28  29
ENDBRANCH  27  28
ENDBRANCH  26  27
ENDBRANCH   1  26
TORSDOF 22
ENDMDL
MODEL 2
REMARK VINA RESULT:     -10.7      2.303      3.934
REMARK SMILES CCc1cc(C)c2c(c1)C=C(C(=O)OCCOCCOCCOC(=O)c1ccc(-c3c4nc(c(-c5cccc(S(=O)(=O)[O-])c5F)c5ccc([nH]5)c(-c5cccc(S(=O)(=O)[O-])c5F)c5nc(c(-c6cccc(S(=O)(=O)[O-])c6F)c6ccc3[nH]6)C=C5)C=C4)cc1)[C@@H](C(F)(F)F)O2
REMARK SMILES IDX 19 1 18 2 17 3 16 4 15 5 14 6 12 7 13 8 11 9 3 10 4 11 9 12
REMARK SMILES IDX 5 13 8 14 6 15 7 16 10 17 94 18 89 19 2 20 1 21 90 22 91 23
REMARK SMILES IDX 92 24 93 25 20 26 21 27 22 28 23 29 24 30 25 31 26 32 27 33
REMARK SMILES IDX 88 34 28 35 87 36 29 37 30 38 31 39 81 40 32 41 86 42 80 43
REMARK SMILES IDX 82 44 33 45 85 46 79 47 78 48 34 50 66 51 46 52 65 53 47 54
REMARK SMILES IDX 50 55 64 56 83 57 48 58 49 59 63 61 84 62 51 63 35 64 36 65
REMARK SMILES IDX 44 66 37 67 39 68 45 69 38 70 40 71 41 72 42 73 43 74 67 75
REMARK SMILES IDX 68 76 76 77 69 78 71 79 77 80 70 81 72 82 73 83 74 84 75 85
REMARK SMILES IDX 52 86 53 87 61 88 54 89 56 90 62 91 55 92 57 93 58 94 59 95
REMARK SMILES IDX 60 96
REMARK H PARENT 82 49 50 60
REMARK Flexibility Score: inf
ROOT
ATOM      1  C   UNL A   1      31.655  30.004  25.313  1.00  0.00     0.188 C 
ENDROOT
BRANCH   1   2
ATOM      2  C   UNL A   1      33.028  29.647  25.927  1.00  0.00     0.188 C 
BRANCH   2   3
ATOM      3  O   UNL A   1      32.994  28.444  26.661  1.00  0.00    -0.376 OA
BRANCH   3   4
ATOM      4  C   UNL A   1      34.033  27.501  26.492  1.00  0.00     0.202 C 
BRANCH   4   5
ATOM      5  C   UNL A   1      33.987  26.401  25.413  1.00  0.00     0.261 C 
BRANCH   5   6
ATOM      6  O   UNL A   1      33.464  26.761  24.128  1.00  0.00    -0.460 OA
BRANCH   6   7
ATOM      7  C   UNL A   1      32.600  25.894  23.555  1.00  0.00     0.338 C 
ATOM      8  O   UNL A   1      32.811  24.723  23.295  1.00  0.00    -0.246 OA
BRANCH   7   9
ATOM      9  C   UNL A   1      31.292  26.561  23.383  1.00  0.00     0.087 C 
ATOM     10  C   UNL A   1      28.777  30.432  21.977  1.00  0.00    -0.047 A 
ATOM     11  C   UNL A   1      27.634  29.892  22.583  1.00  0.00     0.011 A 
ATOM     12  C   UNL A   1      29.961  29.683  21.982  1.00  0.00     0.015 A 
ATOM     13  C   UNL A   1      27.662  28.621  23.180  1.00  0.00    -0.008 A 
ATOM     14  C   UNL A   1      30.011  28.423  22.594  1.00  0.00     0.018 A 
ATOM     15  C   UNL A   1      26.433  28.089  23.863  1.00  0.00     0.048 C 
ATOM     16  C   UNL A   1      28.856  27.884  23.168  1.00  0.00     0.130 A 
ATOM     17  C   UNL A   1      31.278  27.717  22.706  1.00  0.00     0.027 C 
ATOM     18  O   UNL A   1      28.820  26.647  23.750  1.00  0.00    -0.475 OA
ATOM     19  C   UNL A   1      30.057  25.915  23.953  1.00  0.00     0.316 C 
BRANCH  10  20
ATOM     20  C   UNL A   1      28.751  31.835  21.417  1.00  0.00     0.032 C 
ATOM     21  C   UNL A   1      28.777  32.927  22.477  1.00  0.00     0.009 C 
ENDBRANCH  10  20
BRANCH  19  22
ATOM     22  C   UNL A   1      30.194  25.616  25.451  1.00  0.00     0.430 C 
ATOM     23  F   UNL A   1      31.002  24.547  25.669  1.00  0.00    -0.167 F 
ATOM     24  F   UNL A   1      30.746  26.652  26.125  1.00  0.00    -0.167 F 
ATOM     25  F   UNL A   1      29.003  25.345  26.031  1.00  0.00    -0.167 F 
ENDBRANCH  19  22
ENDBRANCH   7   9
ENDBRANCH   6   7
ENDBRANCH   5   6
ENDBRANCH   4   5
ENDBRANCH   3   4
ENDBRANCH   2   3
ENDBRANCH   1   2
BRANCH   1  26
ATOM     26  O   UNL A   1      31.015  31.220  25.681  1.00  0.00    -0.376 OA
BRANCH  26  27
ATOM     27  C   UNL A   1      31.424  31.861  26.886  1.00  0.00     0.202 C 
BRANCH  27  28
ATOM     28  C   UNL A   1      31.780  33.360  26.886  1.00  0.00     0.261 C 
BRANCH  28  29
ATOM     29  O   UNL A   1      33.152  33.679  27.172  1.00  0.00    -0.460 OA
BRANCH  29  30
ATOM     30  C   UNL A   1      33.376  34.386  28.308  1.00  0.00     0.338 C 
ATOM     31  O   UNL A   1      32.708  35.307  28.751  1.00  0.00    -0.246 OA
BRANCH  30  32
ATOM     32  C   UNL A   1      34.482  33.756  29.055  1.00  0.00     0.060 A 
ATOM     33  C   UNL A   1      35.792  34.219  28.857  1.00  0.00     0.016 A 
ATOM     34  C   UNL A   1      34.230  32.699  29.929  1.00  0.00     0.016 A 
ATOM     35  C   UNL A   1      36.851  33.643  29.554  1.00  0.00     0.010 A 
ATOM     36  C   UNL A   1      35.299  32.092  30.594  1.00  0.00     0.010 A 
ATOM     37  C   UNL A   1      36.613  32.554  30.399  1.00  0.00    -0.014 A 
BRANCH  37  38
ATOM     38  C   UNL A   1      37.760  31.790  30.938  1.00  0.00     0.031 A 
ATOM     39  C   UNL A   1      38.219  32.085  32.338  1.00  0.00     0.074 A 
ATOM     40  C   UNL A   1      38.380  30.850  30.202  1.00  0.00     0.049 A 
ATOM     41  N   UNL A   1      39.193  31.543  33.017  1.00  0.00    -0.248 NA
ATOM     42  C   UNL A   1      37.475  33.123  33.075  1.00  0.00     0.031 C 
ATOM     43  C   UNL A   1      38.018  30.468  28.839  1.00  0.00     0.029 A 
ATOM     44  N   UNL A   1      39.462  30.058  30.500  1.00  0.00    -0.354 N 
ATOM     45  C   UNL A   1      39.192  32.180  34.250  1.00  0.00     0.074 A 
ATOM     46  C   UNL A   1      38.124  33.153  34.229  1.00  0.00     0.031 C 
ATOM     47  C   UNL A   1      38.879  29.528  28.409  1.00  0.00     0.029 A 
ATOM     48  C   UNL A   1      39.860  29.255  29.460  1.00  0.00     0.049 A 
ATOM     49  H   UNL A   1      39.909  30.065  31.377  1.00  0.00     0.167 HD
ATOM     50  C   UNL A   1      40.000  31.961  35.310  1.00  0.00     0.034 A 
ATOM     51  C   UNL A   1      40.903  28.405  29.362  1.00  0.00     0.034 A 
ATOM     52  C   UNL A   1      41.054  30.991  35.335  1.00  0.00     0.049 A 
ATOM     53  C   UNL A   1      41.817  28.212  30.543  1.00  0.00     0.074 A 
ATOM     54  C   UNL A   1      41.899  30.675  36.384  1.00  0.00     0.029 A 
ATOM     55  N   UNL A   1      41.419  30.191  34.265  1.00  0.00    -0.354 N 
ATOM     56  N   UNL A   1      41.741  28.748  31.737  1.00  0.00    -0.248 NA
ATOM     57  C   UNL A   1      42.945  27.280  30.378  1.00  0.00     0.031 C 
ATOM     58  C   UNL A   1      42.791  29.696  35.941  1.00  0.00     0.029 A 
ATOM     59  C   UNL A   1      42.485  29.388  34.625  1.00  0.00     0.049 A 
ATOM     60  H   UNL A   1      40.985  30.194  33.381  1.00  0.00     0.167 HD
ATOM     61  C   UNL A   1      42.787  28.201  32.471  1.00  0.00     0.074 A 
ATOM     62  C   UNL A   1      43.485  27.287  31.592  1.00  0.00     0.031 C 
ATOM     63  C   UNL A   1      43.138  28.443  33.758  1.00  0.00     0.034 A 
BRANCH  50  64
ATOM     64  C   UNL A   1      39.755  32.756  36.559  1.00  0.00     0.023 A 
ATOM     65  C   UNL A   1      40.385  34.006  36.711  1.00  0.00     0.012 A 
ATOM     66  C   UNL A   1      38.825  32.319  37.522  1.00  0.00     0.148 A 
ATOM     67  C   UNL A   1      40.094  34.813  37.808  1.00  0.00     0.002 A 
ATOM     68  C   UNL A   1      38.519  33.142  38.597  1.00  0.00     0.091 A 
ATOM     69  F   UNL A   1      38.253  31.118  37.357  1.00  0.00    -0.205 F 
ATOM     70  C   UNL A   1      39.153  34.387  38.743  1.00  0.00     0.022 A 
BRANCH  68  71
ATOM     71  S   UNL A   1      37.286  32.713  39.829  1.00  0.00     0.127 S 
ATOM     72  O   UNL A   1      37.399  33.835  40.761  1.00  0.00    -0.237 OA
ATOM     73  O   UNL A   1      36.056  32.698  39.039  1.00  0.00    -0.237 OA
ATOM     74  O   UNL A   1      37.687  31.422  40.371  1.00  0.00    -0.744 OA
ENDBRANCH  68  71
ENDBRANCH  50  64
BRANCH  51  75
ATOM     75  C   UNL A   1      41.104  27.633  28.105  1.00  0.00     0.023 A 
ATOM     76  C   UNL A   1      41.641  28.282  26.978  1.00  0.00     0.012 A 
ATOM     77  C   UNL A   1      40.818  26.256  28.040  1.00  0.00     0.148 A 
ATOM     78  C   UNL A   1      41.885  27.573  25.802  1.00  0.00     0.002 A 
ATOM     79  C   UNL A   1      41.094  25.548  26.876  1.00  0.00     0.091 A 
ATOM     80  F   UNL A   1      40.302  25.665  29.126  1.00  0.00    -0.205 F 
ATOM     81  C   UNL A   1      41.620  26.206  25.753  1.00  0.00     0.022 A 
BRANCH  79  82
ATOM     82  S   UNL A   1      40.864  23.772  26.739  1.00  0.00     0.127 S 
ATOM     83  O   UNL A   1      39.434  23.676  26.453  1.00  0.00    -0.237 OA
ATOM     84  O   UNL A   1      41.740  23.445  25.613  1.00  0.00    -0.237 OA
ATOM     85  O   UNL A   1      41.283  23.217  28.018  1.00  0.00    -0.744 OA
ENDBRANCH  79  82
ENDBRANCH  51  75
BRANCH  63  86
ATOM     86  C   UNL A   1      44.312  27.709  34.343  1.00  0.00     0.023 A 
ATOM     87  C   UNL A   1      45.573  28.335  34.368  1.00  0.00     0.012 A 
ATOM     88  C   UNL A   1      44.117  26.501  35.044  1.00  0.00     0.148 A 
ATOM     89  C   UNL A   1      46.622  27.773  35.094  1.00  0.00     0.002 A 
ATOM     90  C   UNL A   1      45.157  25.966  35.793  1.00  0.00     0.091 A 
ATOM     91  F   UNL A   1      42.904  25.933  35.004  1.00  0.00    -0.205 F 
ATOM     92  C   UNL A   1      46.411  26.600  35.817  1.00  0.00     0.022 A 
BRANCH  90  93
ATOM     93  S   UNL A   1      44.962  24.507  36.823  1.00  0.00     0.127 S 
ATOM     94  O   UNL A   1      44.613  23.488  35.834  1.00  0.00    -0.237 OA
ATOM     95  O   UNL A   1      46.297  24.362  37.404  1.00  0.00    -0.237 OA
ATOM     96  O   UNL A   1      43.909  24.822  37.778  1.00  0.00    -0.744 OA
ENDBRANCH  90  93
ENDBRANCH  63  86
ENDBRANCH  37  38
ENDBRANCH  30  32
ENDBRANCH  29  30
ENDBRANCH  28  29
ENDBRANCH  27  28
ENDBRANCH  26  27
ENDBRANCH   1  26
TORSDOF 22
ENDMDL
MODEL 3
REMARK VINA RESULT:     -10.6      2.667      8.344
REMARK SMILES CCc1cc(C)c2c(c1)C=C(C(=O)OCCOCCOCCOC(=O)c1ccc(-c3c4nc(c(-c5cccc(S(=O)(=O)[O-])c5F)c5ccc([nH]5)c(-c5cccc(S(=O)(=O)[O-])c5F)c5nc(c(-c6cccc(S(=O)(=O)[O-])c6F)c6ccc3[nH]6)C=C5)C=C4)cc1)[C@@H](C(F)(F)F)O2
REMARK SMILES IDX 19 1 18 2 17 3 16 4 15 5 14 6 12 7 13 8 11 9 3 10 4 11 9 12
REMARK SMILES IDX 5 13 8 14 6 15 7 16 10 17 94 18 89 19 2 20 1 21 90 22 91 23
REMARK SMILES IDX 92 24 93 25 20 26 21 27 22 28 23 29 24 30 25 31 26 32 27 33
REMARK SMILES IDX 88 34 28 35 87 36 29 37 30 38 31 39 81 40 32 41 86 42 80 43
REMARK SMILES IDX 82 44 33 45 85 46 79 47 78 48 34 50 66 51 46 52 65 53 47 54
REMARK SMILES IDX 50 55 64 56 83 57 48 58 49 59 63 61 84 62 51 63 35 64 36 65
REMARK SMILES IDX 44 66 37 67 39 68 45 69 38 70 40 71 41 72 42 73 43 74 67 75
REMARK SMILES IDX 68 76 76 77 69 78 71 79 77 80 70 81 72 82 73 83 74 84 75 85
REMARK SMILES IDX 52 86 53 87 61 88 54 89 56 90 62 91 55 92 57 93 58 94 59 95
REMARK SMILES IDX 60 96
REMARK H PARENT 82 49 50 60
REMARK Flexibility Score: inf
ROOT
ATOM      1  C   UNL A   1      31.503  29.982  25.366  1.00  0.00     0.188 C 
ENDROOT
BRANCH   1   2
ATOM      2  C   UNL A   1      32.291  29.246  26.474  1.00  0.00     0.188 C 
BRANCH   2   3
ATOM      3  O   UNL A   1      33.554  28.802  26.032  1.00  0.00    -0.376 OA
BRANCH   3   4
ATOM      4  C   UNL A   1      33.905  27.442  26.195  1.00  0.00     0.202 C 
BRANCH   4   5
ATOM      5  C   UNL A   1      34.207  26.516  25.001  1.00  0.00     0.261 C 
BRANCH   5   6
ATOM      6  O   UNL A   1      33.526  26.786  23.770  1.00  0.00    -0.460 OA
BRANCH   6   7
ATOM      7  C   UNL A   1      32.608  25.878  23.367  1.00  0.00     0.338 C 
ATOM      8  O   UNL A   1      32.790  24.684  23.205  1.00  0.00    -0.246 OA
BRANCH   7   9
ATOM      9  C   UNL A   1      31.292  26.541  23.252  1.00  0.00     0.087 C 
ATOM     10  C   UNL A   1      28.722  30.452  22.074  1.00  0.00    -0.047 A 
ATOM     11  C   UNL A   1      27.596  29.875  22.677  1.00  0.00     0.011 A 
ATOM     12  C   UNL A   1      29.912  29.712  22.021  1.00  0.00     0.015 A 
ATOM     13  C   UNL A   1      27.644  28.579  23.215  1.00  0.00    -0.008 A 
ATOM     14  C   UNL A   1      29.982  28.426  22.574  1.00  0.00     0.018 A 
ATOM     15  C   UNL A   1      26.434  28.007  23.898  1.00  0.00     0.048 C 
ATOM     16  C   UNL A   1      28.844  27.852  23.146  1.00  0.00     0.130 A 
ATOM     17  C   UNL A   1      31.257  27.726  22.629  1.00  0.00     0.027 C 
ATOM     18  O   UNL A   1      28.828  26.590  23.672  1.00  0.00    -0.475 OA
ATOM     19  C   UNL A   1      30.074  25.859  23.816  1.00  0.00     0.316 C 
BRANCH  10  20
ATOM     20  C   UNL A   1      28.675  31.878  21.578  1.00  0.00     0.032 C 
ATOM     21  C   UNL A   1      28.020  32.039  20.214  1.00  0.00     0.009 C 
ENDBRANCH  10  20
BRANCH  19  22
ATOM     22  C   UNL A   1      30.244  25.494  25.297  1.00  0.00     0.430 C 
ATOM     23  F   UNL A   1      31.082  26.357  25.924  1.00  0.00    -0.167 F 
ATOM     24  F   UNL A   1      29.070  25.548  25.969  1.00  0.00    -0.167 F 
ATOM     25  F   UNL A   1      30.748  24.251  25.463  1.00  0.00    -0.167 F 
ENDBRANCH  19  22
ENDBRANCH   7   9
ENDBRANCH   6   7
ENDBRANCH   5   6
ENDBRANCH   4   5
ENDBRANCH   3   4
ENDBRANCH   2   3
ENDBRANCH   1   2
BRANCH   1  26
ATOM     26  O   UNL A   1      31.042  31.308  25.595  1.00  0.00    -0.376 OA
BRANCH  26  27
ATOM     27  C   UNL A   1      31.352  31.926  26.841  1.00  0.00     0.202 C 
BRANCH  27  28
ATOM     28  C   UNL A   1      31.901  33.366  26.879  1.00  0.00     0.261 C 
BRANCH  28  29
ATOM     29  O   UNL A   1      33.207  33.523  27.456  1.00  0.00    -0.460 OA
BRANCH  29  30
ATOM     30  C   UNL A   1      33.296  34.375  28.509  1.00  0.00     0.338 C 
ATOM     31  O   UNL A   1      32.515  35.265  28.809  1.00  0.00    -0.246 OA
BRANCH  30  32
ATOM     32  C   UNL A   1      34.414  33.954  29.374  1.00  0.00     0.060 A 
ATOM     33  C   UNL A   1      35.730  34.242  28.979  1.00  0.00     0.016 A 
ATOM     34  C   UNL A   1      34.168  33.260  30.558  1.00  0.00     0.016 A 
ATOM     35  C   UNL A   1      36.802  33.858  29.782  1.00  0.00     0.010 A 
ATOM     36  C   UNL A   1      35.246  32.835  31.339  1.00  0.00     0.010 A 
ATOM     37  C   UNL A   1      36.566  33.123  30.948  1.00  0.00    -0.014 A 
BRANCH  37  38
ATOM     38  C   UNL A   1      37.707  32.505  31.659  1.00  0.00     0.031 A 
ATOM     39  C   UNL A   1      38.413  31.351  31.006  1.00  0.00     0.074 A 
ATOM     40  C   UNL A   1      38.110  32.961  32.858  1.00  0.00     0.049 A 
ATOM     41  N   UNL A   1      39.432  30.659  31.438  1.00  0.00    -0.248 NA
ATOM     42  C   UNL A   1      37.909  30.924  29.689  1.00  0.00     0.031 C 
ATOM     43  C   UNL A   1      37.513  34.080  33.583  1.00  0.00     0.029 A 
ATOM     44  N   UNL A   1      39.115  32.519  33.685  1.00  0.00    -0.354 N 
ATOM     45  C   UNL A   1      39.683  29.709  30.458  1.00  0.00     0.074 A 
ATOM     46  C   UNL A   1      38.709  29.906  29.409  1.00  0.00     0.031 C 
ATOM     47  C   UNL A   1      38.148  34.224  34.760  1.00  0.00     0.029 A 
ATOM     48  C   UNL A   1      39.186  33.199  34.876  1.00  0.00     0.049 A 
ATOM     49  H   UNL A   1      39.726  31.786  33.445  1.00  0.00     0.167 HD
ATOM     50  C   UNL A   1      40.651  28.767  30.429  1.00  0.00     0.034 A 
ATOM     51  C   UNL A   1      39.989  33.009  35.943  1.00  0.00     0.034 A 
ATOM     52  C   UNL A   1      41.623  28.575  31.464  1.00  0.00     0.049 A 
ATOM     53  C   UNL A   1      41.030  31.921  35.905  1.00  0.00     0.074 A 
ATOM     54  C   UNL A   1      42.666  27.667  31.499  1.00  0.00     0.029 A 
ATOM     55  N   UNL A   1      41.667  29.289  32.650  1.00  0.00    -0.354 N 
ATOM     56  N   UNL A   1      41.321  31.096  34.928  1.00  0.00    -0.248 NA
ATOM     57  C   UNL A   1      41.873  31.751  37.100  1.00  0.00     0.031 C 
ATOM     58  C   UNL A   1      43.331  27.818  32.717  1.00  0.00     0.029 A 
ATOM     59  C   UNL A   1      42.714  28.835  33.429  1.00  0.00     0.049 A 
ATOM     60  H   UNL A   1      41.047  30.011  32.900  1.00  0.00     0.167 HD
ATOM     61  C   UNL A   1      42.392  30.332  35.377  1.00  0.00     0.074 A 
ATOM     62  C   UNL A   1      42.705  30.791  36.714  1.00  0.00     0.031 C 
ATOM     63  C   UNL A   1      43.050  29.335  34.736  1.00  0.00     0.034 A 
BRANCH  50  64
ATOM     64  C   UNL A   1      40.742  27.887  29.217  1.00  0.00     0.023 A 
ATOM     65  C   UNL A   1      39.852  26.803  29.088  1.00  0.00     0.012 A 
ATOM     66  C   UNL A   1      41.626  28.196  28.166  1.00  0.00     0.148 A 
ATOM     67  C   UNL A   1      39.841  26.035  27.926  1.00  0.00     0.002 A 
ATOM     68  C   UNL A   1      41.589  27.443  26.999  1.00  0.00     0.091 A 
ATOM     69  F   UNL A   1      42.470  29.224  28.324  1.00  0.00    -0.205 F 
ATOM     70  C   UNL A   1      40.700  26.362  26.879  1.00  0.00     0.022 A 
BRANCH  68  71
ATOM     71  S   UNL A   1      42.614  27.810  25.572  1.00  0.00     0.127 S 
ATOM     72  O   UNL A   1      42.462  26.590  24.779  1.00  0.00    -0.237 OA
ATOM     73  O   UNL A   1      41.949  28.987  25.013  1.00  0.00    -0.237 OA
ATOM     74  O   UNL A   1      43.956  28.047  26.086  1.00  0.00    -0.744 OA
ENDBRANCH  68  71
ENDBRANCH  50  64
BRANCH  51  75
ATOM     75  C   UNL A   1      39.867  33.909  37.122  1.00  0.00     0.023 A 
ATOM     76  C   UNL A   1      40.281  35.249  37.010  1.00  0.00     0.012 A 
ATOM     77  C   UNL A   1      39.296  33.459  38.328  1.00  0.00     0.148 A 
ATOM     78  C   UNL A   1      40.135  36.127  38.084  1.00  0.00     0.002 A 
ATOM     79  C   UNL A   1      39.122  34.348  39.383  1.00  0.00     0.091 A 
ATOM     80  F   UNL A   1      38.915  32.178  38.409  1.00  0.00    -0.205 F 
ATOM     81  C   UNL A   1      39.548  35.681  39.265  1.00  0.00     0.022 A 
BRANCH  79  82
ATOM     82  S   UNL A   1      38.305  33.892  40.916  1.00  0.00     0.127 S 
ATOM     83  O   UNL A   1      39.033  32.682  41.295  1.00  0.00    -0.237 OA
ATOM     84  O   UNL A   1      38.576  35.060  41.756  1.00  0.00    -0.237 OA
ATOM     85  O   UNL A   1      36.903  33.697  40.578  1.00  0.00    -0.744 OA
ENDBRANCH  79  82
ENDBRANCH  51  75
BRANCH  63  86
ATOM     86  C   UNL A   1      44.201  28.659  35.428  1.00  0.00     0.023 A 
ATOM     87  C   UNL A   1      45.496  29.197  35.298  1.00  0.00     0.012 A 
ATOM     88  C   UNL A   1      43.962  27.630  36.361  1.00  0.00     0.148 A 
ATOM     89  C   UNL A   1      46.536  28.725  36.096  1.00  0.00     0.002 A 
ATOM     90  C   UNL A   1      44.997  27.189  37.177  1.00  0.00     0.091 A 
ATOM     91  F   UNL A   1      42.718  27.142  36.465  1.00  0.00    -0.205 F 
ATOM     92  C   UNL A   1      46.285  27.735  37.044  1.00  0.00     0.022 A 
BRANCH  90  93
ATOM     93  S   UNL A   1      44.756  25.978  38.482  1.00  0.00     0.127 S 
ATOM     94  O   UNL A   1      46.114  25.829  39.005  1.00  0.00    -0.237 OA
ATOM     95  O   UNL A   1      43.831  26.673  39.377  1.00  0.00    -0.237 OA
ATOM     96  O   UNL A   1      44.213  24.790  37.840  1.00  0.00    -0.744 OA
ENDBRANCH  90  93
ENDBRANCH  63  86
ENDBRANCH  37  38
ENDBRANCH  30  32
ENDBRANCH  29  30
ENDBRANCH  28  29
ENDBRANCH  27  28
ENDBRANCH  26  27
ENDBRANCH   1  26
TORSDOF 22
ENDMDL
