MODEL 1
REMARK VINA RESULT:     -10.5      0.000      0.000
REMARK SMILES O=C(OCCOCCOCCOC(=O)c1ccc(-c2c3nc(c(-c4cccc(S(=O)(=O)[O-])c4F)c4ccc([nH]4)c(-c4cccc(S(=O)(=O)[O-])c4F)c4nc(c(-c5cccc(S(=O)(=O)[O-])c5F)c5ccc2[nH]5)C=C4)C=C3)cc1)C1=Cc2c(ccc(Cl)c2Sc2ccccc2)O[C@H]1C(F)(F)F
REMARK SMILES IDX 8 1 7 2 6 3 5 4 4 5 3 6 2 7 1 8 78 9 79 10 95 11 80 12 94 13
REMARK SMILES IDX 81 14 86 15 82 16 84 17 83 18 85 19 96 20 97 21 98 22 99 23
REMARK SMILES IDX 87 24 88 25 89 26 93 27 90 28 92 29 91 30 9 31 10 32 11 33
REMARK SMILES IDX 12 34 13 35 14 36 15 37 16 38 77 39 17 40 76 41 18 42 19 43
REMARK SMILES IDX 20 44 70 45 21 46 75 47 69 48 71 49 22 50 74 51 68 52 67 53
REMARK SMILES IDX 23 55 55 56 35 57 54 58 36 59 39 60 53 61 72 62 37 63 38 64
REMARK SMILES IDX 52 66 73 67 40 68 24 69 25 70 33 71 26 72 28 73 34 74 27 75
REMARK SMILES IDX 29 76 30 77 31 78 32 79 56 80 57 81 65 82 58 83 60 84 66 85
REMARK SMILES IDX 59 86 61 87 62 88 63 89 64 90 41 91 42 92 50 93 43 94 45 95
REMARK SMILES IDX 51 96 44 97 46 98 47 99 48 100 49 101
REMARK H PARENT 71 54 39 65
REMARK Flexibility Score: inf
ROOT
ATOM      1  C   UNL A   1      34.384  33.170  28.325  1.00  0.00     0.188 C 
ENDROOT
BRANCH   1   2
ATOM      2  C   UNL A   1      33.817  31.913  27.633  1.00  0.00     0.188 C 
BRANCH   2   3
ATOM      3  O   UNL A   1      34.577  30.722  27.781  1.00  0.00    -0.376 OA
BRANCH   3   4
ATOM      4  C   UNL A   1      33.906  29.540  27.377  1.00  0.00     0.202 C 
BRANCH   4   5
ATOM      5  C   UNL A   1      34.386  28.906  26.047  1.00  0.00     0.261 C 
BRANCH   5   6
ATOM      6  O   UNL A   1      33.268  28.362  25.313  1.00  0.00    -0.460 OA
BRANCH   6   7
ATOM      7  C   UNL A   1      33.342  28.539  23.963  1.00  0.00     0.338 C 
ATOM      8  O   UNL A   1      33.939  29.428  23.377  1.00  0.00    -0.246 OA
BRANCH   7   9
ATOM      9  C   UNL A   1      32.892  27.291  23.325  1.00  0.00     0.087 C 
ATOM     10  C   UNL A   1      33.484  26.254  23.928  1.00  0.00     0.028 C 
ATOM     11  C   UNL A   1      31.658  27.218  22.489  1.00  0.00     0.316 C 
ATOM     12  C   UNL A   1      32.768  25.012  24.071  1.00  0.00     0.033 A 
ATOM     13  O   UNL A   1      31.013  25.904  22.551  1.00  0.00    -0.475 OA
ATOM     14  C   UNL A   1      31.519  24.934  23.394  1.00  0.00     0.129 A 
ATOM     15  C   UNL A   1      33.190  24.038  25.028  1.00  0.00     0.042 A 
ATOM     16  C   UNL A   1      30.677  23.850  23.611  1.00  0.00     0.049 A 
ATOM     17  C   UNL A   1      32.271  22.974  25.241  1.00  0.00     0.055 A 
ATOM     18  C   UNL A   1      31.046  22.885  24.543  1.00  0.00     0.025 A 
ATOM     19  Cl  UNL A   1      32.534  21.721  26.417  1.00  0.00    -0.083 Cl
BRANCH  11  20
ATOM     20  C   UNL A   1      30.631  28.341  22.766  1.00  0.00     0.430 C 
ATOM     21  F   UNL A   1      30.540  28.632  24.081  1.00  0.00    -0.167 F 
ATOM     22  F   UNL A   1      30.986  29.491  22.142  1.00  0.00    -0.167 F 
ATOM     23  F   UNL A   1      29.400  28.001  22.323  1.00  0.00    -0.167 F 
ENDBRANCH  11  20
BRANCH  15  24
ATOM     24  S   UNL A   1      34.801  23.949  25.945  1.00  0.00    -0.088 SA
BRANCH  24  25
ATOM     25  C   UNL A   1      35.986  22.653  25.541  1.00  0.00     0.012 A 
ATOM     26  C   UNL A   1      35.536  21.369  25.212  1.00  0.00     0.015 A 
ATOM     27  C   UNL A   1      37.369  22.762  25.750  1.00  0.00     0.015 A 
ATOM     28  C   UNL A   1      36.432  20.318  24.923  1.00  0.00     0.001 A 
ATOM     29  C   UNL A   1      38.282  21.742  25.405  1.00  0.00     0.001 A 
ATOM     30  C   UNL A   1      37.808  20.522  24.955  1.00  0.00     0.000 A 
ENDBRANCH  24  25
ENDBRANCH  15  24
ENDBRANCH   7   9
ENDBRANCH   6   7
ENDBRANCH   5   6
ENDBRANCH   4   5
ENDBRANCH   3   4
ENDBRANCH   2   3
ENDBRANCH   1   2
BRANCH   1  31
ATOM     31  O   UNL A   1      34.208  34.457  27.747  1.00  0.00    -0.376 OA
BRANCH  31  32
ATOM     32  C   UNL A   1      34.303  35.580  28.604  1.00  0.00     0.202 C 
BRANCH  32  33
ATOM     33  C   UNL A   1      32.912  35.909  29.171  1.00  0.00     0.261 C 
BRANCH  33  34
ATOM     34  O   UNL A   1      32.569  35.094  30.318  1.00  0.00    -0.460 OA
BRANCH  34  35
ATOM     35  C   UNL A   1      32.783  35.627  31.555  1.00  0.00     0.338 C 
ATOM     36  O   UNL A   1      32.076  36.446  32.118  1.00  0.00    -0.246 OA
BRANCH  35  37
ATOM     37  C   UNL A   1      33.914  34.915  32.244  1.00  0.00     0.060 A 
ATOM     38  C   UNL A   1      35.179  35.530  32.267  1.00  0.00     0.016 A 
ATOM     39  C   UNL A   1      33.737  33.715  32.946  1.00  0.00     0.016 A 
ATOM     40  C   UNL A   1      36.266  34.915  32.911  1.00  0.00     0.010 A 
ATOM     41  C   UNL A   1      34.827  33.095  33.582  1.00  0.00     0.010 A 
ATOM     42  C   UNL A   1      36.111  33.661  33.524  1.00  0.00    -0.014 A 
BRANCH  42  43
ATOM     43  C   UNL A   1      37.307  32.803  33.780  1.00  0.00     0.031 A 
ATOM     44  C   UNL A   1      38.169  33.172  34.968  1.00  0.00     0.074 A 
ATOM     45  C   UNL A   1      37.679  31.765  33.004  1.00  0.00     0.049 A 
ATOM     46  N   UNL A   1      39.250  32.596  35.429  1.00  0.00    -0.248 NA
ATOM     47  C   UNL A   1      37.747  34.357  35.737  1.00  0.00     0.031 C 
ATOM     48  C   UNL A   1      36.984  31.293  31.810  1.00  0.00     0.029 A 
ATOM     49  N   UNL A   1      38.775  30.933  33.104  1.00  0.00    -0.354 N 
ATOM     50  C   UNL A   1      39.631  33.343  36.538  1.00  0.00     0.074 A 
ATOM     51  C   UNL A   1      38.681  34.424  36.671  1.00  0.00     0.031 C 
ATOM     52  C   UNL A   1      37.687  30.278  31.270  1.00  0.00     0.029 A 
ATOM     53  C   UNL A   1      38.887  30.030  32.071  1.00  0.00     0.049 A 
ATOM     54  H   UNL A   1      39.418  30.981  33.848  1.00  0.00     0.167 HD
ATOM     55  C   UNL A   1      40.666  33.151  37.389  1.00  0.00     0.034 A 
ATOM     56  C   UNL A   1      39.850  29.121  31.798  1.00  0.00     0.034 A 
ATOM     57  C   UNL A   1      41.652  32.118  37.259  1.00  0.00     0.049 A 
ATOM     58  C   UNL A   1      41.025  28.954  32.741  1.00  0.00     0.074 A 
ATOM     59  C   UNL A   1      42.735  31.857  38.081  1.00  0.00     0.029 A 
ATOM     60  N   UNL A   1      41.697  31.194  36.231  1.00  0.00    -0.354 N 
ATOM     61  N   UNL A   1      41.278  29.564  33.873  1.00  0.00    -0.248 NA
ATOM     62  C   UNL A   1      42.032  27.940  32.381  1.00  0.00     0.031 C 
ATOM     63  C   UNL A   1      43.450  30.786  37.535  1.00  0.00     0.029 A 
ATOM     64  C   UNL A   1      42.793  30.363  36.391  1.00  0.00     0.049 A 
ATOM     65  H   UNL A   1      41.047  31.135  35.494  1.00  0.00     0.167 HD
ATOM     66  C   UNL A   1      42.445  28.984  34.373  1.00  0.00     0.074 A 
ATOM     67  C   UNL A   1      42.831  27.952  33.438  1.00  0.00     0.031 C 
ATOM     68  C   UNL A   1      43.145  29.293  35.494  1.00  0.00     0.034 A 
BRANCH  55  69
ATOM     69  C   UNL A   1      40.762  34.082  38.567  1.00  0.00     0.023 A 
ATOM     70  C   UNL A   1      41.647  35.178  38.504  1.00  0.00     0.012 A 
ATOM     71  C   UNL A   1      39.961  33.899  39.709  1.00  0.00     0.148 A 
ATOM     72  C   UNL A   1      41.754  36.065  39.572  1.00  0.00     0.002 A 
ATOM     73  C   UNL A   1      40.043  34.812  40.754  1.00  0.00     0.091 A 
ATOM     74  F   UNL A   1      39.146  32.837  39.755  1.00  0.00    -0.205 F 
ATOM     75  C   UNL A   1      40.946  35.887  40.691  1.00  0.00     0.022 A 
BRANCH  73  76
ATOM     76  S   UNL A   1      39.003  34.712  42.214  1.00  0.00     0.127 S 
ATOM     77  O   UNL A   1      39.826  35.399  43.209  1.00  0.00    -0.237 OA
ATOM     78  O   UNL A   1      37.813  35.449  41.791  1.00  0.00    -0.237 OA
ATOM     79  O   UNL A   1      38.788  33.292  42.460  1.00  0.00    -0.744 OA
ENDBRANCH  73  76
ENDBRANCH  55  69
BRANCH  56  80
ATOM     80  C   UNL A   1      39.760  28.251  30.584  1.00  0.00     0.023 A 
ATOM     81  C   UNL A   1      38.966  27.087  30.620  1.00  0.00     0.012 A 
ATOM     82  C   UNL A   1      40.505  28.532  29.422  1.00  0.00     0.148 A 
ATOM     83  C   UNL A   1      38.953  26.196  29.544  1.00  0.00     0.002 A 
ATOM     84  C   UNL A   1      40.444  27.669  28.332  1.00  0.00     0.091 A 
ATOM     85  F   UNL A   1      41.281  29.626  29.413  1.00  0.00    -0.205 F 
ATOM     86  C   UNL A   1      39.686  26.490  28.398  1.00  0.00     0.022 A 
BRANCH  84  87
ATOM     87  S   UNL A   1      41.272  28.020  26.777  1.00  0.00     0.127 S 
ATOM     88  O   UNL A   1      41.025  26.794  26.021  1.00  0.00    -0.237 OA
ATOM     89  O   UNL A   1      40.539  29.193  26.299  1.00  0.00    -0.237 OA
ATOM     90  O   UNL A   1      42.662  28.282  27.123  1.00  0.00    -0.744 OA
ENDBRANCH  84  87
ENDBRANCH  56  80
BRANCH  68  91
ATOM     91  C   UNL A   1      44.384  28.489  35.808  1.00  0.00     0.023 A 
ATOM     92  C   UNL A   1      45.652  28.975  35.430  1.00  0.00     0.012 A 
ATOM     93  C   UNL A   1      44.301  27.288  36.541  1.00  0.00     0.148 A 
ATOM     94  C   UNL A   1      46.811  28.260  35.738  1.00  0.00     0.002 A 
ATOM     95  C   UNL A   1      45.463  26.605  36.888  1.00  0.00     0.091 A 
ATOM     96  F   UNL A   1      43.088  26.829  36.883  1.00  0.00    -0.205 F 
ATOM     97  C   UNL A   1      46.716  27.081  36.475  1.00  0.00     0.022 A 
BRANCH  95  98
ATOM     98  S   UNL A   1      45.442  25.133  37.919  1.00  0.00     0.127 S 
ATOM     99  O   UNL A   1      46.842  25.033  38.326  1.00  0.00    -0.237 OA
ATOM    100  O   UNL A   1      44.521  25.513  38.992  1.00  0.00    -0.237 OA
ATOM    101  O   UNL A   1      44.958  24.056  37.065  1.00  0.00    -0.744 OA
ENDBRANCH  95  98
ENDBRANCH  68  91
ENDBRANCH  42  43
ENDBRANCH  35  37
ENDBRANCH  34  35
ENDBRANCH  33  34
ENDBRANCH  32  33
ENDBRANCH  31  32
ENDBRANCH   1  31
TORSDOF 23
ENDMDL
MODEL 2
REMARK VINA RESULT:      -9.9      1.756      2.111
REMARK SMILES O=C(OCCOCCOCCOC(=O)c1ccc(-c2c3nc(c(-c4cccc(S(=O)(=O)[O-])c4F)c4ccc([nH]4)c(-c4cccc(S(=O)(=O)[O-])c4F)c4nc(c(-c5cccc(S(=O)(=O)[O-])c5F)c5ccc2[nH]5)C=C4)C=C3)cc1)C1=Cc2c(ccc(Cl)c2Sc2ccccc2)O[C@H]1C(F)(F)F
REMARK SMILES IDX 8 1 7 2 6 3 5 4 4 5 3 6 2 7 1 8 78 9 79 10 95 11 80 12 94 13
REMARK SMILES IDX 81 14 86 15 82 16 84 17 83 18 85 19 96 20 97 21 98 22 99 23
REMARK SMILES IDX 87 24 88 25 89 26 93 27 90 28 92 29 91 30 9 31 10 32 11 33
REMARK SMILES IDX 12 34 13 35 14 36 15 37 16 38 77 39 17 40 76 41 18 42 19 43
REMARK SMILES IDX 20 44 70 45 21 46 75 47 69 48 71 49 22 50 74 51 68 52 67 53
REMARK SMILES IDX 23 55 55 56 35 57 54 58 36 59 39 60 53 61 72 62 37 63 38 64
REMARK SMILES IDX 52 66 73 67 40 68 24 69 25 70 33 71 26 72 28 73 34 74 27 75
REMARK SMILES IDX 29 76 30 77 31 78 32 79 56 80 57 81 65 82 58 83 60 84 66 85
REMARK SMILES IDX 59 86 61 87 62 88 63 89 64 90 41 91 42 92 50 93 43 94 45 95
REMARK SMILES IDX 51 96 44 97 46 98 47 99 48 100 49 101
REMARK H PARENT 71 54 39 65
REMARK Flexibility Score: inf
ROOT
ATOM      1  C   UNL A   1      34.054  33.136  28.359  1.00  0.00     0.188 C 
ENDROOT
BRANCH   1   2
ATOM      2  C   UNL A   1      33.593  31.912  27.541  1.00  0.00     0.188 C 
BRANCH   2   3
ATOM      3  O   UNL A   1      34.278  30.694  27.800  1.00  0.00    -0.376 OA
BRANCH   3   4
ATOM      4  C   UNL A   1      33.596  29.530  27.363  1.00  0.00     0.202 C 
BRANCH   4   5
ATOM      5  C   UNL A   1      34.339  28.656  26.321  1.00  0.00     0.261 C 
BRANCH   5   6
ATOM      6  O   UNL A   1      33.396  27.997  25.448  1.00  0.00    -0.460 OA
BRANCH   6   7
ATOM      7  C   UNL A   1      33.605  28.226  24.121  1.00  0.00     0.338 C 
ATOM      8  O   UNL A   1      34.289  29.111  23.632  1.00  0.00    -0.246 OA
BRANCH   7   9
ATOM      9  C   UNL A   1      33.169  27.025  23.389  1.00  0.00     0.087 C 
ATOM     10  C   UNL A   1      33.695  25.942  23.972  1.00  0.00     0.028 C 
ATOM     11  C   UNL A   1      31.991  27.029  22.472  1.00  0.00     0.316 C 
ATOM     12  C   UNL A   1      32.942  24.714  24.002  1.00  0.00     0.033 A 
ATOM     13  O   UNL A   1      31.312  25.731  22.423  1.00  0.00    -0.475 OA
ATOM     14  C   UNL A   1      31.739  24.705  23.242  1.00  0.00     0.129 A 
ATOM     15  C   UNL A   1      33.278  23.681  24.931  1.00  0.00     0.042 A 
ATOM     16  C   UNL A   1      30.859  23.635  23.347  1.00  0.00     0.049 A 
ATOM     17  C   UNL A   1      32.322  22.633  25.026  1.00  0.00     0.055 A 
ATOM     18  C   UNL A   1      31.144  22.612  24.248  1.00  0.00     0.025 A 
ATOM     19  Cl  UNL A   1      32.478  21.313  26.148  1.00  0.00    -0.083 Cl
BRANCH  11  20
ATOM     20  C   UNL A   1      30.974  28.163  22.743  1.00  0.00     0.430 C 
ATOM     21  F   UNL A   1      29.860  28.037  21.990  1.00  0.00    -0.167 F 
ATOM     22  F   UNL A   1      30.566  28.156  24.035  1.00  0.00    -0.167 F 
ATOM     23  F   UNL A   1      31.515  29.377  22.494  1.00  0.00    -0.167 F 
ENDBRANCH  11  20
BRANCH  15  24
ATOM     24  S   UNL A   1      34.823  23.501  25.943  1.00  0.00    -0.088 SA
BRANCH  24  25
ATOM     25  C   UNL A   1      36.032  22.238  25.508  1.00  0.00     0.012 A 
ATOM     26  C   UNL A   1      35.609  20.941  25.196  1.00  0.00     0.015 A 
ATOM     27  C   UNL A   1      37.417  22.388  25.674  1.00  0.00     0.015 A 
ATOM     28  C   UNL A   1      36.526  19.915  24.884  1.00  0.00     0.001 A 
ATOM     29  C   UNL A   1      38.348  21.393  25.304  1.00  0.00     0.001 A 
ATOM     30  C   UNL A   1      37.896  20.158  24.873  1.00  0.00     0.000 A 
ENDBRANCH  24  25
ENDBRANCH  15  24
ENDBRANCH   7   9
ENDBRANCH   6   7
ENDBRANCH   5   6
ENDBRANCH   4   5
ENDBRANCH   3   4
ENDBRANCH   2   3
ENDBRANCH   1   2
BRANCH   1  31
ATOM     31  O   UNL A   1      34.193  34.409  27.741  1.00  0.00    -0.376 OA
BRANCH  31  32
ATOM     32  C   UNL A   1      34.329  35.537  28.587  1.00  0.00     0.202 C 
BRANCH  32  33
ATOM     33  C   UNL A   1      32.957  35.900  29.178  1.00  0.00     0.261 C 
BRANCH  33  34
ATOM     34  O   UNL A   1      32.606  35.079  30.319  1.00  0.00    -0.460 OA
BRANCH  34  35
ATOM     35  C   UNL A   1      32.836  35.595  31.560  1.00  0.00     0.338 C 
ATOM     36  O   UNL A   1      32.129  36.397  32.148  1.00  0.00    -0.246 OA
BRANCH  35  37
ATOM     37  C   UNL A   1      33.987  34.887  32.218  1.00  0.00     0.060 A 
ATOM     38  C   UNL A   1      35.262  35.478  32.157  1.00  0.00     0.016 A 
ATOM     39  C   UNL A   1      33.824  33.715  32.969  1.00  0.00     0.016 A 
ATOM     40  C   UNL A   1      36.368  34.865  32.769  1.00  0.00     0.010 A 
ATOM     41  C   UNL A   1      34.933  33.096  33.573  1.00  0.00     0.010 A 
ATOM     42  C   UNL A   1      36.222  33.636  33.432  1.00  0.00    -0.014 A 
BRANCH  42  43
ATOM     43  C   UNL A   1      37.415  32.765  33.660  1.00  0.00     0.031 A 
ATOM     44  C   UNL A   1      38.294  33.107  34.844  1.00  0.00     0.074 A 
ATOM     45  C   UNL A   1      37.769  31.738  32.863  1.00  0.00     0.049 A 
ATOM     46  N   UNL A   1      39.375  32.515  35.283  1.00  0.00    -0.248 NA
ATOM     47  C   UNL A   1      37.889  34.282  35.637  1.00  0.00     0.031 C 
ATOM     48  C   UNL A   1      37.057  31.290  31.669  1.00  0.00     0.029 A 
ATOM     49  N   UNL A   1      38.860  30.896  32.935  1.00  0.00    -0.354 N 
ATOM     50  C   UNL A   1      39.774  33.241  36.399  1.00  0.00     0.074 A 
ATOM     51  C   UNL A   1      38.834  34.326  36.562  1.00  0.00     0.031 C 
ATOM     52  C   UNL A   1      37.745  30.280  31.103  1.00  0.00     0.029 A 
ATOM     53  C   UNL A   1      38.953  30.009  31.887  1.00  0.00     0.049 A 
ATOM     54  H   UNL A   1      39.512  30.926  33.672  1.00  0.00     0.167 HD
ATOM     55  C   UNL A   1      40.818  33.027  37.234  1.00  0.00     0.034 A 
ATOM     56  C   UNL A   1      39.906  29.098  31.587  1.00  0.00     0.034 A 
ATOM     57  C   UNL A   1      41.795  31.989  37.075  1.00  0.00     0.049 A 
ATOM     58  C   UNL A   1      41.091  28.906  32.513  1.00  0.00     0.074 A 
ATOM     59  C   UNL A   1      42.884  31.706  37.880  1.00  0.00     0.029 A 
ATOM     60  N   UNL A   1      41.820  31.082  36.031  1.00  0.00    -0.354 N 
ATOM     61  N   UNL A   1      41.361  29.495  33.652  1.00  0.00    -0.248 NA
ATOM     62  C   UNL A   1      42.085  27.890  32.124  1.00  0.00     0.031 C 
ATOM     63  C   UNL A   1      43.585  30.638  37.308  1.00  0.00     0.029 A 
ATOM     64  C   UNL A   1      42.912  30.240  36.165  1.00  0.00     0.049 A 
ATOM     65  H   UNL A   1      41.161  31.040  35.302  1.00  0.00     0.167 HD
ATOM     66  C   UNL A   1      42.529  28.898  34.128  1.00  0.00     0.074 A 
ATOM     67  C   UNL A   1      42.897  27.879  33.172  1.00  0.00     0.031 C 
ATOM     68  C   UNL A   1      43.244  29.183  35.246  1.00  0.00     0.034 A 
BRANCH  55  69
ATOM     69  C   UNL A   1      40.935  33.937  38.426  1.00  0.00     0.023 A 
ATOM     70  C   UNL A   1      40.317  33.564  39.637  1.00  0.00     0.012 A 
ATOM     71  C   UNL A   1      41.678  35.130  38.364  1.00  0.00     0.148 A 
ATOM     72  C   UNL A   1      40.414  34.377  40.764  1.00  0.00     0.002 A 
ATOM     73  C   UNL A   1      41.804  35.917  39.502  1.00  0.00     0.091 A 
ATOM     74  F   UNL A   1      42.235  35.476  37.195  1.00  0.00    -0.205 F 
ATOM     75  C   UNL A   1      41.165  35.547  40.698  1.00  0.00     0.022 A 
BRANCH  73  76
ATOM     76  S   UNL A   1      42.800  37.410  39.545  1.00  0.00     0.127 S 
ATOM     77  O   UNL A   1      41.878  38.361  40.166  1.00  0.00    -0.237 OA
ATOM     78  O   UNL A   1      43.922  37.004  40.392  1.00  0.00    -0.237 OA
ATOM     79  O   UNL A   1      43.152  37.700  38.162  1.00  0.00    -0.744 OA
ENDBRANCH  73  76
ENDBRANCH  55  69
BRANCH  56  80
ATOM     80  C   UNL A   1      39.795  28.249  30.359  1.00  0.00     0.023 A 
ATOM     81  C   UNL A   1      38.978  27.100  30.380  1.00  0.00     0.012 A 
ATOM     82  C   UNL A   1      40.541  28.534  29.200  1.00  0.00     0.148 A 
ATOM     83  C   UNL A   1      38.945  26.226  29.291  1.00  0.00     0.002 A 
ATOM     84  C   UNL A   1      40.460  27.689  28.096  1.00  0.00     0.091 A 
ATOM     85  F   UNL A   1      41.339  29.613  29.206  1.00  0.00    -0.205 F 
ATOM     86  C   UNL A   1      39.679  26.524  28.147  1.00  0.00     0.022 A 
BRANCH  84  87
ATOM     87  S   UNL A   1      41.289  28.048  26.544  1.00  0.00     0.127 S 
ATOM     88  O   UNL A   1      42.681  28.180  26.969  1.00  0.00    -0.237 OA
ATOM     89  O   UNL A   1      40.999  26.848  25.759  1.00  0.00    -0.237 OA
ATOM     90  O   UNL A   1      40.664  29.262  26.037  1.00  0.00    -0.744 OA
ENDBRANCH  84  87
ENDBRANCH  56  80
BRANCH  68  91
ATOM     91  C   UNL A   1      44.481  28.364  35.532  1.00  0.00     0.023 A 
ATOM     92  C   UNL A   1      44.388  27.204  36.327  1.00  0.00     0.012 A 
ATOM     93  C   UNL A   1      45.723  28.702  34.956  1.00  0.00     0.148 A 
ATOM     94  C   UNL A   1      45.514  26.418  36.577  1.00  0.00     0.002 A 
ATOM     95  C   UNL A   1      46.831  27.888  35.169  1.00  0.00     0.091 A 
ATOM     96  F   UNL A   1      45.802  29.816  34.213  1.00  0.00    -0.205 F 
ATOM     97  C   UNL A   1      46.732  26.755  35.990  1.00  0.00     0.022 A 
BRANCH  95  98
ATOM     98  S   UNL A   1      48.414  28.191  34.374  1.00  0.00     0.127 S 
ATOM     99  O   UNL A   1      48.065  28.079  32.959  1.00  0.00    -0.237 OA
ATOM    100  O   UNL A   1      48.733  29.550  34.816  1.00  0.00    -0.237 OA
ATOM    101  O   UNL A   1      49.317  27.166  34.881  1.00  0.00    -0.744 OA
ENDBRANCH  95  98
ENDBRANCH  68  91
ENDBRANCH  42  43
ENDBRANCH  35  37
ENDBRANCH  34  35
ENDBRANCH  33  34
ENDBRANCH  32  33
ENDBRANCH  31  32
ENDBRANCH   1  31
TORSDOF 23
ENDMDL
MODEL 3
REMARK VINA RESULT:      -9.5      1.845      2.244
REMARK SMILES O=C(OCCOCCOCCOC(=O)c1ccc(-c2c3nc(c(-c4cccc(S(=O)(=O)[O-])c4F)c4ccc([nH]4)c(-c4cccc(S(=O)(=O)[O-])c4F)c4nc(c(-c5cccc(S(=O)(=O)[O-])c5F)c5ccc2[nH]5)C=C4)C=C3)cc1)C1=Cc2c(ccc(Cl)c2Sc2ccccc2)O[C@H]1C(F)(F)F
REMARK SMILES IDX 8 1 7 2 6 3 5 4 4 5 3 6 2 7 1 8 78 9 79 10 95 11 80 12 94 13
REMARK SMILES IDX 81 14 86 15 82 16 84 17 83 18 85 19 96 20 97 21 98 22 99 23
REMARK SMILES IDX 87 24 88 25 89 26 93 27 90 28 92 29 91 30 9 31 10 32 11 33
REMARK SMILES IDX 12 34 13 35 14 36 15 37 16 38 77 39 17 40 76 41 18 42 19 43
REMARK SMILES IDX 20 44 70 45 21 46 75 47 69 48 71 49 22 50 74 51 68 52 67 53
REMARK SMILES IDX 23 55 55 56 35 57 54 58 36 59 39 60 53 61 72 62 37 63 38 64
REMARK SMILES IDX 52 66 73 67 40 68 24 69 25 70 33 71 26 72 28 73 34 74 27 75
REMARK SMILES IDX 29 76 30 77 31 78 32 79 56 80 57 81 65 82 58 83 60 84 66 85
REMARK SMILES IDX 59 86 61 87 62 88 63 89 64 90 41 91 42 92 50 93 43 94 45 95
REMARK SMILES IDX 51 96 44 97 46 98 47 99 48 100 49 101
REMARK H PARENT 71 54 39 65
REMARK Flexibility Score: inf
ROOT
ATOM      1  C   UNL A   1      33.890  32.074  28.127  1.00  0.00     0.188 C 
ENDROOT
BRANCH   1   2
ATOM      2  C   UNL A   1      33.572  30.947  27.122  1.00  0.00     0.188 C 
BRANCH   2   3
ATOM      3  O   UNL A   1      34.464  29.841  27.123  1.00  0.00    -0.376 OA
BRANCH   3   4
ATOM      4  C   UNL A   1      33.860  28.596  26.814  1.00  0.00     0.202 C 
BRANCH   4   5
ATOM      5  C   UNL A   1      34.436  27.844  25.589  1.00  0.00     0.261 C 
BRANCH   5   6
ATOM      6  O   UNL A   1      33.577  26.745  25.218  1.00  0.00    -0.460 OA
BRANCH   6   7
ATOM      7  C   UNL A   1      32.805  26.981  24.119  1.00  0.00     0.338 C 
ATOM      8  O   UNL A   1      32.820  27.982  23.420  1.00  0.00    -0.246 OA
BRANCH   7   9
ATOM      9  C   UNL A   1      32.217  25.697  23.705  1.00  0.00     0.087 C 
ATOM     10  C   UNL A   1      33.198  24.813  23.495  1.00  0.00     0.028 C 
ATOM     11  C   UNL A   1      30.783  25.358  23.944  1.00  0.00     0.316 C 
ATOM     12  C   UNL A   1      32.983  23.423  23.810  1.00  0.00     0.033 A 
ATOM     13  O   UNL A   1      30.569  23.922  24.138  1.00  0.00    -0.475 OA
ATOM     14  C   UNL A   1      31.653  23.067  24.169  1.00  0.00     0.129 A 
ATOM     15  C   UNL A   1      34.092  22.538  23.978  1.00  0.00     0.042 A 
ATOM     16  C   UNL A   1      31.381  21.794  24.656  1.00  0.00     0.049 A 
ATOM     17  C   UNL A   1      33.761  21.265  24.517  1.00  0.00     0.055 A 
ATOM     18  C   UNL A   1      32.435  20.905  24.844  1.00  0.00     0.025 A 
ATOM     19  Cl  UNL A   1      34.957  20.057  24.885  1.00  0.00    -0.083 Cl
BRANCH  11  20
ATOM     20  C   UNL A   1      30.117  26.166  25.084  1.00  0.00     0.430 C 
ATOM     21  F   UNL A   1      30.405  25.657  26.301  1.00  0.00    -0.167 F 
ATOM     22  F   UNL A   1      30.553  27.449  25.091  1.00  0.00    -0.167 F 
ATOM     23  F   UNL A   1      28.772  26.193  24.946  1.00  0.00    -0.167 F 
ENDBRANCH  11  20
BRANCH  15  24
ATOM     24  S   UNL A   1      35.865  22.811  23.502  1.00  0.00    -0.088 SA
BRANCH  24  25
ATOM     25  C   UNL A   1      37.154  22.680  24.754  1.00  0.00     0.012 A 
ATOM     26  C   UNL A   1      37.623  23.829  25.400  1.00  0.00     0.015 A 
ATOM     27  C   UNL A   1      37.906  21.519  24.987  1.00  0.00     0.015 A 
ATOM     28  C   UNL A   1      38.656  23.773  26.361  1.00  0.00     0.001 A 
ATOM     29  C   UNL A   1      38.897  21.431  25.989  1.00  0.00     0.001 A 
ATOM     30  C   UNL A   1      39.248  22.563  26.705  1.00  0.00     0.000 A 
ENDBRANCH  24  25
ENDBRANCH  15  24
ENDBRANCH   7   9
ENDBRANCH   6   7
ENDBRANCH   5   6
ENDBRANCH   4   5
ENDBRANCH   3   4
ENDBRANCH   2   3
ENDBRANCH   1   2
BRANCH   1  31
ATOM     31  O   UNL A   1      34.334  33.346  27.672  1.00  0.00    -0.376 OA
BRANCH  31  32
ATOM     32  C   UNL A   1      34.638  34.323  28.651  1.00  0.00     0.202 C 
BRANCH  32  33
ATOM     33  C   UNL A   1      33.334  34.954  29.166  1.00  0.00     0.261 C 
BRANCH  33  34
ATOM     34  O   UNL A   1      32.992  34.517  30.503  1.00  0.00    -0.460 OA
BRANCH  34  35
ATOM     35  C   UNL A   1      33.492  35.238  31.547  1.00  0.00     0.338 C 
ATOM     36  O   UNL A   1      32.967  36.208  32.070  1.00  0.00    -0.246 OA
BRANCH  35  37
ATOM     37  C   UNL A   1      34.701  34.555  32.125  1.00  0.00     0.060 A 
ATOM     38  C   UNL A   1      35.974  35.050  31.792  1.00  0.00     0.016 A 
ATOM     39  C   UNL A   1      34.607  33.511  33.056  1.00  0.00     0.016 A 
ATOM     40  C   UNL A   1      37.135  34.459  32.318  1.00  0.00     0.010 A 
ATOM     41  C   UNL A   1      35.769  32.913  33.574  1.00  0.00     0.010 A 
ATOM     42  C   UNL A   1      37.042  33.345  33.168  1.00  0.00    -0.014 A 
BRANCH  42  43
ATOM     43  C   UNL A   1      38.218  32.440  33.343  1.00  0.00     0.031 A 
ATOM     44  C   UNL A   1      39.086  32.675  34.560  1.00  0.00     0.074 A 
ATOM     45  C   UNL A   1      38.569  31.472  32.473  1.00  0.00     0.049 A 
ATOM     46  N   UNL A   1      40.152  32.034  34.966  1.00  0.00    -0.248 NA
ATOM     47  C   UNL A   1      38.688  33.792  35.437  1.00  0.00     0.031 C 
ATOM     48  C   UNL A   1      37.866  31.130  31.239  1.00  0.00     0.029 A 
ATOM     49  N   UNL A   1      39.645  30.610  32.494  1.00  0.00    -0.354 N 
ATOM     50  C   UNL A   1      40.546  32.665  36.140  1.00  0.00     0.074 A 
ATOM     51  C   UNL A   1      39.621  33.750  36.374  1.00  0.00     0.031 C 
ATOM     52  C   UNL A   1      38.547  30.155  30.606  1.00  0.00     0.029 A 
ATOM     53  C   UNL A   1      39.740  29.805  31.381  1.00  0.00     0.049 A 
ATOM     54  H   UNL A   1      40.287  30.572  33.239  1.00  0.00     0.167 HD
ATOM     55  C   UNL A   1      41.575  32.371  36.970  1.00  0.00     0.034 A 
ATOM     56  C   UNL A   1      40.683  28.905  31.023  1.00  0.00     0.034 A 
ATOM     57  C   UNL A   1      42.538  31.333  36.743  1.00  0.00     0.049 A 
ATOM     58  C   UNL A   1      41.852  28.623  31.947  1.00  0.00     0.074 A 
ATOM     59  C   UNL A   1      43.612  30.970  37.537  1.00  0.00     0.029 A 
ATOM     60  N   UNL A   1      42.565  30.508  35.632  1.00  0.00    -0.354 N 
ATOM     61  N   UNL A   1      42.115  29.118  33.132  1.00  0.00    -0.248 NA
ATOM     62  C   UNL A   1      42.836  27.625  31.493  1.00  0.00     0.031 C 
ATOM     63  C   UNL A   1      44.305  29.940  36.893  1.00  0.00     0.029 A 
ATOM     64  C   UNL A   1      43.642  29.641  35.714  1.00  0.00     0.049 A 
ATOM     65  H   UNL A   1      41.915  30.534  34.893  1.00  0.00     0.167 HD
ATOM     66  C   UNL A   1      43.268  28.467  33.575  1.00  0.00     0.074 A 
ATOM     67  C   UNL A   1      43.633  27.519  32.547  1.00  0.00     0.031 C 
ATOM     68  C   UNL A   1      43.971  28.653  34.720  1.00  0.00     0.034 A 
BRANCH  55  69
ATOM     69  C   UNL A   1      41.689  33.184  38.230  1.00  0.00     0.023 A 
ATOM     70  C   UNL A   1      41.030  32.739  39.394  1.00  0.00     0.012 A 
ATOM     71  C   UNL A   1      42.468  34.355  38.275  1.00  0.00     0.148 A 
ATOM     72  C   UNL A   1      41.123  33.462  40.582  1.00  0.00     0.002 A 
ATOM     73  C   UNL A   1      42.589  35.049  39.473  1.00  0.00     0.091 A 
ATOM     74  F   UNL A   1      43.064  34.771  37.149  1.00  0.00    -0.205 F 
ATOM     75  C   UNL A   1      41.910  34.610  40.623  1.00  0.00     0.022 A 
BRANCH  73  76
ATOM     76  S   UNL A   1      43.626  36.503  39.652  1.00  0.00     0.127 S 
ATOM     77  O   UNL A   1      43.295  37.252  38.440  1.00  0.00    -0.237 OA
ATOM     78  O   UNL A   1      43.116  37.090  40.891  1.00  0.00    -0.237 OA
ATOM     79  O   UNL A   1      44.997  36.015  39.725  1.00  0.00    -0.744 OA
ENDBRANCH  73  76
ENDBRANCH  55  69
BRANCH  56  80
ATOM     80  C   UNL A   1      40.576  28.155  29.733  1.00  0.00     0.023 A 
ATOM     81  C   UNL A   1      39.642  27.106  29.613  1.00  0.00     0.012 A 
ATOM     82  C   UNL A   1      41.436  28.429  28.651  1.00  0.00     0.148 A 
ATOM     83  C   UNL A   1      39.599  26.314  28.463  1.00  0.00     0.002 A 
ATOM     84  C   UNL A   1      41.350  27.672  27.486  1.00  0.00     0.091 A 
ATOM     85  F   UNL A   1      42.341  29.409  28.791  1.00  0.00    -0.205 F 
ATOM     86  C   UNL A   1      40.447  26.601  27.398  1.00  0.00     0.022 A 
BRANCH  84  87
ATOM     87  S   UNL A   1      42.330  28.036  26.025  1.00  0.00     0.127 S 
ATOM     88  O   UNL A   1      41.858  29.373  25.672  1.00  0.00    -0.237 OA
ATOM     89  O   UNL A   1      43.693  27.985  26.553  1.00  0.00    -0.237 OA
ATOM     90  O   UNL A   1      42.016  26.981  25.070  1.00  0.00    -0.744 OA
ENDBRANCH  84  87
ENDBRANCH  56  80
BRANCH  68  91
ATOM     91  C   UNL A   1      45.191  27.795  34.958  1.00  0.00     0.023 A 
ATOM     92  C   UNL A   1      46.466  28.266  34.581  1.00  0.00     0.012 A 
ATOM     93  C   UNL A   1      45.086  26.555  35.619  1.00  0.00     0.148 A 
ATOM     94  C   UNL A   1      47.608  27.499  34.820  1.00  0.00     0.002 A 
ATOM     95  C   UNL A   1      46.234  25.818  35.899  1.00  0.00     0.091 A 
ATOM     96  F   UNL A   1      43.868  26.112  35.961  1.00  0.00    -0.205 F 
ATOM     97  C   UNL A   1      47.493  26.282  35.487  1.00  0.00     0.022 A 
BRANCH  95  98
ATOM     98  S   UNL A   1      46.189  24.287  36.839  1.00  0.00     0.127 S 
ATOM     99  O   UNL A   1      47.568  24.188  37.314  1.00  0.00    -0.237 OA
ATOM    100  O   UNL A   1      45.206  24.588  37.881  1.00  0.00    -0.237 OA
ATOM    101  O   UNL A   1      45.772  23.255  35.900  1.00  0.00    -0.744 OA
ENDBRANCH  95  98
ENDBRANCH  68  91
ENDBRANCH  42  43
ENDBRANCH  35  37
ENDBRANCH  34  35
ENDBRANCH  33  34
ENDBRANCH  32  33
ENDBRANCH  31  32
ENDBRANCH   1  31
TORSDOF 23
ENDMDL
