MODEL 1
REMARK VINA RESULT:     -11.5      0.000      0.000
REMARK SMILES O=C(OCCOCCOCCOC(=O)[C@H]1CC[C@H]2CCCC[C@@H]2N1C(=O)c1ccn[nH]1)c1ccc(-c2c3nc(c(-c4cccc(S(=O)(=O)[O-])c4F)c4ccc([nH]4)c(-c4cccc(S(=O)(=O)[O-])c4F)c4nc(c(-c5cccc(S(=O)(=O)[O-])c5F)c5ccc2[nH]5)C=C4)C=C3)cc1
REMARK SMILES IDX 7 1 6 2 5 3 4 4 3 5 2 6 1 7 32 8 33 9 94 10 34 11 93 12
REMARK SMILES IDX 35 13 36 14 37 15 87 16 38 17 92 18 86 19 88 20 39 21 91 22
REMARK SMILES IDX 85 23 84 24 40 26 72 27 52 28 71 29 53 30 56 31 70 32 89 33
REMARK SMILES IDX 54 34 55 35 69 37 90 38 57 39 41 40 42 41 50 42 43 43 45 44
REMARK SMILES IDX 51 45 44 46 46 47 47 48 48 49 49 50 73 51 74 52 82 53 75 54
REMARK SMILES IDX 77 55 83 56 76 57 78 58 79 59 80 60 81 61 58 62 59 63 67 64
REMARK SMILES IDX 60 65 62 66 68 67 61 68 63 69 64 70 65 71 66 72 8 73 9 74
REMARK SMILES IDX 10 75 11 76 12 77 13 78 14 79 15 80 16 81 24 82 17 83 23 84
REMARK SMILES IDX 18 85 22 86 19 87 21 88 20 89 25 90 26 91 27 92 28 93 31 94
REMARK SMILES IDX 29 95 30 96
REMARK H PARENT 88 25 56 36 31 97
REMARK Flexibility Score: inf
ROOT
ATOM      1  C   UNL A   1      33.519  27.754  26.249  1.00  0.00     0.188 C 
ENDROOT
BRANCH   1   2
ATOM      2  O   UNL A   1      33.827  28.979  25.581  1.00  0.00    -0.376 OA
BRANCH   2   3
ATOM      3  C   UNL A   1      32.747  29.897  25.497  1.00  0.00     0.202 C 
BRANCH   3   4
ATOM      4  C   UNL A   1      32.369  30.460  26.872  1.00  0.00     0.261 C 
BRANCH   4   5
ATOM      5  O   UNL A   1      32.745  31.842  27.012  1.00  0.00    -0.460 OA
BRANCH   5   6
ATOM      6  C   UNL A   1      33.809  32.370  27.661  1.00  0.00     0.338 C 
ATOM      7  O   UNL A   1      33.829  33.592  27.828  1.00  0.00    -0.246 OA
BRANCH   6   8
ATOM      8  C   UNL A   1      34.966  31.595  28.211  1.00  0.00     0.060 A 
ATOM      9  C   UNL A   1      34.978  30.238  28.546  1.00  0.00     0.016 A 
ATOM     10  C   UNL A   1      36.178  32.302  28.314  1.00  0.00     0.016 A 
ATOM     11  C   UNL A   1      36.135  29.610  29.014  1.00  0.00     0.010 A 
ATOM     12  C   UNL A   1      37.345  31.673  28.752  1.00  0.00     0.010 A 
ATOM     13  C   UNL A   1      37.320  30.327  29.137  1.00  0.00    -0.014 A 
BRANCH  13  14
ATOM     14  C   UNL A   1      38.479  29.741  29.843  1.00  0.00     0.031 A 
ATOM     15  C   UNL A   1      38.804  30.292  31.203  1.00  0.00     0.074 A 
ATOM     16  C   UNL A   1      39.228  28.771  29.286  1.00  0.00     0.049 A 
ATOM     17  N   UNL A   1      39.805  30.015  31.991  1.00  0.00    -0.248 NA
ATOM     18  C   UNL A   1      37.868  31.294  31.746  1.00  0.00     0.031 C 
ATOM     19  C   UNL A   1      38.984  28.140  27.989  1.00  0.00     0.029 A 
ATOM     20  N   UNL A   1      40.383  28.181  29.728  1.00  0.00    -0.354 N 
ATOM     21  C   UNL A   1      39.631  30.822  33.108  1.00  0.00     0.074 A 
ATOM     22  C   UNL A   1      38.458  31.632  32.879  1.00  0.00     0.031 C 
ATOM     23  C   UNL A   1      40.011  27.323  27.696  1.00  0.00     0.029 A 
ATOM     24  C   UNL A   1      40.971  27.356  28.795  1.00  0.00     0.049 A 
ATOM     25  H   UNL A   1      40.758  28.332  30.627  1.00  0.00     0.167 HD
ATOM     26  C   UNL A   1      40.357  30.852  34.249  1.00  0.00     0.034 A 
ATOM     27  C   UNL A   1      42.156  26.719  28.826  1.00  0.00     0.034 A 
ATOM     28  C   UNL A   1      41.490  30.008  34.482  1.00  0.00     0.049 A 
ATOM     29  C   UNL A   1      42.970  26.785  30.091  1.00  0.00     0.074 A 
ATOM     30  C   UNL A   1      42.263  29.891  35.621  1.00  0.00     0.029 A 
ATOM     31  N   UNL A   1      42.015  29.131  33.543  1.00  0.00    -0.354 N 
ATOM     32  N   UNL A   1      42.721  27.451  31.194  1.00  0.00    -0.248 NA
ATOM     33  C   UNL A   1      44.187  25.963  30.145  1.00  0.00     0.031 C 
ATOM     34  C   UNL A   1      43.262  28.945  35.366  1.00  0.00     0.029 A 
ATOM     35  C   UNL A   1      43.104  28.467  34.072  1.00  0.00     0.049 A 
ATOM     36  H   UNL A   1      41.663  29.002  32.633  1.00  0.00     0.167 HD
ATOM     37  C   UNL A   1      43.718  27.090  32.092  1.00  0.00     0.074 A 
ATOM     38  C   UNL A   1      44.579  26.151  31.399  1.00  0.00     0.031 C 
ATOM     39  C   UNL A   1      43.902  27.493  33.373  1.00  0.00     0.034 A 
BRANCH  26  40
ATOM     40  C   UNL A   1      39.890  31.793  35.325  1.00  0.00     0.023 A 
ATOM     41  C   UNL A   1      40.441  33.091  35.395  1.00  0.00     0.012 A 
ATOM     42  C   UNL A   1      38.952  31.388  36.290  1.00  0.00     0.148 A 
ATOM     43  C   UNL A   1      40.104  33.951  36.438  1.00  0.00     0.002 A 
ATOM     44  C   UNL A   1      38.591  32.267  37.307  1.00  0.00     0.091 A 
ATOM     45  F   UNL A   1      38.463  30.141  36.229  1.00  0.00    -0.205 F 
ATOM     46  C   UNL A   1      39.176  33.541  37.390  1.00  0.00     0.022 A 
BRANCH  44  47
ATOM     47  S   UNL A   1      37.360  31.842  38.544  1.00  0.00     0.127 S 
ATOM     48  O   UNL A   1      36.304  32.811  38.256  1.00  0.00    -0.237 OA
ATOM     49  O   UNL A   1      37.031  30.459  38.193  1.00  0.00    -0.237 OA
ATOM     50  O   UNL A   1      38.028  31.993  39.830  1.00  0.00    -0.744 OA
ENDBRANCH  44  47
ENDBRANCH  26  40
BRANCH  27  51
ATOM     51  C   UNL A   1      42.604  25.913  27.657  1.00  0.00     0.023 A 
ATOM     52  C   UNL A   1      43.512  26.467  26.735  1.00  0.00     0.012 A 
ATOM     53  C   UNL A   1      42.165  24.588  27.473  1.00  0.00     0.148 A 
ATOM     54  C   UNL A   1      43.961  25.721  25.644  1.00  0.00     0.002 A 
ATOM     55  C   UNL A   1      42.647  23.836  26.406  1.00  0.00     0.091 A 
ATOM     56  F   UNL A   1      41.307  24.073  28.363  1.00  0.00    -0.205 F 
ATOM     57  C   UNL A   1      43.533  24.405  25.480  1.00  0.00     0.022 A 
BRANCH  55  58
ATOM     58  S   UNL A   1      42.194  22.112  26.182  1.00  0.00     0.127 S 
ATOM     59  O   UNL A   1      42.968  21.728  25.002  1.00  0.00    -0.237 OA
ATOM     60  O   UNL A   1      42.658  21.525  27.438  1.00  0.00    -0.237 OA
ATOM     61  O   UNL A   1      40.751  22.120  25.978  1.00  0.00    -0.744 OA
ENDBRANCH  55  58
ENDBRANCH  27  51
BRANCH  39  62
ATOM     62  C   UNL A   1      45.048  26.892  34.136  1.00  0.00     0.023 A 
ATOM     63  C   UNL A   1      46.265  27.591  34.229  1.00  0.00     0.012 A 
ATOM     64  C   UNL A   1      44.865  25.703  34.869  1.00  0.00     0.148 A 
ATOM     65  C   UNL A   1      47.293  27.109  35.038  1.00  0.00     0.002 A 
ATOM     66  C   UNL A   1      45.878  25.252  35.706  1.00  0.00     0.091 A 
ATOM     67  F   UNL A   1      43.703  25.045  34.744  1.00  0.00    -0.205 F 
ATOM     68  C   UNL A   1      47.093  25.950  35.787  1.00  0.00     0.022 A 
BRANCH  66  69
ATOM     69  S   UNL A   1      45.666  23.829  36.781  1.00  0.00     0.127 S 
ATOM     70  O   UNL A   1      47.051  23.438  37.034  1.00  0.00    -0.237 OA
ATOM     71  O   UNL A   1      44.974  24.409  37.933  1.00  0.00    -0.237 OA
ATOM     72  O   UNL A   1      44.872  22.870  36.023  1.00  0.00    -0.744 OA
ENDBRANCH  66  69
ENDBRANCH  39  62
ENDBRANCH  13  14
ENDBRANCH   6   8
ENDBRANCH   5   6
ENDBRANCH   4   5
ENDBRANCH   3   4
ENDBRANCH   2   3
ENDBRANCH   1   2
BRANCH   1  73
ATOM     73  C   UNL A   1      32.475  26.904  25.529  1.00  0.00     0.188 C 
BRANCH  73  74
ATOM     74  O   UNL A   1      31.270  26.762  26.276  1.00  0.00    -0.376 OA
BRANCH  74  75
ATOM     75  C   UNL A   1      30.253  26.030  25.596  1.00  0.00     0.202 C 
BRANCH  75  76
ATOM     76  C   UNL A   1      30.766  25.062  24.520  1.00  0.00     0.261 C 
BRANCH  76  77
ATOM     77  O   UNL A   1      30.315  23.691  24.578  1.00  0.00    -0.462 OA
BRANCH  77  78
ATOM     78  C   UNL A   1      30.781  22.922  25.602  1.00  0.00     0.328 C 
ATOM     79  O   UNL A   1      30.073  22.479  26.501  1.00  0.00    -0.250 OA
BRANCH  78  80
ATOM     80  C   UNL A   1      32.334  22.870  25.601  1.00  0.00     0.195 C 
ATOM     81  C   UNL A   1      32.793  22.584  27.045  1.00  0.00     0.037 C 
ATOM     82  N   UNL A   1      33.150  22.078  24.647  1.00  0.00    -0.320 N 
ATOM     83  C   UNL A   1      34.314  22.586  27.216  1.00  0.00     0.008 C 
ATOM     84  C   UNL A   1      34.615  22.296  24.747  1.00  0.00     0.089 C 
ATOM     85  C   UNL A   1      35.018  23.139  25.977  1.00  0.00     0.012 C 
ATOM     86  C   UNL A   1      35.241  22.906  23.490  1.00  0.00     0.025 C 
ATOM     87  C   UNL A   1      36.541  23.139  26.128  1.00  0.00     0.006 C 
ATOM     88  C   UNL A   1      36.763  22.990  23.605  1.00  0.00     0.002 C 
ATOM     89  C   UNL A   1      37.210  23.702  24.876  1.00  0.00     0.000 C 
BRANCH  82  90
ATOM     90  C   UNL A   1      32.573  21.030  23.915  1.00  0.00     0.272 C 
ATOM     91  O   UNL A   1      32.043  21.230  22.825  1.00  0.00    -0.267 OA
BRANCH  90  92
ATOM     92  C   UNL A   1      32.683  19.677  24.423  1.00  0.00     0.123 A 
ATOM     93  C   UNL A   1      33.013  18.470  23.830  1.00  0.00     0.055 A 
ATOM     94  N   UNL A   1      32.490  19.362  25.749  1.00  0.00    -0.273 N 
ATOM     95  C   UNL A   1      32.846  17.499  24.829  1.00  0.00     0.135 A 
ATOM     96  N   UNL A   1      32.528  18.038  26.004  1.00  0.00    -0.183 NA
ATOM     97  H   UNL A   1      32.339  20.041  26.446  1.00  0.00     0.190 HD
ENDBRANCH  90  92
ENDBRANCH  82  90
ENDBRANCH  78  80
ENDBRANCH  77  78
ENDBRANCH  76  77
ENDBRANCH  75  76
ENDBRANCH  74  75
ENDBRANCH  73  74
ENDBRANCH   1  73
TORSDOF 22
ENDMDL
MODEL 2
REMARK VINA RESULT:     -11.3      1.202      2.400
REMARK SMILES O=C(OCCOCCOCCOC(=O)[C@H]1CC[C@H]2CCCC[C@@H]2N1C(=O)c1ccn[nH]1)c1ccc(-c2c3nc(c(-c4cccc(S(=O)(=O)[O-])c4F)c4ccc([nH]4)c(-c4cccc(S(=O)(=O)[O-])c4F)c4nc(c(-c5cccc(S(=O)(=O)[O-])c5F)c5ccc2[nH]5)C=C4)C=C3)cc1
REMARK SMILES IDX 7 1 6 2 5 3 4 4 3 5 2 6 1 7 32 8 33 9 94 10 34 11 93 12
REMARK SMILES IDX 35 13 36 14 37 15 87 16 38 17 92 18 86 19 88 20 39 21 91 22
REMARK SMILES IDX 85 23 84 24 40 26 72 27 52 28 71 29 53 30 56 31 70 32 89 33
REMARK SMILES IDX 54 34 55 35 69 37 90 38 57 39 41 40 42 41 50 42 43 43 45 44
REMARK SMILES IDX 51 45 44 46 46 47 47 48 48 49 49 50 73 51 74 52 82 53 75 54
REMARK SMILES IDX 77 55 83 56 76 57 78 58 79 59 80 60 81 61 58 62 59 63 67 64
REMARK SMILES IDX 60 65 62 66 68 67 61 68 63 69 64 70 65 71 66 72 8 73 9 74
REMARK SMILES IDX 10 75 11 76 12 77 13 78 14 79 15 80 16 81 24 82 17 83 23 84
REMARK SMILES IDX 18 85 22 86 19 87 21 88 20 89 25 90 26 91 27 92 28 93 31 94
REMARK SMILES IDX 29 95 30 96
REMARK H PARENT 88 25 56 36 31 97
REMARK Flexibility Score: inf
ROOT
ATOM      1  C   UNL A   1      31.565  29.746  24.523  1.00  0.00     0.188 C 
ENDROOT
BRANCH   1   2
ATOM      2  O   UNL A   1      30.991  30.764  25.345  1.00  0.00    -0.376 OA
BRANCH   2   3
ATOM      3  C   UNL A   1      31.806  31.182  26.430  1.00  0.00     0.202 C 
BRANCH   3   4
ATOM      4  C   UNL A   1      31.715  32.696  26.661  1.00  0.00     0.261 C 
BRANCH   4   5
ATOM      5  O   UNL A   1      32.520  33.121  27.775  1.00  0.00    -0.460 OA
BRANCH   5   6
ATOM      6  C   UNL A   1      33.831  33.453  27.796  1.00  0.00     0.338 C 
ATOM      7  O   UNL A   1      34.148  34.563  27.360  1.00  0.00    -0.246 OA
BRANCH   6   8
ATOM      8  C   UNL A   1      34.939  32.592  28.319  1.00  0.00     0.060 A 
ATOM      9  C   UNL A   1      34.857  31.237  28.653  1.00  0.00     0.016 A 
ATOM     10  C   UNL A   1      36.204  33.205  28.395  1.00  0.00     0.016 A 
ATOM     11  C   UNL A   1      35.974  30.522  29.094  1.00  0.00     0.010 A 
ATOM     12  C   UNL A   1      37.329  32.490  28.805  1.00  0.00     0.010 A 
ATOM     13  C   UNL A   1      37.212  31.148  29.190  1.00  0.00    -0.014 A 
BRANCH  13  14
ATOM     14  C   UNL A   1      38.339  30.475  29.869  1.00  0.00     0.031 A 
ATOM     15  C   UNL A   1      38.707  30.967  31.240  1.00  0.00     0.074 A 
ATOM     16  C   UNL A   1      39.024  29.477  29.279  1.00  0.00     0.049 A 
ATOM     17  N   UNL A   1      39.697  30.610  32.010  1.00  0.00    -0.248 NA
ATOM     18  C   UNL A   1      37.838  32.008  31.818  1.00  0.00     0.031 C 
ATOM     19  C   UNL A   1      38.732  28.898  27.967  1.00  0.00     0.029 A 
ATOM     20  N   UNL A   1      40.146  28.808  29.693  1.00  0.00    -0.354 N 
ATOM     21  C   UNL A   1      39.580  31.395  33.151  1.00  0.00     0.074 A 
ATOM     22  C   UNL A   1      38.456  32.280  32.955  1.00  0.00     0.031 C 
ATOM     23  C   UNL A   1      39.706  28.030  27.642  1.00  0.00     0.029 A 
ATOM     24  C   UNL A   1      40.676  27.976  28.733  1.00  0.00     0.049 A 
ATOM     25  H   UNL A   1      40.537  28.911  30.592  1.00  0.00     0.167 HD
ATOM     26  C   UNL A   1      40.315  31.350  34.284  1.00  0.00     0.034 A 
ATOM     27  C   UNL A   1      41.821  27.269  28.735  1.00  0.00     0.034 A 
ATOM     28  C   UNL A   1      41.398  30.434  34.483  1.00  0.00     0.049 A 
ATOM     29  C   UNL A   1      42.648  27.251  29.993  1.00  0.00     0.074 A 
ATOM     30  C   UNL A   1      42.172  30.239  35.612  1.00  0.00     0.029 A 
ATOM     31  N   UNL A   1      41.862  29.554  33.516  1.00  0.00    -0.354 N 
ATOM     32  N   UNL A   1      42.448  27.900  31.116  1.00  0.00    -0.248 NA
ATOM     33  C   UNL A   1      43.814  26.357  30.013  1.00  0.00     0.031 C 
ATOM     34  C   UNL A   1      43.110  29.243  35.322  1.00  0.00     0.029 A 
ATOM     35  C   UNL A   1      42.914  28.812  34.017  1.00  0.00     0.049 A 
ATOM     36  H   UNL A   1      41.495  29.471  32.606  1.00  0.00     0.167 HD
ATOM     37  C   UNL A   1      43.428  27.455  31.994  1.00  0.00     0.074 A 
ATOM     38  C   UNL A   1      44.227  26.487  31.268  1.00  0.00     0.031 C 
ATOM     39  C   UNL A   1      43.646  27.811  33.284  1.00  0.00     0.034 A 
BRANCH  26  40
ATOM     40  C   UNL A   1      39.915  32.287  35.390  1.00  0.00     0.023 A 
ATOM     41  C   UNL A   1      40.572  33.530  35.515  1.00  0.00     0.012 A 
ATOM     42  C   UNL A   1      38.931  31.929  36.329  1.00  0.00     0.148 A 
ATOM     43  C   UNL A   1      40.294  34.377  36.586  1.00  0.00     0.002 A 
ATOM     44  C   UNL A   1      38.631  32.797  37.373  1.00  0.00     0.091 A 
ATOM     45  F   UNL A   1      38.340  30.731  36.214  1.00  0.00    -0.205 F 
ATOM     46  C   UNL A   1      39.321  34.013  37.512  1.00  0.00     0.022 A 
BRANCH  44  47
ATOM     47  S   UNL A   1      37.352  32.433  38.580  1.00  0.00     0.127 S 
ATOM     48  O   UNL A   1      37.788  33.232  39.724  1.00  0.00    -0.237 OA
ATOM     49  O   UNL A   1      36.146  32.931  37.914  1.00  0.00    -0.237 OA
ATOM     50  O   UNL A   1      37.384  30.989  38.764  1.00  0.00    -0.744 OA
ENDBRANCH  44  47
ENDBRANCH  26  40
BRANCH  27  51
ATOM     51  C   UNL A   1      42.210  26.470  27.540  1.00  0.00     0.023 A 
ATOM     52  C   UNL A   1      42.913  27.087  26.488  1.00  0.00     0.012 A 
ATOM     53  C   UNL A   1      41.923  25.094  27.457  1.00  0.00     0.148 A 
ATOM     54  C   UNL A   1      43.306  26.351  25.368  1.00  0.00     0.002 A 
ATOM     55  C   UNL A   1      42.352  24.358  26.356  1.00  0.00     0.091 A 
ATOM     56  F   UNL A   1      41.260  24.520  28.469  1.00  0.00    -0.205 F 
ATOM     57  C   UNL A   1      43.030  24.987  25.302  1.00  0.00     0.022 A 
BRANCH  55  58
ATOM     58  S   UNL A   1      42.095  22.583  26.247  1.00  0.00     0.127 S 
ATOM     59  O   UNL A   1      42.669  22.257  24.942  1.00  0.00    -0.237 OA
ATOM     60  O   UNL A   1      42.868  22.107  27.393  1.00  0.00    -0.237 OA
ATOM     61  O   UNL A   1      40.652  22.400  26.331  1.00  0.00    -0.744 OA
ENDBRANCH  55  58
ENDBRANCH  27  51
BRANCH  39  62
ATOM     62  C   UNL A   1      44.760  27.122  34.020  1.00  0.00     0.023 A 
ATOM     63  C   UNL A   1      46.042  27.701  34.042  1.00  0.00     0.012 A 
ATOM     64  C   UNL A   1      44.495  25.977  34.795  1.00  0.00     0.148 A 
ATOM     65  C   UNL A   1      47.052  27.144  34.824  1.00  0.00     0.002 A 
ATOM     66  C   UNL A   1      45.494  25.452  35.605  1.00  0.00     0.091 A 
ATOM     67  F   UNL A   1      43.271  25.433  34.737  1.00  0.00    -0.205 F 
ATOM     68  C   UNL A   1      46.774  26.030  35.617  1.00  0.00     0.022 A 
BRANCH  66  69
ATOM     69  S   UNL A   1      45.192  24.086  36.732  1.00  0.00     0.127 S 
ATOM     70  O   UNL A   1      46.538  23.804  37.225  1.00  0.00    -0.237 OA
ATOM     71  O   UNL A   1      44.293  24.689  37.718  1.00  0.00    -0.237 OA
ATOM     72  O   UNL A   1      44.584  23.033  35.929  1.00  0.00    -0.744 OA
ENDBRANCH  66  69
ENDBRANCH  39  62
ENDBRANCH  13  14
ENDBRANCH   6   8
ENDBRANCH   5   6
ENDBRANCH   4   5
ENDBRANCH   3   4
ENDBRANCH   2   3
ENDBRANCH   1   2
BRANCH   1  73
ATOM     73  C   UNL A   1      31.264  28.327  24.998  1.00  0.00     0.188 C 
BRANCH  73  74
ATOM     74  O   UNL A   1      32.442  27.566  25.246  1.00  0.00    -0.376 OA
BRANCH  74  75
ATOM     75  C   UNL A   1      32.409  26.833  26.468  1.00  0.00     0.202 C 
BRANCH  75  76
ATOM     76  C   UNL A   1      31.463  25.624  26.470  1.00  0.00     0.261 C 
BRANCH  76  77
ATOM     77  O   UNL A   1      31.881  24.441  25.754  1.00  0.00    -0.462 OA
BRANCH  77  78
ATOM     78  C   UNL A   1      31.491  23.235  26.257  1.00  0.00     0.328 C 
ATOM     79  O   UNL A   1      31.016  23.084  27.378  1.00  0.00    -0.250 OA
BRANCH  78  80
ATOM     80  C   UNL A   1      31.927  22.073  25.323  1.00  0.00     0.195 C 
ATOM     81  C   UNL A   1      31.872  22.593  23.873  1.00  0.00     0.037 C 
ATOM     82  N   UNL A   1      33.145  21.247  25.517  1.00  0.00    -0.320 N 
ATOM     83  C   UNL A   1      32.199  21.525  22.826  1.00  0.00     0.008 C 
ATOM     84  C   UNL A   1      33.280  20.103  24.581  1.00  0.00     0.089 C 
ATOM     85  C   UNL A   1      32.236  20.127  23.443  1.00  0.00     0.012 C 
ATOM     86  C   UNL A   1      33.251  18.733  25.265  1.00  0.00     0.025 C 
ATOM     87  C   UNL A   1      32.571  19.047  22.411  1.00  0.00     0.006 C 
ATOM     88  C   UNL A   1      33.519  17.604  24.270  1.00  0.00     0.002 C 
ATOM     89  C   UNL A   1      32.594  17.665  23.060  1.00  0.00     0.000 C 
BRANCH  82  90
ATOM     90  C   UNL A   1      34.185  21.696  26.344  1.00  0.00     0.272 C 
ATOM     91  O   UNL A   1      34.154  21.521  27.559  1.00  0.00    -0.267 OA
BRANCH  90  92
ATOM     92  C   UNL A   1      35.352  22.304  25.735  1.00  0.00     0.123 A 
ATOM     93  C   UNL A   1      35.777  22.423  24.422  1.00  0.00     0.055 A 
ATOM     94  N   UNL A   1      36.308  22.973  26.464  1.00  0.00    -0.273 N 
ATOM     95  C   UNL A   1      37.040  23.032  24.487  1.00  0.00     0.135 A 
ATOM     96  N   UNL A   1      37.369  23.372  25.731  1.00  0.00    -0.183 NA
ATOM     97  H   UNL A   1      36.226  23.145  27.429  1.00  0.00     0.190 HD
ENDBRANCH  90  92
ENDBRANCH  82  90
ENDBRANCH  78  80
ENDBRANCH  77  78
ENDBRANCH  76  77
ENDBRANCH  75  76
ENDBRANCH  74  75
ENDBRANCH  73  74
ENDBRANCH   1  73
TORSDOF 22
ENDMDL
MODEL 3
REMARK VINA RESULT:     -11.0      1.768      2.616
REMARK SMILES O=C(OCCOCCOCCOC(=O)[C@H]1CC[C@H]2CCCC[C@@H]2N1C(=O)c1ccn[nH]1)c1ccc(-c2c3nc(c(-c4cccc(S(=O)(=O)[O-])c4F)c4ccc([nH]4)c(-c4cccc(S(=O)(=O)[O-])c4F)c4nc(c(-c5cccc(S(=O)(=O)[O-])c5F)c5ccc2[nH]5)C=C4)C=C3)cc1
REMARK SMILES IDX 7 1 6 2 5 3 4 4 3 5 2 6 1 7 32 8 33 9 94 10 34 11 93 12
REMARK SMILES IDX 35 13 36 14 37 15 87 16 38 17 92 18 86 19 88 20 39 21 91 22
REMARK SMILES IDX 85 23 84 24 40 26 72 27 52 28 71 29 53 30 56 31 70 32 89 33
REMARK SMILES IDX 54 34 55 35 69 37 90 38 57 39 41 40 42 41 50 42 43 43 45 44
REMARK SMILES IDX 51 45 44 46 46 47 47 48 48 49 49 50 73 51 74 52 82 53 75 54
REMARK SMILES IDX 77 55 83 56 76 57 78 58 79 59 80 60 81 61 58 62 59 63 67 64
REMARK SMILES IDX 60 65 62 66 68 67 61 68 63 69 64 70 65 71 66 72 8 73 9 74
REMARK SMILES IDX 10 75 11 76 12 77 13 78 14 79 15 80 16 81 24 82 17 83 23 84
REMARK SMILES IDX 18 85 22 86 19 87 21 88 20 89 25 90 26 91 27 92 28 93 31 94
REMARK SMILES IDX 29 95 30 96
REMARK H PARENT 88 25 56 36 31 97
REMARK Flexibility Score: inf
ROOT
ATOM      1  C   UNL A   1      30.809  29.045  23.454  1.00  0.00     0.188 C 
ENDROOT
BRANCH   1   2
ATOM      2  O   UNL A   1      30.601  30.084  24.413  1.00  0.00    -0.376 OA
BRANCH   2   3
ATOM      3  C   UNL A   1      31.616  30.193  25.400  1.00  0.00     0.202 C 
BRANCH   3   4
ATOM      4  C   UNL A   1      31.575  31.552  26.111  1.00  0.00     0.261 C 
BRANCH   4   5
ATOM      5  O   UNL A   1      32.348  31.549  27.324  1.00  0.00    -0.460 OA
BRANCH   5   6
ATOM      6  C   UNL A   1      33.551  32.121  27.565  1.00  0.00     0.338 C 
ATOM      7  O   UNL A   1      33.665  33.329  27.343  1.00  0.00    -0.246 OA
BRANCH   6   8
ATOM      8  C   UNL A   1      34.761  31.416  28.094  1.00  0.00     0.060 A 
ATOM      9  C   UNL A   1      34.928  30.035  28.232  1.00  0.00     0.016 A 
ATOM     10  C   UNL A   1      35.861  32.238  28.400  1.00  0.00     0.016 A 
ATOM     11  C   UNL A   1      36.124  29.485  28.702  1.00  0.00     0.010 A 
ATOM     12  C   UNL A   1      37.068  31.694  28.840  1.00  0.00     0.010 A 
ATOM     13  C   UNL A   1      37.195  30.312  29.025  1.00  0.00    -0.014 A 
BRANCH  13  14
ATOM     14  C   UNL A   1      38.371  29.768  29.736  1.00  0.00     0.031 A 
ATOM     15  C   UNL A   1      38.631  30.279  31.125  1.00  0.00     0.074 A 
ATOM     16  C   UNL A   1      39.190  28.869  29.159  1.00  0.00     0.049 A 
ATOM     17  N   UNL A   1      39.630  30.031  31.925  1.00  0.00    -0.248 NA
ATOM     18  C   UNL A   1      37.624  31.200  31.684  1.00  0.00     0.031 C 
ATOM     19  C   UNL A   1      39.014  28.279  27.832  1.00  0.00     0.029 A 
ATOM     20  N   UNL A   1      40.370  28.331  29.605  1.00  0.00    -0.354 N 
ATOM     21  C   UNL A   1      39.382  30.778  33.070  1.00  0.00     0.074 A 
ATOM     22  C   UNL A   1      38.166  31.526  32.844  1.00  0.00     0.031 C 
ATOM     23  C   UNL A   1      40.096  27.538  27.532  1.00  0.00     0.029 A 
ATOM     24  C   UNL A   1      41.027  27.584  28.655  1.00  0.00     0.049 A 
ATOM     25  H   UNL A   1      40.715  28.467  30.518  1.00  0.00     0.167 HD
ATOM     26  C   UNL A   1      40.078  30.804  34.228  1.00  0.00     0.034 A 
ATOM     27  C   UNL A   1      42.249  27.018  28.689  1.00  0.00     0.034 A 
ATOM     28  C   UNL A   1      41.256  30.021  34.455  1.00  0.00     0.049 A 
ATOM     29  C   UNL A   1      43.028  27.081  29.976  1.00  0.00     0.074 A 
ATOM     30  C   UNL A   1      42.009  29.903  35.608  1.00  0.00     0.029 A 
ATOM     31  N   UNL A   1      41.854  29.218  33.495  1.00  0.00    -0.354 N 
ATOM     32  N   UNL A   1      42.714  27.684  31.098  1.00  0.00    -0.248 NA
ATOM     33  C   UNL A   1      44.292  26.332  30.027  1.00  0.00     0.031 C 
ATOM     34  C   UNL A   1      43.069  29.031  35.339  1.00  0.00     0.029 A 
ATOM     35  C   UNL A   1      42.970  28.599  34.024  1.00  0.00     0.049 A 
ATOM     36  H   UNL A   1      41.531  29.106  32.572  1.00  0.00     0.167 HD
ATOM     37  C   UNL A   1      43.711  27.345  32.005  1.00  0.00     0.074 A 
ATOM     38  C   UNL A   1      44.644  26.491  31.297  1.00  0.00     0.031 C 
ATOM     39  C   UNL A   1      43.842  27.705  33.306  1.00  0.00     0.034 A 
BRANCH  26  40
ATOM     40  C   UNL A   1      39.531  31.669  35.330  1.00  0.00     0.023 A 
ATOM     41  C   UNL A   1      38.544  31.146  36.194  1.00  0.00     0.012 A 
ATOM     42  C   UNL A   1      39.948  33.003  35.485  1.00  0.00     0.148 A 
ATOM     43  C   UNL A   1      37.946  31.953  37.160  1.00  0.00     0.002 A 
ATOM     44  C   UNL A   1      39.374  33.790  36.478  1.00  0.00     0.091 A 
ATOM     45  F   UNL A   1      40.861  33.493  34.635  1.00  0.00    -0.205 F 
ATOM     46  C   UNL A   1      38.364  33.272  37.305  1.00  0.00     0.022 A 
BRANCH  44  47
ATOM     47  S   UNL A   1      39.892  35.485  36.771  1.00  0.00     0.127 S 
ATOM     48  O   UNL A   1      39.102  35.836  37.951  1.00  0.00    -0.237 OA
ATOM     49  O   UNL A   1      41.327  35.332  37.022  1.00  0.00    -0.237 OA
ATOM     50  O   UNL A   1      39.569  36.211  35.551  1.00  0.00    -0.744 OA
ENDBRANCH  44  47
ENDBRANCH  26  40
BRANCH  27  51
ATOM     51  C   UNL A   1      42.771  26.291  27.500  1.00  0.00     0.023 A 
ATOM     52  C   UNL A   1      43.591  26.964  26.576  1.00  0.00     0.012 A 
ATOM     53  C   UNL A   1      42.491  24.925  27.299  1.00  0.00     0.148 A 
ATOM     54  C   UNL A   1      44.109  26.294  25.465  1.00  0.00     0.002 A 
ATOM     55  C   UNL A   1      43.042  24.254  26.212  1.00  0.00     0.091 A 
ATOM     56  F   UNL A   1      41.715  24.297  28.192  1.00  0.00    -0.205 F 
ATOM     57  C   UNL A   1      43.839  24.939  25.284  1.00  0.00     0.022 A 
BRANCH  55  58
ATOM     58  S   UNL A   1      42.795  22.491  25.965  1.00  0.00     0.127 S 
ATOM     59  O   UNL A   1      43.588  22.223  24.765  1.00  0.00    -0.237 OA
ATOM     60  O   UNL A   1      43.351  21.944  27.201  1.00  0.00    -0.237 OA
ATOM     61  O   UNL A   1      41.359  22.328  25.785  1.00  0.00    -0.744 OA
ENDBRANCH  55  58
ENDBRANCH  27  51
BRANCH  39  62
ATOM     62  C   UNL A   1      45.005  27.143  34.073  1.00  0.00     0.023 A 
ATOM     63  C   UNL A   1      46.216  27.857  34.123  1.00  0.00     0.012 A 
ATOM     64  C   UNL A   1      44.846  25.978  34.848  1.00  0.00     0.148 A 
ATOM     65  C   UNL A   1      47.260  27.414  34.932  1.00  0.00     0.002 A 
ATOM     66  C   UNL A   1      45.875  25.567  35.686  1.00  0.00     0.091 A 
ATOM     67  F   UNL A   1      43.689  25.305  34.764  1.00  0.00    -0.205 F 
ATOM     68  C   UNL A   1      47.084  26.280  35.724  1.00  0.00     0.022 A 
BRANCH  66  69
ATOM     69  S   UNL A   1      45.694  24.181  36.813  1.00  0.00     0.127 S 
ATOM     70  O   UNL A   1      44.524  24.581  37.592  1.00  0.00    -0.237 OA
ATOM     71  O   UNL A   1      45.464  23.062  35.897  1.00  0.00    -0.237 OA
ATOM     72  O   UNL A   1      46.945  24.103  37.555  1.00  0.00    -0.744 OA
ENDBRANCH  66  69
ENDBRANCH  39  62
ENDBRANCH  13  14
ENDBRANCH   6   8
ENDBRANCH   5   6
ENDBRANCH   4   5
ENDBRANCH   3   4
ENDBRANCH   2   3
ENDBRANCH   1   2
BRANCH   1  73
ATOM     73  C   UNL A   1      30.277  27.684  23.895  1.00  0.00     0.188 C 
BRANCH  73  74
ATOM     74  O   UNL A   1      31.235  26.931  24.635  1.00  0.00    -0.376 OA
BRANCH  74  75
ATOM     75  C   UNL A   1      30.717  26.362  25.836  1.00  0.00     0.202 C 
BRANCH  75  76
ATOM     76  C   UNL A   1      30.106  24.964  25.676  1.00  0.00     0.261 C 
BRANCH  76  77
ATOM     77  O   UNL A   1      31.006  23.857  25.451  1.00  0.00    -0.462 OA
BRANCH  77  78
ATOM     78  C   UNL A   1      31.815  23.488  26.485  1.00  0.00     0.328 C 
ATOM     79  O   UNL A   1      31.590  23.765  27.659  1.00  0.00    -0.250 OA
BRANCH  78  80
ATOM     80  C   UNL A   1      33.144  22.878  25.965  1.00  0.00     0.195 C 
ATOM     81  C   UNL A   1      32.786  21.690  25.049  1.00  0.00     0.037 C 
ATOM     82  N   UNL A   1      34.254  23.661  25.365  1.00  0.00    -0.320 N 
ATOM     83  C   UNL A   1      34.008  20.931  24.523  1.00  0.00     0.008 C 
ATOM     84  C   UNL A   1      35.483  22.880  25.072  1.00  0.00     0.089 C 
ATOM     85  C   UNL A   1      35.286  21.357  25.244  1.00  0.00     0.012 C 
ATOM     86  C   UNL A   1      36.709  23.326  25.873  1.00  0.00     0.025 C 
ATOM     87  C   UNL A   1      36.520  20.615  24.723  1.00  0.00     0.006 C 
ATOM     88  C   UNL A   1      37.966  22.573  25.440  1.00  0.00     0.002 C 
ATOM     89  C   UNL A   1      37.776  21.061  25.469  1.00  0.00     0.000 C 
BRANCH  82  90
ATOM     90  C   UNL A   1      34.031  24.959  24.884  1.00  0.00     0.272 C 
ATOM     91  O   UNL A   1      34.224  25.943  25.593  1.00  0.00    -0.267 OA
BRANCH  90  92
ATOM     92  C   UNL A   1      33.644  25.137  23.498  1.00  0.00     0.123 A 
ATOM     93  C   UNL A   1      33.160  24.268  22.535  1.00  0.00     0.055 A 
ATOM     94  N   UNL A   1      33.664  26.362  22.871  1.00  0.00    -0.273 N 
ATOM     95  C   UNL A   1      33.069  25.023  21.355  1.00  0.00     0.135 A 
ATOM     96  N   UNL A   1      33.375  26.303  21.555  1.00  0.00    -0.183 NA
ATOM     97  H   UNL A   1      33.872  27.202  23.340  1.00  0.00     0.190 HD
ENDBRANCH  90  92
ENDBRANCH  82  90
ENDBRANCH  78  80
ENDBRANCH  77  78
ENDBRANCH  76  77
ENDBRANCH  75  76
ENDBRANCH  74  75
ENDBRANCH  73  74
ENDBRANCH   1  73
TORSDOF 22
ENDMDL
