MODEL 1
REMARK VINA RESULT:     -10.6      0.000      0.000
REMARK SMILES CCNC(=O)N1[C@@H](C(=O)OCCOCCOCCOC(=O)c2ccc(-c3c4nc(c(-c5cccc(S(=O)(=O)[O-])c5F)c5ccc([nH]5)c(-c5cccc(S(=O)(=O)[O-])c5F)c5nc(c(-c6cccc(S(=O)(=O)[O-])c6F)c6ccc3[nH]6)C=C5)C=C4)cc2)CC[C@@H]2CCCC[C@H]21
REMARK SMILES IDX 15 1 14 2 13 3 12 4 11 5 10 6 8 7 9 8 7 9 6 10 92 11 85 12
REMARK SMILES IDX 87 13 91 14 86 15 88 16 90 17 89 18 4 19 3 20 5 22 2 23 1 24
REMARK SMILES IDX 16 25 17 26 18 27 19 28 20 29 21 30 22 31 23 32 84 33 24 34
REMARK SMILES IDX 83 35 25 36 26 37 27 38 77 39 28 40 82 41 76 42 78 43 29 44
REMARK SMILES IDX 81 45 75 46 74 47 30 49 62 50 42 51 61 52 43 53 46 54 60 55
REMARK SMILES IDX 79 56 44 57 45 58 59 60 80 61 47 62 31 63 32 64 40 65 33 66
REMARK SMILES IDX 35 67 41 68 34 69 36 70 37 71 38 72 39 73 63 74 64 75 72 76
REMARK SMILES IDX 65 77 67 78 73 79 66 80 68 81 69 82 70 83 71 84 48 85 49 86
REMARK SMILES IDX 57 87 50 88 52 89 58 90 51 91 53 92 54 93 55 94 56 95
REMARK H PARENT 3 21 78 48 46 59
REMARK Flexibility Score: inf
ROOT
ATOM      1  C   UNL A   1      33.133  28.742  25.142  1.00  0.00     0.188 C 
ENDROOT
BRANCH   1   2
ATOM      2  C   UNL A   1      33.196  27.623  26.184  1.00  0.00     0.188 C 
BRANCH   2   3
ATOM      3  O   UNL A   1      31.975  27.086  26.623  1.00  0.00    -0.376 OA
BRANCH   3   4
ATOM      4  C   UNL A   1      30.885  26.892  25.743  1.00  0.00     0.202 C 
BRANCH   4   5
ATOM      5  C   UNL A   1      29.887  25.719  25.752  1.00  0.00     0.261 C 
BRANCH   5   6
ATOM      6  O   UNL A   1      30.321  24.398  25.396  1.00  0.00    -0.462 OA
BRANCH   6   7
ATOM      7  C   UNL A   1      30.926  23.709  26.407  1.00  0.00     0.329 C 
ATOM      8  O   UNL A   1      30.329  23.291  27.395  1.00  0.00    -0.250 OA
BRANCH   7   9
ATOM      9  C   UNL A   1      32.439  23.518  26.231  1.00  0.00     0.197 C 
ATOM     10  N   UNL A   1      32.955  23.368  24.853  1.00  0.00    -0.308 N 
ATOM     11  C   UNL A   1      34.433  23.323  24.746  1.00  0.00     0.091 C 
ATOM     12  C   UNL A   1      33.071  22.516  27.206  1.00  0.00     0.038 C 
ATOM     13  C   UNL A   1      35.112  22.417  25.806  1.00  0.00     0.012 C 
ATOM     14  C   UNL A   1      34.989  22.952  23.356  1.00  0.00     0.025 C 
ATOM     15  C   UNL A   1      34.582  22.698  27.207  1.00  0.00     0.008 C 
ATOM     16  C   UNL A   1      36.636  22.603  25.779  1.00  0.00     0.006 C 
ATOM     17  C   UNL A   1      36.514  23.072  23.305  1.00  0.00     0.002 C 
ATOM     18  C   UNL A   1      37.196  22.263  24.405  1.00  0.00     0.000 C 
BRANCH  10  19
ATOM     19  C   UNL A   1      32.164  22.751  23.913  1.00  0.00     0.318 C 
ATOM     20  N   UNL A   1      31.692  23.526  22.889  1.00  0.00    -0.338 N 
ATOM     21  H   UNL A   1      31.164  23.042  22.215  1.00  0.00     0.165 HD
ATOM     22  O   UNL A   1      31.931  21.545  23.903  1.00  0.00    -0.249 OA
BRANCH  20  23
ATOM     23  C   UNL A   1      31.846  24.954  22.634  1.00  0.00     0.114 C 
ATOM     24  C   UNL A   1      32.723  25.294  21.449  1.00  0.00     0.027 C 
ENDBRANCH  20  23
ENDBRANCH  10  19
ENDBRANCH   7   9
ENDBRANCH   6   7
ENDBRANCH   5   6
ENDBRANCH   4   5
ENDBRANCH   3   4
ENDBRANCH   2   3
ENDBRANCH   1   2
BRANCH   1  25
ATOM     25  O   UNL A   1      32.982  30.094  25.518  1.00  0.00    -0.376 OA
BRANCH  25  26
ATOM     26  C   UNL A   1      31.813  30.451  26.235  1.00  0.00     0.202 C 
BRANCH  26  27
ATOM     27  C   UNL A   1      31.607  31.891  26.750  1.00  0.00     0.261 C 
BRANCH  27  28
ATOM     28  O   UNL A   1      32.682  32.823  26.535  1.00  0.00    -0.460 OA
BRANCH  28  29
ATOM     29  C   UNL A   1      33.113  33.499  27.638  1.00  0.00     0.338 C 
ATOM     30  O   UNL A   1      32.484  34.324  28.272  1.00  0.00    -0.246 OA
BRANCH  29  31
ATOM     31  C   UNL A   1      34.386  32.901  28.128  1.00  0.00     0.060 A 
ATOM     32  C   UNL A   1      34.344  31.604  28.670  1.00  0.00     0.016 A 
ATOM     33  C   UNL A   1      35.598  33.589  28.074  1.00  0.00     0.016 A 
ATOM     34  C   UNL A   1      35.499  31.003  29.177  1.00  0.00     0.010 A 
ATOM     35  C   UNL A   1      36.749  32.999  28.621  1.00  0.00     0.010 A 
ATOM     36  C   UNL A   1      36.700  31.717  29.204  1.00  0.00    -0.014 A 
BRANCH  36  37
ATOM     37  C   UNL A   1      37.841  31.205  30.011  1.00  0.00     0.031 A 
ATOM     38  C   UNL A   1      38.766  30.190  29.388  1.00  0.00     0.074 A 
ATOM     39  C   UNL A   1      38.076  31.632  31.267  1.00  0.00     0.049 A 
ATOM     40  N   UNL A   1      39.798  29.577  29.905  1.00  0.00    -0.248 NA
ATOM     41  C   UNL A   1      38.483  29.818  27.991  1.00  0.00     0.031 C 
ATOM     42  C   UNL A   1      37.281  32.622  31.988  1.00  0.00     0.029 A 
ATOM     43  N   UNL A   1      39.046  31.257  32.166  1.00  0.00    -0.354 N 
ATOM     44  C   UNL A   1      40.267  28.722  28.914  1.00  0.00     0.074 A 
ATOM     45  C   UNL A   1      39.403  28.892  27.766  1.00  0.00     0.031 C 
ATOM     46  C   UNL A   1      37.773  32.751  33.233  1.00  0.00     0.029 A 
ATOM     47  C   UNL A   1      38.901  31.836  33.406  1.00  0.00     0.049 A 
ATOM     48  H   UNL A   1      39.775  30.634  31.944  1.00  0.00     0.167 HD
ATOM     49  C   UNL A   1      41.327  27.878  28.946  1.00  0.00     0.034 A 
ATOM     50  C   UNL A   1      39.581  31.631  34.553  1.00  0.00     0.034 A 
ATOM     51  C   UNL A   1      42.201  27.713  30.077  1.00  0.00     0.049 A 
ATOM     52  C   UNL A   1      40.737  30.660  34.574  1.00  0.00     0.074 A 
ATOM     53  C   UNL A   1      43.327  26.915  30.184  1.00  0.00     0.029 A 
ATOM     54  N   UNL A   1      42.041  28.339  31.303  1.00  0.00    -0.354 N 
ATOM     55  N   UNL A   1      41.237  29.945  33.596  1.00  0.00    -0.248 NA
ATOM     56  C   UNL A   1      41.442  30.494  35.855  1.00  0.00     0.031 C 
ATOM     57  C   UNL A   1      43.826  27.029  31.486  1.00  0.00     0.029 A 
ATOM     58  C   UNL A   1      43.035  27.931  32.178  1.00  0.00     0.049 A 
ATOM     59  H   UNL A   1      41.325  28.979  31.521  1.00  0.00     0.167 HD
ATOM     60  C   UNL A   1      42.333  29.274  34.133  1.00  0.00     0.074 A 
ATOM     61  C   UNL A   1      42.440  29.691  35.515  1.00  0.00     0.031 C 
ATOM     62  C   UNL A   1      43.165  28.381  33.540  1.00  0.00     0.034 A 
BRANCH  49  63
ATOM     63  C   UNL A   1      41.611  27.067  27.709  1.00  0.00     0.023 A 
ATOM     64  C   UNL A   1      42.144  27.696  26.565  1.00  0.00     0.012 A 
ATOM     65  C   UNL A   1      41.403  25.674  27.699  1.00  0.00     0.148 A 
ATOM     66  C   UNL A   1      42.437  26.955  25.420  1.00  0.00     0.002 A 
ATOM     67  C   UNL A   1      41.741  24.937  26.571  1.00  0.00     0.091 A 
ATOM     68  F   UNL A   1      40.875  25.099  28.788  1.00  0.00    -0.205 F 
ATOM     69  C   UNL A   1      42.245  25.576  25.427  1.00  0.00     0.022 A 
BRANCH  67  70
ATOM     70  S   UNL A   1      41.611  23.146  26.509  1.00  0.00     0.127 S 
ATOM     71  O   UNL A   1      40.166  22.961  26.373  1.00  0.00    -0.237 OA
ATOM     72  O   UNL A   1      42.382  22.823  25.308  1.00  0.00    -0.237 OA
ATOM     73  O   UNL A   1      42.186  22.656  27.753  1.00  0.00    -0.744 OA
ENDBRANCH  67  70
ENDBRANCH  49  63
BRANCH  50  74
ATOM     74  C   UNL A   1      39.202  32.372  35.792  1.00  0.00     0.023 A 
ATOM     75  C   UNL A   1      38.363  31.758  36.743  1.00  0.00     0.012 A 
ATOM     76  C   UNL A   1      39.661  33.682  36.026  1.00  0.00     0.148 A 
ATOM     77  C   UNL A   1      37.959  32.450  37.886  1.00  0.00     0.002 A 
ATOM     78  C   UNL A   1      39.303  34.343  37.196  1.00  0.00     0.091 A 
ATOM     79  F   UNL A   1      40.440  34.258  35.100  1.00  0.00    -0.205 F 
ATOM     80  C   UNL A   1      38.437  33.737  38.118  1.00  0.00     0.022 A 
BRANCH  78  81
ATOM     81  S   UNL A   1      39.970  35.951  37.639  1.00  0.00     0.127 S 
ATOM     82  O   UNL A   1      39.148  36.309  38.792  1.00  0.00    -0.237 OA
ATOM     83  O   UNL A   1      41.361  35.620  37.952  1.00  0.00    -0.237 OA
ATOM     84  O   UNL A   1      39.802  36.786  36.458  1.00  0.00    -0.744 OA
ENDBRANCH  78  81
ENDBRANCH  50  74
BRANCH  62  85
ATOM     85  C   UNL A   1      44.296  27.817  34.368  1.00  0.00     0.023 A 
ATOM     86  C   UNL A   1      45.559  28.443  34.358  1.00  0.00     0.012 A 
ATOM     87  C   UNL A   1      44.094  26.693  35.194  1.00  0.00     0.148 A 
ATOM     88  C   UNL A   1      46.613  27.932  35.115  1.00  0.00     0.002 A 
ATOM     89  C   UNL A   1      45.133  26.220  35.987  1.00  0.00     0.091 A 
ATOM     90  F   UNL A   1      42.892  26.098  35.184  1.00  0.00    -0.205 F 
ATOM     91  C   UNL A   1      46.398  26.828  35.936  1.00  0.00     0.022 A 
BRANCH  89  92
ATOM     92  S   UNL A   1      44.922  24.863  37.146  1.00  0.00     0.127 S 
ATOM     93  O   UNL A   1      46.243  24.793  37.768  1.00  0.00    -0.237 OA
ATOM     94  O   UNL A   1      43.862  25.364  38.022  1.00  0.00    -0.237 OA
ATOM     95  O   UNL A   1      44.545  23.707  36.343  1.00  0.00    -0.744 OA
ENDBRANCH  89  92
ENDBRANCH  62  85
ENDBRANCH  36  37
ENDBRANCH  29  31
ENDBRANCH  28  29
ENDBRANCH  27  28
ENDBRANCH  26  27
ENDBRANCH  25  26
ENDBRANCH   1  25
TORSDOF 22
ENDMDL
MODEL 2
REMARK VINA RESULT:     -10.5      1.332      7.885
REMARK SMILES CCNC(=O)N1[C@@H](C(=O)OCCOCCOCCOC(=O)c2ccc(-c3c4nc(c(-c5cccc(S(=O)(=O)[O-])c5F)c5ccc([nH]5)c(-c5cccc(S(=O)(=O)[O-])c5F)c5nc(c(-c6cccc(S(=O)(=O)[O-])c6F)c6ccc3[nH]6)C=C5)C=C4)cc2)CC[C@@H]2CCCC[C@H]21
REMARK SMILES IDX 15 1 14 2 13 3 12 4 11 5 10 6 8 7 9 8 7 9 6 10 92 11 85 12
REMARK SMILES IDX 87 13 91 14 86 15 88 16 90 17 89 18 4 19 3 20 5 22 2 23 1 24
REMARK SMILES IDX 16 25 17 26 18 27 19 28 20 29 21 30 22 31 23 32 84 33 24 34
REMARK SMILES IDX 83 35 25 36 26 37 27 38 77 39 28 40 82 41 76 42 78 43 29 44
REMARK SMILES IDX 81 45 75 46 74 47 30 49 62 50 42 51 61 52 43 53 46 54 60 55
REMARK SMILES IDX 79 56 44 57 45 58 59 60 80 61 47 62 31 63 32 64 40 65 33 66
REMARK SMILES IDX 35 67 41 68 34 69 36 70 37 71 38 72 39 73 63 74 64 75 72 76
REMARK SMILES IDX 65 77 67 78 73 79 66 80 68 81 69 82 70 83 71 84 48 85 49 86
REMARK SMILES IDX 57 87 50 88 52 89 58 90 51 91 53 92 54 93 55 94 56 95
REMARK H PARENT 3 21 78 48 46 59
REMARK Flexibility Score: inf
ROOT
ATOM      1  C   UNL A   1      33.168  29.049  26.271  1.00  0.00     0.188 C 
ENDROOT
BRANCH   1   2
ATOM      2  C   UNL A   1      32.246  28.247  27.193  1.00  0.00     0.188 C 
BRANCH   2   3
ATOM      3  O   UNL A   1      31.014  27.829  26.662  1.00  0.00    -0.376 OA
BRANCH   3   4
ATOM      4  C   UNL A   1      30.917  26.735  25.771  1.00  0.00     0.202 C 
BRANCH   4   5
ATOM      5  C   UNL A   1      30.562  25.280  26.131  1.00  0.00     0.261 C 
BRANCH   5   6
ATOM      6  O   UNL A   1      31.505  24.457  26.832  1.00  0.00    -0.462 OA
BRANCH   6   7
ATOM      7  C   UNL A   1      32.597  24.096  26.097  1.00  0.00     0.329 C 
ATOM      8  O   UNL A   1      33.649  24.729  26.089  1.00  0.00    -0.250 OA
BRANCH   7   9
ATOM      9  C   UNL A   1      32.401  22.836  25.242  1.00  0.00     0.197 C 
ATOM     10  N   UNL A   1      32.748  21.534  25.853  1.00  0.00    -0.308 N 
ATOM     11  C   UNL A   1      32.408  20.351  25.025  1.00  0.00     0.091 C 
ATOM     12  C   UNL A   1      32.909  22.961  23.800  1.00  0.00     0.038 C 
ATOM     13  C   UNL A   1      32.793  20.501  23.530  1.00  0.00     0.012 C 
ATOM     14  C   UNL A   1      32.951  19.002  25.538  1.00  0.00     0.025 C 
ATOM     15  C   UNL A   1      32.324  21.834  22.960  1.00  0.00     0.008 C 
ATOM     16  C   UNL A   1      32.208  19.347  22.704  1.00  0.00     0.006 C 
ATOM     17  C   UNL A   1      32.433  17.828  24.704  1.00  0.00     0.002 C 
ATOM     18  C   UNL A   1      32.716  18.006  23.214  1.00  0.00     0.000 C 
BRANCH  10  19
ATOM     19  C   UNL A   1      33.776  21.482  26.764  1.00  0.00     0.318 C 
ATOM     20  N   UNL A   1      35.048  21.601  26.276  1.00  0.00    -0.338 N 
ATOM     21  H   UNL A   1      35.755  21.599  26.960  1.00  0.00     0.165 HD
ATOM     22  O   UNL A   1      33.608  21.415  27.979  1.00  0.00    -0.249 OA
BRANCH  20  23
ATOM     23  C   UNL A   1      35.528  21.730  24.905  1.00  0.00     0.114 C 
ATOM     24  C   UNL A   1      36.877  21.097  24.643  1.00  0.00     0.027 C 
ENDBRANCH  20  23
ENDBRANCH  10  19
ENDBRANCH   7   9
ENDBRANCH   6   7
ENDBRANCH   5   6
ENDBRANCH   4   5
ENDBRANCH   3   4
ENDBRANCH   2   3
ENDBRANCH   1   2
BRANCH   1  25
ATOM     25  O   UNL A   1      33.030  30.445  26.122  1.00  0.00    -0.376 OA
BRANCH  25  26
ATOM     26  C   UNL A   1      31.778  31.022  26.452  1.00  0.00     0.202 C 
BRANCH  26  27
ATOM     27  C   UNL A   1      31.677  32.492  26.909  1.00  0.00     0.261 C 
BRANCH  27  28
ATOM     28  O   UNL A   1      32.862  33.300  26.781  1.00  0.00    -0.460 OA
BRANCH  28  29
ATOM     29  C   UNL A   1      33.374  33.792  27.944  1.00  0.00     0.338 C 
ATOM     30  O   UNL A   1      32.836  34.583  28.694  1.00  0.00    -0.246 OA
BRANCH  29  31
ATOM     31  C   UNL A   1      34.599  33.029  28.316  1.00  0.00     0.060 A 
ATOM     32  C   UNL A   1      34.444  31.707  28.769  1.00  0.00     0.016 A 
ATOM     33  C   UNL A   1      35.874  33.588  28.237  1.00  0.00     0.016 A 
ATOM     34  C   UNL A   1      35.551  30.952  29.165  1.00  0.00     0.010 A 
ATOM     35  C   UNL A   1      36.981  32.842  28.673  1.00  0.00     0.010 A 
ATOM     36  C   UNL A   1      36.822  31.533  29.169  1.00  0.00    -0.014 A 
BRANCH  36  37
ATOM     37  C   UNL A   1      37.941  30.845  29.870  1.00  0.00     0.031 A 
ATOM     38  C   UNL A   1      38.219  31.205  31.308  1.00  0.00     0.074 A 
ATOM     39  C   UNL A   1      38.694  29.907  29.264  1.00  0.00     0.049 A 
ATOM     40  N   UNL A   1      39.157  30.768  32.108  1.00  0.00    -0.248 NA
ATOM     41  C   UNL A   1      37.315  32.191  31.923  1.00  0.00     0.031 C 
ATOM     42  C   UNL A   1      38.527  29.444  27.889  1.00  0.00     0.029 A 
ATOM     43  N   UNL A   1      39.773  29.196  29.732  1.00  0.00    -0.354 N 
ATOM     44  C   UNL A   1      38.980  31.451  33.306  1.00  0.00     0.074 A 
ATOM     45  C   UNL A   1      37.849  32.334  33.126  1.00  0.00     0.031 C 
ATOM     46  C   UNL A   1      39.494  28.551  27.611  1.00  0.00     0.029 A 
ATOM     47  C   UNL A   1      40.362  28.398  28.779  1.00  0.00     0.049 A 
ATOM     48  H   UNL A   1      40.095  29.252  30.661  1.00  0.00     0.167 HD
ATOM     49  C   UNL A   1      39.686  31.348  34.459  1.00  0.00     0.034 A 
ATOM     50  C   UNL A   1      41.486  27.652  28.831  1.00  0.00     0.034 A 
ATOM     51  C   UNL A   1      40.802  30.462  34.653  1.00  0.00     0.049 A 
ATOM     52  C   UNL A   1      42.275  27.580  30.117  1.00  0.00     0.074 A 
ATOM     53  C   UNL A   1      41.548  30.258  35.801  1.00  0.00     0.029 A 
ATOM     54  N   UNL A   1      41.350  29.648  33.675  1.00  0.00    -0.354 N 
ATOM     55  N   UNL A   1      42.028  28.144  31.274  1.00  0.00    -0.248 NA
ATOM     56  C   UNL A   1      43.482  26.739  30.109  1.00  0.00     0.031 C 
ATOM     57  C   UNL A   1      42.569  29.348  35.506  1.00  0.00     0.029 A 
ATOM     58  C   UNL A   1      42.434  28.953  34.186  1.00  0.00     0.049 A 
ATOM     59  H   UNL A   1      41.017  29.573  32.750  1.00  0.00     0.167 HD
ATOM     60  C   UNL A   1      43.026  27.699  32.138  1.00  0.00     0.074 A 
ATOM     61  C   UNL A   1      43.864  26.797  31.377  1.00  0.00     0.031 C 
ATOM     62  C   UNL A   1      43.239  28.022  33.439  1.00  0.00     0.034 A 
BRANCH  49  63
ATOM     63  C   UNL A   1      39.262  32.215  35.616  1.00  0.00     0.023 A 
ATOM     64  C   UNL A   1      38.409  31.691  36.610  1.00  0.00     0.012 A 
ATOM     65  C   UNL A   1      39.753  33.529  35.748  1.00  0.00     0.148 A 
ATOM     66  C   UNL A   1      38.028  32.472  37.700  1.00  0.00     0.002 A 
ATOM     67  C   UNL A   1      39.406  34.283  36.862  1.00  0.00     0.091 A 
ATOM     68  F   UNL A   1      40.544  34.015  34.782  1.00  0.00    -0.205 F 
ATOM     69  C   UNL A   1      38.534  33.763  37.831  1.00  0.00     0.022 A 
BRANCH  67  70
ATOM     70  S   UNL A   1      40.071  35.925  37.165  1.00  0.00     0.127 S 
ATOM     71  O   UNL A   1      39.371  36.304  38.391  1.00  0.00    -0.237 OA
ATOM     72  O   UNL A   1      41.498  35.651  37.337  1.00  0.00    -0.237 OA
ATOM     73  O   UNL A   1      39.740  36.718  35.989  1.00  0.00    -0.744 OA
ENDBRANCH  67  70
ENDBRANCH  49  63
BRANCH  50  74
ATOM     74  C   UNL A   1      41.939  26.891  27.630  1.00  0.00     0.023 A 
ATOM     75  C   UNL A   1      42.572  27.570  26.571  1.00  0.00     0.012 A 
ATOM     76  C   UNL A   1      41.736  25.501  27.530  1.00  0.00     0.148 A 
ATOM     77  C   UNL A   1      42.961  26.886  25.419  1.00  0.00     0.002 A 
ATOM     78  C   UNL A   1      42.181  24.816  26.406  1.00  0.00     0.091 A 
ATOM     79  F   UNL A   1      41.112  24.876  28.538  1.00  0.00    -0.205 F 
ATOM     80  C   UNL A   1      42.775  25.508  25.340  1.00  0.00     0.022 A 
BRANCH  78  81
ATOM     81  S   UNL A   1      42.099  23.026  26.271  1.00  0.00     0.127 S 
ATOM     82  O   UNL A   1      42.684  22.797  24.953  1.00  0.00    -0.237 OA
ATOM     83  O   UNL A   1      42.932  22.604  27.398  1.00  0.00    -0.237 OA
ATOM     84  O   UNL A   1      40.690  22.684  26.405  1.00  0.00    -0.744 OA
ENDBRANCH  78  81
ENDBRANCH  50  74
BRANCH  62  85
ATOM     85  C   UNL A   1      44.404  27.367  34.143  1.00  0.00     0.023 A 
ATOM     86  C   UNL A   1      45.663  28.003  34.167  1.00  0.00     0.012 A 
ATOM     87  C   UNL A   1      44.242  26.142  34.821  1.00  0.00     0.148 A 
ATOM     88  C   UNL A   1      46.749  27.409  34.810  1.00  0.00     0.002 A 
ATOM     89  C   UNL A   1      45.314  25.581  35.505  1.00  0.00     0.091 A 
ATOM     90  F   UNL A   1      43.044  25.541  34.778  1.00  0.00    -0.205 F 
ATOM     91  C   UNL A   1      46.573  26.204  35.486  1.00  0.00     0.022 A 
BRANCH  89  92
ATOM     92  S   UNL A   1      45.157  24.081  36.482  1.00  0.00     0.127 S 
ATOM     93  O   UNL A   1      46.555  23.688  36.653  1.00  0.00    -0.237 OA
ATOM     94  O   UNL A   1      44.508  24.571  37.700  1.00  0.00    -0.237 OA
ATOM     95  O   UNL A   1      44.342  23.172  35.689  1.00  0.00    -0.744 OA
ENDBRANCH  89  92
ENDBRANCH  62  85
ENDBRANCH  36  37
ENDBRANCH  29  31
ENDBRANCH  28  29
ENDBRANCH  27  28
ENDBRANCH  26  27
ENDBRANCH  25  26
ENDBRANCH   1  25
TORSDOF 22
ENDMDL
MODEL 3
REMARK VINA RESULT:     -10.3      1.716      7.573
REMARK SMILES CCNC(=O)N1[C@@H](C(=O)OCCOCCOCCOC(=O)c2ccc(-c3c4nc(c(-c5cccc(S(=O)(=O)[O-])c5F)c5ccc([nH]5)c(-c5cccc(S(=O)(=O)[O-])c5F)c5nc(c(-c6cccc(S(=O)(=O)[O-])c6F)c6ccc3[nH]6)C=C5)C=C4)cc2)CC[C@@H]2CCCC[C@H]21
REMARK SMILES IDX 15 1 14 2 13 3 12 4 11 5 10 6 8 7 9 8 7 9 6 10 92 11 85 12
REMARK SMILES IDX 87 13 91 14 86 15 88 16 90 17 89 18 4 19 3 20 5 22 2 23 1 24
REMARK SMILES IDX 16 25 17 26 18 27 19 28 20 29 21 30 22 31 23 32 84 33 24 34
REMARK SMILES IDX 83 35 25 36 26 37 27 38 77 39 28 40 82 41 76 42 78 43 29 44
REMARK SMILES IDX 81 45 75 46 74 47 30 49 62 50 42 51 61 52 43 53 46 54 60 55
REMARK SMILES IDX 79 56 44 57 45 58 59 60 80 61 47 62 31 63 32 64 40 65 33 66
REMARK SMILES IDX 35 67 41 68 34 69 36 70 37 71 38 72 39 73 63 74 64 75 72 76
REMARK SMILES IDX 65 77 67 78 73 79 66 80 68 81 69 82 70 83 71 84 48 85 49 86
REMARK SMILES IDX 57 87 50 88 52 89 58 90 51 91 53 92 54 93 55 94 56 95
REMARK H PARENT 3 21 78 48 46 59
REMARK Flexibility Score: inf
ROOT
ATOM      1  C   UNL A   1      31.881  30.261  26.357  1.00  0.00     0.188 C 
ENDROOT
BRANCH   1   2
ATOM      2  C   UNL A   1      31.410  29.783  24.982  1.00  0.00     0.188 C 
BRANCH   2   3
ATOM      3  O   UNL A   1      31.121  28.415  24.844  1.00  0.00    -0.376 OA
BRANCH   3   4
ATOM      4  C   UNL A   1      31.907  27.418  25.468  1.00  0.00     0.202 C 
BRANCH   4   5
ATOM      5  C   UNL A   1      31.433  26.381  26.502  1.00  0.00     0.261 C 
BRANCH   5   6
ATOM      6  O   UNL A   1      30.549  25.321  26.109  1.00  0.00    -0.462 OA
BRANCH   6   7
ATOM      7  C   UNL A   1      30.952  24.076  26.494  1.00  0.00     0.329 C 
ATOM      8  O   UNL A   1      30.205  23.249  27.009  1.00  0.00    -0.250 OA
BRANCH   7   9
ATOM      9  C   UNL A   1      32.442  23.789  26.263  1.00  0.00     0.197 C 
ATOM     10  N   UNL A   1      32.885  23.549  24.871  1.00  0.00    -0.308 N 
ATOM     11  C   UNL A   1      34.353  23.414  24.703  1.00  0.00     0.091 C 
ATOM     12  C   UNL A   1      33.060  22.794  27.254  1.00  0.00     0.038 C 
ATOM     13  C   UNL A   1      35.026  22.515  25.773  1.00  0.00     0.012 C 
ATOM     14  C   UNL A   1      34.822  22.952  23.308  1.00  0.00     0.025 C 
ATOM     15  C   UNL A   1      34.578  22.886  27.181  1.00  0.00     0.008 C 
ATOM     16  C   UNL A   1      36.555  22.610  25.672  1.00  0.00     0.006 C 
ATOM     17  C   UNL A   1      36.348  22.979  23.186  1.00  0.00     0.002 C 
ATOM     18  C   UNL A   1      37.032  22.179  24.291  1.00  0.00     0.000 C 
BRANCH  10  19
ATOM     19  C   UNL A   1      32.018  22.940  23.995  1.00  0.00     0.318 C 
ATOM     20  N   UNL A   1      31.465  23.724  23.020  1.00  0.00    -0.338 N 
ATOM     21  H   UNL A   1      30.882  23.246  22.388  1.00  0.00     0.165 HD
ATOM     22  O   UNL A   1      31.784  21.735  23.996  1.00  0.00    -0.249 OA
BRANCH  20  23
ATOM     23  C   UNL A   1      31.599  25.154  22.764  1.00  0.00     0.114 C 
ATOM     24  C   UNL A   1      32.414  25.504  21.539  1.00  0.00     0.027 C 
ENDBRANCH  20  23
ENDBRANCH  10  19
ENDBRANCH   7   9
ENDBRANCH   6   7
ENDBRANCH   5   6
ENDBRANCH   4   5
ENDBRANCH   3   4
ENDBRANCH   2   3
ENDBRANCH   1   2
BRANCH   1  25
ATOM     25  O   UNL A   1      33.246  30.489  26.633  1.00  0.00    -0.376 OA
BRANCH  25  26
ATOM     26  C   UNL A   1      33.573  31.572  27.487  1.00  0.00     0.202 C 
BRANCH  26  27
ATOM     27  C   UNL A   1      32.678  32.827  27.555  1.00  0.00     0.261 C 
BRANCH  27  28
ATOM     28  O   UNL A   1      33.342  34.101  27.639  1.00  0.00    -0.460 OA
BRANCH  28  29
ATOM     29  C   UNL A   1      33.380  34.670  28.877  1.00  0.00     0.338 C 
ATOM     30  O   UNL A   1      32.530  35.384  29.371  1.00  0.00    -0.246 OA
BRANCH  29  31
ATOM     31  C   UNL A   1      34.506  34.091  29.662  1.00  0.00     0.060 A 
ATOM     32  C   UNL A   1      35.817  34.304  29.198  1.00  0.00     0.016 A 
ATOM     33  C   UNL A   1      34.296  33.343  30.821  1.00  0.00     0.016 A 
ATOM     34  C   UNL A   1      36.912  33.758  29.871  1.00  0.00     0.010 A 
ATOM     35  C   UNL A   1      35.395  32.762  31.473  1.00  0.00     0.010 A 
ATOM     36  C   UNL A   1      36.705  32.938  30.984  1.00  0.00    -0.014 A 
BRANCH  36  37
ATOM     37  C   UNL A   1      37.829  32.116  31.510  1.00  0.00     0.031 A 
ATOM     38  C   UNL A   1      38.442  32.497  32.834  1.00  0.00     0.074 A 
ATOM     39  C   UNL A   1      38.300  31.042  30.847  1.00  0.00     0.049 A 
ATOM     40  N   UNL A   1      39.448  31.957  33.471  1.00  0.00    -0.248 NA
ATOM     41  C   UNL A   1      37.834  33.644  33.531  1.00  0.00     0.031 C 
ATOM     42  C   UNL A   1      37.793  30.545  29.570  1.00  0.00     0.029 A 
ATOM     43  N   UNL A   1      39.336  30.192  31.153  1.00  0.00    -0.354 N 
ATOM     44  C   UNL A   1      39.619  32.716  34.623  1.00  0.00     0.074 A 
ATOM     45  C   UNL A   1      38.615  33.758  34.594  1.00  0.00     0.031 C 
ATOM     46  C   UNL A   1      38.543  29.497  29.183  1.00  0.00     0.029 A 
ATOM     47  C   UNL A   1      39.597  29.265  30.171  1.00  0.00     0.049 A 
ATOM     48  H   UNL A   1      39.843  30.242  31.996  1.00  0.00     0.167 HD
ATOM     49  C   UNL A   1      40.520  32.560  35.623  1.00  0.00     0.034 A 
ATOM     50  C   UNL A   1      40.587  28.354  30.066  1.00  0.00     0.034 A 
ATOM     51  C   UNL A   1      41.511  31.518  35.668  1.00  0.00     0.049 A 
ATOM     52  C   UNL A   1      41.601  28.221  31.177  1.00  0.00     0.074 A 
ATOM     53  C   UNL A   1      42.435  31.254  36.665  1.00  0.00     0.029 A 
ATOM     54  N   UNL A   1      41.725  30.581  34.671  1.00  0.00    -0.354 N 
ATOM     55  N   UNL A   1      41.678  28.873  32.312  1.00  0.00    -0.248 NA
ATOM     56  C   UNL A   1      42.646  27.199  31.004  1.00  0.00     0.031 C 
ATOM     57  C   UNL A   1      43.232  30.181  36.253  1.00  0.00     0.029 A 
ATOM     58  C   UNL A   1      42.777  29.748  35.018  1.00  0.00     0.049 A 
ATOM     59  H   UNL A   1      41.205  30.515  33.837  1.00  0.00     0.167 HD
ATOM     60  C   UNL A   1      42.754  28.318  33.001  1.00  0.00     0.074 A 
ATOM     61  C   UNL A   1      43.280  27.258  32.167  1.00  0.00     0.031 C 
ATOM     62  C   UNL A   1      43.270  28.666  34.207  1.00  0.00     0.034 A 
BRANCH  49  63
ATOM     63  C   UNL A   1      40.469  33.538  36.767  1.00  0.00     0.023 A 
ATOM     64  C   UNL A   1      41.111  34.788  36.651  1.00  0.00     0.012 A 
ATOM     65  C   UNL A   1      39.739  33.241  37.936  1.00  0.00     0.148 A 
ATOM     66  C   UNL A   1      41.052  35.715  37.691  1.00  0.00     0.002 A 
ATOM     67  C   UNL A   1      39.647  34.189  38.948  1.00  0.00     0.091 A 
ATOM     68  F   UNL A   1      39.156  32.039  38.036  1.00  0.00    -0.205 F 
ATOM     69  C   UNL A   1      40.313  35.420  38.834  1.00  0.00     0.022 A 
BRANCH  67  70
ATOM     70  S   UNL A   1      38.652  33.937  40.422  1.00  0.00     0.127 S 
ATOM     71  O   UNL A   1      37.350  33.604  39.844  1.00  0.00    -0.237 OA
ATOM     72  O   UNL A   1      39.337  32.816  41.067  1.00  0.00    -0.237 OA
ATOM     73  O   UNL A   1      38.702  35.190  41.162  1.00  0.00    -0.744 OA
ENDBRANCH  67  70
ENDBRANCH  49  63
BRANCH  50  74
ATOM     74  C   UNL A   1      40.673  27.473  28.864  1.00  0.00     0.023 A 
ATOM     75  C   UNL A   1      39.756  26.414  28.709  1.00  0.00     0.012 A 
ATOM     76  C   UNL A   1      41.662  27.673  27.883  1.00  0.00     0.148 A 
ATOM     77  C   UNL A   1      39.847  25.550  27.617  1.00  0.00     0.002 A 
ATOM     78  C   UNL A   1      41.709  26.846  26.768  1.00  0.00     0.091 A 
ATOM     79  F   UNL A   1      42.539  28.672  28.060  1.00  0.00    -0.205 F 
ATOM     80  C   UNL A   1      40.816  25.772  26.642  1.00  0.00     0.022 A 
BRANCH  78  81
ATOM     81  S   UNL A   1      42.840  27.131  25.401  1.00  0.00     0.127 S 
ATOM     82  O   UNL A   1      42.689  25.902  24.626  1.00  0.00    -0.237 OA
ATOM     83  O   UNL A   1      42.263  28.325  24.782  1.00  0.00    -0.237 OA
ATOM     84  O   UNL A   1      44.147  27.340  26.007  1.00  0.00    -0.744 OA
ENDBRANCH  78  81
ENDBRANCH  50  74
BRANCH  62  85
ATOM     85  C   UNL A   1      44.445  27.870  34.723  1.00  0.00     0.023 A 
ATOM     86  C   UNL A   1      45.761  28.326  34.499  1.00  0.00     0.012 A 
ATOM     87  C   UNL A   1      44.245  26.692  35.472  1.00  0.00     0.148 A 
ATOM     88  C   UNL A   1      46.856  27.599  34.967  1.00  0.00     0.002 A 
ATOM     89  C   UNL A   1      45.340  26.001  35.981  1.00  0.00     0.091 A 
ATOM     90  F   UNL A   1      42.991  26.262  35.665  1.00  0.00    -0.205 F 
ATOM     91  C   UNL A   1      46.645  26.444  35.715  1.00  0.00     0.022 A 
BRANCH  89  92
ATOM     92  S   UNL A   1      45.162  24.557  37.035  1.00  0.00     0.127 S 
ATOM     93  O   UNL A   1      44.566  23.588  36.116  1.00  0.00    -0.237 OA
ATOM     94  O   UNL A   1      46.549  24.270  37.406  1.00  0.00    -0.237 OA
ATOM     95  O   UNL A   1      44.315  24.973  38.144  1.00  0.00    -0.744 OA
ENDBRANCH  89  92
ENDBRANCH  62  85
ENDBRANCH  36  37
ENDBRANCH  29  31
ENDBRANCH  28  29
ENDBRANCH  27  28
ENDBRANCH  26  27
ENDBRANCH  25  26
ENDBRANCH   1  25
TORSDOF 22
ENDMDL
