MODEL 1
REMARK VINA RESULT:      -8.9      0.000      0.000
REMARK SMILES COc1ccc(OC)c([C@@](C)(O)[C@H](F)C(=O)OCCOCCOCCOC(=O)c2ccc(-c3c4nc(c(-c5cccc(S(=O)(=O)[O-])c5F)c5ccc([nH]5)c(-c5cccc(S(=O)(=O)[O-])c5F)c5nc(c(-c6cccc(S(=O)(=O)[O-])c6F)c6ccc3[nH]6)C=C5)C=C4)cc2)c1
REMARK SMILES IDX 21 1 20 2 19 3 18 4 17 5 15 6 16 7 13 8 14 9 10 10 11 11
REMARK SMILES IDX 9 12 3 13 4 14 92 15 5 16 6 17 2 18 1 19 7 20 8 21 12 22
REMARK SMILES IDX 22 24 23 25 24 26 25 27 26 28 27 29 28 30 29 31 30 32 91 33
REMARK SMILES IDX 31 34 90 35 32 36 33 37 34 38 84 39 35 40 89 41 83 42 85 43
REMARK SMILES IDX 36 44 88 45 82 46 81 47 37 49 69 50 49 51 68 52 50 53 53 54
REMARK SMILES IDX 67 55 86 56 51 57 52 58 66 60 87 61 54 62 38 63 39 64 47 65
REMARK SMILES IDX 40 66 42 67 48 68 41 69 43 70 44 71 45 72 46 73 70 74 71 75
REMARK SMILES IDX 79 76 72 77 74 78 80 79 73 80 75 81 76 82 77 83 78 84 55 85
REMARK SMILES IDX 56 86 64 87 57 88 59 89 65 90 58 91 60 92 61 93 62 94 63 95
REMARK H PARENT 12 23 85 48 53 59
REMARK Flexibility Score: inf
ROOT
ATOM      1  C   UNL A   1      41.602  21.434  26.774  1.00  0.00     0.188 C 
ENDROOT
BRANCH   1   2
ATOM      2  O   UNL A   1      40.739  22.380  26.169  1.00  0.00    -0.376 OA
BRANCH   2   3
ATOM      3  C   UNL A   1      39.356  22.414  26.495  1.00  0.00     0.202 C 
BRANCH   3   4
ATOM      4  C   UNL A   1      38.453  23.598  26.129  1.00  0.00     0.261 C 
BRANCH   4   5
ATOM      5  O   UNL A   1      37.415  23.282  25.195  1.00  0.00    -0.461 OA
BRANCH   5   6
ATOM      6  C   UNL A   1      36.165  23.710  25.516  1.00  0.00     0.344 C 
ATOM      7  O   UNL A   1      35.914  24.502  26.415  1.00  0.00    -0.249 OA
BRANCH   6   8
ATOM      8  C   UNL A   1      35.113  23.109  24.595  1.00  0.00     0.311 C 
ATOM      9  F   UNL A   1      35.664  22.272  23.650  1.00  0.00    -0.231 F 
BRANCH   8  10
ATOM     10  C   UNL A   1      34.089  22.268  25.376  1.00  0.00     0.133 C 
ATOM     11  C   UNL A   1      33.072  23.290  25.944  1.00  0.00     0.051 C 
BRANCH  10  12
ATOM     12  C   UNL A   1      33.449  21.089  24.635  1.00  0.00     0.033 A 
ATOM     13  C   UNL A   1      33.281  18.655  24.253  1.00  0.00     0.119 A 
ATOM     14  C   UNL A   1      32.517  18.891  23.117  1.00  0.00     0.050 A 
ATOM     15  C   UNL A   1      33.724  19.743  25.013  1.00  0.00     0.057 A 
ATOM     16  C   UNL A   1      32.152  20.190  22.776  1.00  0.00     0.050 A 
ATOM     17  C   UNL A   1      32.583  21.278  23.541  1.00  0.00     0.125 A 
BRANCH  13  18
ATOM     18  O   UNL A   1      33.600  17.344  24.463  1.00  0.00    -0.497 OA
ATOM     19  C   UNL A   1      34.020  16.574  23.343  1.00  0.00     0.278 C 
ENDBRANCH  13  18
BRANCH  17  20
ATOM     20  O   UNL A   1      32.193  22.499  23.053  1.00  0.00    -0.496 OA
ATOM     21  C   UNL A   1      32.890  22.911  21.874  1.00  0.00     0.278 C 
ENDBRANCH  17  20
ENDBRANCH  10  12
BRANCH  10  22
ATOM     22  O   UNL A   1      34.821  21.683  26.479  1.00  0.00    -0.382 OA
ATOM     23  H   UNL A   1      35.344  20.932  26.159  1.00  0.00     0.212 HD
ENDBRANCH  10  22
ENDBRANCH   8  10
ENDBRANCH   6   8
ENDBRANCH   5   6
ENDBRANCH   4   5
ENDBRANCH   3   4
ENDBRANCH   2   3
ENDBRANCH   1   2
BRANCH   1  24
ATOM     24  C   UNL A   1      41.231  19.942  26.733  1.00  0.00     0.188 C 
BRANCH  24  25
ATOM     25  O   UNL A   1      41.977  19.126  25.868  1.00  0.00    -0.376 OA
BRANCH  25  26
ATOM     26  C   UNL A   1      42.984  18.287  26.408  1.00  0.00     0.202 C 
BRANCH  26  27
ATOM     27  C   UNL A   1      44.281  17.841  25.686  1.00  0.00     0.261 C 
BRANCH  27  28
ATOM     28  O   UNL A   1      45.246  18.831  25.306  1.00  0.00    -0.460 OA
BRANCH  28  29
ATOM     29  C   UNL A   1      44.904  19.637  24.265  1.00  0.00     0.338 C 
ATOM     30  O   UNL A   1      44.551  19.289  23.155  1.00  0.00    -0.246 OA
BRANCH  29  31
ATOM     31  C   UNL A   1      44.782  21.027  24.771  1.00  0.00     0.060 A 
ATOM     32  C   UNL A   1      44.208  22.003  23.938  1.00  0.00     0.016 A 
ATOM     33  C   UNL A   1      45.220  21.366  26.049  1.00  0.00     0.016 A 
ATOM     34  C   UNL A   1      44.090  23.324  24.375  1.00  0.00     0.010 A 
ATOM     35  C   UNL A   1      45.131  22.697  26.473  1.00  0.00     0.010 A 
ATOM     36  C   UNL A   1      44.593  23.689  25.628  1.00  0.00    -0.014 A 
BRANCH  36  37
ATOM     37  C   UNL A   1      44.753  25.122  25.980  1.00  0.00     0.031 A 
ATOM     38  C   UNL A   1      46.137  25.715  25.926  1.00  0.00     0.074 A 
ATOM     39  C   UNL A   1      43.712  25.881  26.368  1.00  0.00     0.049 A 
ATOM     40  N   UNL A   1      46.543  26.907  26.274  1.00  0.00    -0.248 NA
ATOM     41  C   UNL A   1      47.208  24.839  25.419  1.00  0.00     0.031 C 
ATOM     42  C   UNL A   1      42.321  25.437  26.452  1.00  0.00     0.029 A 
ATOM     43  N   UNL A   1      43.675  27.185  26.807  1.00  0.00    -0.354 N 
ATOM     44  C   UNL A   1      47.920  26.909  26.079  1.00  0.00     0.074 A 
ATOM     45  C   UNL A   1      48.279  25.604  25.570  1.00  0.00     0.031 C 
ATOM     46  C   UNL A   1      41.575  26.437  26.957  1.00  0.00     0.029 A 
ATOM     47  C   UNL A   1      42.438  27.578  27.261  1.00  0.00     0.049 A 
ATOM     48  H   UNL A   1      44.460  27.780  26.795  1.00  0.00     0.167 HD
ATOM     49  C   UNL A   1      48.807  27.905  26.305  1.00  0.00     0.034 A 
ATOM     50  C   UNL A   1      42.056  28.710  27.888  1.00  0.00     0.034 A 
ATOM     51  C   UNL A   1      48.450  29.211  26.788  1.00  0.00     0.049 A 
ATOM     52  C   UNL A   1      43.074  29.797  28.146  1.00  0.00     0.074 A 
ATOM     53  C   UNL A   1      49.272  30.308  26.973  1.00  0.00     0.029 A 
ATOM     54  N   UNL A   1      47.179  29.589  27.186  1.00  0.00    -0.354 N 
ATOM     55  N   UNL A   1      44.345  29.834  27.828  1.00  0.00    -0.248 NA
ATOM     56  C   UNL A   1      42.595  31.013  28.825  1.00  0.00     0.031 C 
ATOM     57  C   UNL A   1      48.507  31.336  27.530  1.00  0.00     0.029 A 
ATOM     58  C   UNL A   1      47.198  30.896  27.641  1.00  0.00     0.049 A 
ATOM     59  H   UNL A   1      46.381  29.014  27.150  1.00  0.00     0.167 HD
ATOM     60  C   UNL A   1      44.803  31.087  28.225  1.00  0.00     0.074 A 
ATOM     61  C   UNL A   1      43.670  31.787  28.789  1.00  0.00     0.031 C 
ATOM     62  C   UNL A   1      46.052  31.608  28.142  1.00  0.00     0.034 A 
BRANCH  49  63
ATOM     63  C   UNL A   1      50.262  27.631  26.042  1.00  0.00     0.023 A 
ATOM     64  C   UNL A   1      51.096  27.171  27.080  1.00  0.00     0.012 A 
ATOM     65  C   UNL A   1      50.778  27.744  24.736  1.00  0.00     0.148 A 
ATOM     66  C   UNL A   1      52.427  26.847  26.827  1.00  0.00     0.002 A 
ATOM     67  C   UNL A   1      52.091  27.371  24.481  1.00  0.00     0.091 A 
ATOM     68  F   UNL A   1      49.972  28.205  23.769  1.00  0.00    -0.205 F 
ATOM     69  C   UNL A   1      52.921  26.932  25.526  1.00  0.00     0.022 A 
BRANCH  67  70
ATOM     70  S   UNL A   1      52.792  27.364  22.828  1.00  0.00     0.127 S 
ATOM     71  O   UNL A   1      53.100  28.779  22.632  1.00  0.00    -0.237 OA
ATOM     72  O   UNL A   1      53.963  26.503  22.998  1.00  0.00    -0.237 OA
ATOM     73  O   UNL A   1      51.760  26.826  21.953  1.00  0.00    -0.744 OA
ENDBRANCH  67  70
ENDBRANCH  49  63
BRANCH  50  74
ATOM     74  C   UNL A   1      40.642  28.896  28.330  1.00  0.00     0.023 A 
ATOM     75  C   UNL A   1      39.670  29.323  27.404  1.00  0.00     0.012 A 
ATOM     76  C   UNL A   1      40.266  28.691  29.671  1.00  0.00     0.148 A 
ATOM     77  C   UNL A   1      38.363  29.589  27.815  1.00  0.00     0.002 A 
ATOM     78  C   UNL A   1      38.948  28.901  30.062  1.00  0.00     0.091 A 
ATOM     79  F   UNL A   1      41.207  28.306  30.544  1.00  0.00    -0.205 F 
ATOM     80  C   UNL A   1      38.000  29.371  29.141  1.00  0.00     0.022 A 
BRANCH  78  81
ATOM     81  S   UNL A   1      38.366  28.529  31.719  1.00  0.00     0.127 S 
ATOM     82  O   UNL A   1      36.974  28.965  31.652  1.00  0.00    -0.237 OA
ATOM     83  O   UNL A   1      38.556  27.079  31.785  1.00  0.00    -0.237 OA
ATOM     84  O   UNL A   1      39.227  29.288  32.615  1.00  0.00    -0.744 OA
ENDBRANCH  78  81
ENDBRANCH  50  74
BRANCH  62  85
ATOM     85  C   UNL A   1      46.263  33.027  28.606  1.00  0.00     0.023 A 
ATOM     86  C   UNL A   1      46.824  33.286  29.872  1.00  0.00     0.012 A 
ATOM     87  C   UNL A   1      45.976  34.106  27.745  1.00  0.00     0.148 A 
ATOM     88  C   UNL A   1      47.061  34.597  30.287  1.00  0.00     0.002 A 
ATOM     89  C   UNL A   1      46.266  35.405  28.144  1.00  0.00     0.091 A 
ATOM     90  F   UNL A   1      45.429  33.842  26.549  1.00  0.00    -0.205 F 
ATOM     91  C   UNL A   1      46.793  35.654  29.420  1.00  0.00     0.022 A 
BRANCH  89  92
ATOM     92  S   UNL A   1      46.051  36.818  27.055  1.00  0.00     0.127 S 
ATOM     93  O   UNL A   1      44.599  36.841  26.880  1.00  0.00    -0.237 OA
ATOM     94  O   UNL A   1      46.585  37.915  27.863  1.00  0.00    -0.237 OA
ATOM     95  O   UNL A   1      46.819  36.522  25.853  1.00  0.00    -0.744 OA
ENDBRANCH  89  92
ENDBRANCH  62  85
ENDBRANCH  36  37
ENDBRANCH  29  31
ENDBRANCH  28  29
ENDBRANCH  27  28
ENDBRANCH  26  27
ENDBRANCH  25  26
ENDBRANCH  24  25
ENDBRANCH   1  24
TORSDOF 25
ENDMDL
MODEL 2
REMARK VINA RESULT:      -8.5      3.680      5.528
REMARK SMILES COc1ccc(OC)c([C@@](C)(O)[C@H](F)C(=O)OCCOCCOCCOC(=O)c2ccc(-c3c4nc(c(-c5cccc(S(=O)(=O)[O-])c5F)c5ccc([nH]5)c(-c5cccc(S(=O)(=O)[O-])c5F)c5nc(c(-c6cccc(S(=O)(=O)[O-])c6F)c6ccc3[nH]6)C=C5)C=C4)cc2)c1
REMARK SMILES IDX 21 1 20 2 19 3 18 4 17 5 15 6 16 7 13 8 14 9 10 10 11 11
REMARK SMILES IDX 9 12 3 13 4 14 92 15 5 16 6 17 2 18 1 19 7 20 8 21 12 22
REMARK SMILES IDX 22 24 23 25 24 26 25 27 26 28 27 29 28 30 29 31 30 32 91 33
REMARK SMILES IDX 31 34 90 35 32 36 33 37 34 38 84 39 35 40 89 41 83 42 85 43
REMARK SMILES IDX 36 44 88 45 82 46 81 47 37 49 69 50 49 51 68 52 50 53 53 54
REMARK SMILES IDX 67 55 86 56 51 57 52 58 66 60 87 61 54 62 38 63 39 64 47 65
REMARK SMILES IDX 40 66 42 67 48 68 41 69 43 70 44 71 45 72 46 73 70 74 71 75
REMARK SMILES IDX 79 76 72 77 74 78 80 79 73 80 75 81 76 82 77 83 78 84 55 85
REMARK SMILES IDX 56 86 64 87 57 88 59 89 65 90 58 91 60 92 61 93 62 94 63 95
REMARK H PARENT 12 23 85 48 53 59
REMARK Flexibility Score: inf
ROOT
ATOM      1  C   UNL A   1      36.062  20.529  25.184  1.00  0.00     0.188 C 
ENDROOT
BRANCH   1   2
ATOM      2  O   UNL A   1      34.808  20.076  24.707  1.00  0.00    -0.376 OA
BRANCH   2   3
ATOM      3  C   UNL A   1      33.629  20.255  25.480  1.00  0.00     0.202 C 
BRANCH   3   4
ATOM      4  C   UNL A   1      32.226  20.239  24.859  1.00  0.00     0.261 C 
BRANCH   4   5
ATOM      5  O   UNL A   1      31.947  21.352  24.004  1.00  0.00    -0.461 OA
BRANCH   5   6
ATOM      6  C   UNL A   1      31.661  22.529  24.622  1.00  0.00     0.344 C 
ATOM      7  O   UNL A   1      31.210  22.624  25.755  1.00  0.00    -0.249 OA
BRANCH   6   8
ATOM      8  C   UNL A   1      32.005  23.722  23.741  1.00  0.00     0.311 C 
ATOM      9  F   UNL A   1      31.049  24.712  23.808  1.00  0.00    -0.231 F 
BRANCH   8  10
ATOM     10  C   UNL A   1      33.334  24.373  24.162  1.00  0.00     0.133 C 
ATOM     11  C   UNL A   1      34.437  23.437  23.607  1.00  0.00     0.051 C 
BRANCH  10  12
ATOM     12  C   UNL A   1      33.525  25.852  23.808  1.00  0.00     0.033 A 
ATOM     13  C   UNL A   1      33.670  28.209  24.527  1.00  0.00     0.119 A 
ATOM     14  C   UNL A   1      33.593  28.614  23.201  1.00  0.00     0.050 A 
ATOM     15  C   UNL A   1      33.656  26.843  24.824  1.00  0.00     0.057 A 
ATOM     16  C   UNL A   1      33.560  27.667  22.180  1.00  0.00     0.050 A 
ATOM     17  C   UNL A   1      33.560  26.300  22.473  1.00  0.00     0.125 A 
BRANCH  13  18
ATOM     18  O   UNL A   1      33.664  29.230  25.435  1.00  0.00    -0.497 OA
ATOM     19  C   UNL A   1      34.361  29.035  26.660  1.00  0.00     0.278 C 
ENDBRANCH  13  18
BRANCH  17  20
ATOM     20  O   UNL A   1      33.468  25.488  21.372  1.00  0.00    -0.496 OA
ATOM     21  C   UNL A   1      32.458  25.877  20.437  1.00  0.00     0.278 C 
ENDBRANCH  17  20
ENDBRANCH  10  12
BRANCH  10  22
ATOM     22  O   UNL A   1      33.361  24.312  25.608  1.00  0.00    -0.382 OA
ATOM     23  H   UNL A   1      32.937  23.492  25.905  1.00  0.00     0.212 HD
ENDBRANCH  10  22
ENDBRANCH   8  10
ENDBRANCH   6   8
ENDBRANCH   5   6
ENDBRANCH   4   5
ENDBRANCH   3   4
ENDBRANCH   2   3
ENDBRANCH   1   2
BRANCH   1  24
ATOM     24  C   UNL A   1      37.321  19.694  24.899  1.00  0.00     0.188 C 
BRANCH  24  25
ATOM     25  O   UNL A   1      38.559  20.324  25.101  1.00  0.00    -0.376 OA
BRANCH  25  26
ATOM     26  C   UNL A   1      39.600  19.609  25.747  1.00  0.00     0.202 C 
BRANCH  26  27
ATOM     27  C   UNL A   1      40.803  20.234  26.498  1.00  0.00     0.261 C 
BRANCH  27  28
ATOM     28  O   UNL A   1      40.820  21.647  26.739  1.00  0.00    -0.460 OA
BRANCH  28  29
ATOM     29  C   UNL A   1      41.972  22.298  26.427  1.00  0.00     0.338 C 
ATOM     30  O   UNL A   1      42.856  21.908  25.690  1.00  0.00    -0.246 OA
BRANCH  29  31
ATOM     31  C   UNL A   1      41.873  23.691  26.930  1.00  0.00     0.060 A 
ATOM     32  C   UNL A   1      41.504  24.710  26.036  1.00  0.00     0.016 A 
ATOM     33  C   UNL A   1      42.133  23.991  28.265  1.00  0.00     0.016 A 
ATOM     34  C   UNL A   1      41.414  26.033  26.470  1.00  0.00     0.010 A 
ATOM     35  C   UNL A   1      42.076  25.323  28.692  1.00  0.00     0.010 A 
ATOM     36  C   UNL A   1      41.745  26.355  27.791  1.00  0.00    -0.014 A 
BRANCH  36  37
ATOM     37  C   UNL A   1      41.950  27.772  28.185  1.00  0.00     0.031 A 
ATOM     38  C   UNL A   1      43.356  28.311  28.181  1.00  0.00     0.074 A 
ATOM     39  C   UNL A   1      40.929  28.560  28.569  1.00  0.00     0.049 A 
ATOM     40  N   UNL A   1      43.800  29.478  28.571  1.00  0.00    -0.248 NA
ATOM     41  C   UNL A   1      44.406  27.408  27.676  1.00  0.00     0.031 C 
ATOM     42  C   UNL A   1      39.521  28.168  28.607  1.00  0.00     0.029 A 
ATOM     43  N   UNL A   1      40.931  29.852  29.042  1.00  0.00    -0.354 N 
ATOM     44  C   UNL A   1      45.180  29.431  28.409  1.00  0.00     0.074 A 
ATOM     45  C   UNL A   1      45.501  28.127  27.874  1.00  0.00     0.031 C 
ATOM     46  C   UNL A   1      38.801  29.182  29.121  1.00  0.00     0.029 A 
ATOM     47  C   UNL A   1      39.699  30.281  29.477  1.00  0.00     0.049 A 
ATOM     48  H   UNL A   1      41.738  30.416  29.065  1.00  0.00     0.167 HD
ATOM     49  C   UNL A   1      46.098  30.385  28.684  1.00  0.00     0.034 A 
ATOM     50  C   UNL A   1      39.345  31.410  30.125  1.00  0.00     0.034 A 
ATOM     51  C   UNL A   1      45.779  31.691  29.193  1.00  0.00     0.049 A 
ATOM     52  C   UNL A   1      40.397  32.450  30.437  1.00  0.00     0.074 A 
ATOM     53  C   UNL A   1      46.637  32.751  29.428  1.00  0.00     0.029 A 
ATOM     54  N   UNL A   1      44.514  32.108  29.570  1.00  0.00    -0.354 N 
ATOM     55  N   UNL A   1      41.676  32.445  30.151  1.00  0.00    -0.248 NA
ATOM     56  C   UNL A   1      39.948  33.665  31.137  1.00  0.00     0.031 C 
ATOM     57  C   UNL A   1      45.898  33.792  29.994  1.00  0.00     0.029 A 
ATOM     58  C   UNL A   1      44.571  33.400  30.062  1.00  0.00     0.049 A 
ATOM     59  H   UNL A   1      43.695  31.565  29.500  1.00  0.00     0.167 HD
ATOM     60  C   UNL A   1      42.171  33.669  30.593  1.00  0.00     0.074 A 
ATOM     61  C   UNL A   1      41.052  34.398  31.148  1.00  0.00     0.031 C 
ATOM     62  C   UNL A   1      43.441  34.143  30.554  1.00  0.00     0.034 A 
BRANCH  49  63
ATOM     63  C   UNL A   1      47.548  30.063  28.449  1.00  0.00     0.023 A 
ATOM     64  C   UNL A   1      48.172  30.443  27.244  1.00  0.00     0.012 A 
ATOM     65  C   UNL A   1      48.313  29.463  29.468  1.00  0.00     0.148 A 
ATOM     66  C   UNL A   1      49.532  30.211  27.049  1.00  0.00     0.002 A 
ATOM     67  C   UNL A   1      49.678  29.282  29.286  1.00  0.00     0.091 A 
ATOM     68  F   UNL A   1      47.694  29.090  30.597  1.00  0.00    -0.205 F 
ATOM     69  C   UNL A   1      50.288  29.646  28.074  1.00  0.00     0.022 A 
BRANCH  67  70
ATOM     70  S   UNL A   1      50.751  28.643  30.577  1.00  0.00     0.127 S 
ATOM     71  O   UNL A   1      51.025  27.292  30.089  1.00  0.00    -0.237 OA
ATOM     72  O   UNL A   1      51.888  29.559  30.508  1.00  0.00    -0.237 OA
ATOM     73  O   UNL A   1      49.983  28.712  31.812  1.00  0.00    -0.744 OA
ENDBRANCH  67  70
ENDBRANCH  49  63
BRANCH  50  74
ATOM     74  C   UNL A   1      37.928  31.639  30.537  1.00  0.00     0.023 A 
ATOM     75  C   UNL A   1      37.461  31.114  31.758  1.00  0.00     0.012 A 
ATOM     76  C   UNL A   1      37.032  32.337  29.705  1.00  0.00     0.148 A 
ATOM     77  C   UNL A   1      36.119  31.238  32.120  1.00  0.00     0.002 A 
ATOM     78  C   UNL A   1      35.710  32.509  30.099  1.00  0.00     0.091 A 
ATOM     79  F   UNL A   1      37.486  32.811  28.537  1.00  0.00    -0.205 F 
ATOM     80  C   UNL A   1      35.245  31.941  31.296  1.00  0.00     0.022 A 
BRANCH  78  81
ATOM     81  S   UNL A   1      34.548  33.503  29.158  1.00  0.00     0.127 S 
ATOM     82  O   UNL A   1      33.767  34.134  30.220  1.00  0.00    -0.237 OA
ATOM     83  O   UNL A   1      35.443  34.405  28.432  1.00  0.00    -0.237 OA
ATOM     84  O   UNL A   1      33.825  32.564  28.312  1.00  0.00    -0.744 OA
ENDBRANCH  78  81
ENDBRANCH  50  74
BRANCH  62  85
ATOM     85  C   UNL A   1      43.694  35.540  31.062  1.00  0.00     0.023 A 
ATOM     86  C   UNL A   1      44.053  35.755  32.407  1.00  0.00     0.012 A 
ATOM     87  C   UNL A   1      43.654  36.636  30.175  1.00  0.00     0.148 A 
ATOM     88  C   UNL A   1      44.330  37.042  32.870  1.00  0.00     0.002 A 
ATOM     89  C   UNL A   1      43.985  37.906  30.630  1.00  0.00     0.091 A 
ATOM     90  F   UNL A   1      43.297  36.415  28.901  1.00  0.00    -0.205 F 
ATOM     91  C   UNL A   1      44.307  38.114  31.980  1.00  0.00     0.022 A 
BRANCH  89  92
ATOM     92  S   UNL A   1      44.083  39.328  29.536  1.00  0.00     0.127 S 
ATOM     93  O   UNL A   1      44.491  40.386  30.458  1.00  0.00    -0.237 OA
ATOM     94  O   UNL A   1      45.115  38.915  28.584  1.00  0.00    -0.237 OA
ATOM     95  O   UNL A   1      42.755  39.484  28.957  1.00  0.00    -0.744 OA
ENDBRANCH  89  92
ENDBRANCH  62  85
ENDBRANCH  36  37
ENDBRANCH  29  31
ENDBRANCH  28  29
ENDBRANCH  27  28
ENDBRANCH  26  27
ENDBRANCH  25  26
ENDBRANCH  24  25
ENDBRANCH   1  24
TORSDOF 25
ENDMDL
MODEL 3
REMARK VINA RESULT:      -8.4      5.700     10.279
REMARK SMILES COc1ccc(OC)c([C@@](C)(O)[C@H](F)C(=O)OCCOCCOCCOC(=O)c2ccc(-c3c4nc(c(-c5cccc(S(=O)(=O)[O-])c5F)c5ccc([nH]5)c(-c5cccc(S(=O)(=O)[O-])c5F)c5nc(c(-c6cccc(S(=O)(=O)[O-])c6F)c6ccc3[nH]6)C=C5)C=C4)cc2)c1
REMARK SMILES IDX 21 1 20 2 19 3 18 4 17 5 15 6 16 7 13 8 14 9 10 10 11 11
REMARK SMILES IDX 9 12 3 13 4 14 92 15 5 16 6 17 2 18 1 19 7 20 8 21 12 22
REMARK SMILES IDX 22 24 23 25 24 26 25 27 26 28 27 29 28 30 29 31 30 32 91 33
REMARK SMILES IDX 31 34 90 35 32 36 33 37 34 38 84 39 35 40 89 41 83 42 85 43
REMARK SMILES IDX 36 44 88 45 82 46 81 47 37 49 69 50 49 51 68 52 50 53 53 54
REMARK SMILES IDX 67 55 86 56 51 57 52 58 66 60 87 61 54 62 38 63 39 64 47 65
REMARK SMILES IDX 40 66 42 67 48 68 41 69 43 70 44 71 45 72 46 73 70 74 71 75
REMARK SMILES IDX 79 76 72 77 74 78 80 79 73 80 75 81 76 82 77 83 78 84 55 85
REMARK SMILES IDX 56 86 64 87 57 88 59 89 65 90 58 91 60 92 61 93 62 94 63 95
REMARK H PARENT 12 23 85 48 53 59
REMARK Flexibility Score: inf
ROOT
ATOM      1  C   UNL A   1      39.879  21.060  25.715  1.00  0.00     0.188 C 
ENDROOT
BRANCH   1   2
ATOM      2  O   UNL A   1      38.551  21.315  26.135  1.00  0.00    -0.376 OA
BRANCH   2   3
ATOM      3  C   UNL A   1      37.474  21.255  25.209  1.00  0.00     0.202 C 
BRANCH   3   4
ATOM      4  C   UNL A   1      36.010  21.142  25.656  1.00  0.00     0.261 C 
BRANCH   4   5
ATOM      5  O   UNL A   1      35.434  22.372  26.106  1.00  0.00    -0.461 OA
BRANCH   5   6
ATOM      6  C   UNL A   1      34.189  22.293  26.647  1.00  0.00     0.344 C 
ATOM      7  O   UNL A   1      33.908  22.629  27.790  1.00  0.00    -0.249 OA
BRANCH   6   8
ATOM      8  C   UNL A   1      33.174  21.765  25.643  1.00  0.00     0.311 C 
ATOM      9  F   UNL A   1      32.464  20.692  26.135  1.00  0.00    -0.231 F 
BRANCH   8  10
ATOM     10  C   UNL A   1      32.137  22.838  25.268  1.00  0.00     0.133 C 
ATOM     11  C   UNL A   1      31.123  22.848  26.440  1.00  0.00     0.051 C 
BRANCH  10  12
ATOM     12  C   UNL A   1      32.675  24.222  24.888  1.00  0.00     0.033 A 
ATOM     13  C   UNL A   1      32.665  26.670  25.209  1.00  0.00     0.119 A 
ATOM     14  C   UNL A   1      33.415  26.820  24.050  1.00  0.00     0.050 A 
ATOM     15  C   UNL A   1      32.317  25.383  25.633  1.00  0.00     0.057 A 
ATOM     16  C   UNL A   1      33.861  25.700  23.354  1.00  0.00     0.050 A 
ATOM     17  C   UNL A   1      33.525  24.412  23.782  1.00  0.00     0.125 A 
BRANCH  13  18
ATOM     18  O   UNL A   1      32.262  27.842  25.783  1.00  0.00    -0.497 OA
ATOM     19  C   UNL A   1      32.541  29.052  25.090  1.00  0.00     0.278 C 
ENDBRANCH  13  18
BRANCH  17  20
ATOM     20  O   UNL A   1      33.986  23.410  22.967  1.00  0.00    -0.496 OA
ATOM     21  C   UNL A   1      35.410  23.347  22.859  1.00  0.00     0.278 C 
ENDBRANCH  17  20
ENDBRANCH  10  12
BRANCH  10  22
ATOM     22  O   UNL A   1      31.469  22.341  24.084  1.00  0.00    -0.382 OA
ATOM     23  H   UNL A   1      31.374  21.378  24.145  1.00  0.00     0.212 HD
ENDBRANCH  10  22
ENDBRANCH   8  10
ENDBRANCH   6   8
ENDBRANCH   5   6
ENDBRANCH   4   5
ENDBRANCH   3   4
ENDBRANCH   2   3
ENDBRANCH   1   2
BRANCH   1  24
ATOM     24  C   UNL A   1      40.998  22.032  26.128  1.00  0.00     0.188 C 
BRANCH  24  25
ATOM     25  O   UNL A   1      42.201  21.462  26.573  1.00  0.00    -0.376 OA
BRANCH  25  26
ATOM     26  C   UNL A   1      43.270  21.302  25.655  1.00  0.00     0.202 C 
BRANCH  26  27
ATOM     27  C   UNL A   1      43.887  22.418  24.774  1.00  0.00     0.261 C 
BRANCH  27  28
ATOM     28  O   UNL A   1      43.304  23.727  24.793  1.00  0.00    -0.460 OA
BRANCH  28  29
ATOM     29  C   UNL A   1      44.095  24.733  25.257  1.00  0.00     0.338 C 
ATOM     30  O   UNL A   1      45.151  25.108  24.787  1.00  0.00    -0.246 OA
BRANCH  29  31
ATOM     31  C   UNL A   1      43.340  25.482  26.292  1.00  0.00     0.060 A 
ATOM     32  C   UNL A   1      43.643  26.838  26.502  1.00  0.00     0.016 A 
ATOM     33  C   UNL A   1      42.343  24.862  27.042  1.00  0.00     0.016 A 
ATOM     34  C   UNL A   1      42.963  27.571  27.477  1.00  0.00     0.010 A 
ATOM     35  C   UNL A   1      41.685  25.588  28.041  1.00  0.00     0.010 A 
ATOM     36  C   UNL A   1      42.011  26.938  28.285  1.00  0.00    -0.014 A 
BRANCH  36  37
ATOM     37  C   UNL A   1      41.507  27.608  29.510  1.00  0.00     0.031 A 
ATOM     38  C   UNL A   1      40.164  28.286  29.444  1.00  0.00     0.074 A 
ATOM     39  C   UNL A   1      42.226  27.649  30.647  1.00  0.00     0.049 A 
ATOM     40  N   UNL A   1      39.555  29.012  30.345  1.00  0.00    -0.248 NA
ATOM     41  C   UNL A   1      39.410  28.130  28.188  1.00  0.00     0.031 C 
ATOM     42  C   UNL A   1      43.532  27.025  30.849  1.00  0.00     0.029 A 
ATOM     43  N   UNL A   1      41.968  28.283  31.840  1.00  0.00    -0.354 N 
ATOM     44  C   UNL A   1      38.375  29.442  29.749  1.00  0.00     0.074 A 
ATOM     45  C   UNL A   1      38.345  28.887  28.414  1.00  0.00     0.031 C 
ATOM     46  C   UNL A   1      43.982  27.345  32.077  1.00  0.00     0.029 A 
ATOM     47  C   UNL A   1      43.012  28.221  32.733  1.00  0.00     0.049 A 
ATOM     48  H   UNL A   1      41.116  28.737  32.037  1.00  0.00     0.167 HD
ATOM     49  C   UNL A   1      37.404  30.231  30.264  1.00  0.00     0.034 A 
ATOM     50  C   UNL A   1      43.183  28.836  33.923  1.00  0.00     0.034 A 
ATOM     51  C   UNL A   1      37.419  30.764  31.598  1.00  0.00     0.049 A 
ATOM     52  C   UNL A   1      42.089  29.728  34.463  1.00  0.00     0.074 A 
ATOM     53  C   UNL A   1      36.441  31.510  32.232  1.00  0.00     0.029 A 
ATOM     54  N   UNL A   1      38.468  30.636  32.492  1.00  0.00    -0.354 N 
ATOM     55  N   UNL A   1      40.919  30.011  33.944  1.00  0.00    -0.248 NA
ATOM     56  C   UNL A   1      42.329  30.362  35.770  1.00  0.00     0.031 C 
ATOM     57  C   UNL A   1      36.920  31.874  33.493  1.00  0.00     0.029 A 
ATOM     58  C   UNL A   1      38.174  31.310  33.664  1.00  0.00     0.049 A 
ATOM     59  H   UNL A   1      39.301  30.139  32.319  1.00  0.00     0.167 HD
ATOM     60  C   UNL A   1      40.271  30.816  34.877  1.00  0.00     0.074 A 
ATOM     61  C   UNL A   1      41.168  30.958  36.002  1.00  0.00     0.031 C 
ATOM     62  C   UNL A   1      39.046  31.394  34.805  1.00  0.00     0.034 A 
BRANCH  49  63
ATOM     63  C   UNL A   1      36.234  30.580  29.385  1.00  0.00     0.023 A 
ATOM     64  C   UNL A   1      35.432  29.560  28.835  1.00  0.00     0.012 A 
ATOM     65  C   UNL A   1      35.878  31.928  29.184  1.00  0.00     0.148 A 
ATOM     66  C   UNL A   1      34.304  29.878  28.081  1.00  0.00     0.002 A 
ATOM     67  C   UNL A   1      34.725  32.235  28.474  1.00  0.00     0.091 A 
ATOM     68  F   UNL A   1      36.668  32.881  29.699  1.00  0.00    -0.205 F 
ATOM     69  C   UNL A   1      33.942  31.213  27.912  1.00  0.00     0.022 A 
BRANCH  67  70
ATOM     70  S   UNL A   1      34.128  33.918  28.277  1.00  0.00     0.127 S 
ATOM     71  O   UNL A   1      32.842  33.699  27.619  1.00  0.00    -0.237 OA
ATOM     72  O   UNL A   1      34.035  34.371  29.664  1.00  0.00    -0.237 OA
ATOM     73  O   UNL A   1      35.127  34.609  27.474  1.00  0.00    -0.744 OA
ENDBRANCH  67  70
ENDBRANCH  49  63
BRANCH  50  74
ATOM     74  C   UNL A   1      44.440  28.643  34.705  1.00  0.00     0.023 A 
ATOM     75  C   UNL A   1      45.567  29.441  34.427  1.00  0.00     0.012 A 
ATOM     76  C   UNL A   1      44.535  27.644  35.694  1.00  0.00     0.148 A 
ATOM     77  C   UNL A   1      46.778  29.217  35.083  1.00  0.00     0.002 A 
ATOM     78  C   UNL A   1      45.728  27.466  36.386  1.00  0.00     0.091 A 
ATOM     79  F   UNL A   1      43.462  26.880  35.931  1.00  0.00    -0.205 F 
ATOM     80  C   UNL A   1      46.857  28.236  36.067  1.00  0.00     0.022 A 
BRANCH  78  81
ATOM     81  S   UNL A   1      45.883  26.310  37.751  1.00  0.00     0.127 S 
ATOM     82  O   UNL A   1      44.752  26.690  38.593  1.00  0.00    -0.237 OA
ATOM     83  O   UNL A   1      45.742  25.022  37.071  1.00  0.00    -0.237 OA
ATOM     84  O   UNL A   1      47.204  26.549  38.317  1.00  0.00    -0.744 OA
ENDBRANCH  78  81
ENDBRANCH  50  74
BRANCH  62  85
ATOM     85  C   UNL A   1      38.562  32.183  35.995  1.00  0.00     0.023 A 
ATOM     86  C   UNL A   1      38.575  33.591  35.970  1.00  0.00     0.012 A 
ATOM     87  C   UNL A   1      38.015  31.518  37.112  1.00  0.00     0.148 A 
ATOM     88  C   UNL A   1      38.087  34.324  37.052  1.00  0.00     0.002 A 
ATOM     89  C   UNL A   1      37.481  32.255  38.162  1.00  0.00     0.091 A 
ATOM     90  F   UNL A   1      38.023  30.177  37.126  1.00  0.00    -0.205 F 
ATOM     91  C   UNL A   1      37.530  33.657  38.141  1.00  0.00     0.022 A 
BRANCH  89  92
ATOM     92  S   UNL A   1      36.651  31.484  39.557  1.00  0.00     0.127 S 
ATOM     93  O   UNL A   1      35.732  30.566  38.887  1.00  0.00    -0.237 OA
ATOM     94  O   UNL A   1      37.760  30.836  40.257  1.00  0.00    -0.237 OA
ATOM     95  O   UNL A   1      36.018  32.568  40.298  1.00  0.00    -0.744 OA
ENDBRANCH  89  92
ENDBRANCH  62  85
ENDBRANCH  36  37
ENDBRANCH  29  31
ENDBRANCH  28  29
ENDBRANCH  27  28
ENDBRANCH  26  27
ENDBRANCH  25  26
ENDBRANCH  24  25
ENDBRANCH   1  24
TORSDOF 25
ENDMDL
