MODEL 1
REMARK VINA RESULT:     -10.1      0.000      0.000
REMARK SMILES C[C@H](NC(=O)NCCc1ccccc1F)C(=O)OCCOCCOCCOC(=O)c1ccc(-c2c3nc(c(-c4cccc(S(=O)(=O)[O-])c4F)c4ccc([nH]4)c(-c4cccc(S(=O)(=O)[O-])c4F)c4nc(c(-c5cccc(S(=O)(=O)[O-])c5F)c5ccc2[nH]5)C=C4)C=C3)cc1
REMARK SMILES IDX 22 1 21 2 20 3 19 4 18 5 16 6 17 7 2 8 1 9 3 10 4 11 5 13
REMARK SMILES IDX 6 14 7 16 8 17 9 18 10 19 14 20 11 21 13 22 15 23 12 24
REMARK SMILES IDX 23 25 24 26 25 27 26 28 27 29 28 30 29 31 30 32 31 33 92 34
REMARK SMILES IDX 32 35 91 36 33 37 34 38 35 39 85 40 36 41 90 42 84 43 86 44
REMARK SMILES IDX 37 45 89 46 83 47 82 48 38 50 70 51 50 52 69 53 51 54 54 55
REMARK SMILES IDX 68 56 87 57 52 58 53 59 67 61 88 62 55 63 39 64 40 65 48 66
REMARK SMILES IDX 41 67 43 68 49 69 42 70 44 71 45 72 46 73 47 74 71 75 72 76
REMARK SMILES IDX 80 77 73 78 75 79 81 80 74 81 76 82 77 83 78 84 79 85 56 86
REMARK SMILES IDX 57 87 65 88 58 89 60 90 66 91 59 92 61 93 62 94 63 95 64 96
REMARK H PARENT 3 12 6 15 86 49 54 60
REMARK Flexibility Score: inf
ROOT
ATOM      1  C   UNL A   1      32.280  28.216  26.912  1.00  0.00     0.188 C 
ENDROOT
BRANCH   1   2
ATOM      2  O   UNL A   1      33.265  27.400  26.300  1.00  0.00    -0.376 OA
BRANCH   2   3
ATOM      3  C   UNL A   1      33.938  27.826  25.123  1.00  0.00     0.202 C 
BRANCH   3   4
ATOM      4  C   UNL A   1      33.456  27.482  23.704  1.00  0.00     0.261 C 
BRANCH   4   5
ATOM      5  O   UNL A   1      32.035  27.452  23.508  1.00  0.00    -0.462 OA
BRANCH   5   6
ATOM      6  C   UNL A   1      31.542  26.255  23.106  1.00  0.00     0.328 C 
ATOM      7  O   UNL A   1      31.842  25.695  22.057  1.00  0.00    -0.250 OA
BRANCH   6   8
ATOM      8  C   UNL A   1      30.471  25.682  24.037  1.00  0.00     0.190 C 
ATOM      9  C   UNL A   1      29.286  26.637  23.897  1.00  0.00     0.043 C 
BRANCH   8  10
ATOM     10  N   UNL A   1      30.788  25.439  25.444  1.00  0.00    -0.325 N 
ATOM     11  C   UNL A   1      31.378  24.391  26.059  1.00  0.00     0.315 C 
ATOM     12  H   UNL A   1      30.523  26.168  26.051  1.00  0.00     0.166 HD
ATOM     13  O   UNL A   1      31.655  24.484  27.256  1.00  0.00    -0.249 OA
ATOM     14  N   UNL A   1      31.686  23.242  25.421  1.00  0.00    -0.338 N 
ATOM     15  H   UNL A   1      32.211  22.608  25.961  1.00  0.00     0.165 HD
BRANCH  14  16
ATOM     16  C   UNL A   1      31.383  22.772  24.083  1.00  0.00     0.122 C 
BRANCH  16  17
ATOM     17  C   UNL A   1      32.557  22.262  23.250  1.00  0.00     0.060 C 
BRANCH  17  18
ATOM     18  C   UNL A   1      33.943  22.278  23.849  1.00  0.00    -0.010 A 
ATOM     19  C   UNL A   1      34.319  21.169  24.627  1.00  0.00     0.007 A 
ATOM     20  C   UNL A   1      34.881  23.298  23.676  1.00  0.00     0.126 A 
ATOM     21  C   UNL A   1      35.592  21.082  25.195  1.00  0.00     0.000 A 
ATOM     22  C   UNL A   1      36.155  23.217  24.236  1.00  0.00     0.039 A 
ATOM     23  F   UNL A   1      34.587  24.398  22.971  1.00  0.00    -0.207 F 
ATOM     24  C   UNL A   1      36.515  22.104  24.992  1.00  0.00     0.003 A 
ENDBRANCH  17  18
ENDBRANCH  16  17
ENDBRANCH  14  16
ENDBRANCH   8  10
ENDBRANCH   6   8
ENDBRANCH   5   6
ENDBRANCH   4   5
ENDBRANCH   3   4
ENDBRANCH   2   3
ENDBRANCH   1   2
BRANCH   1  25
ATOM     25  C   UNL A   1      32.601  29.700  27.159  1.00  0.00     0.188 C 
BRANCH  25  26
ATOM     26  O   UNL A   1      32.134  30.570  26.152  1.00  0.00    -0.376 OA
BRANCH  26  27
ATOM     27  C   UNL A   1      31.473  31.766  26.546  1.00  0.00     0.202 C 
BRANCH  27  28
ATOM     28  C   UNL A   1      32.156  32.931  27.301  1.00  0.00     0.261 C 
BRANCH  28  29
ATOM     29  O   UNL A   1      33.569  33.107  27.147  1.00  0.00    -0.460 OA
BRANCH  29  30
ATOM     30  C   UNL A   1      34.222  33.794  28.117  1.00  0.00     0.338 C 
ATOM     31  O   UNL A   1      33.846  34.802  28.678  1.00  0.00    -0.246 OA
BRANCH  30  32
ATOM     32  C   UNL A   1      35.382  32.970  28.538  1.00  0.00     0.060 A 
ATOM     33  C   UNL A   1      35.166  31.628  28.887  1.00  0.00     0.016 A 
ATOM     34  C   UNL A   1      36.668  33.509  28.570  1.00  0.00     0.016 A 
ATOM     35  C   UNL A   1      36.236  30.826  29.282  1.00  0.00     0.010 A 
ATOM     36  C   UNL A   1      37.735  32.711  28.995  1.00  0.00     0.010 A 
ATOM     37  C   UNL A   1      37.521  31.374  29.379  1.00  0.00    -0.014 A 
BRANCH  37  38
ATOM     38  C   UNL A   1      38.604  30.610  30.045  1.00  0.00     0.031 A 
ATOM     39  C   UNL A   1      38.955  30.959  31.466  1.00  0.00     0.074 A 
ATOM     40  C   UNL A   1      39.272  29.633  29.407  1.00  0.00     0.049 A 
ATOM     41  N   UNL A   1      39.904  30.481  32.226  1.00  0.00    -0.248 NA
ATOM     42  C   UNL A   1      38.123  31.986  32.116  1.00  0.00     0.031 C 
ATOM     43  C   UNL A   1      39.012  29.186  28.041  1.00  0.00     0.029 A 
ATOM     44  N   UNL A   1      40.329  28.858  29.822  1.00  0.00    -0.354 N 
ATOM     45  C   UNL A   1      39.808  31.171  33.428  1.00  0.00     0.074 A 
ATOM     46  C   UNL A   1      38.713  32.104  33.296  1.00  0.00     0.031 C 
ATOM     47  C   UNL A   1      39.904  28.234  27.718  1.00  0.00     0.029 A 
ATOM     48  C   UNL A   1      40.820  28.029  28.841  1.00  0.00     0.049 A 
ATOM     49  H   UNL A   1      40.698  28.892  30.734  1.00  0.00     0.167 HD
ATOM     50  C   UNL A   1      40.558  31.032  34.545  1.00  0.00     0.034 A 
ATOM     51  C   UNL A   1      41.899  27.218  28.839  1.00  0.00     0.034 A 
ATOM     52  C   UNL A   1      41.635  30.089  34.679  1.00  0.00     0.049 A 
ATOM     53  C   UNL A   1      42.745  27.106  30.082  1.00  0.00     0.074 A 
ATOM     54  C   UNL A   1      42.425  29.845  35.789  1.00  0.00     0.029 A 
ATOM     55  N   UNL A   1      42.085  29.248  33.674  1.00  0.00    -0.354 N 
ATOM     56  N   UNL A   1      42.588  27.697  31.242  1.00  0.00    -0.248 NA
ATOM     57  C   UNL A   1      43.899  26.195  30.029  1.00  0.00     0.031 C 
ATOM     58  C   UNL A   1      43.379  28.887  35.441  1.00  0.00     0.029 A 
ATOM     59  C   UNL A   1      43.152  28.495  34.132  1.00  0.00     0.049 A 
ATOM     60  H   UNL A   1      41.702  29.195  32.768  1.00  0.00     0.167 HD
ATOM     61  C   UNL A   1      43.595  27.203  32.065  1.00  0.00     0.074 A 
ATOM     62  C   UNL A   1      44.353  26.256  31.276  1.00  0.00     0.031 C 
ATOM     63  C   UNL A   1      43.868  27.514  33.356  1.00  0.00     0.034 A 
BRANCH  50  64
ATOM     64  C   UNL A   1      40.237  31.904  35.728  1.00  0.00     0.023 A 
ATOM     65  C   UNL A   1      41.029  33.038  36.000  1.00  0.00     0.012 A 
ATOM     66  C   UNL A   1      39.095  31.653  36.515  1.00  0.00     0.148 A 
ATOM     67  C   UNL A   1      40.702  33.896  37.048  1.00  0.00     0.002 A 
ATOM     68  C   UNL A   1      38.748  32.540  37.526  1.00  0.00     0.091 A 
ATOM     69  F   UNL A   1      38.369  30.557  36.254  1.00  0.00    -0.205 F 
ATOM     70  C   UNL A   1      39.555  33.656  37.801  1.00  0.00     0.022 A 
BRANCH  68  71
ATOM     71  S   UNL A   1      37.241  32.370  38.489  1.00  0.00     0.127 S 
ATOM     72  O   UNL A   1      37.603  33.060  39.727  1.00  0.00    -0.237 OA
ATOM     73  O   UNL A   1      36.266  33.079  37.660  1.00  0.00    -0.237 OA
ATOM     74  O   UNL A   1      37.005  30.940  38.622  1.00  0.00    -0.744 OA
ENDBRANCH  68  71
ENDBRANCH  50  64
BRANCH  51  75
ATOM     75  C   UNL A   1      42.218  26.421  27.620  1.00  0.00     0.023 A 
ATOM     76  C   UNL A   1      42.933  27.020  26.565  1.00  0.00     0.012 A 
ATOM     77  C   UNL A   1      41.861  25.061  27.523  1.00  0.00     0.148 A 
ATOM     78  C   UNL A   1      43.279  26.284  25.431  1.00  0.00     0.002 A 
ATOM     79  C   UNL A   1      42.259  24.319  26.418  1.00  0.00     0.091 A 
ATOM     80  F   UNL A   1      41.165  24.516  28.530  1.00  0.00    -0.205 F 
ATOM     81  C   UNL A   1      42.954  24.931  25.364  1.00  0.00     0.022 A 
BRANCH  79  82
ATOM     82  S   UNL A   1      42.005  22.544  26.300  1.00  0.00     0.127 S 
ATOM     83  O   UNL A   1      42.580  22.245  24.991  1.00  0.00    -0.237 OA
ATOM     84  O   UNL A   1      42.783  22.058  27.440  1.00  0.00    -0.237 OA
ATOM     85  O   UNL A   1      40.567  22.340  26.415  1.00  0.00    -0.744 OA
ENDBRANCH  79  82
ENDBRANCH  51  75
BRANCH  63  86
ATOM     86  C   UNL A   1      45.008  26.803  34.044  1.00  0.00     0.023 A 
ATOM     87  C   UNL A   1      46.307  27.344  33.997  1.00  0.00     0.012 A 
ATOM     88  C   UNL A   1      44.756  25.676  34.854  1.00  0.00     0.148 A 
ATOM     89  C   UNL A   1      47.341  26.765  34.734  1.00  0.00     0.002 A 
ATOM     90  C   UNL A   1      45.779  25.138  35.626  1.00  0.00     0.091 A 
ATOM     91  F   UNL A   1      43.515  25.169  34.875  1.00  0.00    -0.205 F 
ATOM     92  C   UNL A   1      47.074  25.675  35.559  1.00  0.00     0.022 A 
BRANCH  90  93
ATOM     93  S   UNL A   1      45.506  23.807  36.801  1.00  0.00     0.127 S 
ATOM     94  O   UNL A   1      44.534  24.410  37.714  1.00  0.00    -0.237 OA
ATOM     95  O   UNL A   1      44.966  22.747  35.950  1.00  0.00    -0.237 OA
ATOM     96  O   UNL A   1      46.806  23.512  37.389  1.00  0.00    -0.744 OA
ENDBRANCH  90  93
ENDBRANCH  63  86
ENDBRANCH  37  38
ENDBRANCH  30  32
ENDBRANCH  29  30
ENDBRANCH  28  29
ENDBRANCH  27  28
ENDBRANCH  26  27
ENDBRANCH  25  26
ENDBRANCH   1  25
TORSDOF 24
ENDMDL
MODEL 2
REMARK VINA RESULT:      -9.8      2.628      8.566
REMARK SMILES C[C@H](NC(=O)NCCc1ccccc1F)C(=O)OCCOCCOCCOC(=O)c1ccc(-c2c3nc(c(-c4cccc(S(=O)(=O)[O-])c4F)c4ccc([nH]4)c(-c4cccc(S(=O)(=O)[O-])c4F)c4nc(c(-c5cccc(S(=O)(=O)[O-])c5F)c5ccc2[nH]5)C=C4)C=C3)cc1
REMARK SMILES IDX 22 1 21 2 20 3 19 4 18 5 16 6 17 7 2 8 1 9 3 10 4 11 5 13
REMARK SMILES IDX 6 14 7 16 8 17 9 18 10 19 14 20 11 21 13 22 15 23 12 24
REMARK SMILES IDX 23 25 24 26 25 27 26 28 27 29 28 30 29 31 30 32 31 33 92 34
REMARK SMILES IDX 32 35 91 36 33 37 34 38 35 39 85 40 36 41 90 42 84 43 86 44
REMARK SMILES IDX 37 45 89 46 83 47 82 48 38 50 70 51 50 52 69 53 51 54 54 55
REMARK SMILES IDX 68 56 87 57 52 58 53 59 67 61 88 62 55 63 39 64 40 65 48 66
REMARK SMILES IDX 41 67 43 68 49 69 42 70 44 71 45 72 46 73 47 74 71 75 72 76
REMARK SMILES IDX 80 77 73 78 75 79 81 80 74 81 76 82 77 83 78 84 79 85 56 86
REMARK SMILES IDX 57 87 65 88 58 89 60 90 66 91 59 92 61 93 62 94 63 95 64 96
REMARK H PARENT 3 12 6 15 86 49 54 60
REMARK Flexibility Score: inf
ROOT
ATOM      1  C   UNL A   1      33.071  27.420  26.622  1.00  0.00     0.188 C 
ENDROOT
BRANCH   1   2
ATOM      2  O   UNL A   1      31.827  26.755  26.775  1.00  0.00    -0.376 OA
BRANCH   2   3
ATOM      3  C   UNL A   1      31.395  25.790  25.827  1.00  0.00     0.202 C 
BRANCH   3   4
ATOM      4  C   UNL A   1      32.363  24.956  24.970  1.00  0.00     0.261 C 
BRANCH   4   5
ATOM      5  O   UNL A   1      31.877  24.546  23.684  1.00  0.00    -0.462 OA
BRANCH   5   6
ATOM      6  C   UNL A   1      32.685  24.868  22.644  1.00  0.00     0.328 C 
ATOM      7  O   UNL A   1      33.722  24.279  22.359  1.00  0.00    -0.250 OA
BRANCH   6   8
ATOM      8  C   UNL A   1      32.251  26.127  21.890  1.00  0.00     0.190 C 
ATOM      9  C   UNL A   1      32.198  25.700  20.424  1.00  0.00     0.043 C 
BRANCH   8  10
ATOM     10  N   UNL A   1      33.011  27.367  22.051  1.00  0.00    -0.325 N 
ATOM     11  C   UNL A   1      32.746  28.493  22.746  1.00  0.00     0.315 C 
ATOM     12  H   UNL A   1      33.868  27.382  21.564  1.00  0.00     0.166 HD
ATOM     13  O   UNL A   1      33.619  29.358  22.830  1.00  0.00    -0.249 OA
ATOM     14  N   UNL A   1      31.565  28.718  23.361  1.00  0.00    -0.338 N 
ATOM     15  H   UNL A   1      31.549  29.527  23.922  1.00  0.00     0.165 HD
BRANCH  14  16
ATOM     16  C   UNL A   1      30.316  27.981  23.347  1.00  0.00     0.122 C 
BRANCH  16  17
ATOM     17  C   UNL A   1      29.160  28.600  22.566  1.00  0.00     0.060 C 
BRANCH  17  18
ATOM     18  C   UNL A   1      28.948  30.094  22.630  1.00  0.00    -0.010 A 
ATOM     19  C   UNL A   1      29.342  30.748  23.811  1.00  0.00     0.007 A 
ATOM     20  C   UNL A   1      28.410  30.873  21.603  1.00  0.00     0.126 A 
ATOM     21  C   UNL A   1      29.213  32.132  23.948  1.00  0.00     0.000 A 
ATOM     22  C   UNL A   1      28.281  32.256  21.732  1.00  0.00     0.039 A 
ATOM     23  F   UNL A   1      27.988  30.319  20.460  1.00  0.00    -0.207 F 
ATOM     24  C   UNL A   1      28.689  32.889  22.903  1.00  0.00     0.003 A 
ENDBRANCH  17  18
ENDBRANCH  16  17
ENDBRANCH  14  16
ENDBRANCH   8  10
ENDBRANCH   6   8
ENDBRANCH   5   6
ENDBRANCH   4   5
ENDBRANCH   3   4
ENDBRANCH   2   3
ENDBRANCH   1   2
BRANCH   1  25
ATOM     25  C   UNL A   1      33.137  28.933  26.886  1.00  0.00     0.188 C 
BRANCH  25  26
ATOM     26  O   UNL A   1      32.284  29.703  26.068  1.00  0.00    -0.376 OA
BRANCH  26  27
ATOM     27  C   UNL A   1      31.949  31.020  26.490  1.00  0.00     0.202 C 
BRANCH  27  28
ATOM     28  C   UNL A   1      32.680  31.783  27.621  1.00  0.00     0.261 C 
BRANCH  28  29
ATOM     29  O   UNL A   1      33.319  33.025  27.303  1.00  0.00    -0.460 OA
BRANCH  29  30
ATOM     30  C   UNL A   1      33.371  33.967  28.276  1.00  0.00     0.338 C 
ATOM     31  O   UNL A   1      32.548  34.829  28.503  1.00  0.00    -0.246 OA
BRANCH  30  32
ATOM     32  C   UNL A   1      34.506  33.622  29.166  1.00  0.00     0.060 A 
ATOM     33  C   UNL A   1      35.792  34.068  28.825  1.00  0.00     0.016 A 
ATOM     34  C   UNL A   1      34.302  32.885  30.333  1.00  0.00     0.016 A 
ATOM     35  C   UNL A   1      36.880  33.764  29.644  1.00  0.00     0.010 A 
ATOM     36  C   UNL A   1      35.399  32.556  31.137  1.00  0.00     0.010 A 
ATOM     37  C   UNL A   1      36.696  32.971  30.783  1.00  0.00    -0.014 A 
BRANCH  37  38
ATOM     38  C   UNL A   1      37.872  32.427  31.505  1.00  0.00     0.031 A 
ATOM     39  C   UNL A   1      38.630  31.287  30.879  1.00  0.00     0.074 A 
ATOM     40  C   UNL A   1      38.260  32.923  32.693  1.00  0.00     0.049 A 
ATOM     41  N   UNL A   1      39.640  30.608  31.352  1.00  0.00    -0.248 NA
ATOM     42  C   UNL A   1      38.187  30.858  29.542  1.00  0.00     0.031 C 
ATOM     43  C   UNL A   1      37.625  34.038  33.390  1.00  0.00     0.029 A 
ATOM     44  N   UNL A   1      39.272  32.528  33.536  1.00  0.00    -0.354 N 
ATOM     45  C   UNL A   1      39.932  29.649  30.390  1.00  0.00     0.074 A 
ATOM     46  C   UNL A   1      38.990  29.830  29.309  1.00  0.00     0.031 C 
ATOM     47  C   UNL A   1      38.243  34.221  34.570  1.00  0.00     0.029 A 
ATOM     48  C   UNL A   1      39.294  33.216  34.727  1.00  0.00     0.049 A 
ATOM     49  H   UNL A   1      39.919  31.822  33.308  1.00  0.00     0.167 HD
ATOM     50  C   UNL A   1      40.904  28.708  30.401  1.00  0.00     0.034 A 
ATOM     51  C   UNL A   1      40.055  33.037  35.827  1.00  0.00     0.034 A 
ATOM     52  C   UNL A   1      41.852  28.543  31.469  1.00  0.00     0.049 A 
ATOM     53  C   UNL A   1      41.108  31.958  35.833  1.00  0.00     0.074 A 
ATOM     54  C   UNL A   1      42.902  27.645  31.549  1.00  0.00     0.029 A 
ATOM     55  N   UNL A   1      41.860  29.275  32.645  1.00  0.00    -0.354 N 
ATOM     56  N   UNL A   1      41.433  31.118  34.880  1.00  0.00    -0.248 NA
ATOM     57  C   UNL A   1      41.920  31.819  37.052  1.00  0.00     0.031 C 
ATOM     58  C   UNL A   1      43.518  27.806  32.792  1.00  0.00     0.029 A 
ATOM     59  C   UNL A   1      42.886  28.839  33.465  1.00  0.00     0.049 A 
ATOM     60  H   UNL A   1      41.228  29.998  32.865  1.00  0.00     0.167 HD
ATOM     61  C   UNL A   1      42.507  30.379  35.368  1.00  0.00     0.074 A 
ATOM     62  C   UNL A   1      42.786  30.876  36.699  1.00  0.00     0.031 C 
ATOM     63  C   UNL A   1      43.192  29.375  34.767  1.00  0.00     0.034 A 
BRANCH  50  64
ATOM     64  C   UNL A   1      41.015  27.788  29.215  1.00  0.00     0.023 A 
ATOM     65  C   UNL A   1      40.233  26.616  29.161  1.00  0.00     0.012 A 
ATOM     66  C   UNL A   1      41.822  28.132  28.113  1.00  0.00     0.148 A 
ATOM     67  C   UNL A   1      40.269  25.792  28.038  1.00  0.00     0.002 A 
ATOM     68  C   UNL A   1      41.815  27.332  26.978  1.00  0.00     0.091 A 
ATOM     69  F   UNL A   1      42.575  29.239  28.194  1.00  0.00    -0.205 F 
ATOM     70  C   UNL A   1      41.047  26.156  26.942  1.00  0.00     0.022 A 
BRANCH  68  71
ATOM     71  S   UNL A   1      42.710  27.763  25.481  1.00  0.00     0.127 S 
ATOM     72  O   UNL A   1      42.539  26.554  24.677  1.00  0.00    -0.237 OA
ATOM     73  O   UNL A   1      41.961  28.925  25.002  1.00  0.00    -0.237 OA
ATOM     74  O   UNL A   1      44.077  28.046  25.894  1.00  0.00    -0.744 OA
ENDBRANCH  68  71
ENDBRANCH  50  64
BRANCH  51  75
ATOM     75  C   UNL A   1      39.866  33.931  37.005  1.00  0.00     0.023 A 
ATOM     76  C   UNL A   1      40.272  35.277  36.928  1.00  0.00     0.012 A 
ATOM     77  C   UNL A   1      39.239  33.468  38.180  1.00  0.00     0.148 A 
ATOM     78  C   UNL A   1      40.068  36.144  38.003  1.00  0.00     0.002 A 
ATOM     79  C   UNL A   1      38.988  34.350  39.223  1.00  0.00     0.091 A 
ATOM     80  F   UNL A   1      38.877  32.179  38.237  1.00  0.00    -0.205 F 
ATOM     81  C   UNL A   1      39.415  35.684  39.144  1.00  0.00     0.022 A 
BRANCH  79  82
ATOM     82  S   UNL A   1      38.036  33.887  40.675  1.00  0.00     0.127 S 
ATOM     83  O   UNL A   1      38.955  32.981  41.360  1.00  0.00    -0.237 OA
ATOM     84  O   UNL A   1      37.845  35.182  41.329  1.00  0.00    -0.237 OA
ATOM     85  O   UNL A   1      36.813  33.276  40.170  1.00  0.00    -0.744 OA
ENDBRANCH  79  82
ENDBRANCH  51  75
BRANCH  63  86
ATOM     86  C   UNL A   1      44.353  28.754  35.503  1.00  0.00     0.023 A 
ATOM     87  C   UNL A   1      45.640  29.316  35.393  1.00  0.00     0.012 A 
ATOM     88  C   UNL A   1      44.134  27.699  36.414  1.00  0.00     0.148 A 
ATOM     89  C   UNL A   1      46.693  28.827  36.167  1.00  0.00     0.002 A 
ATOM     90  C   UNL A   1      45.175  27.255  37.220  1.00  0.00     0.091 A 
ATOM     91  F   UNL A   1      42.904  27.170  36.494  1.00  0.00    -0.205 F 
ATOM     92  C   UNL A   1      46.457  27.810  37.090  1.00  0.00     0.022 A 
BRANCH  90  93
ATOM     93  S   UNL A   1      44.943  26.030  38.513  1.00  0.00     0.127 S 
ATOM     94  O   UNL A   1      44.212  26.797  39.523  1.00  0.00    -0.237 OA
ATOM     95  O   UNL A   1      44.148  25.007  37.833  1.00  0.00    -0.237 OA
ATOM     96  O   UNL A   1      46.277  25.599  38.909  1.00  0.00    -0.744 OA
ENDBRANCH  90  93
ENDBRANCH  63  86
ENDBRANCH  37  38
ENDBRANCH  30  32
ENDBRANCH  29  30
ENDBRANCH  28  29
ENDBRANCH  27  28
ENDBRANCH  26  27
ENDBRANCH  25  26
ENDBRANCH   1  25
TORSDOF 24
ENDMDL
MODEL 3
REMARK VINA RESULT:      -9.5      2.813      4.169
REMARK SMILES C[C@H](NC(=O)NCCc1ccccc1F)C(=O)OCCOCCOCCOC(=O)c1ccc(-c2c3nc(c(-c4cccc(S(=O)(=O)[O-])c4F)c4ccc([nH]4)c(-c4cccc(S(=O)(=O)[O-])c4F)c4nc(c(-c5cccc(S(=O)(=O)[O-])c5F)c5ccc2[nH]5)C=C4)C=C3)cc1
REMARK SMILES IDX 22 1 21 2 20 3 19 4 18 5 16 6 17 7 2 8 1 9 3 10 4 11 5 13
REMARK SMILES IDX 6 14 7 16 8 17 9 18 10 19 14 20 11 21 13 22 15 23 12 24
REMARK SMILES IDX 23 25 24 26 25 27 26 28 27 29 28 30 29 31 30 32 31 33 92 34
REMARK SMILES IDX 32 35 91 36 33 37 34 38 35 39 85 40 36 41 90 42 84 43 86 44
REMARK SMILES IDX 37 45 89 46 83 47 82 48 38 50 70 51 50 52 69 53 51 54 54 55
REMARK SMILES IDX 68 56 87 57 52 58 53 59 67 61 88 62 55 63 39 64 40 65 48 66
REMARK SMILES IDX 41 67 43 68 49 69 42 70 44 71 45 72 46 73 47 74 71 75 72 76
REMARK SMILES IDX 80 77 73 78 75 79 81 80 74 81 76 82 77 83 78 84 79 85 56 86
REMARK SMILES IDX 57 87 65 88 58 89 60 90 66 91 59 92 61 93 62 94 63 95 64 96
REMARK H PARENT 3 12 6 15 86 49 54 60
REMARK Flexibility Score: inf
ROOT
ATOM      1  C   UNL A   1      34.775  31.266  27.818  1.00  0.00     0.188 C 
ENDROOT
BRANCH   1   2
ATOM      2  O   UNL A   1      33.715  30.977  26.922  1.00  0.00    -0.376 OA
BRANCH   2   3
ATOM      3  C   UNL A   1      33.485  29.651  26.468  1.00  0.00     0.202 C 
BRANCH   3   4
ATOM      4  C   UNL A   1      33.043  29.315  25.033  1.00  0.00     0.261 C 
BRANCH   4   5
ATOM      5  O   UNL A   1      33.609  28.129  24.457  1.00  0.00    -0.462 OA
BRANCH   5   6
ATOM      6  C   UNL A   1      33.451  27.007  25.201  1.00  0.00     0.328 C 
ATOM      7  O   UNL A   1      33.323  26.991  26.421  1.00  0.00    -0.250 OA
BRANCH   6   8
ATOM      8  C   UNL A   1      33.551  25.711  24.394  1.00  0.00     0.190 C 
ATOM      9  C   UNL A   1      34.643  24.903  25.094  1.00  0.00     0.043 C 
BRANCH   8  10
ATOM     10  N   UNL A   1      33.784  25.771  22.951  1.00  0.00    -0.325 N 
ATOM     11  C   UNL A   1      32.930  25.730  21.906  1.00  0.00     0.315 C 
ATOM     12  H   UNL A   1      34.732  25.855  22.697  1.00  0.00     0.166 HD
ATOM     13  O   UNL A   1      33.368  25.935  20.773  1.00  0.00    -0.249 OA
ATOM     14  N   UNL A   1      31.610  25.480  22.043  1.00  0.00    -0.338 N 
ATOM     15  H   UNL A   1      31.090  25.590  21.214  1.00  0.00     0.165 HD
BRANCH  14  16
ATOM     16  C   UNL A   1      30.820  25.079  23.191  1.00  0.00     0.122 C 
BRANCH  16  17
ATOM     17  C   UNL A   1      30.614  23.581  23.397  1.00  0.00     0.060 C 
BRANCH  17  18
ATOM     18  C   UNL A   1      31.720  22.768  24.026  1.00  0.00    -0.010 A 
ATOM     19  C   UNL A   1      31.660  22.572  25.417  1.00  0.00     0.007 A 
ATOM     20  C   UNL A   1      32.784  22.186  23.333  1.00  0.00     0.126 A 
ATOM     21  C   UNL A   1      32.622  21.808  26.081  1.00  0.00     0.000 A 
ATOM     22  C   UNL A   1      33.746  21.419  23.988  1.00  0.00     0.039 A 
ATOM     23  F   UNL A   1      32.923  22.352  22.012  1.00  0.00    -0.207 F 
ATOM     24  C   UNL A   1      33.663  21.223  25.365  1.00  0.00     0.003 A 
ENDBRANCH  17  18
ENDBRANCH  16  17
ENDBRANCH  14  16
ENDBRANCH   8  10
ENDBRANCH   6   8
ENDBRANCH   5   6
ENDBRANCH   4   5
ENDBRANCH   3   4
ENDBRANCH   2   3
ENDBRANCH   1   2
BRANCH   1  25
ATOM     25  C   UNL A   1      34.715  32.566  28.639  1.00  0.00     0.188 C 
BRANCH  25  26
ATOM     26  O   UNL A   1      33.729  33.478  28.209  1.00  0.00    -0.376 OA
BRANCH  26  27
ATOM     27  C   UNL A   1      33.933  34.863  28.462  1.00  0.00     0.202 C 
BRANCH  27  28
ATOM     28  C   UNL A   1      33.034  35.720  29.385  1.00  0.00     0.261 C 
BRANCH  28  29
ATOM     29  O   UNL A   1      32.488  35.112  30.562  1.00  0.00    -0.460 OA
BRANCH  29  30
ATOM     30  C   UNL A   1      32.745  35.712  31.750  1.00  0.00     0.338 C 
ATOM     31  O   UNL A   1      32.077  36.561  32.301  1.00  0.00    -0.246 OA
BRANCH  30  32
ATOM     32  C   UNL A   1      33.877  34.984  32.376  1.00  0.00     0.060 A 
ATOM     33  C   UNL A   1      35.156  35.558  32.333  1.00  0.00     0.016 A 
ATOM     34  C   UNL A   1      33.674  33.760  33.015  1.00  0.00     0.016 A 
ATOM     35  C   UNL A   1      36.239  34.902  32.917  1.00  0.00     0.010 A 
ATOM     36  C   UNL A   1      34.767  33.090  33.574  1.00  0.00     0.010 A 
ATOM     37  C   UNL A   1      36.059  33.644  33.504  1.00  0.00    -0.014 A 
BRANCH  37  38
ATOM     38  C   UNL A   1      37.238  32.828  33.886  1.00  0.00     0.031 A 
ATOM     39  C   UNL A   1      37.993  33.203  35.133  1.00  0.00     0.074 A 
ATOM     40  C   UNL A   1      37.641  31.782  33.144  1.00  0.00     0.049 A 
ATOM     41  N   UNL A   1      39.086  32.685  35.626  1.00  0.00    -0.248 NA
ATOM     42  C   UNL A   1      37.438  34.311  35.929  1.00  0.00     0.031 C 
ATOM     43  C   UNL A   1      36.983  31.305  31.930  1.00  0.00     0.029 A 
ATOM     44  N   UNL A   1      38.723  30.948  33.293  1.00  0.00    -0.354 N 
ATOM     45  C   UNL A   1      39.371  33.424  36.767  1.00  0.00     0.074 A 
ATOM     46  C   UNL A   1      38.341  34.429  36.892  1.00  0.00     0.031 C 
ATOM     47  C   UNL A   1      37.690  30.280  31.426  1.00  0.00     0.029 A 
ATOM     48  C   UNL A   1      38.869  30.049  32.261  1.00  0.00     0.049 A 
ATOM     49  H   UNL A   1      39.334  30.989  34.063  1.00  0.00     0.167 HD
ATOM     50  C   UNL A   1      40.395  33.271  37.639  1.00  0.00     0.034 A 
ATOM     51  C   UNL A   1      39.854  29.163  32.006  1.00  0.00     0.034 A 
ATOM     52  C   UNL A   1      41.408  32.258  37.521  1.00  0.00     0.049 A 
ATOM     53  C   UNL A   1      41.006  29.035  32.970  1.00  0.00     0.074 A 
ATOM     54  C   UNL A   1      42.460  31.998  38.382  1.00  0.00     0.029 A 
ATOM     55  N   UNL A   1      41.507  31.351  36.480  1.00  0.00    -0.354 N 
ATOM     56  N   UNL A   1      41.215  29.678  34.094  1.00  0.00    -0.248 NA
ATOM     57  C   UNL A   1      42.043  28.041  32.651  1.00  0.00     0.031 C 
ATOM     58  C   UNL A   1      43.220  30.961  37.837  1.00  0.00     0.029 A 
ATOM     59  C   UNL A   1      42.612  30.539  36.666  1.00  0.00     0.049 A 
ATOM     60  H   UNL A   1      40.884  31.292  35.719  1.00  0.00     0.167 HD
ATOM     61  C   UNL A   1      42.381  29.143  34.632  1.00  0.00     0.074 A 
ATOM     62  C   UNL A   1      42.830  28.114  33.718  1.00  0.00     0.031 C 
ATOM     63  C   UNL A   1      43.023  29.480  35.778  1.00  0.00     0.034 A 
BRANCH  50  64
ATOM     64  C   UNL A   1      40.470  34.208  38.815  1.00  0.00     0.023 A 
ATOM     65  C   UNL A   1      41.312  35.337  38.759  1.00  0.00     0.012 A 
ATOM     66  C   UNL A   1      39.638  34.020  39.935  1.00  0.00     0.148 A 
ATOM     67  C   UNL A   1      41.340  36.252  39.809  1.00  0.00     0.002 A 
ATOM     68  C   UNL A   1      39.633  34.963  40.955  1.00  0.00     0.091 A 
ATOM     69  F   UNL A   1      38.861  32.928  39.978  1.00  0.00    -0.205 F 
ATOM     70  C   UNL A   1      40.490  36.074  40.899  1.00  0.00     0.022 A 
BRANCH  68  71
ATOM     71  S   UNL A   1      38.511  34.873  42.355  1.00  0.00     0.127 S 
ATOM     72  O   UNL A   1      39.001  33.684  43.050  1.00  0.00    -0.237 OA
ATOM     73  O   UNL A   1      38.778  36.136  43.043  1.00  0.00    -0.237 OA
ATOM     74  O   UNL A   1      37.173  34.755  41.793  1.00  0.00    -0.744 OA
ENDBRANCH  68  71
ENDBRANCH  50  64
BRANCH  51  75
ATOM     75  C   UNL A   1      39.771  28.301  30.792  1.00  0.00     0.023 A 
ATOM     76  C   UNL A   1      38.956  27.152  30.811  1.00  0.00     0.012 A 
ATOM     77  C   UNL A   1      40.452  28.641  29.607  1.00  0.00     0.148 A 
ATOM     78  C   UNL A   1      38.830  26.352  29.675  1.00  0.00     0.002 A 
ATOM     79  C   UNL A   1      40.277  27.872  28.463  1.00  0.00     0.091 A 
ATOM     80  F   UNL A   1      41.236  29.728  29.617  1.00  0.00    -0.205 F 
ATOM     81  C   UNL A   1      39.478  26.719  28.498  1.00  0.00     0.022 A 
BRANCH  79  82
ATOM     82  S   UNL A   1      40.961  28.338  26.868  1.00  0.00     0.127 S 
ATOM     83  O   UNL A   1      42.247  28.915  27.251  1.00  0.00    -0.237 OA
ATOM     84  O   UNL A   1      41.044  27.043  26.193  1.00  0.00    -0.237 OA
ATOM     85  O   UNL A   1      40.006  29.268  26.282  1.00  0.00    -0.744 OA
ENDBRANCH  79  82
ENDBRANCH  51  75
BRANCH  63  86
ATOM     86  C   UNL A   1      44.265  28.714  36.162  1.00  0.00     0.023 A 
ATOM     87  C   UNL A   1      45.536  29.226  35.840  1.00  0.00     0.012 A 
ATOM     88  C   UNL A   1      44.167  27.560  36.968  1.00  0.00     0.148 A 
ATOM     89  C   UNL A   1      46.691  28.591  36.300  1.00  0.00     0.002 A 
ATOM     90  C   UNL A   1      45.319  26.966  37.466  1.00  0.00     0.091 A 
ATOM     91  F   UNL A   1      42.947  27.083  37.253  1.00  0.00    -0.205 F 
ATOM     92  C   UNL A   1      46.582  27.474  37.125  1.00  0.00     0.022 A 
BRANCH  90  93
ATOM     93  S   UNL A   1      45.277  25.593  38.625  1.00  0.00     0.127 S 
ATOM     94  O   UNL A   1      44.560  26.181  39.757  1.00  0.00    -0.237 OA
ATOM     95  O   UNL A   1      44.521  24.584  37.882  1.00  0.00    -0.237 OA
ATOM     96  O   UNL A   1      46.666  25.241  38.887  1.00  0.00    -0.744 OA
ENDBRANCH  90  93
ENDBRANCH  63  86
ENDBRANCH  37  38
ENDBRANCH  30  32
ENDBRANCH  29  30
ENDBRANCH  28  29
ENDBRANCH  27  28
ENDBRANCH  26  27
ENDBRANCH  25  26
ENDBRANCH   1  25
TORSDOF 24
ENDMDL
