MODEL 1
REMARK VINA RESULT:     -10.7      0.000      0.000
REMARK SMILES [NH3+]Cc1c(-c2ccccc2)c(C(=O)OCCOCCOCCOC(=O)c2ccc(-c3c4nc(c(-c5cccc(S(=O)(=O)[O-])c5F)c5ccc([nH]5)c(-c5cccc(S(=O)(=O)[O-])c5F)c5nc(c(-c6cccc(S(=O)(=O)[O-])c6F)c6ccc3[nH]6)C=C5)C=C4)cc2)c2ccccn12
REMARK SMILES IDX 19 1 18 2 17 3 16 4 15 5 14 6 12 7 13 8 11 9 3 10 4 11 94 12
REMARK SMILES IDX 89 13 93 14 90 15 92 16 91 17 2 18 1 19 5 23 6 24 10 25 7 26
REMARK SMILES IDX 9 27 8 28 20 29 21 30 22 31 23 32 24 33 25 34 26 35 27 36
REMARK SMILES IDX 88 37 28 38 87 39 29 40 30 41 31 42 81 43 32 44 86 45 80 46
REMARK SMILES IDX 82 47 33 48 85 49 79 50 78 51 34 53 66 54 46 55 65 56 47 57
REMARK SMILES IDX 50 58 64 59 83 60 48 61 49 62 63 64 84 65 51 66 35 67 36 68
REMARK SMILES IDX 44 69 37 70 39 71 45 72 38 73 40 74 41 75 42 76 43 77 67 78
REMARK SMILES IDX 68 79 76 80 69 81 71 82 77 83 70 84 72 85 73 86 74 87 75 88
REMARK SMILES IDX 52 89 53 90 61 91 54 92 56 93 62 94 55 95 57 96 58 97 59 98
REMARK SMILES IDX 60 99
REMARK H PARENT 1 20 1 21 1 22 82 52 50 63
REMARK Flexibility Score: inf
ROOT
ATOM      1  C   UNL A   1      35.099  34.002  29.455  1.00  0.00     0.188 C 
ENDROOT
BRANCH   1   2
ATOM      2  C   UNL A   1      35.505  33.024  28.341  1.00  0.00     0.188 C 
BRANCH   2   3
ATOM      3  O   UNL A   1      34.384  32.534  27.606  1.00  0.00    -0.376 OA
BRANCH   3   4
ATOM      4  C   UNL A   1      34.155  31.135  27.745  1.00  0.00     0.202 C 
BRANCH   4   5
ATOM      5  C   UNL A   1      32.889  30.726  26.994  1.00  0.00     0.261 C 
BRANCH   5   6
ATOM      6  O   UNL A   1      32.704  29.303  26.928  1.00  0.00    -0.460 OA
BRANCH   6   7
ATOM      7  C   UNL A   1      33.247  28.667  25.852  1.00  0.00     0.341 C 
ATOM      8  O   UNL A   1      34.450  28.642  25.624  1.00  0.00    -0.246 OA
BRANCH   7   9
ATOM      9  C   UNL A   1      32.243  27.978  25.041  1.00  0.00     0.093 A 
ATOM     10  C   UNL A   1      31.068  26.313  23.983  1.00  0.00     0.086 A 
ATOM     11  C   UNL A   1      32.172  26.569  24.784  1.00  0.00     0.024 A 
ATOM     12  N   UNL A   1      30.459  27.534  23.723  1.00  0.00    -0.314 N 
ATOM     13  C   UNL A   1      31.148  28.539  24.403  1.00  0.00     0.061 A 
ATOM     14  C   UNL A   1      29.337  27.805  22.928  1.00  0.00     0.092 A 
ATOM     15  C   UNL A   1      30.631  29.869  24.306  1.00  0.00     0.027 A 
ATOM     16  C   UNL A   1      28.876  29.061  22.821  1.00  0.00     0.018 A 
ATOM     17  C   UNL A   1      29.545  30.118  23.554  1.00  0.00     0.004 A 
BRANCH  10  18
ATOM     18  C   UNL A   1      30.515  25.018  23.489  1.00  0.00     0.315 C 
BRANCH  18  19
ATOM     19  N   UNL A   1      31.416  24.430  22.508  1.00  0.00    -0.353 N 
ATOM     20  H   UNL A   1      30.872  23.984  21.770  1.00  0.00     0.344 HD
ATOM     21  H   UNL A   1      32.006  23.734  22.963  1.00  0.00     0.344 HD
ATOM     22  H   UNL A   1      32.003  25.160  22.104  1.00  0.00     0.344 HD
ENDBRANCH  18  19
ENDBRANCH  10  18
BRANCH  11  23
ATOM     23  C   UNL A   1      33.012  25.550  25.386  1.00  0.00    -0.015 A 
ATOM     24  C   UNL A   1      34.269  25.315  24.823  1.00  0.00     0.009 A 
ATOM     25  C   UNL A   1      32.529  24.701  26.383  1.00  0.00     0.009 A 
ATOM     26  C   UNL A   1      34.980  24.169  25.156  1.00  0.00     0.001 A 
ATOM     27  C   UNL A   1      33.282  23.589  26.768  1.00  0.00     0.001 A 
ATOM     28  C   UNL A   1      34.489  23.307  26.131  1.00  0.00     0.000 A 
ENDBRANCH  11  23
ENDBRANCH   7   9
ENDBRANCH   6   7
ENDBRANCH   5   6
ENDBRANCH   4   5
ENDBRANCH   3   4
ENDBRANCH   2   3
ENDBRANCH   1   2
BRANCH   1  29
ATOM     29  O   UNL A   1      34.259  33.557  30.521  1.00  0.00    -0.376 OA
BRANCH  29  30
ATOM     30  C   UNL A   1      34.287  34.264  31.750  1.00  0.00     0.202 C 
BRANCH  30  31
ATOM     31  C   UNL A   1      34.688  33.458  32.986  1.00  0.00     0.261 C 
BRANCH  31  32
ATOM     32  O   UNL A   1      35.304  32.198  32.683  1.00  0.00    -0.460 OA
BRANCH  32  33
ATOM     33  C   UNL A   1      36.481  31.976  33.317  1.00  0.00     0.338 C 
ATOM     34  O   UNL A   1      36.745  32.219  34.484  1.00  0.00    -0.246 OA
BRANCH  33  35
ATOM     35  C   UNL A   1      37.423  31.279  32.415  1.00  0.00     0.060 A 
ATOM     36  C   UNL A   1      38.422  30.488  32.995  1.00  0.00     0.016 A 
ATOM     37  C   UNL A   1      37.388  31.467  31.030  1.00  0.00     0.016 A 
ATOM     38  C   UNL A   1      39.414  29.917  32.196  1.00  0.00     0.010 A 
ATOM     39  C   UNL A   1      38.394  30.909  30.233  1.00  0.00     0.010 A 
ATOM     40  C   UNL A   1      39.430  30.161  30.815  1.00  0.00    -0.014 A 
BRANCH  40  41
ATOM     41  C   UNL A   1      40.605  29.747  30.008  1.00  0.00     0.031 A 
ATOM     42  C   UNL A   1      40.543  28.467  29.231  1.00  0.00     0.074 A 
ATOM     43  C   UNL A   1      41.724  30.490  29.976  1.00  0.00     0.049 A 
ATOM     44  N   UNL A   1      41.444  27.937  28.449  1.00  0.00    -0.248 NA
ATOM     45  C   UNL A   1      39.311  27.672  29.367  1.00  0.00     0.031 C 
ATOM     46  C   UNL A   1      41.913  31.719  30.729  1.00  0.00     0.029 A 
ATOM     47  N   UNL A   1      42.909  30.323  29.305  1.00  0.00    -0.354 N 
ATOM     48  C   UNL A   1      40.908  26.732  28.021  1.00  0.00     0.074 A 
ATOM     49  C   UNL A   1      39.598  26.611  28.627  1.00  0.00     0.031 C 
ATOM     50  C   UNL A   1      43.132  32.216  30.469  1.00  0.00     0.029 A 
ATOM     51  C   UNL A   1      43.826  31.319  29.552  1.00  0.00     0.049 A 
ATOM     52  H   UNL A   1      43.086  29.564  28.705  1.00  0.00     0.167 HD
ATOM     53  C   UNL A   1      41.458  25.812  27.197  1.00  0.00     0.034 A 
ATOM     54  C   UNL A   1      45.085  31.486  29.100  1.00  0.00     0.034 A 
ATOM     55  C   UNL A   1      42.759  25.931  26.599  1.00  0.00     0.049 A 
ATOM     56  C   UNL A   1      45.659  30.460  28.162  1.00  0.00     0.074 A 
ATOM     57  C   UNL A   1      43.386  25.061  25.725  1.00  0.00     0.029 A 
ATOM     58  N   UNL A   1      43.639  26.980  26.820  1.00  0.00    -0.354 N 
ATOM     59  N   UNL A   1      45.087  29.392  27.663  1.00  0.00    -0.248 NA
ATOM     60  C   UNL A   1      47.044  30.666  27.714  1.00  0.00     0.031 C 
ATOM     61  C   UNL A   1      44.654  25.575  25.433  1.00  0.00     0.029 A 
ATOM     62  C   UNL A   1      44.809  26.775  26.109  1.00  0.00     0.049 A 
ATOM     63  H   UNL A   1      43.458  27.755  27.400  1.00  0.00     0.167 HD
ATOM     64  C   UNL A   1      46.033  28.807  26.829  1.00  0.00     0.074 A 
ATOM     65  C   UNL A   1      47.205  29.658  26.867  1.00  0.00     0.031 C 
ATOM     66  C   UNL A   1      45.948  27.657  26.117  1.00  0.00     0.034 A 
BRANCH  53  67
ATOM     67  C   UNL A   1      40.634  24.595  26.885  1.00  0.00     0.023 A 
ATOM     68  C   UNL A   1      39.334  24.755  26.363  1.00  0.00     0.012 A 
ATOM     69  C   UNL A   1      41.152  23.300  27.079  1.00  0.00     0.148 A 
ATOM     70  C   UNL A   1      38.552  23.641  26.062  1.00  0.00     0.002 A 
ATOM     71  C   UNL A   1      40.379  22.196  26.742  1.00  0.00     0.091 A 
ATOM     72  F   UNL A   1      42.377  23.174  27.607  1.00  0.00    -0.205 F 
ATOM     73  C   UNL A   1      39.077  22.363  26.242  1.00  0.00     0.022 A 
BRANCH  71  74
ATOM     74  S   UNL A   1      40.993  20.515  26.883  1.00  0.00     0.127 S 
ATOM     75  O   UNL A   1      40.898  20.286  28.325  1.00  0.00    -0.237 OA
ATOM     76  O   UNL A   1      40.027  19.762  26.082  1.00  0.00    -0.237 OA
ATOM     77  O   UNL A   1      42.344  20.537  26.338  1.00  0.00    -0.744 OA
ENDBRANCH  71  74
ENDBRANCH  53  67
BRANCH  54  78
ATOM     78  C   UNL A   1      45.865  32.698  29.483  1.00  0.00     0.023 A 
ATOM     79  C   UNL A   1      45.765  33.861  28.696  1.00  0.00     0.012 A 
ATOM     80  C   UNL A   1      46.676  32.721  30.635  1.00  0.00     0.148 A 
ATOM     81  C   UNL A   1      46.474  35.015  29.034  1.00  0.00     0.002 A 
ATOM     82  C   UNL A   1      47.332  33.892  30.999  1.00  0.00     0.091 A 
ATOM     83  F   UNL A   1      46.782  31.599  31.361  1.00  0.00    -0.205 F 
ATOM     84  C   UNL A   1      47.246  35.035  30.192  1.00  0.00     0.022 A 
BRANCH  82  85
ATOM     85  S   UNL A   1      48.218  34.037  32.556  1.00  0.00     0.127 S 
ATOM     86  O   UNL A   1      48.575  35.453  32.568  1.00  0.00    -0.237 OA
ATOM     87  O   UNL A   1      47.196  33.649  33.530  1.00  0.00    -0.237 OA
ATOM     88  O   UNL A   1      49.326  33.096  32.453  1.00  0.00    -0.744 OA
ENDBRANCH  82  85
ENDBRANCH  54  78
BRANCH  66  89
ATOM     89  C   UNL A   1      47.146  27.250  25.305  1.00  0.00     0.023 A 
ATOM     90  C   UNL A   1      48.065  26.323  25.838  1.00  0.00     0.012 A 
ATOM     91  C   UNL A   1      47.319  27.716  23.988  1.00  0.00     0.148 A 
ATOM     92  C   UNL A   1      49.149  25.885  25.080  1.00  0.00     0.002 A 
ATOM     93  C   UNL A   1      48.378  27.243  23.223  1.00  0.00     0.091 A 
ATOM     94  F   UNL A   1      46.446  28.614  23.507  1.00  0.00    -0.205 F 
ATOM     95  C   UNL A   1      49.299  26.333  23.770  1.00  0.00     0.022 A 
BRANCH  93  96
ATOM     96  S   UNL A   1      48.596  27.700  21.499  1.00  0.00     0.127 S 
ATOM     97  O   UNL A   1      49.358  28.941  21.614  1.00  0.00    -0.237 OA
ATOM     98  O   UNL A   1      49.355  26.566  20.968  1.00  0.00    -0.237 OA
ATOM     99  O   UNL A   1      47.254  27.834  20.950  1.00  0.00    -0.744 OA
ENDBRANCH  93  96
ENDBRANCH  66  89
ENDBRANCH  40  41
ENDBRANCH  33  35
ENDBRANCH  32  33
ENDBRANCH  31  32
ENDBRANCH  30  31
ENDBRANCH  29  30
ENDBRANCH   1  29
TORSDOF 23
ENDMDL
MODEL 2
REMARK VINA RESULT:      -9.2      8.935     15.416
REMARK SMILES [NH3+]Cc1c(-c2ccccc2)c(C(=O)OCCOCCOCCOC(=O)c2ccc(-c3c4nc(c(-c5cccc(S(=O)(=O)[O-])c5F)c5ccc([nH]5)c(-c5cccc(S(=O)(=O)[O-])c5F)c5nc(c(-c6cccc(S(=O)(=O)[O-])c6F)c6ccc3[nH]6)C=C5)C=C4)cc2)c2ccccn12
REMARK SMILES IDX 19 1 18 2 17 3 16 4 15 5 14 6 12 7 13 8 11 9 3 10 4 11 94 12
REMARK SMILES IDX 89 13 93 14 90 15 92 16 91 17 2 18 1 19 5 23 6 24 10 25 7 26
REMARK SMILES IDX 9 27 8 28 20 29 21 30 22 31 23 32 24 33 25 34 26 35 27 36
REMARK SMILES IDX 88 37 28 38 87 39 29 40 30 41 31 42 81 43 32 44 86 45 80 46
REMARK SMILES IDX 82 47 33 48 85 49 79 50 78 51 34 53 66 54 46 55 65 56 47 57
REMARK SMILES IDX 50 58 64 59 83 60 48 61 49 62 63 64 84 65 51 66 35 67 36 68
REMARK SMILES IDX 44 69 37 70 39 71 45 72 38 73 40 74 41 75 42 76 43 77 67 78
REMARK SMILES IDX 68 79 76 80 69 81 71 82 77 83 70 84 72 85 73 86 74 87 75 88
REMARK SMILES IDX 52 89 53 90 61 91 54 92 56 93 62 94 55 95 57 96 58 97 59 98
REMARK SMILES IDX 60 99
REMARK H PARENT 1 20 1 21 1 22 82 52 50 63
REMARK Flexibility Score: inf
ROOT
ATOM      1  C   UNL A   1      51.316  20.645  36.935  1.00  0.00     0.188 C 
ENDROOT
BRANCH   1   2
ATOM      2  C   UNL A   1      49.849  21.086  37.060  1.00  0.00     0.188 C 
BRANCH   2   3
ATOM      3  O   UNL A   1      49.718  22.448  37.464  1.00  0.00    -0.376 OA
BRANCH   3   4
ATOM      4  C   UNL A   1      49.638  22.638  38.874  1.00  0.00     0.202 C 
BRANCH   4   5
ATOM      5  C   UNL A   1      48.262  23.180  39.260  1.00  0.00     0.261 C 
BRANCH   5   6
ATOM      6  O   UNL A   1      47.470  22.239  40.003  1.00  0.00    -0.460 OA
BRANCH   6   7
ATOM      7  C   UNL A   1      46.189  22.054  39.580  1.00  0.00     0.341 C 
ATOM      8  O   UNL A   1      45.210  22.326  40.266  1.00  0.00    -0.246 OA
BRANCH   7   9
ATOM      9  C   UNL A   1      46.116  21.553  38.208  1.00  0.00     0.093 A 
ATOM     10  C   UNL A   1      46.252  20.159  36.389  1.00  0.00     0.086 A 
ATOM     11  C   UNL A   1      46.479  20.242  37.755  1.00  0.00     0.024 A 
ATOM     12  N   UNL A   1      45.770  21.394  35.978  1.00  0.00    -0.314 N 
ATOM     13  C   UNL A   1      45.645  22.227  37.091  1.00  0.00     0.061 A 
ATOM     14  C   UNL A   1      45.434  21.821  34.686  1.00  0.00     0.092 A 
ATOM     15  C   UNL A   1      45.103  23.532  36.876  1.00  0.00     0.027 A 
ATOM     16  C   UNL A   1      44.953  23.059  34.491  1.00  0.00     0.018 A 
ATOM     17  C   UNL A   1      44.769  23.928  35.636  1.00  0.00     0.004 A 
BRANCH  10  18
ATOM     18  C   UNL A   1      46.402  19.003  35.456  1.00  0.00     0.315 C 
BRANCH  18  19
ATOM     19  N   UNL A   1      45.095  18.472  35.100  1.00  0.00    -0.353 N 
ATOM     20  H   UNL A   1      45.110  18.148  34.133  1.00  0.00     0.344 HD
ATOM     21  H   UNL A   1      44.392  19.203  35.202  1.00  0.00     0.344 HD
ATOM     22  H   UNL A   1      44.865  17.692  35.716  1.00  0.00     0.344 HD
ENDBRANCH  18  19
ENDBRANCH  10  18
BRANCH  11  23
ATOM     23  C   UNL A   1      46.867  19.127  38.600  1.00  0.00    -0.015 A 
ATOM     24  C   UNL A   1      45.901  18.165  38.907  1.00  0.00     0.009 A 
ATOM     25  C   UNL A   1      48.108  19.091  39.237  1.00  0.00     0.009 A 
ATOM     26  C   UNL A   1      46.122  17.258  39.935  1.00  0.00     0.001 A 
ATOM     27  C   UNL A   1      48.353  18.129  40.220  1.00  0.00     0.001 A 
ATOM     28  C   UNL A   1      47.349  17.237  40.591  1.00  0.00     0.000 A 
ENDBRANCH  11  23
ENDBRANCH   7   9
ENDBRANCH   6   7
ENDBRANCH   5   6
ENDBRANCH   4   5
ENDBRANCH   3   4
ENDBRANCH   2   3
ENDBRANCH   1   2
BRANCH   1  29
ATOM     29  O   UNL A   1      51.752  19.950  35.766  1.00  0.00    -0.376 OA
BRANCH  29  30
ATOM     30  C   UNL A   1      53.125  19.614  35.647  1.00  0.00     0.202 C 
BRANCH  30  31
ATOM     31  C   UNL A   1      53.964  20.501  34.727  1.00  0.00     0.261 C 
BRANCH  31  32
ATOM     32  O   UNL A   1      53.882  21.900  35.038  1.00  0.00    -0.460 OA
BRANCH  32  33
ATOM     33  C   UNL A   1      53.712  22.710  33.965  1.00  0.00     0.338 C 
ATOM     34  O   UNL A   1      54.414  22.765  32.968  1.00  0.00    -0.246 OA
BRANCH  33  35
ATOM     35  C   UNL A   1      52.462  23.486  34.104  1.00  0.00     0.060 A 
ATOM     36  C   UNL A   1      51.248  22.792  34.041  1.00  0.00     0.016 A 
ATOM     37  C   UNL A   1      52.472  24.882  34.204  1.00  0.00     0.016 A 
ATOM     38  C   UNL A   1      50.040  23.491  34.034  1.00  0.00     0.010 A 
ATOM     39  C   UNL A   1      51.260  25.582  34.178  1.00  0.00     0.010 A 
ATOM     40  C   UNL A   1      50.042  24.894  34.058  1.00  0.00    -0.014 A 
BRANCH  40  41
ATOM     41  C   UNL A   1      48.778  25.635  33.821  1.00  0.00     0.031 A 
ATOM     42  C   UNL A   1      47.969  26.094  34.995  1.00  0.00     0.074 A 
ATOM     43  C   UNL A   1      48.343  25.886  32.575  1.00  0.00     0.049 A 
ATOM     44  N   UNL A   1      46.854  26.772  35.009  1.00  0.00    -0.248 NA
ATOM     45  C   UNL A   1      48.473  25.726  36.329  1.00  0.00     0.031 C 
ATOM     46  C   UNL A   1      49.018  25.445  31.366  1.00  0.00     0.029 A 
ATOM     47  N   UNL A   1      47.236  26.553  32.114  1.00  0.00    -0.354 N 
ATOM     48  C   UNL A   1      46.500  26.888  36.344  1.00  0.00     0.074 A 
ATOM     49  C   UNL A   1      47.525  26.214  37.115  1.00  0.00     0.031 C 
ATOM     50  C   UNL A   1      48.331  25.866  30.293  1.00  0.00     0.029 A 
ATOM     51  C   UNL A   1      47.142  26.581  30.742  1.00  0.00     0.049 A 
ATOM     52  H   UNL A   1      46.572  26.970  32.709  1.00  0.00     0.167 HD
ATOM     53  C   UNL A   1      45.421  27.503  36.880  1.00  0.00     0.034 A 
ATOM     54  C   UNL A   1      46.202  27.115  29.936  1.00  0.00     0.034 A 
ATOM     55  C   UNL A   1      44.404  28.170  36.115  1.00  0.00     0.049 A 
ATOM     56  C   UNL A   1      45.027  27.817  30.561  1.00  0.00     0.074 A 
ATOM     57  C   UNL A   1      43.289  28.847  36.574  1.00  0.00     0.029 A 
ATOM     58  N   UNL A   1      44.369  28.233  34.730  1.00  0.00    -0.354 N 
ATOM     59  N   UNL A   1      44.777  28.032  31.829  1.00  0.00    -0.248 NA
ATOM     60  C   UNL A   1      44.012  28.361  29.647  1.00  0.00     0.031 C 
ATOM     61  C   UNL A   1      42.569  29.305  35.465  1.00  0.00     0.029 A 
ATOM     62  C   UNL A   1      43.246  28.929  34.317  1.00  0.00     0.049 A 
ATOM     63  H   UNL A   1      45.043  27.840  34.130  1.00  0.00     0.167 HD
ATOM     64  C   UNL A   1      43.588  28.751  31.867  1.00  0.00     0.074 A 
ATOM     65  C   UNL A   1      43.184  28.960  30.493  1.00  0.00     0.031 C 
ATOM     66  C   UNL A   1      42.883  29.175  32.944  1.00  0.00     0.034 A 
BRANCH  53  67
ATOM     67  C   UNL A   1      45.301  27.491  38.377  1.00  0.00     0.023 A 
ATOM     68  C   UNL A   1      44.667  26.404  39.012  1.00  0.00     0.012 A 
ATOM     69  C   UNL A   1      45.836  28.535  39.155  1.00  0.00     0.148 A 
ATOM     70  C   UNL A   1      44.546  26.369  40.400  1.00  0.00     0.002 A 
ATOM     71  C   UNL A   1      45.744  28.474  40.540  1.00  0.00     0.091 A 
ATOM     72  F   UNL A   1      46.405  29.574  38.528  1.00  0.00    -0.205 F 
ATOM     73  C   UNL A   1      45.093  27.397  41.164  1.00  0.00     0.022 A 
BRANCH  71  74
ATOM     74  S   UNL A   1      46.470  29.723  41.607  1.00  0.00     0.127 S 
ATOM     75  O   UNL A   1      45.708  30.913  41.229  1.00  0.00    -0.237 OA
ATOM     76  O   UNL A   1      46.169  29.204  42.942  1.00  0.00    -0.237 OA
ATOM     77  O   UNL A   1      47.888  29.753  41.276  1.00  0.00    -0.744 OA
ENDBRANCH  71  74
ENDBRANCH  53  67
BRANCH  54  78
ATOM     78  C   UNL A   1      46.362  27.055  28.455  1.00  0.00     0.023 A 
ATOM     79  C   UNL A   1      46.882  28.171  27.770  1.00  0.00     0.012 A 
ATOM     80  C   UNL A   1      46.038  25.895  27.723  1.00  0.00     0.148 A 
ATOM     81  C   UNL A   1      47.052  28.142  26.385  1.00  0.00     0.002 A 
ATOM     82  C   UNL A   1      46.267  25.852  26.352  1.00  0.00     0.091 A 
ATOM     83  F   UNL A   1      45.520  24.850  28.384  1.00  0.00    -0.205 F 
ATOM     84  C   UNL A   1      46.759  26.980  25.678  1.00  0.00     0.022 A 
BRANCH  82  85
ATOM     85  S   UNL A   1      46.058  24.341  25.403  1.00  0.00     0.127 S 
ATOM     86  O   UNL A   1      46.668  23.347  26.282  1.00  0.00    -0.237 OA
ATOM     87  O   UNL A   1      44.602  24.250  25.285  1.00  0.00    -0.237 OA
ATOM     88  O   UNL A   1      46.742  24.586  24.140  1.00  0.00    -0.744 OA
ENDBRANCH  82  85
ENDBRANCH  54  78
BRANCH  66  89
ATOM     89  C   UNL A   1      41.604  29.924  32.688  1.00  0.00     0.023 A 
ATOM     90  C   UNL A   1      41.647  31.316  32.472  1.00  0.00     0.012 A 
ATOM     91  C   UNL A   1      40.377  29.243  32.576  1.00  0.00     0.148 A 
ATOM     92  C   UNL A   1      40.483  32.022  32.172  1.00  0.00     0.002 A 
ATOM     93  C   UNL A   1      39.228  29.947  32.235  1.00  0.00     0.091 A 
ATOM     94  F   UNL A   1      40.355  27.922  32.807  1.00  0.00    -0.205 F 
ATOM     95  C   UNL A   1      39.278  31.337  32.040  1.00  0.00     0.022 A 
BRANCH  93  96
ATOM     96  S   UNL A   1      37.652  29.130  31.959  1.00  0.00     0.127 S 
ATOM     97  O   UNL A   1      36.749  30.269  31.807  1.00  0.00    -0.237 OA
ATOM     98  O   UNL A   1      37.899  28.381  30.726  1.00  0.00    -0.237 OA
ATOM     99  O   UNL A   1      37.422  28.298  33.131  1.00  0.00    -0.744 OA
ENDBRANCH  93  96
ENDBRANCH  66  89
ENDBRANCH  40  41
ENDBRANCH  33  35
ENDBRANCH  32  33
ENDBRANCH  31  32
ENDBRANCH  30  31
ENDBRANCH  29  30
ENDBRANCH   1  29
TORSDOF 23
ENDMDL
MODEL 3
REMARK VINA RESULT:      -9.0     10.202     15.006
REMARK SMILES [NH3+]Cc1c(-c2ccccc2)c(C(=O)OCCOCCOCCOC(=O)c2ccc(-c3c4nc(c(-c5cccc(S(=O)(=O)[O-])c5F)c5ccc([nH]5)c(-c5cccc(S(=O)(=O)[O-])c5F)c5nc(c(-c6cccc(S(=O)(=O)[O-])c6F)c6ccc3[nH]6)C=C5)C=C4)cc2)c2ccccn12
REMARK SMILES IDX 19 1 18 2 17 3 16 4 15 5 14 6 12 7 13 8 11 9 3 10 4 11 94 12
REMARK SMILES IDX 89 13 93 14 90 15 92 16 91 17 2 18 1 19 5 23 6 24 10 25 7 26
REMARK SMILES IDX 9 27 8 28 20 29 21 30 22 31 23 32 24 33 25 34 26 35 27 36
REMARK SMILES IDX 88 37 28 38 87 39 29 40 30 41 31 42 81 43 32 44 86 45 80 46
REMARK SMILES IDX 82 47 33 48 85 49 79 50 78 51 34 53 66 54 46 55 65 56 47 57
REMARK SMILES IDX 50 58 64 59 83 60 48 61 49 62 63 64 84 65 51 66 35 67 36 68
REMARK SMILES IDX 44 69 37 70 39 71 45 72 38 73 40 74 41 75 42 76 43 77 67 78
REMARK SMILES IDX 68 79 76 80 69 81 71 82 77 83 70 84 72 85 73 86 74 87 75 88
REMARK SMILES IDX 52 89 53 90 61 91 54 92 56 93 62 94 55 95 57 96 58 97 59 98
REMARK SMILES IDX 60 99
REMARK H PARENT 1 20 1 21 1 22 82 52 50 63
REMARK Flexibility Score: inf
ROOT
ATOM      1  C   UNL A   1      46.781  20.101  36.439  1.00  0.00     0.188 C 
ENDROOT
BRANCH   1   2
ATOM      2  C   UNL A   1      45.976  19.136  37.325  1.00  0.00     0.188 C 
BRANCH   2   3
ATOM      3  O   UNL A   1      46.148  19.397  38.717  1.00  0.00    -0.376 OA
BRANCH   3   4
ATOM      4  C   UNL A   1      45.877  18.282  39.562  1.00  0.00     0.202 C 
BRANCH   4   5
ATOM      5  C   UNL A   1      45.148  17.189  38.783  1.00  0.00     0.261 C 
BRANCH   5   6
ATOM      6  O   UNL A   1      44.675  16.118  39.615  1.00  0.00    -0.460 OA
BRANCH   6   7
ATOM      7  C   UNL A   1      43.526  16.349  40.310  1.00  0.00     0.341 C 
ATOM      8  O   UNL A   1      42.698  17.190  39.978  1.00  0.00    -0.246 OA
BRANCH   7   9
ATOM      9  C   UNL A   1      43.369  15.448  41.452  1.00  0.00     0.093 A 
ATOM     10  C   UNL A   1      43.630  14.493  43.523  1.00  0.00     0.086 A 
ATOM     11  C   UNL A   1      44.073  15.518  42.699  1.00  0.00     0.024 A 
ATOM     12  N   UNL A   1      42.677  13.777  42.810  1.00  0.00    -0.314 N 
ATOM     13  C   UNL A   1      42.487  14.385  41.569  1.00  0.00     0.061 A 
ATOM     14  C   UNL A   1      41.971  12.629  43.195  1.00  0.00     0.092 A 
ATOM     15  C   UNL A   1      41.492  13.824  40.709  1.00  0.00     0.027 A 
ATOM     16  C   UNL A   1      41.059  12.093  42.369  1.00  0.00     0.018 A 
ATOM     17  C   UNL A   1      40.808  12.731  41.092  1.00  0.00     0.004 A 
BRANCH  10  18
ATOM     18  C   UNL A   1      43.992  14.166  44.934  1.00  0.00     0.315 C 
BRANCH  18  19
ATOM     19  N   UNL A   1      43.398  15.137  45.841  1.00  0.00    -0.353 N 
ATOM     20  H   UNL A   1      42.777  15.756  45.319  1.00  0.00     0.344 HD
ATOM     21  H   UNL A   1      44.135  15.687  46.281  1.00  0.00     0.344 HD
ATOM     22  H   UNL A   1      42.865  14.648  46.560  1.00  0.00     0.344 HD
ENDBRANCH  18  19
ENDBRANCH  10  18
BRANCH  11  23
ATOM     23  C   UNL A   1      44.982  16.573  43.106  1.00  0.00    -0.015 A 
ATOM     24  C   UNL A   1      44.435  17.800  43.494  1.00  0.00     0.009 A 
ATOM     25  C   UNL A   1      46.363  16.447  42.955  1.00  0.00     0.009 A 
ATOM     26  C   UNL A   1      45.246  18.923  43.600  1.00  0.00     0.001 A 
ATOM     27  C   UNL A   1      47.183  17.563  43.135  1.00  0.00     0.001 A 
ATOM     28  C   UNL A   1      46.621  18.805  43.424  1.00  0.00     0.000 A 
ENDBRANCH  11  23
ENDBRANCH   7   9
ENDBRANCH   6   7
ENDBRANCH   5   6
ENDBRANCH   4   5
ENDBRANCH   3   4
ENDBRANCH   2   3
ENDBRANCH   1   2
BRANCH   1  29
ATOM     29  O   UNL A   1      47.239  21.343  36.975  1.00  0.00    -0.376 OA
BRANCH  29  30
ATOM     30  C   UNL A   1      48.207  22.083  36.248  1.00  0.00     0.202 C 
BRANCH  30  31
ATOM     31  C   UNL A   1      47.810  23.502  35.841  1.00  0.00     0.261 C 
BRANCH  31  32
ATOM     32  O   UNL A   1      48.376  23.927  34.592  1.00  0.00    -0.460 OA
BRANCH  32  33
ATOM     33  C   UNL A   1      49.444  24.754  34.706  1.00  0.00     0.338 C 
ATOM     34  O   UNL A   1      49.979  25.124  35.739  1.00  0.00    -0.246 OA
BRANCH  33  35
ATOM     35  C   UNL A   1      49.973  25.092  33.368  1.00  0.00     0.060 A 
ATOM     36  C   UNL A   1      49.869  26.420  32.938  1.00  0.00     0.016 A 
ATOM     37  C   UNL A   1      50.483  24.111  32.512  1.00  0.00     0.016 A 
ATOM     38  C   UNL A   1      50.232  26.765  31.635  1.00  0.00     0.010 A 
ATOM     39  C   UNL A   1      50.830  24.455  31.200  1.00  0.00     0.010 A 
ATOM     40  C   UNL A   1      50.674  25.775  30.745  1.00  0.00    -0.014 A 
BRANCH  40  41
ATOM     41  C   UNL A   1      50.840  26.100  29.307  1.00  0.00     0.031 A 
ATOM     42  C   UNL A   1      49.653  26.015  28.397  1.00  0.00     0.074 A 
ATOM     43  C   UNL A   1      52.036  26.452  28.807  1.00  0.00     0.049 A 
ATOM     44  N   UNL A   1      49.576  26.277  27.120  1.00  0.00    -0.248 NA
ATOM     45  C   UNL A   1      48.389  25.558  29.001  1.00  0.00     0.031 C 
ATOM     46  C   UNL A   1      53.263  26.517  29.584  1.00  0.00     0.029 A 
ATOM     47  N   UNL A   1      52.425  26.805  27.539  1.00  0.00    -0.354 N 
ATOM     48  C   UNL A   1      48.270  25.990  26.755  1.00  0.00     0.074 A 
ATOM     49  C   UNL A   1      47.585  25.538  27.948  1.00  0.00     0.031 C 
ATOM     50  C   UNL A   1      54.272  26.908  28.791  1.00  0.00     0.029 A 
ATOM     51  C   UNL A   1      53.768  27.090  27.435  1.00  0.00     0.049 A 
ATOM     52  H   UNL A   1      51.803  26.851  26.778  1.00  0.00     0.167 HD
ATOM     53  C   UNL A   1      47.693  26.095  25.536  1.00  0.00     0.034 A 
ATOM     54  C   UNL A   1      54.509  27.447  26.368  1.00  0.00     0.034 A 
ATOM     55  C   UNL A   1      48.374  26.542  24.352  1.00  0.00     0.049 A 
ATOM     56  C   UNL A   1      53.835  27.584  25.030  1.00  0.00     0.074 A 
ATOM     57  C   UNL A   1      47.862  26.710  23.078  1.00  0.00     0.029 A 
ATOM     58  N   UNL A   1      49.718  26.880  24.291  1.00  0.00    -0.354 N 
ATOM     59  N   UNL A   1      52.568  27.435  24.729  1.00  0.00    -0.248 NA
ATOM     60  C   UNL A   1      54.686  27.948  23.888  1.00  0.00     0.031 C 
ATOM     61  C   UNL A   1      48.901  27.133  22.242  1.00  0.00     0.029 A 
ATOM     62  C   UNL A   1      50.056  27.246  22.999  1.00  0.00     0.049 A 
ATOM     63  H   UNL A   1      50.339  26.861  25.054  1.00  0.00     0.167 HD
ATOM     64  C   UNL A   1      52.464  27.706  23.370  1.00  0.00     0.074 A 
ATOM     65  C   UNL A   1      53.793  28.056  22.912  1.00  0.00     0.031 C 
ATOM     66  C   UNL A   1      51.373  27.643  22.569  1.00  0.00     0.034 A 
BRANCH  53  67
ATOM     67  C   UNL A   1      46.240  25.731  25.433  1.00  0.00     0.023 A 
ATOM     68  C   UNL A   1      45.265  26.746  25.515  1.00  0.00     0.012 A 
ATOM     69  C   UNL A   1      45.840  24.397  25.228  1.00  0.00     0.148 A 
ATOM     70  C   UNL A   1      43.910  26.433  25.419  1.00  0.00     0.002 A 
ATOM     71  C   UNL A   1      44.489  24.099  25.097  1.00  0.00     0.091 A 
ATOM     72  F   UNL A   1      46.783  23.446  25.187  1.00  0.00    -0.205 F 
ATOM     73  C   UNL A   1      43.523  25.113  25.200  1.00  0.00     0.022 A 
BRANCH  71  74
ATOM     74  S   UNL A   1      43.902  22.437  24.755  1.00  0.00     0.127 S 
ATOM     75  O   UNL A   1      44.297  22.267  23.357  1.00  0.00    -0.237 OA
ATOM     76  O   UNL A   1      44.669  21.633  25.707  1.00  0.00    -0.237 OA
ATOM     77  O   UNL A   1      42.467  22.462  25.003  1.00  0.00    -0.744 OA
ENDBRANCH  71  74
ENDBRANCH  53  67
BRANCH  54  78
ATOM     78  C   UNL A   1      55.960  27.754  26.531  1.00  0.00     0.023 A 
ATOM     79  C   UNL A   1      56.904  26.720  26.387  1.00  0.00     0.012 A 
ATOM     80  C   UNL A   1      56.413  29.062  26.794  1.00  0.00     0.148 A 
ATOM     81  C   UNL A   1      58.270  26.977  26.525  1.00  0.00     0.002 A 
ATOM     82  C   UNL A   1      57.777  29.322  26.869  1.00  0.00     0.091 A 
ATOM     83  F   UNL A   1      55.501  30.032  26.954  1.00  0.00    -0.205 F 
ATOM     84  C   UNL A   1      58.707  28.278  26.752  1.00  0.00     0.022 A 
BRANCH  82  85
ATOM     85  S   UNL A   1      58.417  30.995  27.006  1.00  0.00     0.127 S 
ATOM     86  O   UNL A   1      57.908  31.612  25.784  1.00  0.00    -0.237 OA
ATOM     87  O   UNL A   1      57.790  31.465  28.242  1.00  0.00    -0.237 OA
ATOM     88  O   UNL A   1      59.864  30.844  27.095  1.00  0.00    -0.744 OA
ENDBRANCH  82  85
ENDBRANCH  54  78
BRANCH  66  89
ATOM     89  C   UNL A   1      51.557  27.974  21.114  1.00  0.00     0.023 A 
ATOM     90  C   UNL A   1      51.603  29.324  20.710  1.00  0.00     0.012 A 
ATOM     91  C   UNL A   1      51.767  26.959  20.162  1.00  0.00     0.148 A 
ATOM     92  C   UNL A   1      51.835  29.656  19.376  1.00  0.00     0.002 A 
ATOM     93  C   UNL A   1      52.038  27.298  18.842  1.00  0.00     0.091 A 
ATOM     94  F   UNL A   1      51.696  25.681  20.563  1.00  0.00    -0.205 F 
ATOM     95  C   UNL A   1      52.065  28.645  18.446  1.00  0.00     0.022 A 
BRANCH  93  96
ATOM     96  S   UNL A   1      52.434  26.064  17.597  1.00  0.00     0.127 S 
ATOM     97  O   UNL A   1      53.579  25.387  18.201  1.00  0.00    -0.237 OA
ATOM     98  O   UNL A   1      51.209  25.264  17.550  1.00  0.00    -0.237 OA
ATOM     99  O   UNL A   1      52.714  26.806  16.376  1.00  0.00    -0.744 OA
ENDBRANCH  93  96
ENDBRANCH  66  89
ENDBRANCH  40  41
ENDBRANCH  33  35
ENDBRANCH  32  33
ENDBRANCH  31  32
ENDBRANCH  30  31
ENDBRANCH  29  30
ENDBRANCH   1  29
TORSDOF 23
ENDMDL
