MODEL 1
REMARK VINA RESULT:      -9.6      0.000      0.000
REMARK SMILES O=C(C[N@@H+]1CCC[C@@H]1c1ccccc1Cl)OCCOCCOCCOC(=O)c1ccc(-c2c3nc(c(-c4cccc(S(=O)(=O)[O-])c4F)c4ccc([nH]4)c(-c4cccc(S(=O)(=O)[O-])c4F)c4nc(c(-c5cccc(S(=O)(=O)[O-])c5F)c5ccc2[nH]5)C=C4)C=C3)cc1
REMARK SMILES IDX 21 1 20 2 19 3 18 4 17 5 16 6 2 7 1 8 3 9 4 10 5 11 8 12
REMARK SMILES IDX 6 14 7 15 9 16 10 17 14 18 11 19 13 20 15 21 12 22 22 23
REMARK SMILES IDX 23 24 24 25 25 26 26 27 27 28 28 29 29 30 90 31 30 32 89 33
REMARK SMILES IDX 31 34 32 35 33 36 83 37 34 38 88 39 82 40 84 41 35 42 87 43
REMARK SMILES IDX 81 44 80 45 36 47 68 48 48 49 67 50 49 51 52 52 66 53 85 54
REMARK SMILES IDX 50 55 51 56 65 58 86 59 53 60 37 61 38 62 46 63 39 64 41 65
REMARK SMILES IDX 47 66 40 67 42 68 43 69 44 70 45 71 69 72 70 73 78 74 71 75
REMARK SMILES IDX 73 76 79 77 72 78 74 79 75 80 76 81 77 82 54 83 55 84 63 85
REMARK SMILES IDX 56 86 58 87 64 88 57 89 59 90 60 91 61 92 62 93
REMARK H PARENT 4 13 84 46 52 57
REMARK Flexibility Score: inf
ROOT
ATOM      1  C   UNL A   1      41.711  21.364  27.322  1.00  0.00     0.188 C 
ENDROOT
BRANCH   1   2
ATOM      2  C   UNL A   1      40.413  22.143  27.580  1.00  0.00     0.188 C 
BRANCH   2   3
ATOM      3  O   UNL A   1      39.992  22.945  26.493  1.00  0.00    -0.376 OA
BRANCH   3   4
ATOM      4  C   UNL A   1      38.635  23.356  26.511  1.00  0.00     0.202 C 
BRANCH   4   5
ATOM      5  C   UNL A   1      37.827  22.691  25.399  1.00  0.00     0.261 C 
BRANCH   5   6
ATOM      6  O   UNL A   1      37.021  21.545  25.759  1.00  0.00    -0.459 OA
BRANCH   6   7
ATOM      7  C   UNL A   1      35.675  21.435  25.799  1.00  0.00     0.361 C 
ATOM      8  O   UNL A   1      35.048  22.065  26.654  1.00  0.00    -0.245 OA
BRANCH   7   9
ATOM      9  C   UNL A   1      34.952  20.426  24.924  1.00  0.00     0.387 C 
BRANCH   9  10
ATOM     10  N   UNL A   1      33.659  19.895  25.431  1.00  0.00    -0.319 N 
ATOM     11  C   UNL A   1      33.574  18.444  25.157  1.00  0.00     0.263 C 
ATOM     12  C   UNL A   1      32.448  20.468  24.689  1.00  0.00     0.217 C 
ATOM     13  H   UNL A   1      33.638  20.140  26.421  1.00  0.00     0.349 HD
ATOM     14  C   UNL A   1      33.274  18.366  23.686  1.00  0.00     0.068 C 
ATOM     15  C   UNL A   1      32.257  19.471  23.511  1.00  0.00     0.076 C 
BRANCH  12  16
ATOM     16  C   UNL A   1      32.485  21.929  24.231  1.00  0.00     0.028 A 
ATOM     17  C   UNL A   1      33.317  22.334  23.181  1.00  0.00     0.011 A 
ATOM     18  C   UNL A   1      31.645  22.926  24.762  1.00  0.00     0.050 A 
ATOM     19  C   UNL A   1      32.980  23.436  22.401  1.00  0.00     0.001 A 
ATOM     20  C   UNL A   1      31.349  24.074  24.024  1.00  0.00     0.021 A 
ATOM     21  Cl  UNL A   1      30.988  22.847  26.359  1.00  0.00    -0.084 Cl
ATOM     22  C   UNL A   1      31.949  24.281  22.789  1.00  0.00     0.002 A 
ENDBRANCH  12  16
ENDBRANCH   9  10
ENDBRANCH   7   9
ENDBRANCH   6   7
ENDBRANCH   5   6
ENDBRANCH   4   5
ENDBRANCH   3   4
ENDBRANCH   2   3
ENDBRANCH   1   2
BRANCH   1  23
ATOM     23  O   UNL A   1      41.708  19.946  27.378  1.00  0.00    -0.376 OA
BRANCH  23  24
ATOM     24  C   UNL A   1      41.778  19.216  26.162  1.00  0.00     0.202 C 
BRANCH  24  25
ATOM     25  C   UNL A   1      43.131  18.620  25.733  1.00  0.00     0.261 C 
BRANCH  25  26
ATOM     26  O   UNL A   1      43.578  18.925  24.392  1.00  0.00    -0.460 OA
BRANCH  26  27
ATOM     27  C   UNL A   1      44.819  19.459  24.283  1.00  0.00     0.338 C 
ATOM     28  O   UNL A   1      45.800  18.929  23.763  1.00  0.00    -0.246 OA
BRANCH  27  29
ATOM     29  C   UNL A   1      44.851  20.857  24.767  1.00  0.00     0.060 A 
ATOM     30  C   UNL A   1      44.521  21.894  23.885  1.00  0.00     0.016 A 
ATOM     31  C   UNL A   1      45.304  21.162  26.053  1.00  0.00     0.016 A 
ATOM     32  C   UNL A   1      44.640  23.232  24.291  1.00  0.00     0.010 A 
ATOM     33  C   UNL A   1      45.440  22.502  26.449  1.00  0.00     0.010 A 
ATOM     34  C   UNL A   1      45.108  23.553  25.578  1.00  0.00    -0.014 A 
BRANCH  34  35
ATOM     35  C   UNL A   1      45.306  24.978  25.983  1.00  0.00     0.031 A 
ATOM     36  C   UNL A   1      46.633  25.643  25.760  1.00  0.00     0.074 A 
ATOM     37  C   UNL A   1      44.335  25.675  26.608  1.00  0.00     0.049 A 
ATOM     38  N   UNL A   1      46.994  26.869  26.040  1.00  0.00    -0.248 NA
ATOM     39  C   UNL A   1      47.711  24.802  25.219  1.00  0.00     0.031 C 
ATOM     40  C   UNL A   1      43.057  25.119  27.029  1.00  0.00     0.029 A 
ATOM     41  N   UNL A   1      44.251  27.000  26.978  1.00  0.00    -0.354 N 
ATOM     42  C   UNL A   1      48.366  26.914  25.828  1.00  0.00     0.074 A 
ATOM     43  C   UNL A   1      48.753  25.619  25.306  1.00  0.00     0.031 C 
ATOM     44  C   UNL A   1      42.271  26.109  27.482  1.00  0.00     0.029 A 
ATOM     45  C   UNL A   1      43.006  27.368  27.450  1.00  0.00     0.049 A 
ATOM     46  H   UNL A   1      45.009  27.626  26.912  1.00  0.00     0.167 HD
ATOM     47  C   UNL A   1      49.230  27.919  26.103  1.00  0.00     0.034 A 
ATOM     48  C   UNL A   1      42.514  28.576  27.804  1.00  0.00     0.034 A 
ATOM     49  C   UNL A   1      48.854  29.209  26.619  1.00  0.00     0.049 A 
ATOM     50  C   UNL A   1      43.465  29.744  27.896  1.00  0.00     0.074 A 
ATOM     51  C   UNL A   1      49.672  30.295  26.884  1.00  0.00     0.029 A 
ATOM     52  N   UNL A   1      47.569  29.586  26.971  1.00  0.00    -0.354 N 
ATOM     53  N   UNL A   1      44.729  29.809  27.557  1.00  0.00    -0.248 NA
ATOM     54  C   UNL A   1      42.935  30.993  28.468  1.00  0.00     0.031 C 
ATOM     55  C   UNL A   1      48.888  31.314  27.431  1.00  0.00     0.029 A 
ATOM     56  C   UNL A   1      47.574  30.881  27.464  1.00  0.00     0.049 A 
ATOM     57  H   UNL A   1      46.769  29.018  26.885  1.00  0.00     0.167 HD
ATOM     58  C   UNL A   1      45.154  31.082  27.923  1.00  0.00     0.074 A 
ATOM     59  C   UNL A   1      43.992  31.791  28.412  1.00  0.00     0.031 C 
ATOM     60  C   UNL A   1      46.410  31.592  27.923  1.00  0.00     0.034 A 
BRANCH  47  61
ATOM     61  C   UNL A   1      50.697  27.655  25.903  1.00  0.00     0.023 A 
ATOM     62  C   UNL A   1      51.501  27.254  26.985  1.00  0.00     0.012 A 
ATOM     63  C   UNL A   1      51.254  27.723  24.609  1.00  0.00     0.148 A 
ATOM     64  C   UNL A   1      52.846  26.946  26.788  1.00  0.00     0.002 A 
ATOM     65  C   UNL A   1      52.581  27.369  24.411  1.00  0.00     0.091 A 
ATOM     66  F   UNL A   1      50.471  28.126  23.597  1.00  0.00    -0.205 F 
ATOM     67  C   UNL A   1      53.382  26.990  25.502  1.00  0.00     0.022 A 
BRANCH  65  68
ATOM     68  S   UNL A   1      53.341  27.311  22.786  1.00  0.00     0.127 S 
ATOM     69  O   UNL A   1      53.290  28.717  22.387  1.00  0.00    -0.237 OA
ATOM     70  O   UNL A   1      54.681  26.812  23.094  1.00  0.00    -0.237 OA
ATOM     71  O   UNL A   1      52.521  26.412  21.986  1.00  0.00    -0.744 OA
ENDBRANCH  65  68
ENDBRANCH  47  61
BRANCH  48  72
ATOM     72  C   UNL A   1      41.058  28.780  28.095  1.00  0.00     0.023 A 
ATOM     73  C   UNL A   1      40.178  29.056  27.024  1.00  0.00     0.012 A 
ATOM     74  C   UNL A   1      40.530  28.732  29.396  1.00  0.00     0.148 A 
ATOM     75  C   UNL A   1      38.823  29.311  27.250  1.00  0.00     0.002 A 
ATOM     76  C   UNL A   1      39.163  28.896  29.604  1.00  0.00     0.091 A 
ATOM     77  F   UNL A   1      41.369  28.542  30.425  1.00  0.00    -0.205 F 
ATOM     78  C   UNL A   1      38.311  29.214  28.539  1.00  0.00     0.022 A 
BRANCH  76  79
ATOM     79  S   UNL A   1      38.438  28.583  31.218  1.00  0.00     0.127 S 
ATOM     80  O   UNL A   1      39.185  29.502  32.070  1.00  0.00    -0.237 OA
ATOM     81  O   UNL A   1      37.033  28.937  31.015  1.00  0.00    -0.237 OA
ATOM     82  O   UNL A   1      38.662  27.160  31.446  1.00  0.00    -0.744 OA
ENDBRANCH  76  79
ENDBRANCH  48  72
BRANCH  60  83
ATOM     83  C   UNL A   1      46.607  32.971  28.501  1.00  0.00     0.023 A 
ATOM     84  C   UNL A   1      47.015  33.107  29.845  1.00  0.00     0.012 A 
ATOM     85  C   UNL A   1      46.472  34.122  27.702  1.00  0.00     0.148 A 
ATOM     86  C   UNL A   1      47.256  34.367  30.391  1.00  0.00     0.002 A 
ATOM     87  C   UNL A   1      46.760  35.371  28.240  1.00  0.00     0.091 A 
ATOM     88  F   UNL A   1      46.071  33.972  26.432  1.00  0.00    -0.205 F 
ATOM     89  C   UNL A   1      47.140  35.496  29.586  1.00  0.00     0.022 A 
BRANCH  87  90
ATOM     90  S   UNL A   1      46.725  36.877  27.262  1.00  0.00     0.127 S 
ATOM     91  O   UNL A   1      47.187  37.871  28.230  1.00  0.00    -0.237 OA
ATOM     92  O   UNL A   1      47.677  36.575  26.194  1.00  0.00    -0.237 OA
ATOM     93  O   UNL A   1      45.345  37.038  26.820  1.00  0.00    -0.744 OA
ENDBRANCH  87  90
ENDBRANCH  60  83
ENDBRANCH  34  35
ENDBRANCH  27  29
ENDBRANCH  26  27
ENDBRANCH  25  26
ENDBRANCH  24  25
ENDBRANCH  23  24
ENDBRANCH   1  23
TORSDOF 22
ENDMDL
MODEL 2
REMARK VINA RESULT:      -9.5      6.495     11.088
REMARK SMILES O=C(C[N@@H+]1CCC[C@@H]1c1ccccc1Cl)OCCOCCOCCOC(=O)c1ccc(-c2c3nc(c(-c4cccc(S(=O)(=O)[O-])c4F)c4ccc([nH]4)c(-c4cccc(S(=O)(=O)[O-])c4F)c4nc(c(-c5cccc(S(=O)(=O)[O-])c5F)c5ccc2[nH]5)C=C4)C=C3)cc1
REMARK SMILES IDX 21 1 20 2 19 3 18 4 17 5 16 6 2 7 1 8 3 9 4 10 5 11 8 12
REMARK SMILES IDX 6 14 7 15 9 16 10 17 14 18 11 19 13 20 15 21 12 22 22 23
REMARK SMILES IDX 23 24 24 25 25 26 26 27 27 28 28 29 29 30 90 31 30 32 89 33
REMARK SMILES IDX 31 34 32 35 33 36 83 37 34 38 88 39 82 40 84 41 35 42 87 43
REMARK SMILES IDX 81 44 80 45 36 47 68 48 48 49 67 50 49 51 52 52 66 53 85 54
REMARK SMILES IDX 50 55 51 56 65 58 86 59 53 60 37 61 38 62 46 63 39 64 41 65
REMARK SMILES IDX 47 66 40 67 42 68 43 69 44 70 45 71 69 72 70 73 78 74 71 75
REMARK SMILES IDX 73 76 79 77 72 78 74 79 75 80 76 81 77 82 54 83 55 84 63 85
REMARK SMILES IDX 56 86 58 87 64 88 57 89 59 90 60 91 61 92 62 93
REMARK H PARENT 4 13 84 46 52 57
REMARK Flexibility Score: inf
ROOT
ATOM      1  C   UNL A   1      33.165  29.408  26.821  1.00  0.00     0.188 C 
ENDROOT
BRANCH   1   2
ATOM      2  C   UNL A   1      33.276  28.807  25.412  1.00  0.00     0.188 C 
BRANCH   2   3
ATOM      3  O   UNL A   1      32.426  29.410  24.455  1.00  0.00    -0.376 OA
BRANCH   3   4
ATOM      4  C   UNL A   1      32.422  28.821  23.165  1.00  0.00     0.202 C 
BRANCH   4   5
ATOM      5  C   UNL A   1      33.758  28.153  22.843  1.00  0.00     0.261 C 
BRANCH   5   6
ATOM      6  O   UNL A   1      33.723  26.970  22.010  1.00  0.00    -0.459 OA
BRANCH   6   7
ATOM      7  C   UNL A   1      32.838  25.950  22.025  1.00  0.00     0.361 C 
ATOM      8  O   UNL A   1      32.079  25.802  21.065  1.00  0.00    -0.245 OA
BRANCH   7   9
ATOM      9  C   UNL A   1      32.655  25.098  23.270  1.00  0.00     0.387 C 
BRANCH   9  10
ATOM     10  N   UNL A   1      31.324  24.467  23.467  1.00  0.00    -0.319 N 
ATOM     11  C   UNL A   1      30.281  25.514  23.535  1.00  0.00     0.263 C 
ATOM     12  C   UNL A   1      31.198  23.752  24.814  1.00  0.00     0.217 C 
ATOM     13  H   UNL A   1      31.218  23.815  22.689  1.00  0.00     0.349 HD
ATOM     14  C   UNL A   1      30.443  26.103  24.909  1.00  0.00     0.068 C 
ATOM     15  C   UNL A   1      30.672  24.872  25.756  1.00  0.00     0.076 C 
BRANCH  12  16
ATOM     16  C   UNL A   1      32.420  23.024  25.383  1.00  0.00     0.028 A 
ATOM     17  C   UNL A   1      33.196  23.600  26.394  1.00  0.00     0.011 A 
ATOM     18  C   UNL A   1      32.791  21.722  24.997  1.00  0.00     0.050 A 
ATOM     19  C   UNL A   1      33.904  22.796  27.283  1.00  0.00     0.001 A 
ATOM     20  C   UNL A   1      33.561  20.922  25.844  1.00  0.00     0.021 A 
ATOM     21  Cl  UNL A   1      32.395  21.051  23.454  1.00  0.00    -0.084 Cl
ATOM     22  C   UNL A   1      34.039  21.436  27.042  1.00  0.00     0.002 A 
ENDBRANCH  12  16
ENDBRANCH   9  10
ENDBRANCH   7   9
ENDBRANCH   6   7
ENDBRANCH   5   6
ENDBRANCH   4   5
ENDBRANCH   3   4
ENDBRANCH   2   3
ENDBRANCH   1   2
BRANCH   1  23
ATOM     23  O   UNL A   1      32.448  30.617  27.019  1.00  0.00    -0.376 OA
BRANCH  23  24
ATOM     24  C   UNL A   1      33.178  31.807  27.280  1.00  0.00     0.202 C 
BRANCH  24  25
ATOM     25  C   UNL A   1      32.453  33.160  27.168  1.00  0.00     0.261 C 
BRANCH  25  26
ATOM     26  O   UNL A   1      32.234  33.883  28.401  1.00  0.00    -0.460 OA
BRANCH  26  27
ATOM     27  C   UNL A   1      33.211  34.748  28.767  1.00  0.00     0.338 C 
ATOM     28  O   UNL A   1      33.144  35.976  28.748  1.00  0.00    -0.246 OA
BRANCH  27  29
ATOM     29  C   UNL A   1      34.379  34.038  29.332  1.00  0.00     0.060 A 
ATOM     30  C   UNL A   1      34.195  33.178  30.424  1.00  0.00     0.016 A 
ATOM     31  C   UNL A   1      35.670  34.292  28.864  1.00  0.00     0.016 A 
ATOM     32  C   UNL A   1      35.300  32.570  31.039  1.00  0.00     0.010 A 
ATOM     33  C   UNL A   1      36.775  33.697  29.495  1.00  0.00     0.010 A 
ATOM     34  C   UNL A   1      36.606  32.829  30.586  1.00  0.00    -0.014 A 
BRANCH  34  35
ATOM     35  C   UNL A   1      37.786  32.240  31.290  1.00  0.00     0.031 A 
ATOM     36  C   UNL A   1      38.646  31.226  30.593  1.00  0.00     0.074 A 
ATOM     37  C   UNL A   1      38.069  32.549  32.573  1.00  0.00     0.049 A 
ATOM     38  N   UNL A   1      39.710  30.609  31.035  1.00  0.00    -0.248 NA
ATOM     39  C   UNL A   1      38.212  30.802  29.253  1.00  0.00     0.031 C 
ATOM     40  C   UNL A   1      37.240  33.391  33.423  1.00  0.00     0.029 A 
ATOM     41  N   UNL A   1      39.134  32.219  33.381  1.00  0.00    -0.354 N 
ATOM     42  C   UNL A   1      40.003  29.638  30.088  1.00  0.00     0.074 A 
ATOM     43  C   UNL A   1      39.060  29.812  29.003  1.00  0.00     0.031 C 
ATOM     44  C   UNL A   1      37.880  33.616  34.582  1.00  0.00     0.029 A 
ATOM     45  C   UNL A   1      39.139  32.881  34.593  1.00  0.00     0.049 A 
ATOM     46  H   UNL A   1      39.828  31.571  33.118  1.00  0.00     0.167 HD
ATOM     47  C   UNL A   1      40.929  28.652  30.147  1.00  0.00     0.034 A 
ATOM     48  C   UNL A   1      40.053  32.899  35.589  1.00  0.00     0.034 A 
ATOM     49  C   UNL A   1      41.872  28.472  31.220  1.00  0.00     0.049 A 
ATOM     50  C   UNL A   1      41.209  31.932  35.527  1.00  0.00     0.074 A 
ATOM     51  C   UNL A   1      42.870  27.519  31.330  1.00  0.00     0.029 A 
ATOM     52  N   UNL A   1      41.925  29.235  32.375  1.00  0.00    -0.354 N 
ATOM     53  N   UNL A   1      41.554  31.118  34.560  1.00  0.00    -0.248 NA
ATOM     54  C   UNL A   1      42.074  31.847  36.716  1.00  0.00     0.031 C 
ATOM     55  C   UNL A   1      43.502  27.682  32.565  1.00  0.00     0.029 A 
ATOM     56  C   UNL A   1      42.927  28.766  33.207  1.00  0.00     0.049 A 
ATOM     57  H   UNL A   1      41.336  29.999  32.575  1.00  0.00     0.167 HD
ATOM     58  C   UNL A   1      42.637  30.392  35.045  1.00  0.00     0.074 A 
ATOM     59  C   UNL A   1      42.959  30.932  36.348  1.00  0.00     0.031 C 
ATOM     60  C   UNL A   1      43.262  29.324  34.490  1.00  0.00     0.034 A 
BRANCH  47  61
ATOM     61  C   UNL A   1      40.945  27.639  29.035  1.00  0.00     0.023 A 
ATOM     62  C   UNL A   1      39.981  26.615  28.993  1.00  0.00     0.012 A 
ATOM     63  C   UNL A   1      41.875  27.765  27.982  1.00  0.00     0.148 A 
ATOM     64  C   UNL A   1      39.955  25.716  27.928  1.00  0.00     0.002 A 
ATOM     65  C   UNL A   1      41.813  26.896  26.902  1.00  0.00     0.091 A 
ATOM     66  F   UNL A   1      42.796  28.737  28.056  1.00  0.00    -0.205 F 
ATOM     67  C   UNL A   1      40.860  25.864  26.878  1.00  0.00     0.022 A 
BRANCH  65  68
ATOM     68  S   UNL A   1      42.876  27.054  25.464  1.00  0.00     0.127 S 
ATOM     69  O   UNL A   1      44.154  27.412  26.081  1.00  0.00    -0.237 OA
ATOM     70  O   UNL A   1      42.828  25.705  24.901  1.00  0.00    -0.237 OA
ATOM     71  O   UNL A   1      42.282  28.089  24.631  1.00  0.00    -0.744 OA
ENDBRANCH  65  68
ENDBRANCH  47  61
BRANCH  48  72
ATOM     72  C   UNL A   1      39.949  33.858  36.737  1.00  0.00     0.023 A 
ATOM     73  C   UNL A   1      40.427  35.178  36.572  1.00  0.00     0.012 A 
ATOM     74  C   UNL A   1      39.416  33.494  37.985  1.00  0.00     0.148 A 
ATOM     75  C   UNL A   1      40.405  36.092  37.629  1.00  0.00     0.002 A 
ATOM     76  C   UNL A   1      39.312  34.436  39.004  1.00  0.00     0.091 A 
ATOM     77  F   UNL A   1      39.026  32.224  38.172  1.00  0.00    -0.205 F 
ATOM     78  C   UNL A   1      39.832  35.726  38.842  1.00  0.00     0.022 A 
BRANCH  76  79
ATOM     79  S   UNL A   1      38.404  34.061  40.508  1.00  0.00     0.127 S 
ATOM     80  O   UNL A   1      37.187  33.450  39.986  1.00  0.00    -0.237 OA
ATOM     81  O   UNL A   1      39.302  33.141  41.208  1.00  0.00    -0.237 OA
ATOM     82  O   UNL A   1      38.249  35.352  41.170  1.00  0.00    -0.744 OA
ENDBRANCH  76  79
ENDBRANCH  48  72
BRANCH  60  83
ATOM     83  C   UNL A   1      44.334  28.641  35.300  1.00  0.00     0.023 A 
ATOM     84  C   UNL A   1      45.665  29.103  35.219  1.00  0.00     0.012 A 
ATOM     85  C   UNL A   1      44.019  27.604  36.199  1.00  0.00     0.148 A 
ATOM     86  C   UNL A   1      46.668  28.525  35.996  1.00  0.00     0.002 A 
ATOM     87  C   UNL A   1      45.015  27.065  37.005  1.00  0.00     0.091 A 
ATOM     88  F   UNL A   1      42.751  27.171  36.252  1.00  0.00    -0.205 F 
ATOM     89  C   UNL A   1      46.340  27.515  36.896  1.00  0.00     0.022 A 
BRANCH  87  90
ATOM     90  S   UNL A   1      44.679  25.821  38.257  1.00  0.00     0.127 S 
ATOM     91  O   UNL A   1      44.382  24.647  37.438  1.00  0.00    -0.237 OA
ATOM     92  O   UNL A   1      45.950  25.758  38.978  1.00  0.00    -0.237 OA
ATOM     93  O   UNL A   1      43.560  26.329  39.041  1.00  0.00    -0.744 OA
ENDBRANCH  87  90
ENDBRANCH  60  83
ENDBRANCH  34  35
ENDBRANCH  27  29
ENDBRANCH  26  27
ENDBRANCH  25  26
ENDBRANCH  24  25
ENDBRANCH  23  24
ENDBRANCH   1  23
TORSDOF 22
ENDMDL
MODEL 3
REMARK VINA RESULT:      -9.4      7.281     12.347
REMARK SMILES O=C(C[N@@H+]1CCC[C@@H]1c1ccccc1Cl)OCCOCCOCCOC(=O)c1ccc(-c2c3nc(c(-c4cccc(S(=O)(=O)[O-])c4F)c4ccc([nH]4)c(-c4cccc(S(=O)(=O)[O-])c4F)c4nc(c(-c5cccc(S(=O)(=O)[O-])c5F)c5ccc2[nH]5)C=C4)C=C3)cc1
REMARK SMILES IDX 21 1 20 2 19 3 18 4 17 5 16 6 2 7 1 8 3 9 4 10 5 11 8 12
REMARK SMILES IDX 6 14 7 15 9 16 10 17 14 18 11 19 13 20 15 21 12 22 22 23
REMARK SMILES IDX 23 24 24 25 25 26 26 27 27 28 28 29 29 30 90 31 30 32 89 33
REMARK SMILES IDX 31 34 32 35 33 36 83 37 34 38 88 39 82 40 84 41 35 42 87 43
REMARK SMILES IDX 81 44 80 45 36 47 68 48 48 49 67 50 49 51 52 52 66 53 85 54
REMARK SMILES IDX 50 55 51 56 65 58 86 59 53 60 37 61 38 62 46 63 39 64 41 65
REMARK SMILES IDX 47 66 40 67 42 68 43 69 44 70 45 71 69 72 70 73 78 74 71 75
REMARK SMILES IDX 73 76 79 77 72 78 74 79 75 80 76 81 77 82 54 83 55 84 63 85
REMARK SMILES IDX 56 86 58 87 64 88 57 89 59 90 60 91 61 92 62 93
REMARK H PARENT 4 13 84 46 52 57
REMARK Flexibility Score: inf
ROOT
ATOM      1  C   UNL A   1      34.700  31.957  28.481  1.00  0.00     0.188 C 
ENDROOT
BRANCH   1   2
ATOM      2  C   UNL A   1      33.624  31.494  27.488  1.00  0.00     0.188 C 
BRANCH   2   3
ATOM      3  O   UNL A   1      33.288  30.123  27.594  1.00  0.00    -0.376 OA
BRANCH   3   4
ATOM      4  C   UNL A   1      33.993  29.241  26.737  1.00  0.00     0.202 C 
BRANCH   4   5
ATOM      5  C   UNL A   1      33.270  29.045  25.406  1.00  0.00     0.261 C 
BRANCH   5   6
ATOM      6  O   UNL A   1      32.068  28.240  25.416  1.00  0.00    -0.459 OA
BRANCH   6   7
ATOM      7  C   UNL A   1      31.946  26.902  25.558  1.00  0.00     0.361 C 
ATOM      8  O   UNL A   1      31.921  26.419  26.692  1.00  0.00    -0.245 OA
BRANCH   7   9
ATOM      9  C   UNL A   1      32.012  25.984  24.348  1.00  0.00     0.387 C 
BRANCH   9  10
ATOM     10  N   UNL A   1      33.209  26.100  23.476  1.00  0.00    -0.319 N 
ATOM     11  C   UNL A   1      32.891  26.940  22.301  1.00  0.00     0.263 C 
ATOM     12  C   UNL A   1      33.626  24.764  22.855  1.00  0.00     0.217 C 
ATOM     13  H   UNL A   1      33.944  26.476  24.077  1.00  0.00     0.349 HD
ATOM     14  C   UNL A   1      32.072  26.040  21.419  1.00  0.00     0.068 C 
ATOM     15  C   UNL A   1      32.814  24.727  21.530  1.00  0.00     0.076 C 
BRANCH  12  16
ATOM     16  C   UNL A   1      33.471  23.484  23.683  1.00  0.00     0.028 A 
ATOM     17  C   UNL A   1      32.438  22.578  23.421  1.00  0.00     0.011 A 
ATOM     18  C   UNL A   1      34.383  23.097  24.683  1.00  0.00     0.050 A 
ATOM     19  C   UNL A   1      32.592  21.229  23.726  1.00  0.00     0.001 A 
ATOM     20  C   UNL A   1      34.504  21.756  25.054  1.00  0.00     0.021 A 
ATOM     21  Cl  UNL A   1      35.350  24.230  25.561  1.00  0.00    -0.084 Cl
ATOM     22  C   UNL A   1      33.664  20.802  24.497  1.00  0.00     0.002 A 
ENDBRANCH  12  16
ENDBRANCH   9  10
ENDBRANCH   7   9
ENDBRANCH   6   7
ENDBRANCH   5   6
ENDBRANCH   4   5
ENDBRANCH   3   4
ENDBRANCH   2   3
ENDBRANCH   1   2
BRANCH   1  23
ATOM     23  O   UNL A   1      34.567  33.211  29.133  1.00  0.00    -0.376 OA
BRANCH  23  24
ATOM     24  C   UNL A   1      34.012  34.300  28.409  1.00  0.00     0.202 C 
BRANCH  24  25
ATOM     25  C   UNL A   1      33.225  35.376  29.179  1.00  0.00     0.261 C 
BRANCH  25  26
ATOM     26  O   UNL A   1      32.451  34.926  30.314  1.00  0.00    -0.460 OA
BRANCH  26  27
ATOM     27  C   UNL A   1      32.734  35.514  31.501  1.00  0.00     0.338 C 
ATOM     28  O   UNL A   1      32.076  36.392  32.058  1.00  0.00    -0.246 OA
BRANCH  27  29
ATOM     29  C   UNL A   1      33.904  34.884  32.152  1.00  0.00     0.060 A 
ATOM     30  C   UNL A   1      35.096  35.612  32.273  1.00  0.00     0.016 A 
ATOM     31  C   UNL A   1      33.870  33.545  32.549  1.00  0.00     0.016 A 
ATOM     32  C   UNL A   1      36.247  35.002  32.796  1.00  0.00     0.010 A 
ATOM     33  C   UNL A   1      35.030  32.934  33.054  1.00  0.00     0.010 A 
ATOM     34  C   UNL A   1      36.230  33.652  33.186  1.00  0.00    -0.014 A 
BRANCH  34  35
ATOM     35  C   UNL A   1      37.475  32.984  33.672  1.00  0.00     0.031 A 
ATOM     36  C   UNL A   1      38.185  31.994  32.795  1.00  0.00     0.074 A 
ATOM     37  C   UNL A   1      37.952  33.199  34.915  1.00  0.00     0.049 A 
ATOM     38  N   UNL A   1      39.278  31.318  33.038  1.00  0.00    -0.248 NA
ATOM     39  C   UNL A   1      37.546  31.672  31.510  1.00  0.00     0.031 C 
ATOM     40  C   UNL A   1      37.288  34.006  35.928  1.00  0.00     0.029 A 
ATOM     41  N   UNL A   1      39.110  32.784  35.537  1.00  0.00    -0.354 N 
ATOM     42  C   UNL A   1      39.393  30.403  31.999  1.00  0.00     0.074 A 
ATOM     43  C   UNL A   1      38.310  30.677  31.078  1.00  0.00     0.031 C 
ATOM     44  C   UNL A   1      38.097  34.135  36.993  1.00  0.00     0.029 A 
ATOM     45  C   UNL A   1      39.316  33.364  36.773  1.00  0.00     0.049 A 
ATOM     46  H   UNL A   1      39.733  32.135  35.135  1.00  0.00     0.167 HD
ATOM     47  C   UNL A   1      40.279  29.389  31.861  1.00  0.00     0.034 A 
ATOM     48  C   UNL A   1      40.364  33.290  37.624  1.00  0.00     0.034 A 
ATOM     49  C   UNL A   1      41.359  29.111  32.771  1.00  0.00     0.049 A 
ATOM     50  C   UNL A   1      41.461  32.295  37.333  1.00  0.00     0.074 A 
ATOM     51  C   UNL A   1      42.326  28.124  32.674  1.00  0.00     0.029 A 
ATOM     52  N   UNL A   1      41.608  29.794  33.950  1.00  0.00    -0.354 N 
ATOM     53  N   UNL A   1      41.631  31.537  36.278  1.00  0.00    -0.248 NA
ATOM     54  C   UNL A   1      42.485  32.107  38.375  1.00  0.00     0.031 C 
ATOM     55  C   UNL A   1      43.135  28.186  33.811  1.00  0.00     0.029 A 
ATOM     56  C   UNL A   1      42.702  29.242  34.595  1.00  0.00     0.049 A 
ATOM     57  H   UNL A   1      41.084  30.560  34.281  1.00  0.00     0.167 HD
ATOM     58  C   UNL A   1      42.744  30.750  36.552  1.00  0.00     0.074 A 
ATOM     59  C   UNL A   1      43.271  31.192  37.824  1.00  0.00     0.031 C 
ATOM     60  C   UNL A   1      43.240  29.704  35.848  1.00  0.00     0.034 A 
BRANCH  47  61
ATOM     61  C   UNL A   1      40.095  28.452  30.699  1.00  0.00     0.023 A 
ATOM     62  C   UNL A   1      39.142  27.419  30.763  1.00  0.00     0.012 A 
ATOM     63  C   UNL A   1      40.817  28.661  29.505  1.00  0.00     0.148 A 
ATOM     64  C   UNL A   1      38.925  26.591  29.663  1.00  0.00     0.002 A 
ATOM     65  C   UNL A   1      40.561  27.864  28.399  1.00  0.00     0.091 A 
ATOM     66  F   UNL A   1      41.733  29.640  29.476  1.00  0.00    -0.205 F 
ATOM     67  C   UNL A   1      39.623  26.822  28.478  1.00  0.00     0.022 A 
BRANCH  65  68
ATOM     68  S   UNL A   1      41.345  28.133  26.806  1.00  0.00     0.127 S 
ATOM     69  O   UNL A   1      41.308  26.789  26.230  1.00  0.00    -0.237 OA
ATOM     70  O   UNL A   1      40.434  29.091  26.178  1.00  0.00    -0.237 OA
ATOM     71  O   UNL A   1      42.676  28.648  27.089  1.00  0.00    -0.744 OA
ENDBRANCH  65  68
ENDBRANCH  47  61
BRANCH  48  72
ATOM     72  C   UNL A   1      40.465  34.173  38.831  1.00  0.00     0.023 A 
ATOM     73  C   UNL A   1      41.407  35.227  38.831  1.00  0.00     0.012 A 
ATOM     74  C   UNL A   1      39.675  33.984  39.977  1.00  0.00     0.148 A 
ATOM     75  C   UNL A   1      41.578  36.041  39.954  1.00  0.00     0.002 A 
ATOM     76  C   UNL A   1      39.787  34.857  41.056  1.00  0.00     0.091 A 
ATOM     77  F   UNL A   1      38.830  32.943  40.012  1.00  0.00    -0.205 F 
ATOM     78  C   UNL A   1      40.756  35.867  41.061  1.00  0.00     0.022 A 
BRANCH  76  79
ATOM     79  S   UNL A   1      38.614  34.787  42.415  1.00  0.00     0.127 S 
ATOM     80  O   UNL A   1      37.335  34.887  41.720  1.00  0.00    -0.237 OA
ATOM     81  O   UNL A   1      38.888  33.480  43.013  1.00  0.00    -0.237 OA
ATOM     82  O   UNL A   1      38.979  35.914  43.267  1.00  0.00    -0.744 OA
ENDBRANCH  76  79
ENDBRANCH  48  72
BRANCH  60  83
ATOM     83  C   UNL A   1      44.391  28.936  36.448  1.00  0.00     0.023 A 
ATOM     84  C   UNL A   1      45.707  29.413  36.273  1.00  0.00     0.012 A 
ATOM     85  C   UNL A   1      44.171  27.800  37.250  1.00  0.00     0.148 A 
ATOM     86  C   UNL A   1      46.787  28.755  36.861  1.00  0.00     0.002 A 
ATOM     87  C   UNL A   1      45.246  27.177  37.871  1.00  0.00     0.091 A 
ATOM     88  F   UNL A   1      42.914  27.356  37.392  1.00  0.00    -0.205 F 
ATOM     89  C   UNL A   1      46.555  27.644  37.668  1.00  0.00     0.022 A 
BRANCH  87  90
ATOM     90  S   UNL A   1      45.043  25.793  38.999  1.00  0.00     0.127 S 
ATOM     91  O   UNL A   1      44.389  24.805  38.143  1.00  0.00    -0.237 OA
ATOM     92  O   UNL A   1      46.427  25.477  39.351  1.00  0.00    -0.237 OA
ATOM     93  O   UNL A   1      44.233  26.289  40.104  1.00  0.00    -0.744 OA
ENDBRANCH  87  90
ENDBRANCH  60  83
ENDBRANCH  34  35
ENDBRANCH  27  29
ENDBRANCH  26  27
ENDBRANCH  25  26
ENDBRANCH  24  25
ENDBRANCH  23  24
ENDBRANCH   1  23
TORSDOF 22
ENDMDL
