MODEL 1
REMARK VINA RESULT:      -9.8      0.000      0.000
REMARK SMILES Cc1cscc1CNC(=O)N[C@@H](C)c1nc(C(=O)OCCOCCOCCOC(=O)c2ccc(-c3c4nc(c(-c5cccc(S(=O)(=O)[O-])c5F)c5ccc([nH]5)c(-c5cccc(S(=O)(=O)[O-])c5F)c5nc(c(-c6cccc(S(=O)(=O)[O-])c6F)c6ccc3[nH]6)C=C5)C=C4)cc2)cs1
REMARK SMILES IDX 23 1 22 2 21 3 20 4 19 5 17 6 18 7 16 8 14 9 15 10 95 11
REMARK SMILES IDX 94 12 12 13 13 14 11 15 8 16 9 17 10 19 7 21 6 22 1 23 2 24
REMARK SMILES IDX 3 25 4 26 5 27 24 28 25 29 26 30 27 31 28 32 29 33 30 34
REMARK SMILES IDX 31 35 32 36 93 37 33 38 92 39 34 40 35 41 36 42 86 43 37 44
REMARK SMILES IDX 91 45 85 46 87 47 38 48 90 49 84 50 83 51 39 53 71 54 51 55
REMARK SMILES IDX 70 56 52 57 55 58 69 59 88 60 53 61 54 62 68 64 89 65 56 66
REMARK SMILES IDX 40 67 41 68 49 69 42 70 44 71 50 72 43 73 45 74 46 75 47 76
REMARK SMILES IDX 48 77 72 78 73 79 81 80 74 81 76 82 82 83 75 84 77 85 78 86
REMARK SMILES IDX 79 87 80 88 57 89 58 90 66 91 59 92 61 93 67 94 60 95 62 96
REMARK SMILES IDX 63 97 64 98 65 99
REMARK H PARENT 8 18 11 20 87 52 55 63
REMARK Flexibility Score: inf
ROOT
ATOM      1  C   UNL A   1      34.041  31.383  27.769  1.00  0.00     0.188 C 
ENDROOT
BRANCH   1   2
ATOM      2  O   UNL A   1      32.812  31.229  27.069  1.00  0.00    -0.376 OA
BRANCH   2   3
ATOM      3  C   UNL A   1      32.346  29.933  26.721  1.00  0.00     0.202 C 
BRANCH   3   4
ATOM      4  C   UNL A   1      32.300  29.581  25.232  1.00  0.00     0.261 C 
BRANCH   4   5
ATOM      5  O   UNL A   1      31.122  28.845  24.864  1.00  0.00    -0.458 OA
BRANCH   5   6
ATOM      6  C   UNL A   1      31.307  27.901  23.892  1.00  0.00     0.357 C 
ATOM      7  O   UNL A   1      31.461  28.147  22.706  1.00  0.00    -0.244 OA
BRANCH   6   8
ATOM      8  C   UNL A   1      31.448  26.543  24.430  1.00  0.00     0.159 A 
ATOM      9  C   UNL A   1      32.427  24.610  24.948  1.00  0.00     0.116 A 
ATOM     10  N   UNL A   1      32.584  25.737  24.274  1.00  0.00    -0.232 NA
ATOM     11  S   UNL A   1      30.865  24.383  25.645  1.00  0.00    -0.124 S 
ATOM     12  C   UNL A   1      30.423  25.950  25.147  1.00  0.00     0.102 A 
BRANCH   9  13
ATOM     13  C   UNL A   1      33.489  23.562  25.203  1.00  0.00     0.140 C 
ATOM     14  C   UNL A   1      34.210  23.826  26.524  1.00  0.00     0.039 C 
BRANCH  13  15
ATOM     15  N   UNL A   1      34.444  23.554  24.109  1.00  0.00    -0.329 N 
ATOM     16  N   UNL A   1      35.604  21.492  24.204  1.00  0.00    -0.334 N 
ATOM     17  C   UNL A   1      35.401  22.715  23.710  1.00  0.00     0.315 C 
ATOM     18  H   UNL A   1      36.373  21.047  23.780  1.00  0.00     0.165 HD
ATOM     19  O   UNL A   1      36.148  23.085  22.800  1.00  0.00    -0.249 OA
ATOM     20  H   UNL A   1      34.369  24.348  23.532  1.00  0.00     0.166 HD
BRANCH  16  21
ATOM     21  C   UNL A   1      34.981  20.652  25.205  1.00  0.00     0.154 C 
BRANCH  21  22
ATOM     22  C   UNL A   1      34.341  19.435  24.591  1.00  0.00    -0.015 A 
ATOM     23  C   UNL A   1      32.140  20.634  23.839  1.00  0.00     0.045 C 
ATOM     24  C   UNL A   1      33.027  19.438  23.968  1.00  0.00    -0.035 A 
ATOM     25  C   UNL A   1      32.682  18.183  23.503  1.00  0.00     0.068 A 
ATOM     26  S   UNL A   1      33.892  17.016  23.776  1.00  0.00    -0.152 S 
ATOM     27  C   UNL A   1      34.897  18.166  24.533  1.00  0.00     0.070 A 
ENDBRANCH  21  22
ENDBRANCH  16  21
ENDBRANCH  13  15
ENDBRANCH   9  13
ENDBRANCH   6   8
ENDBRANCH   5   6
ENDBRANCH   4   5
ENDBRANCH   3   4
ENDBRANCH   2   3
ENDBRANCH   1   2
BRANCH   1  28
ATOM     28  C   UNL A   1      34.389  32.731  28.433  1.00  0.00     0.188 C 
BRANCH  28  29
ATOM     29  O   UNL A   1      33.476  33.776  28.131  1.00  0.00    -0.376 OA
BRANCH  29  30
ATOM     30  C   UNL A   1      33.903  35.091  28.454  1.00  0.00     0.202 C 
BRANCH  30  31
ATOM     31  C   UNL A   1      32.977  35.834  29.425  1.00  0.00     0.261 C 
BRANCH  31  32
ATOM     32  O   UNL A   1      32.533  35.065  30.553  1.00  0.00    -0.460 OA
BRANCH  32  33
ATOM     33  C   UNL A   1      32.705  35.616  31.775  1.00  0.00     0.338 C 
ATOM     34  O   UNL A   1      31.971  36.417  32.326  1.00  0.00    -0.246 OA
BRANCH  33  35
ATOM     35  C   UNL A   1      33.874  34.972  32.410  1.00  0.00     0.060 A 
ATOM     36  C   UNL A   1      35.131  35.576  32.291  1.00  0.00     0.016 A 
ATOM     37  C   UNL A   1      33.731  33.766  33.102  1.00  0.00     0.016 A 
ATOM     38  C   UNL A   1      36.257  34.949  32.831  1.00  0.00     0.010 A 
ATOM     39  C   UNL A   1      34.860  33.135  33.631  1.00  0.00     0.010 A 
ATOM     40  C   UNL A   1      36.133  33.706  33.467  1.00  0.00    -0.014 A 
BRANCH  40  41
ATOM     41  C   UNL A   1      37.343  32.913  33.801  1.00  0.00     0.031 A 
ATOM     42  C   UNL A   1      38.157  33.316  35.003  1.00  0.00     0.074 A 
ATOM     43  C   UNL A   1      37.734  31.872  33.044  1.00  0.00     0.049 A 
ATOM     44  N   UNL A   1      39.250  32.783  35.481  1.00  0.00    -0.248 NA
ATOM     45  C   UNL A   1      37.673  34.482  35.763  1.00  0.00     0.031 C 
ATOM     46  C   UNL A   1      37.049  31.392  31.845  1.00  0.00     0.029 A 
ATOM     47  N   UNL A   1      38.825  31.046  33.163  1.00  0.00    -0.354 N 
ATOM     48  C   UNL A   1      39.596  33.554  36.584  1.00  0.00     0.074 A 
ATOM     49  C   UNL A   1      38.605  34.603  36.696  1.00  0.00     0.031 C 
ATOM     50  C   UNL A   1      37.752  30.373  31.321  1.00  0.00     0.029 A 
ATOM     51  C   UNL A   1      38.941  30.134  32.141  1.00  0.00     0.049 A 
ATOM     52  H   UNL A   1      39.464  31.103  33.909  1.00  0.00     0.167 HD
ATOM     53  C   UNL A   1      40.630  33.394  37.442  1.00  0.00     0.034 A 
ATOM     54  C   UNL A   1      39.901  29.220  31.892  1.00  0.00     0.034 A 
ATOM     55  C   UNL A   1      41.607  32.347  37.346  1.00  0.00     0.049 A 
ATOM     56  C   UNL A   1      41.051  29.069  32.856  1.00  0.00     0.074 A 
ATOM     57  C   UNL A   1      42.663  32.074  38.198  1.00  0.00     0.029 A 
ATOM     58  N   UNL A   1      41.657  31.405  36.332  1.00  0.00    -0.354 N 
ATOM     59  N   UNL A   1      41.279  29.709  33.978  1.00  0.00    -0.248 NA
ATOM     60  C   UNL A   1      42.059  28.046  32.538  1.00  0.00     0.031 C 
ATOM     61  C   UNL A   1      43.361  30.973  37.690  1.00  0.00     0.029 A 
ATOM     62  C   UNL A   1      42.730  30.554  36.528  1.00  0.00     0.049 A 
ATOM     63  H   UNL A   1      41.023  31.349  35.581  1.00  0.00     0.167 HD
ATOM     64  C   UNL A   1      42.431  29.142  34.516  1.00  0.00     0.074 A 
ATOM     65  C   UNL A   1      42.845  28.095  33.606  1.00  0.00     0.031 C 
ATOM     66  C   UNL A   1      43.094  29.471  35.652  1.00  0.00     0.034 A 
BRANCH  53  67
ATOM     67  C   UNL A   1      40.729  34.357  38.595  1.00  0.00     0.023 A 
ATOM     68  C   UNL A   1      41.626  35.440  38.512  1.00  0.00     0.012 A 
ATOM     69  C   UNL A   1      39.909  34.220  39.731  1.00  0.00     0.148 A 
ATOM     70  C   UNL A   1      41.726  36.360  39.554  1.00  0.00     0.002 A 
ATOM     71  C   UNL A   1      39.988  35.162  40.751  1.00  0.00     0.091 A 
ATOM     72  F   UNL A   1      39.083  33.167  39.803  1.00  0.00    -0.205 F 
ATOM     73  C   UNL A   1      40.901  36.226  40.668  1.00  0.00     0.022 A 
BRANCH  71  74
ATOM     74  S   UNL A   1      38.921  35.110  42.194  1.00  0.00     0.127 S 
ATOM     75  O   UNL A   1      37.595  35.207  41.585  1.00  0.00    -0.237 OA
ATOM     76  O   UNL A   1      39.234  33.800  42.766  1.00  0.00    -0.237 OA
ATOM     77  O   UNL A   1      39.316  36.241  43.023  1.00  0.00    -0.744 OA
ENDBRANCH  71  74
ENDBRANCH  53  67
BRANCH  54  78
ATOM     78  C   UNL A   1      39.794  28.331  30.699  1.00  0.00     0.023 A 
ATOM     79  C   UNL A   1      39.010  27.163  30.776  1.00  0.00     0.012 A 
ATOM     80  C   UNL A   1      40.456  28.635  29.494  1.00  0.00     0.148 A 
ATOM     81  C   UNL A   1      38.909  26.300  29.684  1.00  0.00     0.002 A 
ATOM     82  C   UNL A   1      40.311  27.797  28.394  1.00  0.00     0.091 A 
ATOM     83  F   UNL A   1      41.218  29.737  29.447  1.00  0.00    -0.205 F 
ATOM     84  C   UNL A   1      39.550  26.621  28.491  1.00  0.00     0.022 A 
BRANCH  82  85
ATOM     85  S   UNL A   1      41.007  28.195  26.785  1.00  0.00     0.127 S 
ATOM     86  O   UNL A   1      40.152  29.297  26.355  1.00  0.00    -0.237 OA
ATOM     87  O   UNL A   1      42.376  28.577  27.133  1.00  0.00    -0.237 OA
ATOM     88  O   UNL A   1      40.908  26.969  26.006  1.00  0.00    -0.744 OA
ENDBRANCH  82  85
ENDBRANCH  54  78
BRANCH  66  89
ATOM     89  C   UNL A   1      44.325  28.677  36.005  1.00  0.00     0.023 A 
ATOM     90  C   UNL A   1      45.590  29.129  35.582  1.00  0.00     0.012 A 
ATOM     91  C   UNL A   1      44.237  27.539  36.833  1.00  0.00     0.148 A 
ATOM     92  C   UNL A   1      46.748  28.446  35.956  1.00  0.00     0.002 A 
ATOM     93  C   UNL A   1      45.399  26.890  37.237  1.00  0.00     0.091 A 
ATOM     94  F   UNL A   1      43.024  27.113  37.210  1.00  0.00    -0.205 F 
ATOM     95  C   UNL A   1      46.654  27.336  36.793  1.00  0.00     0.022 A 
BRANCH  93  96
ATOM     96  S   UNL A   1      45.371  25.510  38.387  1.00  0.00     0.127 S 
ATOM     97  O   UNL A   1      46.621  25.704  39.119  1.00  0.00    -0.237 OA
ATOM     98  O   UNL A   1      44.162  25.774  39.168  1.00  0.00    -0.237 OA
ATOM     99  O   UNL A   1      45.303  24.309  37.564  1.00  0.00    -0.744 OA
ENDBRANCH  93  96
ENDBRANCH  66  89
ENDBRANCH  40  41
ENDBRANCH  33  35
ENDBRANCH  32  33
ENDBRANCH  31  32
ENDBRANCH  30  31
ENDBRANCH  29  30
ENDBRANCH  28  29
ENDBRANCH   1  28
TORSDOF 24
ENDMDL
MODEL 2
REMARK VINA RESULT:      -9.1      2.169      2.743
REMARK SMILES Cc1cscc1CNC(=O)N[C@@H](C)c1nc(C(=O)OCCOCCOCCOC(=O)c2ccc(-c3c4nc(c(-c5cccc(S(=O)(=O)[O-])c5F)c5ccc([nH]5)c(-c5cccc(S(=O)(=O)[O-])c5F)c5nc(c(-c6cccc(S(=O)(=O)[O-])c6F)c6ccc3[nH]6)C=C5)C=C4)cc2)cs1
REMARK SMILES IDX 23 1 22 2 21 3 20 4 19 5 17 6 18 7 16 8 14 9 15 10 95 11
REMARK SMILES IDX 94 12 12 13 13 14 11 15 8 16 9 17 10 19 7 21 6 22 1 23 2 24
REMARK SMILES IDX 3 25 4 26 5 27 24 28 25 29 26 30 27 31 28 32 29 33 30 34
REMARK SMILES IDX 31 35 32 36 93 37 33 38 92 39 34 40 35 41 36 42 86 43 37 44
REMARK SMILES IDX 91 45 85 46 87 47 38 48 90 49 84 50 83 51 39 53 71 54 51 55
REMARK SMILES IDX 70 56 52 57 55 58 69 59 88 60 53 61 54 62 68 64 89 65 56 66
REMARK SMILES IDX 40 67 41 68 49 69 42 70 44 71 50 72 43 73 45 74 46 75 47 76
REMARK SMILES IDX 48 77 72 78 73 79 81 80 74 81 76 82 82 83 75 84 77 85 78 86
REMARK SMILES IDX 79 87 80 88 57 89 58 90 66 91 59 92 61 93 67 94 60 95 62 96
REMARK SMILES IDX 63 97 64 98 65 99
REMARK H PARENT 8 18 11 20 87 52 55 63
REMARK Flexibility Score: inf
ROOT
ATOM      1  C   UNL A   1      33.653  31.286  27.567  1.00  0.00     0.188 C 
ENDROOT
BRANCH   1   2
ATOM      2  O   UNL A   1      32.328  31.120  27.073  1.00  0.00    -0.376 OA
BRANCH   2   3
ATOM      3  C   UNL A   1      31.803  29.818  26.863  1.00  0.00     0.202 C 
BRANCH   3   4
ATOM      4  C   UNL A   1      32.711  28.798  26.170  1.00  0.00     0.261 C 
BRANCH   4   5
ATOM      5  O   UNL A   1      32.140  28.267  24.963  1.00  0.00    -0.458 OA
BRANCH   5   6
ATOM      6  C   UNL A   1      32.893  27.312  24.337  1.00  0.00     0.357 C 
ATOM      7  O   UNL A   1      34.029  27.486  23.923  1.00  0.00    -0.244 OA
BRANCH   6   8
ATOM      8  C   UNL A   1      32.255  25.990  24.331  1.00  0.00     0.159 A 
ATOM      9  C   UNL A   1      31.673  23.967  25.057  1.00  0.00     0.116 A 
ATOM     10  N   UNL A   1      32.456  25.004  25.305  1.00  0.00    -0.232 NA
ATOM     11  S   UNL A   1      30.802  24.043  23.570  1.00  0.00    -0.124 S 
ATOM     12  C   UNL A   1      31.388  25.622  23.317  1.00  0.00     0.102 A 
BRANCH   9  13
ATOM     13  C   UNL A   1      31.438  22.781  25.969  1.00  0.00     0.140 C 
ATOM     14  C   UNL A   1      29.944  22.545  26.182  1.00  0.00     0.039 C 
BRANCH  13  15
ATOM     15  N   UNL A   1      32.092  23.008  27.247  1.00  0.00    -0.329 N 
ATOM     16  N   UNL A   1      34.364  22.395  26.992  1.00  0.00    -0.334 N 
ATOM     17  C   UNL A   1      33.317  22.783  27.723  1.00  0.00     0.315 C 
ATOM     18  H   UNL A   1      35.171  22.270  27.543  1.00  0.00     0.165 HD
ATOM     19  O   UNL A   1      33.509  22.965  28.928  1.00  0.00    -0.249 OA
ATOM     20  H   UNL A   1      31.494  23.420  27.913  1.00  0.00     0.166 HD
BRANCH  16  21
ATOM     21  C   UNL A   1      34.617  22.109  25.595  1.00  0.00     0.154 C 
BRANCH  21  22
ATOM     22  C   UNL A   1      35.982  21.509  25.387  1.00  0.00    -0.015 A 
ATOM     23  C   UNL A   1      37.321  23.703  25.878  1.00  0.00     0.045 C 
ATOM     24  C   UNL A   1      37.223  22.257  25.515  1.00  0.00    -0.035 A 
ATOM     25  C   UNL A   1      38.324  21.463  25.254  1.00  0.00     0.068 A 
ATOM     26  S   UNL A   1      37.910  19.854  24.881  1.00  0.00    -0.152 S 
ATOM     27  C   UNL A   1      36.248  20.191  25.050  1.00  0.00     0.070 A 
ENDBRANCH  21  22
ENDBRANCH  16  21
ENDBRANCH  13  15
ENDBRANCH   9  13
ENDBRANCH   6   8
ENDBRANCH   5   6
ENDBRANCH   4   5
ENDBRANCH   3   4
ENDBRANCH   2   3
ENDBRANCH   1   2
BRANCH   1  28
ATOM     28  C   UNL A   1      34.062  32.605  28.254  1.00  0.00     0.188 C 
BRANCH  28  29
ATOM     29  O   UNL A   1      33.370  33.747  27.770  1.00  0.00    -0.376 OA
BRANCH  29  30
ATOM     30  C   UNL A   1      33.814  35.002  28.264  1.00  0.00     0.202 C 
BRANCH  30  31
ATOM     31  C   UNL A   1      32.845  35.672  29.245  1.00  0.00     0.261 C 
BRANCH  31  32
ATOM     32  O   UNL A   1      32.666  34.984  30.492  1.00  0.00    -0.460 OA
BRANCH  32  33
ATOM     33  C   UNL A   1      33.453  35.369  31.521  1.00  0.00     0.338 C 
ATOM     34  O   UNL A   1      33.227  36.260  32.320  1.00  0.00    -0.246 OA
BRANCH  33  35
ATOM     35  C   UNL A   1      34.586  34.424  31.614  1.00  0.00     0.060 A 
ATOM     36  C   UNL A   1      34.400  33.204  32.276  1.00  0.00     0.016 A 
ATOM     37  C   UNL A   1      35.830  34.751  31.068  1.00  0.00     0.016 A 
ATOM     38  C   UNL A   1      35.476  32.326  32.428  1.00  0.00     0.010 A 
ATOM     39  C   UNL A   1      36.907  33.876  31.232  1.00  0.00     0.010 A 
ATOM     40  C   UNL A   1      36.745  32.676  31.943  1.00  0.00    -0.014 A 
BRANCH  40  41
ATOM     41  C   UNL A   1      37.938  31.883  32.332  1.00  0.00     0.031 A 
ATOM     42  C   UNL A   1      38.630  32.216  33.628  1.00  0.00     0.074 A 
ATOM     43  C   UNL A   1      38.421  30.905  31.544  1.00  0.00     0.049 A 
ATOM     44  N   UNL A   1      39.688  31.670  34.166  1.00  0.00    -0.248 NA
ATOM     45  C   UNL A   1      38.052  33.317  34.418  1.00  0.00     0.031 C 
ATOM     46  C   UNL A   1      37.859  30.498  30.258  1.00  0.00     0.029 A 
ATOM     47  N   UNL A   1      39.516  30.093  31.706  1.00  0.00    -0.354 N 
ATOM     48  C   UNL A   1      39.914  32.368  35.347  1.00  0.00     0.074 A 
ATOM     49  C   UNL A   1      38.893  33.389  35.439  1.00  0.00     0.031 C 
ATOM     50  C   UNL A   1      38.631  29.531  29.732  1.00  0.00     0.029 A 
ATOM     51  C   UNL A   1      39.746  29.257  30.639  1.00  0.00     0.049 A 
ATOM     52  H   UNL A   1      40.084  30.109  32.510  1.00  0.00     0.167 HD
ATOM     53  C   UNL A   1      40.871  32.167  36.283  1.00  0.00     0.034 A 
ATOM     54  C   UNL A   1      40.746  28.379  30.417  1.00  0.00     0.034 A 
ATOM     55  C   UNL A   1      41.878  31.146  36.206  1.00  0.00     0.049 A 
ATOM     56  C   UNL A   1      41.808  28.182  31.471  1.00  0.00     0.074 A 
ATOM     57  C   UNL A   1      42.858  30.833  37.131  1.00  0.00     0.029 A 
ATOM     58  N   UNL A   1      42.042  30.279  35.138  1.00  0.00    -0.354 N 
ATOM     59  N   UNL A   1      41.918  28.746  32.650  1.00  0.00    -0.248 NA
ATOM     60  C   UNL A   1      42.866  27.202  31.177  1.00  0.00     0.031 C 
ATOM     61  C   UNL A   1      43.626  29.783  36.614  1.00  0.00     0.029 A 
ATOM     62  C   UNL A   1      43.113  29.436  35.374  1.00  0.00     0.049 A 
ATOM     63  H   UNL A   1      41.479  30.264  34.331  1.00  0.00     0.167 HD
ATOM     64  C   UNL A   1      43.030  28.163  33.251  1.00  0.00     0.074 A 
ATOM     65  C   UNL A   1      43.550  27.190  32.314  1.00  0.00     0.031 C 
ATOM     66  C   UNL A   1      43.581  28.424  34.463  1.00  0.00     0.034 A 
BRANCH  53  67
ATOM     67  C   UNL A   1      40.842  33.048  37.503  1.00  0.00     0.023 A 
ATOM     68  C   UNL A   1      39.961  32.736  38.557  1.00  0.00     0.012 A 
ATOM     69  C   UNL A   1      41.710  34.149  37.626  1.00  0.00     0.148 A 
ATOM     70  C   UNL A   1      39.925  33.521  39.708  1.00  0.00     0.002 A 
ATOM     71  C   UNL A   1      41.693  34.907  38.792  1.00  0.00     0.091 A 
ATOM     72  F   UNL A   1      42.519  34.447  36.600  1.00  0.00    -0.205 F 
ATOM     73  C   UNL A   1      40.797  34.600  39.829  1.00  0.00     0.022 A 
BRANCH  71  74
ATOM     74  S   UNL A   1      42.825  36.275  39.068  1.00  0.00     0.127 S 
ATOM     75  O   UNL A   1      42.410  37.216  38.028  1.00  0.00    -0.237 OA
ATOM     76  O   UNL A   1      42.489  36.686  40.432  1.00  0.00    -0.237 OA
ATOM     77  O   UNL A   1      44.163  35.721  38.917  1.00  0.00    -0.744 OA
ENDBRANCH  71  74
ENDBRANCH  53  67
BRANCH  54  78
ATOM     78  C   UNL A   1      40.769  27.575  29.163  1.00  0.00     0.023 A 
ATOM     79  C   UNL A   1      39.867  26.503  29.012  1.00  0.00     0.012 A 
ATOM     80  C   UNL A   1      41.669  27.864  28.119  1.00  0.00     0.148 A 
ATOM     81  C   UNL A   1      39.880  25.718  27.859  1.00  0.00     0.002 A 
ATOM     82  C   UNL A   1      41.643  27.109  26.951  1.00  0.00     0.091 A 
ATOM     83  F   UNL A   1      42.538  28.872  28.290  1.00  0.00    -0.205 F 
ATOM     84  C   UNL A   1      40.760  26.027  26.825  1.00  0.00     0.022 A 
BRANCH  82  85
ATOM     85  S   UNL A   1      42.661  27.511  25.526  1.00  0.00     0.127 S 
ATOM     86  O   UNL A   1      42.022  28.728  25.036  1.00  0.00    -0.237 OA
ATOM     87  O   UNL A   1      43.976  27.709  26.137  1.00  0.00    -0.237 OA
ATOM     88  O   UNL A   1      42.577  26.350  24.650  1.00  0.00    -0.744 OA
ENDBRANCH  82  85
ENDBRANCH  54  78
BRANCH  66  89
ATOM     89  C   UNL A   1      44.794  27.628  34.873  1.00  0.00     0.023 A 
ATOM     90  C   UNL A   1      46.075  28.198  34.743  1.00  0.00     0.012 A 
ATOM     91  C   UNL A   1      44.657  26.360  35.471  1.00  0.00     0.148 A 
ATOM     92  C   UNL A   1      47.205  27.506  35.180  1.00  0.00     0.002 A 
ATOM     93  C   UNL A   1      45.783  25.696  35.943  1.00  0.00     0.091 A 
ATOM     94  F   UNL A   1      43.431  25.826  35.568  1.00  0.00    -0.205 F 
ATOM     95  C   UNL A   1      47.059  26.263  35.791  1.00  0.00     0.022 A 
BRANCH  93  96
ATOM     96  S   UNL A   1      45.673  24.133  36.824  1.00  0.00     0.127 S 
ATOM     97  O   UNL A   1      44.983  24.529  38.050  1.00  0.00    -0.237 OA
ATOM     98  O   UNL A   1      44.874  23.313  35.914  1.00  0.00    -0.237 OA
ATOM     99  O   UNL A   1      47.046  23.676  36.994  1.00  0.00    -0.744 OA
ENDBRANCH  93  96
ENDBRANCH  66  89
ENDBRANCH  40  41
ENDBRANCH  33  35
ENDBRANCH  32  33
ENDBRANCH  31  32
ENDBRANCH  30  31
ENDBRANCH  29  30
ENDBRANCH  28  29
ENDBRANCH   1  28
TORSDOF 24
ENDMDL
MODEL 3
REMARK VINA RESULT:      -8.8      3.707      5.997
REMARK SMILES Cc1cscc1CNC(=O)N[C@@H](C)c1nc(C(=O)OCCOCCOCCOC(=O)c2ccc(-c3c4nc(c(-c5cccc(S(=O)(=O)[O-])c5F)c5ccc([nH]5)c(-c5cccc(S(=O)(=O)[O-])c5F)c5nc(c(-c6cccc(S(=O)(=O)[O-])c6F)c6ccc3[nH]6)C=C5)C=C4)cc2)cs1
REMARK SMILES IDX 23 1 22 2 21 3 20 4 19 5 17 6 18 7 16 8 14 9 15 10 95 11
REMARK SMILES IDX 94 12 12 13 13 14 11 15 8 16 9 17 10 19 7 21 6 22 1 23 2 24
REMARK SMILES IDX 3 25 4 26 5 27 24 28 25 29 26 30 27 31 28 32 29 33 30 34
REMARK SMILES IDX 31 35 32 36 93 37 33 38 92 39 34 40 35 41 36 42 86 43 37 44
REMARK SMILES IDX 91 45 85 46 87 47 38 48 90 49 84 50 83 51 39 53 71 54 51 55
REMARK SMILES IDX 70 56 52 57 55 58 69 59 88 60 53 61 54 62 68 64 89 65 56 66
REMARK SMILES IDX 40 67 41 68 49 69 42 70 44 71 50 72 43 73 45 74 46 75 47 76
REMARK SMILES IDX 48 77 72 78 73 79 81 80 74 81 76 82 82 83 75 84 77 85 78 86
REMARK SMILES IDX 79 87 80 88 57 89 58 90 66 91 59 92 61 93 67 94 60 95 62 96
REMARK SMILES IDX 63 97 64 98 65 99
REMARK H PARENT 8 18 11 20 87 52 55 63
REMARK Flexibility Score: inf
ROOT
ATOM      1  C   UNL A   1      34.033  34.256  30.357  1.00  0.00     0.188 C 
ENDROOT
BRANCH   1   2
ATOM      2  O   UNL A   1      33.758  34.623  29.010  1.00  0.00    -0.376 OA
BRANCH   2   3
ATOM      3  C   UNL A   1      33.358  33.636  28.070  1.00  0.00     0.202 C 
BRANCH   3   4
ATOM      4  C   UNL A   1      34.232  32.385  27.952  1.00  0.00     0.261 C 
BRANCH   4   5
ATOM      5  O   UNL A   1      33.514  31.241  27.461  1.00  0.00    -0.458 OA
BRANCH   5   6
ATOM      6  C   UNL A   1      34.238  30.082  27.406  1.00  0.00     0.357 C 
ATOM      7  O   UNL A   1      35.355  29.938  27.874  1.00  0.00    -0.244 OA
BRANCH   6   8
ATOM      8  C   UNL A   1      33.478  28.958  26.844  1.00  0.00     0.159 A 
ATOM      9  C   UNL A   1      33.085  27.092  25.694  1.00  0.00     0.116 A 
ATOM     10  N   UNL A   1      33.993  28.022  25.937  1.00  0.00    -0.232 NA
ATOM     11  S   UNL A   1      31.533  27.380  26.388  1.00  0.00    -0.124 S 
ATOM     12  C   UNL A   1      32.153  28.751  27.186  1.00  0.00     0.102 A 
BRANCH   9  13
ATOM     13  C   UNL A   1      33.304  25.803  24.931  1.00  0.00     0.140 C 
ATOM     14  C   UNL A   1      34.459  25.002  25.533  1.00  0.00     0.039 C 
BRANCH  13  15
ATOM     15  N   UNL A   1      33.581  26.098  23.536  1.00  0.00    -0.329 N 
ATOM     16  N   UNL A   1      31.994  24.912  22.239  1.00  0.00    -0.334 N 
ATOM     17  C   UNL A   1      33.081  25.675  22.374  1.00  0.00     0.315 C 
ATOM     18  H   UNL A   1      31.809  24.699  21.295  1.00  0.00     0.165 HD
ATOM     19  O   UNL A   1      33.653  26.027  21.339  1.00  0.00    -0.249 OA
ATOM     20  H   UNL A   1      34.300  26.761  23.421  1.00  0.00     0.166 HD
BRANCH  16  21
ATOM     21  C   UNL A   1      31.018  24.316  23.126  1.00  0.00     0.154 C 
BRANCH  21  22
ATOM     22  C   UNL A   1      31.510  23.016  23.703  1.00  0.00    -0.015 A 
ATOM     23  C   UNL A   1      30.718  23.488  26.152  1.00  0.00     0.045 C 
ATOM     24  C   UNL A   1      31.370  22.647  25.103  1.00  0.00    -0.035 A 
ATOM     25  C   UNL A   1      31.924  21.406  25.360  1.00  0.00     0.068 A 
ATOM     26  S   UNL A   1      32.585  20.673  23.972  1.00  0.00    -0.152 S 
ATOM     27  C   UNL A   1      32.152  22.006  23.003  1.00  0.00     0.070 A 
ENDBRANCH  21  22
ENDBRANCH  16  21
ENDBRANCH  13  15
ENDBRANCH   9  13
ENDBRANCH   6   8
ENDBRANCH   5   6
ENDBRANCH   4   5
ENDBRANCH   3   4
ENDBRANCH   2   3
ENDBRANCH   1   2
BRANCH   1  28
ATOM     28  C   UNL A   1      34.026  35.328  31.467  1.00  0.00     0.188 C 
BRANCH  28  29
ATOM     29  O   UNL A   1      33.840  34.805  32.774  1.00  0.00    -0.376 OA
BRANCH  29  30
ATOM     30  C   UNL A   1      34.983  34.805  33.615  1.00  0.00     0.202 C 
BRANCH  30  31
ATOM     31  C   UNL A   1      36.216  34.129  33.003  1.00  0.00     0.261 C 
BRANCH  31  32
ATOM     32  O   UNL A   1      37.367  34.069  33.858  1.00  0.00    -0.460 OA
BRANCH  32  33
ATOM     33  C   UNL A   1      37.444  33.020  34.707  1.00  0.00     0.338 C 
ATOM     34  O   UNL A   1      36.672  32.752  35.611  1.00  0.00    -0.246 OA
BRANCH  33  35
ATOM     35  C   UNL A   1      38.555  32.150  34.265  1.00  0.00     0.060 A 
ATOM     36  C   UNL A   1      38.495  30.779  34.540  1.00  0.00     0.016 A 
ATOM     37  C   UNL A   1      39.660  32.692  33.601  1.00  0.00     0.016 A 
ATOM     38  C   UNL A   1      39.564  29.952  34.186  1.00  0.00     0.010 A 
ATOM     39  C   UNL A   1      40.732  31.864  33.259  1.00  0.00     0.010 A 
ATOM     40  C   UNL A   1      40.706  30.497  33.581  1.00  0.00    -0.014 A 
BRANCH  40  41
ATOM     41  C   UNL A   1      41.941  29.686  33.448  1.00  0.00     0.031 A 
ATOM     42  C   UNL A   1      42.878  29.607  34.625  1.00  0.00     0.074 A 
ATOM     43  C   UNL A   1      42.247  29.051  32.302  1.00  0.00     0.049 A 
ATOM     44  N   UNL A   1      44.014  28.971  34.739  1.00  0.00    -0.248 NA
ATOM     45  C   UNL A   1      42.481  30.351  35.833  1.00  0.00     0.031 C 
ATOM     46  C   UNL A   1      41.439  29.065  31.085  1.00  0.00     0.029 A 
ATOM     47  N   UNL A   1      43.342  28.291  31.972  1.00  0.00    -0.354 N 
ATOM     48  C   UNL A   1      44.477  29.249  36.020  1.00  0.00     0.074 A 
ATOM     49  C   UNL A   1      43.507  30.125  36.641  1.00  0.00     0.031 C 
ATOM     50  C   UNL A   1      42.080  28.368  30.129  1.00  0.00     0.029 A 
ATOM     51  C   UNL A   1      43.348  27.869  30.663  1.00  0.00     0.049 A 
ATOM     52  H   UNL A   1      44.057  28.070  32.612  1.00  0.00     0.167 HD
ATOM     53  C   UNL A   1      45.595  28.800  36.636  1.00  0.00     0.034 A 
ATOM     54  C   UNL A   1      44.273  27.170  29.976  1.00  0.00     0.034 A 
ATOM     55  C   UNL A   1      46.554  27.918  36.032  1.00  0.00     0.049 A 
ATOM     56  C   UNL A   1      45.518  26.692  30.681  1.00  0.00     0.074 A 
ATOM     57  C   UNL A   1      47.692  27.369  36.595  1.00  0.00     0.029 A 
ATOM     58  N   UNL A   1      46.494  27.464  34.725  1.00  0.00    -0.354 N 
ATOM     59  N   UNL A   1      45.864  26.838  31.937  1.00  0.00    -0.248 NA
ATOM     60  C   UNL A   1      46.484  25.922  29.881  1.00  0.00     0.031 C 
ATOM     61  C   UNL A   1      48.330  26.592  35.621  1.00  0.00     0.029 A 
ATOM     62  C   UNL A   1      47.579  26.648  34.457  1.00  0.00     0.049 A 
ATOM     63  H   UNL A   1      45.784  27.688  34.081  1.00  0.00     0.167 HD
ATOM     64  C   UNL A   1      47.065  26.149  32.086  1.00  0.00     0.074 A 
ATOM     65  C   UNL A   1      47.378  25.571  30.797  1.00  0.00     0.031 C 
ATOM     66  C   UNL A   1      47.846  26.022  33.188  1.00  0.00     0.034 A 
BRANCH  53  67
ATOM     67  C   UNL A   1      45.817  29.225  38.062  1.00  0.00     0.023 A 
ATOM     68  C   UNL A   1      46.497  30.431  38.324  1.00  0.00     0.012 A 
ATOM     69  C   UNL A   1      45.319  28.462  39.135  1.00  0.00     0.148 A 
ATOM     70  C   UNL A   1      46.701  30.861  39.634  1.00  0.00     0.002 A 
ATOM     71  C   UNL A   1      45.495  28.915  40.439  1.00  0.00     0.091 A 
ATOM     72  F   UNL A   1      44.701  27.303  38.867  1.00  0.00    -0.205 F 
ATOM     73  C   UNL A   1      46.192  30.109  40.689  1.00  0.00     0.022 A 
BRANCH  71  74
ATOM     74  S   UNL A   1      44.819  28.049  41.859  1.00  0.00     0.127 S 
ATOM     75  O   UNL A   1      45.986  27.960  42.735  1.00  0.00    -0.237 OA
ATOM     76  O   UNL A   1      43.780  28.972  42.320  1.00  0.00    -0.237 OA
ATOM     77  O   UNL A   1      44.316  26.781  41.350  1.00  0.00    -0.744 OA
ENDBRANCH  71  74
ENDBRANCH  53  67
BRANCH  54  78
ATOM     78  C   UNL A   1      44.039  26.829  28.543  1.00  0.00     0.023 A 
ATOM     79  C   UNL A   1      44.394  27.758  27.545  1.00  0.00     0.012 A 
ATOM     80  C   UNL A   1      43.477  25.595  28.163  1.00  0.00     0.148 A 
ATOM     81  C   UNL A   1      44.166  27.476  26.198  1.00  0.00     0.002 A 
ATOM     82  C   UNL A   1      43.299  25.300  26.815  1.00  0.00     0.091 A 
ATOM     83  F   UNL A   1      43.123  24.733  29.127  1.00  0.00    -0.205 F 
ATOM     84  C   UNL A   1      43.630  26.245  25.832  1.00  0.00     0.022 A 
BRANCH  82  85
ATOM     85  S   UNL A   1      42.723  23.694  26.252  1.00  0.00     0.127 S 
ATOM     86  O   UNL A   1      41.298  23.764  26.561  1.00  0.00    -0.237 OA
ATOM     87  O   UNL A   1      43.047  23.737  24.826  1.00  0.00    -0.237 OA
ATOM     88  O   UNL A   1      43.492  22.718  27.011  1.00  0.00    -0.744 OA
ENDBRANCH  82  85
ENDBRANCH  54  78
BRANCH  66  89
ATOM     89  C   UNL A   1      49.104  25.202  33.070  1.00  0.00     0.023 A 
ATOM     90  C   UNL A   1      50.278  25.797  32.567  1.00  0.00     0.012 A 
ATOM     91  C   UNL A   1      49.149  23.875  33.544  1.00  0.00     0.148 A 
ATOM     92  C   UNL A   1      51.471  25.076  32.514  1.00  0.00     0.002 A 
ATOM     93  C   UNL A   1      50.352  23.178  33.528  1.00  0.00     0.091 A 
ATOM     94  F   UNL A   1      48.018  23.320  34.001  1.00  0.00    -0.205 F 
ATOM     95  C   UNL A   1      51.511  23.773  33.006  1.00  0.00     0.022 A 
BRANCH  93  96
ATOM     96  S   UNL A   1      50.510  21.530  34.225  1.00  0.00     0.127 S 
ATOM     97  O   UNL A   1      49.833  21.682  35.511  1.00  0.00    -0.237 OA
ATOM     98  O   UNL A   1      49.792  20.705  33.253  1.00  0.00    -0.237 OA
ATOM     99  O   UNL A   1      51.942  21.265  34.295  1.00  0.00    -0.744 OA
ENDBRANCH  93  96
ENDBRANCH  66  89
ENDBRANCH  40  41
ENDBRANCH  33  35
ENDBRANCH  32  33
ENDBRANCH  31  32
ENDBRANCH  30  31
ENDBRANCH  29  30
ENDBRANCH  28  29
ENDBRANCH   1  28
TORSDOF 24
ENDMDL
