MODEL 1
REMARK VINA RESULT:     -11.0      0.000      0.000
REMARK SMILES Nc1nc(N2CCOC[C@H]2C(=O)OCCOCCOCCOC(=O)c2ccc(-c3c4nc(c(-c5cccc(S(=O)(=O)[O-])c5F)c5ccc([nH]5)c(-c5cccc(S(=O)(=O)[O-])c5F)c5nc(c(-c6cccc(S(=O)(=O)[O-])c6F)c6ccc3[nH]6)C=C5)C=C4)cc2)ccc1[N+](=O)[O-]
REMARK SMILES IDX 18 1 17 2 16 3 15 4 14 5 13 6 11 7 12 8 10 9 5 10 6 11 7 12
REMARK SMILES IDX 9 13 8 14 4 15 2 16 3 17 90 18 89 19 88 20 1 21 91 24 92 25
REMARK SMILES IDX 93 26 19 27 20 28 21 29 22 30 23 31 24 32 25 33 26 34 87 35
REMARK SMILES IDX 27 36 86 37 28 38 29 39 30 40 80 41 31 42 85 43 79 44 81 45
REMARK SMILES IDX 32 46 84 47 78 48 77 49 33 51 65 52 45 53 64 54 46 55 49 56
REMARK SMILES IDX 63 57 82 58 47 59 48 60 62 62 83 63 50 64 34 65 35 66 43 67
REMARK SMILES IDX 36 68 38 69 44 70 37 71 39 72 40 73 41 74 42 75 66 76 67 77
REMARK SMILES IDX 75 78 68 79 70 80 76 81 69 82 71 83 72 84 73 85 74 86 51 87
REMARK SMILES IDX 52 88 60 89 53 90 55 91 61 92 54 93 56 94 57 95 58 96 59 97
REMARK H PARENT 1 22 1 23 81 50 49 61
REMARK Flexibility Score: inf
ROOT
ATOM      1  C   UNL A   1      37.538  21.330  25.208  1.00  0.00     0.188 C 
ENDROOT
BRANCH   1   2
ATOM      2  C   UNL A   1      36.087  21.355  25.725  1.00  0.00     0.188 C 
BRANCH   2   3
ATOM      3  O   UNL A   1      35.537  22.628  26.055  1.00  0.00    -0.376 OA
BRANCH   3   4
ATOM      4  C   UNL A   1      36.022  23.758  25.342  1.00  0.00     0.202 C 
BRANCH   4   5
ATOM      5  C   UNL A   1      35.470  23.905  23.926  1.00  0.00     0.261 C 
BRANCH   5   6
ATOM      6  O   UNL A   1      34.080  24.289  23.974  1.00  0.00    -0.462 OA
BRANCH   6   7
ATOM      7  C   UNL A   1      33.289  23.957  22.921  1.00  0.00     0.331 C 
ATOM      8  O   UNL A   1      33.256  24.595  21.872  1.00  0.00    -0.250 OA
BRANCH   7   9
ATOM      9  C   UNL A   1      32.351  22.763  23.181  1.00  0.00     0.220 C 
ATOM     10  N   UNL A   1      32.530  22.019  24.463  1.00  0.00    -0.339 N 
ATOM     11  C   UNL A   1      32.111  22.729  25.679  1.00  0.00     0.147 C 
ATOM     12  C   UNL A   1      30.705  23.314  25.502  1.00  0.00     0.181 C 
ATOM     13  C   UNL A   1      30.921  23.339  23.134  1.00  0.00     0.197 C 
ATOM     14  O   UNL A   1      30.598  24.109  24.313  1.00  0.00    -0.377 OA
BRANCH  10  15
ATOM     15  C   UNL A   1      32.512  20.630  24.433  1.00  0.00     0.132 A 
ATOM     16  C   UNL A   1      32.407  18.646  23.172  1.00  0.00     0.204 A 
ATOM     17  N   UNL A   1      32.217  19.995  23.270  1.00  0.00    -0.207 NA
ATOM     18  C   UNL A   1      32.848  17.892  24.255  1.00  0.00     0.311 A 
ATOM     19  C   UNL A   1      33.040  18.509  25.483  1.00  0.00     0.093 A 
ATOM     20  C   UNL A   1      32.868  19.886  25.562  1.00  0.00     0.054 A 
BRANCH  16  21
ATOM     21  N   UNL A   1      32.054  18.062  21.970  1.00  0.00    -0.378 N 
ATOM     22  H   UNL A   1      31.439  17.293  21.959  1.00  0.00     0.158 HD
ATOM     23  H   UNL A   1      32.417  18.414  21.127  1.00  0.00     0.158 HD
ENDBRANCH  16  21
BRANCH  18  24
ATOM     24  N   UNL A   1      33.125  16.472  24.130  1.00  0.00     0.066 N 
ATOM     25  O   UNL A   1      33.771  16.106  23.136  1.00  0.00    -0.258 OA
ATOM     26  O   UNL A   1      32.640  15.705  24.976  1.00  0.00    -0.258 OA
ENDBRANCH  18  24
ENDBRANCH  10  15
ENDBRANCH   7   9
ENDBRANCH   6   7
ENDBRANCH   5   6
ENDBRANCH   4   5
ENDBRANCH   3   4
ENDBRANCH   2   3
ENDBRANCH   1   2
BRANCH   1  27
ATOM     27  O   UNL A   1      38.042  20.113  24.669  1.00  0.00    -0.376 OA
BRANCH  27  28
ATOM     28  C   UNL A   1      38.521  19.152  25.604  1.00  0.00     0.202 C 
BRANCH  28  29
ATOM     29  C   UNL A   1      40.039  18.984  25.633  1.00  0.00     0.261 C 
BRANCH  29  30
ATOM     30  O   UNL A   1      40.691  20.223  25.967  1.00  0.00    -0.460 OA
BRANCH  30  31
ATOM     31  C   UNL A   1      41.136  20.319  27.236  1.00  0.00     0.338 C 
ATOM     32  O   UNL A   1      41.579  19.416  27.940  1.00  0.00    -0.246 OA
BRANCH  31  33
ATOM     33  C   UNL A   1      41.105  21.716  27.689  1.00  0.00     0.060 A 
ATOM     34  C   UNL A   1      40.263  22.625  27.043  1.00  0.00     0.016 A 
ATOM     35  C   UNL A   1      42.060  22.163  28.599  1.00  0.00     0.016 A 
ATOM     36  C   UNL A   1      40.449  23.995  27.217  1.00  0.00     0.010 A 
ATOM     37  C   UNL A   1      42.211  23.536  28.809  1.00  0.00     0.010 A 
ATOM     38  C   UNL A   1      41.452  24.464  28.073  1.00  0.00    -0.014 A 
BRANCH  38  39
ATOM     39  C   UNL A   1      41.805  25.907  28.112  1.00  0.00     0.031 A 
ATOM     40  C   UNL A   1      43.126  26.357  27.543  1.00  0.00     0.074 A 
ATOM     41  C   UNL A   1      40.964  26.811  28.649  1.00  0.00     0.049 A 
ATOM     42  N   UNL A   1      43.733  27.507  27.664  1.00  0.00    -0.248 NA
ATOM     43  C   UNL A   1      43.864  25.371  26.733  1.00  0.00     0.031 C 
ATOM     44  C   UNL A   1      39.627  26.523  29.165  1.00  0.00     0.029 A 
ATOM     45  N   UNL A   1      41.125  28.157  28.867  1.00  0.00    -0.354 N 
ATOM     46  C   UNL A   1      44.954  27.363  27.013  1.00  0.00     0.074 A 
ATOM     47  C   UNL A   1      44.994  26.017  26.483  1.00  0.00     0.031 C 
ATOM     48  C   UNL A   1      39.092  27.654  29.652  1.00  0.00     0.029 A 
ATOM     49  C   UNL A   1      40.075  28.728  29.547  1.00  0.00     0.049 A 
ATOM     50  H   UNL A   1      41.915  28.663  28.566  1.00  0.00     0.167 HD
ATOM     51  C   UNL A   1      45.947  28.271  26.865  1.00  0.00     0.034 A 
ATOM     52  C   UNL A   1      39.941  29.963  30.069  1.00  0.00     0.034 A 
ATOM     53  C   UNL A   1      45.871  29.627  27.336  1.00  0.00     0.049 A 
ATOM     54  C   UNL A   1      41.073  30.943  29.930  1.00  0.00     0.074 A 
ATOM     55  C   UNL A   1      46.812  30.635  27.221  1.00  0.00     0.029 A 
ATOM     56  N   UNL A   1      44.783  30.171  28.000  1.00  0.00    -0.354 N 
ATOM     57  N   UNL A   1      42.216  30.801  29.301  1.00  0.00    -0.248 NA
ATOM     58  C   UNL A   1      40.897  32.256  30.566  1.00  0.00     0.031 C 
ATOM     59  C   UNL A   1      46.294  31.788  27.822  1.00  0.00     0.029 A 
ATOM     60  C   UNL A   1      45.026  31.499  28.304  1.00  0.00     0.049 A 
ATOM     61  H   UNL A   1      43.956  29.684  28.224  1.00  0.00     0.167 HD
ATOM     62  C   UNL A   1      42.883  32.012  29.445  1.00  0.00     0.074 A 
ATOM     63  C   UNL A   1      42.007  32.883  30.201  1.00  0.00     0.031 C 
ATOM     64  C   UNL A   1      44.117  32.366  29.008  1.00  0.00     0.034 A 
BRANCH  51  65
ATOM     65  C   UNL A   1      47.197  27.830  26.149  1.00  0.00     0.023 A 
ATOM     66  C   UNL A   1      48.260  27.266  26.880  1.00  0.00     0.012 A 
ATOM     67  C   UNL A   1      47.303  27.940  24.748  1.00  0.00     0.148 A 
ATOM     68  C   UNL A   1      49.422  26.845  26.232  1.00  0.00     0.002 A 
ATOM     69  C   UNL A   1      48.449  27.483  24.105  1.00  0.00     0.091 A 
ATOM     70  F   UNL A   1      46.294  28.507  24.071  1.00  0.00    -0.205 F 
ATOM     71  C   UNL A   1      49.513  26.943  24.846  1.00  0.00     0.022 A 
BRANCH  69  72
ATOM     72  S   UNL A   1      48.616  27.510  22.317  1.00  0.00     0.127 S 
ATOM     73  O   UNL A   1      49.858  28.261  22.145  1.00  0.00    -0.237 OA
ATOM     74  O   UNL A   1      48.716  26.086  21.988  1.00  0.00    -0.237 OA
ATOM     75  O   UNL A   1      47.411  28.157  21.818  1.00  0.00    -0.744 OA
ENDBRANCH  69  72
ENDBRANCH  51  65
BRANCH  52  76
ATOM     76  C   UNL A   1      38.677  30.339  30.764  1.00  0.00     0.023 A 
ATOM     77  C   UNL A   1      38.528  30.036  32.131  1.00  0.00     0.012 A 
ATOM     78  C   UNL A   1      37.647  31.031  30.099  1.00  0.00     0.148 A 
ATOM     79  C   UNL A   1      37.372  30.403  32.819  1.00  0.00     0.002 A 
ATOM     80  C   UNL A   1      36.522  31.445  30.803  1.00  0.00     0.091 A 
ATOM     81  F   UNL A   1      37.793  31.287  28.790  1.00  0.00    -0.205 F 
ATOM     82  C   UNL A   1      36.375  31.120  32.160  1.00  0.00     0.022 A 
BRANCH  80  83
ATOM     83  S   UNL A   1      35.259  32.487  30.063  1.00  0.00     0.127 S 
ATOM     84  O   UNL A   1      34.768  31.639  28.979  1.00  0.00    -0.237 OA
ATOM     85  O   UNL A   1      34.324  32.670  31.174  1.00  0.00    -0.237 OA
ATOM     86  O   UNL A   1      35.949  33.704  29.656  1.00  0.00    -0.744 OA
ENDBRANCH  80  83
ENDBRANCH  52  76
BRANCH  64  87
ATOM     87  C   UNL A   1      44.586  33.763  29.313  1.00  0.00     0.023 A 
ATOM     88  C   UNL A   1      45.349  34.000  30.472  1.00  0.00     0.012 A 
ATOM     89  C   UNL A   1      44.334  34.821  28.419  1.00  0.00     0.148 A 
ATOM     90  C   UNL A   1      45.835  35.278  30.750  1.00  0.00     0.002 A 
ATOM     91  C   UNL A   1      44.855  36.082  28.681  1.00  0.00     0.091 A 
ATOM     92  F   UNL A   1      43.585  34.577  27.332  1.00  0.00    -0.205 F 
ATOM     93  C   UNL A   1      45.598  36.315  29.850  1.00  0.00     0.022 A 
BRANCH  91  94
ATOM     94  S   UNL A   1      44.670  37.452  27.533  1.00  0.00     0.127 S 
ATOM     95  O   UNL A   1      44.869  38.605  28.409  1.00  0.00    -0.237 OA
ATOM     96  O   UNL A   1      45.756  37.214  26.582  1.00  0.00    -0.237 OA
ATOM     97  O   UNL A   1      43.334  37.315  26.966  1.00  0.00    -0.744 OA
ENDBRANCH  91  94
ENDBRANCH  64  87
ENDBRANCH  38  39
ENDBRANCH  31  33
ENDBRANCH  30  31
ENDBRANCH  29  30
ENDBRANCH  28  29
ENDBRANCH  27  28
ENDBRANCH   1  27
TORSDOF 23
ENDMDL
MODEL 2
REMARK VINA RESULT:     -10.8      2.964      4.675
REMARK SMILES Nc1nc(N2CCOC[C@H]2C(=O)OCCOCCOCCOC(=O)c2ccc(-c3c4nc(c(-c5cccc(S(=O)(=O)[O-])c5F)c5ccc([nH]5)c(-c5cccc(S(=O)(=O)[O-])c5F)c5nc(c(-c6cccc(S(=O)(=O)[O-])c6F)c6ccc3[nH]6)C=C5)C=C4)cc2)ccc1[N+](=O)[O-]
REMARK SMILES IDX 18 1 17 2 16 3 15 4 14 5 13 6 11 7 12 8 10 9 5 10 6 11 7 12
REMARK SMILES IDX 9 13 8 14 4 15 2 16 3 17 90 18 89 19 88 20 1 21 91 24 92 25
REMARK SMILES IDX 93 26 19 27 20 28 21 29 22 30 23 31 24 32 25 33 26 34 87 35
REMARK SMILES IDX 27 36 86 37 28 38 29 39 30 40 80 41 31 42 85 43 79 44 81 45
REMARK SMILES IDX 32 46 84 47 78 48 77 49 33 51 65 52 45 53 64 54 46 55 49 56
REMARK SMILES IDX 63 57 82 58 47 59 48 60 62 62 83 63 50 64 34 65 35 66 43 67
REMARK SMILES IDX 36 68 38 69 44 70 37 71 39 72 40 73 41 74 42 75 66 76 67 77
REMARK SMILES IDX 75 78 68 79 70 80 76 81 69 82 71 83 72 84 73 85 74 86 51 87
REMARK SMILES IDX 52 88 60 89 53 90 55 91 61 92 54 93 56 94 57 95 58 96 59 97
REMARK H PARENT 1 22 1 23 81 50 49 61
REMARK Flexibility Score: inf
ROOT
ATOM      1  C   UNL A   1      36.421  22.538  24.460  1.00  0.00     0.188 C 
ENDROOT
BRANCH   1   2
ATOM      2  C   UNL A   1      34.896  22.625  24.254  1.00  0.00     0.188 C 
BRANCH   2   3
ATOM      3  O   UNL A   1      34.069  22.249  25.353  1.00  0.00    -0.376 OA
BRANCH   3   4
ATOM      4  C   UNL A   1      33.172  23.227  25.864  1.00  0.00     0.202 C 
BRANCH   4   5
ATOM      5  C   UNL A   1      33.200  24.566  25.129  1.00  0.00     0.261 C 
BRANCH   5   6
ATOM      6  O   UNL A   1      31.881  24.890  24.642  1.00  0.00    -0.462 OA
BRANCH   6   7
ATOM      7  C   UNL A   1      31.572  24.554  23.362  1.00  0.00     0.331 C 
ATOM      8  O   UNL A   1      31.593  23.400  22.942  1.00  0.00    -0.250 OA
BRANCH   7   9
ATOM      9  C   UNL A   1      31.288  25.755  22.441  1.00  0.00     0.220 C 
ATOM     10  N   UNL A   1      31.396  27.118  23.041  1.00  0.00    -0.339 N 
ATOM     11  C   UNL A   1      32.756  27.571  23.361  1.00  0.00     0.147 C 
ATOM     12  C   UNL A   1      33.690  27.353  22.165  1.00  0.00     0.181 C 
ATOM     13  C   UNL A   1      32.299  25.639  21.282  1.00  0.00     0.197 C 
ATOM     14  O   UNL A   1      33.638  26.005  21.679  1.00  0.00    -0.377 OA
BRANCH  10  15
ATOM     15  C   UNL A   1      30.407  28.051  22.752  1.00  0.00     0.132 A 
ATOM     16  C   UNL A   1      28.168  28.743  22.968  1.00  0.00     0.204 A 
ATOM     17  N   UNL A   1      29.114  27.759  23.044  1.00  0.00    -0.207 NA
ATOM     18  C   UNL A   1      28.487  30.029  22.547  1.00  0.00     0.311 A 
ATOM     19  C   UNL A   1      29.782  30.310  22.133  1.00  0.00     0.093 A 
ATOM     20  C   UNL A   1      30.739  29.309  22.240  1.00  0.00     0.054 A 
BRANCH  16  21
ATOM     21  N   UNL A   1      26.868  28.366  23.246  1.00  0.00    -0.378 N 
ATOM     22  H   UNL A   1      26.679  27.457  23.575  1.00  0.00     0.158 HD
ATOM     23  H   UNL A   1      26.132  29.006  23.117  1.00  0.00     0.158 HD
ENDBRANCH  16  21
BRANCH  18  24
ATOM     24  N   UNL A   1      27.499  31.094  22.541  1.00  0.00     0.066 N 
ATOM     25  O   UNL A   1      27.354  31.726  21.483  1.00  0.00    -0.258 OA
ATOM     26  O   UNL A   1      26.919  31.358  23.604  1.00  0.00    -0.258 OA
ENDBRANCH  18  24
ENDBRANCH  10  15
ENDBRANCH   7   9
ENDBRANCH   6   7
ENDBRANCH   5   6
ENDBRANCH   4   5
ENDBRANCH   3   4
ENDBRANCH   2   3
ENDBRANCH   1   2
BRANCH   1  27
ATOM     27  O   UNL A   1      37.096  21.365  24.020  1.00  0.00    -0.376 OA
BRANCH  27  28
ATOM     28  C   UNL A   1      37.150  20.279  24.938  1.00  0.00     0.202 C 
BRANCH  28  29
ATOM     29  C   UNL A   1      38.538  19.670  25.134  1.00  0.00     0.261 C 
BRANCH  29  30
ATOM     30  O   UNL A   1      39.520  20.691  25.389  1.00  0.00    -0.460 OA
BRANCH  30  31
ATOM     31  C   UNL A   1      40.079  20.664  26.615  1.00  0.00     0.338 C 
ATOM     32  O   UNL A   1      40.502  19.681  27.219  1.00  0.00    -0.246 OA
BRANCH  31  33
ATOM     33  C   UNL A   1      40.208  22.023  27.154  1.00  0.00     0.060 A 
ATOM     34  C   UNL A   1      39.429  23.049  26.612  1.00  0.00     0.016 A 
ATOM     35  C   UNL A   1      41.245  22.317  28.036  1.00  0.00     0.016 A 
ATOM     36  C   UNL A   1      39.756  24.381  26.859  1.00  0.00     0.010 A 
ATOM     37  C   UNL A   1      41.540  23.653  28.322  1.00  0.00     0.010 A 
ATOM     38  C   UNL A   1      40.841  24.695  27.686  1.00  0.00    -0.014 A 
BRANCH  38  39
ATOM     39  C   UNL A   1      41.335  26.092  27.794  1.00  0.00     0.031 A 
ATOM     40  C   UNL A   1      42.688  26.439  27.229  1.00  0.00     0.074 A 
ATOM     41  C   UNL A   1      40.593  27.045  28.390  1.00  0.00     0.049 A 
ATOM     42  N   UNL A   1      43.408  27.516  27.400  1.00  0.00    -0.248 NA
ATOM     43  C   UNL A   1      43.317  25.430  26.358  1.00  0.00     0.031 C 
ATOM     44  C   UNL A   1      39.239  26.862  28.911  1.00  0.00     0.029 A 
ATOM     45  N   UNL A   1      40.890  28.354  28.675  1.00  0.00    -0.354 N 
ATOM     46  C   UNL A   1      44.601  27.287  26.723  1.00  0.00     0.074 A 
ATOM     47  C   UNL A   1      44.502  25.974  26.124  1.00  0.00     0.031 C 
ATOM     48  C   UNL A   1      38.825  28.013  29.464  1.00  0.00     0.029 A 
ATOM     49  C   UNL A   1      39.908  28.990  29.399  1.00  0.00     0.049 A 
ATOM     50  H   UNL A   1      41.722  28.796  28.389  1.00  0.00     0.167 HD
ATOM     51  C   UNL A   1      45.678  28.100  26.607  1.00  0.00     0.034 A 
ATOM     52  C   UNL A   1      39.902  30.202  29.987  1.00  0.00     0.034 A 
ATOM     53  C   UNL A   1      45.742  29.431  27.149  1.00  0.00     0.049 A 
ATOM     54  C   UNL A   1      41.124  31.072  29.881  1.00  0.00     0.074 A 
ATOM     55  C   UNL A   1      46.777  30.346  27.071  1.00  0.00     0.029 A 
ATOM     56  N   UNL A   1      44.719  30.043  27.857  1.00  0.00    -0.354 N 
ATOM     57  N   UNL A   1      42.240  30.852  29.228  1.00  0.00    -0.248 NA
ATOM     58  C   UNL A   1      41.085  32.361  30.586  1.00  0.00     0.031 C 
ATOM     59  C   UNL A   1      46.381  31.510  27.739  1.00  0.00     0.029 A 
ATOM     60  C   UNL A   1      45.096  31.322  28.225  1.00  0.00     0.049 A 
ATOM     61  H   UNL A   1      43.851  29.628  28.068  1.00  0.00     0.167 HD
ATOM     62  C   UNL A   1      43.026  31.982  29.424  1.00  0.00     0.074 A 
ATOM     63  C   UNL A   1      42.248  32.895  30.237  1.00  0.00     0.031 C 
ATOM     64  C   UNL A   1      44.284  32.236  28.987  1.00  0.00     0.034 A 
BRANCH  51  65
ATOM     65  C   UNL A   1      46.870  27.577  25.851  1.00  0.00     0.023 A 
ATOM     66  C   UNL A   1      46.946  27.751  24.455  1.00  0.00     0.012 A 
ATOM     67  C   UNL A   1      47.934  26.946  26.527  1.00  0.00     0.148 A 
ATOM     68  C   UNL A   1      48.047  27.279  23.740  1.00  0.00     0.002 A 
ATOM     69  C   UNL A   1      49.046  26.512  25.811  1.00  0.00     0.091 A 
ATOM     70  F   UNL A   1      47.833  26.761  27.851  1.00  0.00    -0.205 F 
ATOM     71  C   UNL A   1      49.100  26.670  24.417  1.00  0.00     0.022 A 
BRANCH  69  72
ATOM     72  S   UNL A   1      50.474  25.781  26.618  1.00  0.00     0.127 S 
ATOM     73  O   UNL A   1      50.845  26.825  27.571  1.00  0.00    -0.237 OA
ATOM     74  O   UNL A   1      49.909  24.575  27.227  1.00  0.00    -0.237 OA
ATOM     75  O   UNL A   1      51.437  25.521  25.557  1.00  0.00    -0.744 OA
ENDBRANCH  69  72
ENDBRANCH  51  65
BRANCH  52  76
ATOM     76  C   UNL A   1      38.689  30.664  30.720  1.00  0.00     0.023 A 
ATOM     77  C   UNL A   1      38.642  30.533  32.120  1.00  0.00     0.012 A 
ATOM     78  C   UNL A   1      37.608  31.268  30.050  1.00  0.00     0.148 A 
ATOM     79  C   UNL A   1      37.535  30.984  32.840  1.00  0.00     0.002 A 
ATOM     80  C   UNL A   1      36.533  31.767  30.778  1.00  0.00     0.091 A 
ATOM     81  F   UNL A   1      37.656  31.358  28.713  1.00  0.00    -0.205 F 
ATOM     82  C   UNL A   1      36.488  31.614  32.171  1.00  0.00     0.022 A 
BRANCH  80  83
ATOM     83  S   UNL A   1      35.211  32.710  30.007  1.00  0.00     0.127 S 
ATOM     84  O   UNL A   1      34.304  32.929  31.132  1.00  0.00    -0.237 OA
ATOM     85  O   UNL A   1      35.917  33.904  29.543  1.00  0.00    -0.237 OA
ATOM     86  O   UNL A   1      34.703  31.862  28.937  1.00  0.00    -0.744 OA
ENDBRANCH  80  83
ENDBRANCH  52  76
BRANCH  64  87
ATOM     87  C   UNL A   1      44.893  33.562  29.356  1.00  0.00     0.023 A 
ATOM     88  C   UNL A   1      45.721  33.652  30.491  1.00  0.00     0.012 A 
ATOM     89  C   UNL A   1      44.703  34.695  28.543  1.00  0.00     0.148 A 
ATOM     90  C   UNL A   1      46.333  34.860  30.825  1.00  0.00     0.002 A 
ATOM     91  C   UNL A   1      45.348  35.885  28.859  1.00  0.00     0.091 A 
ATOM     92  F   UNL A   1      43.891  34.593  27.479  1.00  0.00    -0.205 F 
ATOM     93  C   UNL A   1      46.157  35.972  30.004  1.00  0.00     0.022 A 
BRANCH  91  94
ATOM     94  S   UNL A   1      45.244  37.339  27.808  1.00  0.00     0.127 S 
ATOM     95  O   UNL A   1      45.567  38.410  28.748  1.00  0.00    -0.237 OA
ATOM     96  O   UNL A   1      46.276  37.076  26.804  1.00  0.00    -0.237 OA
ATOM     97  O   UNL A   1      43.885  37.351  27.284  1.00  0.00    -0.744 OA
ENDBRANCH  91  94
ENDBRANCH  64  87
ENDBRANCH  38  39
ENDBRANCH  31  33
ENDBRANCH  30  31
ENDBRANCH  29  30
ENDBRANCH  28  29
ENDBRANCH  27  28
ENDBRANCH   1  27
TORSDOF 23
ENDMDL
MODEL 3
REMARK VINA RESULT:     -10.3      2.903      4.598
REMARK SMILES Nc1nc(N2CCOC[C@H]2C(=O)OCCOCCOCCOC(=O)c2ccc(-c3c4nc(c(-c5cccc(S(=O)(=O)[O-])c5F)c5ccc([nH]5)c(-c5cccc(S(=O)(=O)[O-])c5F)c5nc(c(-c6cccc(S(=O)(=O)[O-])c6F)c6ccc3[nH]6)C=C5)C=C4)cc2)ccc1[N+](=O)[O-]
REMARK SMILES IDX 18 1 17 2 16 3 15 4 14 5 13 6 11 7 12 8 10 9 5 10 6 11 7 12
REMARK SMILES IDX 9 13 8 14 4 15 2 16 3 17 90 18 89 19 88 20 1 21 91 24 92 25
REMARK SMILES IDX 93 26 19 27 20 28 21 29 22 30 23 31 24 32 25 33 26 34 87 35
REMARK SMILES IDX 27 36 86 37 28 38 29 39 30 40 80 41 31 42 85 43 79 44 81 45
REMARK SMILES IDX 32 46 84 47 78 48 77 49 33 51 65 52 45 53 64 54 46 55 49 56
REMARK SMILES IDX 63 57 82 58 47 59 48 60 62 62 83 63 50 64 34 65 35 66 43 67
REMARK SMILES IDX 36 68 38 69 44 70 37 71 39 72 40 73 41 74 42 75 66 76 67 77
REMARK SMILES IDX 75 78 68 79 70 80 76 81 69 82 71 83 72 84 73 85 74 86 51 87
REMARK SMILES IDX 52 88 60 89 53 90 55 91 61 92 54 93 56 94 57 95 58 96 59 97
REMARK H PARENT 1 22 1 23 81 50 49 61
REMARK Flexibility Score: inf
ROOT
ATOM      1  C   UNL A   1      35.562  21.089  25.336  1.00  0.00     0.188 C 
ENDROOT
BRANCH   1   2
ATOM      2  C   UNL A   1      34.341  20.531  24.578  1.00  0.00     0.188 C 
BRANCH   2   3
ATOM      3  O   UNL A   1      33.361  21.470  24.144  1.00  0.00    -0.376 OA
BRANCH   3   4
ATOM      4  C   UNL A   1      33.638  22.850  24.346  1.00  0.00     0.202 C 
BRANCH   4   5
ATOM      5  C   UNL A   1      33.832  23.657  23.064  1.00  0.00     0.261 C 
BRANCH   5   6
ATOM      6  O   UNL A   1      34.012  25.053  23.382  1.00  0.00    -0.462 OA
BRANCH   6   7
ATOM      7  C   UNL A   1      33.353  25.970  22.626  1.00  0.00     0.331 C 
ATOM      8  O   UNL A   1      33.449  26.035  21.404  1.00  0.00    -0.250 OA
BRANCH   7   9
ATOM      9  C   UNL A   1      32.542  26.997  23.437  1.00  0.00     0.220 C 
ATOM     10  N   UNL A   1      31.055  26.865  23.418  1.00  0.00    -0.339 N 
ATOM     11  C   UNL A   1      30.504  25.717  24.151  1.00  0.00     0.147 C 
ATOM     12  C   UNL A   1      31.107  25.639  25.559  1.00  0.00     0.181 C 
ATOM     13  C   UNL A   1      33.035  26.861  24.893  1.00  0.00     0.197 C 
ATOM     14  O   UNL A   1      32.541  25.665  25.533  1.00  0.00    -0.377 OA
BRANCH  10  15
ATOM     15  C   UNL A   1      30.287  28.012  23.254  1.00  0.00     0.132 A 
ATOM     16  C   UNL A   1      28.175  28.986  22.905  1.00  0.00     0.204 A 
ATOM     17  N   UNL A   1      28.994  27.894  22.859  1.00  0.00    -0.207 NA
ATOM     18  C   UNL A   1      28.645  30.235  23.298  1.00  0.00     0.311 A 
ATOM     19  C   UNL A   1      29.992  30.395  23.591  1.00  0.00     0.093 A 
ATOM     20  C   UNL A   1      30.809  29.271  23.567  1.00  0.00     0.054 A 
BRANCH  16  21
ATOM     21  N   UNL A   1      26.881  28.801  22.456  1.00  0.00    -0.378 N 
ATOM     22  H   UNL A   1      26.170  28.552  23.092  1.00  0.00     0.158 HD
ATOM     23  H   UNL A   1      26.669  28.918  21.502  1.00  0.00     0.158 HD
ENDBRANCH  16  21
BRANCH  18  24
ATOM     24  N   UNL A   1      27.757  31.377  23.422  1.00  0.00     0.066 N 
ATOM     25  O   UNL A   1      26.857  31.305  24.273  1.00  0.00    -0.258 OA
ATOM     26  O   UNL A   1      27.901  32.318  22.627  1.00  0.00    -0.258 OA
ENDBRANCH  18  24
ENDBRANCH  10  15
ENDBRANCH   7   9
ENDBRANCH   6   7
ENDBRANCH   5   6
ENDBRANCH   4   5
ENDBRANCH   3   4
ENDBRANCH   2   3
ENDBRANCH   1   2
BRANCH   1  27
ATOM     27  O   UNL A   1      36.802  21.181  24.644  1.00  0.00    -0.376 OA
BRANCH  27  28
ATOM     28  C   UNL A   1      37.824  20.275  25.046  1.00  0.00     0.202 C 
BRANCH  28  29
ATOM     29  C   UNL A   1      39.022  20.923  25.739  1.00  0.00     0.261 C 
BRANCH  29  30
ATOM     30  O   UNL A   1      39.716  19.973  26.568  1.00  0.00    -0.460 OA
BRANCH  30  31
ATOM     31  C   UNL A   1      41.018  19.787  26.273  1.00  0.00     0.338 C 
ATOM     32  O   UNL A   1      41.539  18.777  25.808  1.00  0.00    -0.246 OA
BRANCH  31  33
ATOM     33  C   UNL A   1      41.781  21.020  26.506  1.00  0.00     0.060 A 
ATOM     34  C   UNL A   1      41.865  21.536  27.802  1.00  0.00     0.016 A 
ATOM     35  C   UNL A   1      42.223  21.770  25.419  1.00  0.00     0.016 A 
ATOM     36  C   UNL A   1      42.285  22.849  28.006  1.00  0.00     0.010 A 
ATOM     37  C   UNL A   1      42.691  23.069  25.632  1.00  0.00     0.010 A 
ATOM     38  C   UNL A   1      42.665  23.641  26.917  1.00  0.00    -0.014 A 
BRANCH  38  39
ATOM     39  C   UNL A   1      42.912  25.097  27.085  1.00  0.00     0.031 A 
ATOM     40  C   UNL A   1      44.192  25.692  26.557  1.00  0.00     0.074 A 
ATOM     41  C   UNL A   1      42.011  25.885  27.702  1.00  0.00     0.049 A 
ATOM     42  N   UNL A   1      44.714  26.868  26.781  1.00  0.00    -0.248 NA
ATOM     43  C   UNL A   1      44.994  24.840  25.662  1.00  0.00     0.031 C 
ATOM     44  C   UNL A   1      40.702  25.454  28.192  1.00  0.00     0.029 A 
ATOM     45  N   UNL A   1      42.075  27.213  28.041  1.00  0.00    -0.354 N 
ATOM     46  C   UNL A   1      45.937  26.873  26.118  1.00  0.00     0.074 A 
ATOM     47  C   UNL A   1      46.071  25.587  25.469  1.00  0.00     0.031 C 
ATOM     48  C   UNL A   1      40.090  26.494  28.778  1.00  0.00     0.029 A 
ATOM     49  C   UNL A   1      40.991  27.643  28.769  1.00  0.00     0.049 A 
ATOM     50  H   UNL A   1      42.823  27.801  27.786  1.00  0.00     0.167 HD
ATOM     51  C   UNL A   1      46.860  27.862  26.051  1.00  0.00     0.034 A 
ATOM     52  C   UNL A   1      40.771  28.812  29.401  1.00  0.00     0.034 A 
ATOM     53  C   UNL A   1      46.689  29.161  26.642  1.00  0.00     0.049 A 
ATOM     54  C   UNL A   1      41.827  29.882  29.349  1.00  0.00     0.074 A 
ATOM     55  C   UNL A   1      47.553  30.242  26.617  1.00  0.00     0.029 A 
ATOM     56  N   UNL A   1      45.568  29.561  27.354  1.00  0.00    -0.354 N 
ATOM     57  N   UNL A   1      42.972  29.881  28.709  1.00  0.00    -0.248 NA
ATOM     58  C   UNL A   1      41.560  31.116  30.101  1.00  0.00     0.031 C 
ATOM     59  C   UNL A   1      46.956  31.294  27.320  1.00  0.00     0.029 A 
ATOM     60  C   UNL A   1      45.716  30.871  27.776  1.00  0.00     0.049 A 
ATOM     61  H   UNL A   1      44.782  28.996  27.534  1.00  0.00     0.167 HD
ATOM     62  C   UNL A   1      43.550  31.120  28.960  1.00  0.00     0.074 A 
ATOM     63  C   UNL A   1      42.618  31.854  29.793  1.00  0.00     0.031 C 
ATOM     64  C   UNL A   1      44.751  31.602  28.556  1.00  0.00     0.034 A 
BRANCH  51  65
ATOM     65  C   UNL A   1      48.133  27.580  25.298  1.00  0.00     0.023 A 
ATOM     66  C   UNL A   1      49.271  27.124  25.991  1.00  0.00     0.012 A 
ATOM     67  C   UNL A   1      48.192  27.730  23.897  1.00  0.00     0.148 A 
ATOM     68  C   UNL A   1      50.456  26.850  25.307  1.00  0.00     0.002 A 
ATOM     69  C   UNL A   1      49.365  27.419  23.218  1.00  0.00     0.091 A 
ATOM     70  F   UNL A   1      47.109  28.194  23.257  1.00  0.00    -0.205 F 
ATOM     71  C   UNL A   1      50.501  26.988  23.922  1.00  0.00     0.022 A 
BRANCH  69  72
ATOM     72  S   UNL A   1      49.483  27.503  21.428  1.00  0.00     0.127 S 
ATOM     73  O   UNL A   1      49.819  28.910  21.217  1.00  0.00    -0.237 OA
ATOM     74  O   UNL A   1      50.574  26.569  21.140  1.00  0.00    -0.237 OA
ATOM     75  O   UNL A   1      48.183  27.080  20.926  1.00  0.00    -0.744 OA
ENDBRANCH  69  72
ENDBRANCH  51  65
BRANCH  52  76
ATOM     76  C   UNL A   1      39.488  29.031  30.129  1.00  0.00     0.023 A 
ATOM     77  C   UNL A   1      39.297  28.420  31.382  1.00  0.00     0.012 A 
ATOM     78  C   UNL A   1      38.482  29.871  29.614  1.00  0.00     0.148 A 
ATOM     79  C   UNL A   1      38.122  28.629  32.104  1.00  0.00     0.002 A 
ATOM     80  C   UNL A   1      37.338  30.121  30.363  1.00  0.00     0.091 A 
ATOM     81  F   UNL A   1      38.668  30.422  28.405  1.00  0.00    -0.205 F 
ATOM     82  C   UNL A   1      37.149  29.491  31.601  1.00  0.00     0.022 A 
BRANCH  80  83
ATOM     83  S   UNL A   1      36.102  31.321  29.850  1.00  0.00     0.127 S 
ATOM     84  O   UNL A   1      35.319  31.487  31.072  1.00  0.00    -0.237 OA
ATOM     85  O   UNL A   1      36.927  32.474  29.485  1.00  0.00    -0.237 OA
ATOM     86  O   UNL A   1      35.407  30.706  28.727  1.00  0.00    -0.744 OA
ENDBRANCH  80  83
ENDBRANCH  52  76
BRANCH  64  87
ATOM     87  C   UNL A   1      45.120  32.997  28.985  1.00  0.00     0.023 A 
ATOM     88  C   UNL A   1      45.844  33.187  30.177  1.00  0.00     0.012 A 
ATOM     89  C   UNL A   1      44.812  34.106  28.175  1.00  0.00     0.148 A 
ATOM     90  C   UNL A   1      46.237  34.466  30.569  1.00  0.00     0.002 A 
ATOM     91  C   UNL A   1      45.242  35.373  28.551  1.00  0.00     0.091 A 
ATOM     92  F   UNL A   1      44.101  33.905  27.054  1.00  0.00    -0.205 F 
ATOM     93  C   UNL A   1      45.946  35.557  29.752  1.00  0.00     0.022 A 
BRANCH  91  94
ATOM     94  S   UNL A   1      44.985  36.818  27.514  1.00  0.00     0.127 S 
ATOM     95  O   UNL A   1      45.317  37.907  28.431  1.00  0.00    -0.237 OA
ATOM     96  O   UNL A   1      45.954  36.610  26.438  1.00  0.00    -0.237 OA
ATOM     97  O   UNL A   1      43.592  36.757  27.089  1.00  0.00    -0.744 OA
ENDBRANCH  91  94
ENDBRANCH  64  87
ENDBRANCH  38  39
ENDBRANCH  31  33
ENDBRANCH  30  31
ENDBRANCH  29  30
ENDBRANCH  28  29
ENDBRANCH  27  28
ENDBRANCH   1  27
TORSDOF 23
ENDMDL
