MODEL 1
REMARK VINA RESULT:     -11.4      0.000      0.000
REMARK SMILES Cc1cccc(-c2c(C(=O)OCCOCCOCCOC(=O)c3ccc(-c4c5nc(c(-c6cccc(S(=O)(=O)[O-])c6F)c6ccc([nH]6)c(-c6cccc(S(=O)(=O)[O-])c6F)c6nc(c(-c7cccc(S(=O)(=O)[O-])c7F)c7ccc4[nH]7)C=C6)C=C5)cc3)nnn2Cc2cc(F)cc(F)c2)c1
REMARK SMILES IDX 16 1 15 2 14 3 13 4 12 5 11 6 9 7 10 8 8 9 7 10 88 11 86 12
REMARK SMILES IDX 87 13 6 14 1 15 2 16 3 17 98 18 4 19 5 20 89 21 90 22 91 23
REMARK SMILES IDX 97 24 92 25 95 26 93 27 94 28 96 29 17 30 18 31 19 32 20 33
REMARK SMILES IDX 21 34 22 35 23 36 24 37 85 38 25 39 84 40 26 41 27 42 28 43
REMARK SMILES IDX 78 44 29 45 83 46 77 47 79 48 30 49 82 50 76 51 75 52 31 54
REMARK SMILES IDX 63 55 43 56 62 57 44 58 47 59 61 60 80 61 45 62 46 63 60 65
REMARK SMILES IDX 81 66 48 67 32 68 33 69 41 70 34 71 36 72 42 73 35 74 37 75
REMARK SMILES IDX 38 76 39 77 40 78 64 79 65 80 73 81 66 82 68 83 74 84 67 85
REMARK SMILES IDX 69 86 70 87 71 88 72 89 49 90 50 91 58 92 51 93 53 94 59 95
REMARK SMILES IDX 52 96 54 97 55 98 56 99 57 100
REMARK H PARENT 79 53 47 64
REMARK Flexibility Score: inf
ROOT
ATOM      1  C   UNL A   1      35.985  20.396  25.202  1.00  0.00     0.188 C 
ENDROOT
BRANCH   1   2
ATOM      2  C   UNL A   1      34.613  20.032  24.666  1.00  0.00     0.188 C 
BRANCH   2   3
ATOM      3  O   UNL A   1      33.527  19.782  25.491  1.00  0.00    -0.376 OA
BRANCH   3   4
ATOM      4  C   UNL A   1      32.399  20.491  25.042  1.00  0.00     0.202 C 
BRANCH   4   5
ATOM      5  C   UNL A   1      32.280  21.040  23.505  1.00  0.00     0.261 C 
BRANCH   5   6
ATOM      6  O   UNL A   1      32.788  22.560  22.663  1.00  0.00    -0.458 OA
BRANCH   6   7
ATOM      7  C   UNL A   1      33.397  24.135  22.815  1.00  0.00     0.361 C 
ATOM      8  O   UNL A   1      33.938  24.830  21.943  1.00  0.00    -0.244 OA
BRANCH   7   9
ATOM      9  C   UNL A   1      33.477  24.740  24.089  1.00  0.00     0.198 A 
ATOM     10  C   UNL A   1      32.420  25.547  24.388  1.00  0.00     0.104 A 
ATOM     11  N   UNL A   1      32.511  25.648  25.739  1.00  0.00    -0.239 N 
ATOM     12  N   UNL A   1      33.960  24.153  25.226  1.00  0.00    -0.122 NA
ATOM     13  N   UNL A   1      33.401  24.775  26.251  1.00  0.00    -0.066 NA
BRANCH  10  14
ATOM     14  C   UNL A   1      31.593  26.141  23.322  1.00  0.00     0.003 A 
ATOM     15  C   UNL A   1      27.226  26.677  24.099  1.00  0.00     0.044 C 
ATOM     16  C   UNL A   1      28.580  27.136  23.646  1.00  0.00    -0.050 A 
ATOM     17  C   UNL A   1      28.897  28.799  22.984  1.00  0.00     0.003 A 
ATOM     18  C   UNL A   1      29.867  25.868  23.803  1.00  0.00     0.013 A 
ATOM     19  C   UNL A   1      30.628  29.313  22.525  1.00  0.00     0.001 A 
ATOM     20  C   UNL A   1      32.124  27.818  22.665  1.00  0.00     0.010 A 
ENDBRANCH  10  14
BRANCH  11  21
ATOM     21  C   UNL A   1      31.890  26.596  26.623  1.00  0.00     0.182 C 
BRANCH  21  22
ATOM     22  C   UNL A   1      32.566  27.933  26.567  1.00  0.00    -0.021 A 
ATOM     23  C   UNL A   1      31.764  29.070  26.486  1.00  0.00     0.045 A 
ATOM     24  C   UNL A   1      33.959  28.086  26.705  1.00  0.00     0.045 A 
ATOM     25  C   UNL A   1      32.335  30.324  26.654  1.00  0.00     0.126 A 
ATOM     26  C   UNL A   1      34.493  29.342  26.950  1.00  0.00     0.126 A 
ATOM     27  F   UNL A   1      31.546  31.403  26.577  1.00  0.00    -0.207 F 
ATOM     28  C   UNL A   1      33.688  30.470  26.929  1.00  0.00     0.078 A 
ATOM     29  F   UNL A   1      35.789  29.449  27.264  1.00  0.00    -0.207 F 
ENDBRANCH  21  22
ENDBRANCH  11  21
ENDBRANCH   7   9
ENDBRANCH   6   7
ENDBRANCH   5   6
ENDBRANCH   4   5
ENDBRANCH   3   4
ENDBRANCH   2   3
ENDBRANCH   1   2
BRANCH   1  30
ATOM     30  O   UNL A   1      36.012  21.632  25.853  1.00  0.00    -0.376 OA
BRANCH  30  31
ATOM     31  C   UNL A   1      37.298  22.210  25.743  1.00  0.00     0.202 C 
BRANCH  31  32
ATOM     32  C   UNL A   1      37.479  23.768  26.027  1.00  0.00     0.261 C 
BRANCH  32  33
ATOM     33  O   UNL A   1      38.368  24.360  27.147  1.00  0.00    -0.460 OA
BRANCH  33  34
ATOM     34  C   UNL A   1      39.395  25.238  27.487  1.00  0.00     0.338 C 
ATOM     35  O   UNL A   1      40.479  25.131  26.914  1.00  0.00    -0.246 OA
BRANCH  34  36
ATOM     36  C   UNL A   1      39.206  26.534  28.224  1.00  0.00     0.060 A 
ATOM     37  C   UNL A   1      39.113  27.802  27.648  1.00  0.00     0.016 A 
ATOM     38  C   UNL A   1      39.101  26.591  29.566  1.00  0.00     0.016 A 
ATOM     39  C   UNL A   1      39.927  28.887  28.132  1.00  0.00     0.010 A 
ATOM     40  C   UNL A   1      39.792  27.685  30.074  1.00  0.00     0.010 A 
ATOM     41  C   UNL A   1      40.656  28.695  29.262  1.00  0.00    -0.014 A 
BRANCH  41  42
ATOM     42  C   UNL A   1      42.115  29.732  29.762  1.00  0.00     0.031 A 
ATOM     43  C   UNL A   1      42.113  31.625  30.075  1.00  0.00     0.074 A 
ATOM     44  C   UNL A   1      43.292  29.085  29.881  1.00  0.00     0.049 A 
ATOM     45  N   UNL A   1      43.332  32.564  29.975  1.00  0.00    -0.248 NA
ATOM     46  C   UNL A   1      40.410  32.770  30.386  1.00  0.00     0.031 C 
ATOM     47  C   UNL A   1      44.555  29.557  30.449  1.00  0.00     0.029 A 
ATOM     48  N   UNL A   1      43.571  27.781  29.548  1.00  0.00    -0.354 N 
ATOM     49  C   UNL A   1      42.978  34.341  30.180  1.00  0.00     0.074 A 
ATOM     50  C   UNL A   1      41.066  34.519  30.396  1.00  0.00     0.031 C 
ATOM     51  C   UNL A   1      45.502  28.613  30.256  1.00  0.00     0.029 A 
ATOM     52  C   UNL A   1      44.941  27.633  29.341  1.00  0.00     0.049 A 
ATOM     53  H   UNL A   1      42.905  27.061  29.468  1.00  0.00     0.167 HD
ATOM     54  C   UNL A   1      44.025  35.072  30.663  1.00  0.00     0.034 A 
ATOM     55  C   UNL A   1      45.353  27.476  28.040  1.00  0.00     0.034 A 
ATOM     56  C   UNL A   1      45.224  34.226  30.457  1.00  0.00     0.049 A 
ATOM     57  C   UNL A   1      45.961  28.797  27.488  1.00  0.00     0.074 A 
ATOM     58  C   UNL A   1      46.000  33.403  31.263  1.00  0.00     0.029 A 
ATOM     59  N   UNL A   1      45.448  33.743  29.162  1.00  0.00    -0.354 N 
ATOM     60  N   UNL A   1      46.082  29.926  28.157  1.00  0.00    -0.248 NA
ATOM     61  C   UNL A   1      46.461  28.931  26.125  1.00  0.00     0.031 C 
ATOM     62  C   UNL A   1      46.669  32.436  30.420  1.00  0.00     0.029 A 
ATOM     63  C   UNL A   1      46.365  32.698  29.095  1.00  0.00     0.049 A 
ATOM     64  H   UNL A   1      44.997  34.111  28.369  1.00  0.00     0.167 HD
ATOM     65  C   UNL A   1      46.562  30.931  27.355  1.00  0.00     0.074 A 
ATOM     66  C   UNL A   1      46.744  30.244  26.074  1.00  0.00     0.031 C 
ATOM     67  C   UNL A   1      46.787  32.236  27.759  1.00  0.00     0.034 A 
BRANCH  54  68
ATOM     68  C   UNL A   1      43.876  36.287  31.585  1.00  0.00     0.023 A 
ATOM     69  C   UNL A   1      43.311  36.080  32.856  1.00  0.00     0.012 A 
ATOM     70  C   UNL A   1      44.198  37.646  31.298  1.00  0.00     0.148 A 
ATOM     71  C   UNL A   1      43.039  37.142  33.746  1.00  0.00     0.002 A 
ATOM     72  C   UNL A   1      43.885  38.713  32.152  1.00  0.00     0.091 A 
ATOM     73  F   UNL A   1      44.903  37.950  30.221  1.00  0.00    -0.205 F 
ATOM     74  C   UNL A   1      43.304  38.460  33.388  1.00  0.00     0.022 A 
BRANCH  72  75
ATOM     75  S   UNL A   1      44.187  40.445  31.707  1.00  0.00     0.127 S 
ATOM     76  O   UNL A   1      45.648  40.490  31.611  1.00  0.00    -0.237 OA
ATOM     77  O   UNL A   1      43.493  40.568  30.427  1.00  0.00    -0.237 OA
ATOM     78  O   UNL A   1      43.643  41.256  32.790  1.00  0.00    -0.744 OA
ENDBRANCH  72  75
ENDBRANCH  54  68
BRANCH  55  79
ATOM     79  C   UNL A   1      44.425  26.504  27.310  1.00  0.00     0.023 A 
ATOM     80  C   UNL A   1      43.506  27.073  26.371  1.00  0.00     0.012 A 
ATOM     81  C   UNL A   1      44.711  25.139  27.182  1.00  0.00     0.148 A 
ATOM     82  C   UNL A   1      43.148  26.392  25.202  1.00  0.00     0.002 A 
ATOM     83  C   UNL A   1      44.270  24.431  26.059  1.00  0.00     0.091 A 
ATOM     84  F   UNL A   1      45.460  24.534  28.110  1.00  0.00    -0.205 F 
ATOM     85  C   UNL A   1      43.543  25.070  25.039  1.00  0.00     0.022 A 
BRANCH  83  86
ATOM     86  S   UNL A   1      44.876  22.745  25.801  1.00  0.00     0.127 S 
ATOM     87  O   UNL A   1      44.544  22.476  24.401  1.00  0.00    -0.237 OA
ATOM     88  O   UNL A   1      46.301  22.845  26.072  1.00  0.00    -0.237 OA
ATOM     89  O   UNL A   1      44.077  21.998  26.765  1.00  0.00    -0.744 OA
ENDBRANCH  83  86
ENDBRANCH  55  79
BRANCH  67  90
ATOM     90  C   UNL A   1      47.465  33.271  26.847  1.00  0.00     0.023 A 
ATOM     91  C   UNL A   1      46.723  34.282  26.218  1.00  0.00     0.012 A 
ATOM     92  C   UNL A   1      48.839  33.217  26.479  1.00  0.00     0.148 A 
ATOM     93  C   UNL A   1      47.331  35.300  25.475  1.00  0.00     0.002 A 
ATOM     94  C   UNL A   1      49.446  34.207  25.724  1.00  0.00     0.091 A 
ATOM     95  F   UNL A   1      49.590  32.159  26.769  1.00  0.00    -0.205 F 
ATOM     96  C   UNL A   1      48.702  35.283  25.258  1.00  0.00     0.022 A 
BRANCH  94  97
ATOM     97  S   UNL A   1      51.182  34.108  25.258  1.00  0.00     0.127 S 
ATOM     98  O   UNL A   1      51.835  34.172  26.565  1.00  0.00    -0.237 OA
ATOM     99  O   UNL A   1      51.240  32.800  24.606  1.00  0.00    -0.237 OA
ATOM    100  O   UNL A   1      51.452  35.238  24.380  1.00  0.00    -0.744 OA
ENDBRANCH  94  97
ENDBRANCH  67  90
ENDBRANCH  41  42
ENDBRANCH  34  36
ENDBRANCH  33  34
ENDBRANCH  32  33
ENDBRANCH  31  32
ENDBRANCH  30  31
ENDBRANCH   1  30
TORSDOF 23
ENDMDL
MODEL 2
REMARK VINA RESULT:     -11.3      3.587      5.938
REMARK SMILES Cc1cccc(-c2c(C(=O)OCCOCCOCCOC(=O)c3ccc(-c4c5nc(c(-c6cccc(S(=O)(=O)[O-])c6F)c6ccc([nH]6)c(-c6cccc(S(=O)(=O)[O-])c6F)c6nc(c(-c7cccc(S(=O)(=O)[O-])c7F)c7ccc4[nH]7)C=C6)C=C5)cc3)nnn2Cc2cc(F)cc(F)c2)c1
REMARK SMILES IDX 16 1 15 2 14 3 13 4 12 5 11 6 9 7 10 8 8 9 7 10 88 11 86 12
REMARK SMILES IDX 87 13 6 14 1 15 2 16 3 17 98 18 4 19 5 20 89 21 90 22 91 23
REMARK SMILES IDX 97 24 92 25 95 26 93 27 94 28 96 29 17 30 18 31 19 32 20 33
REMARK SMILES IDX 21 34 22 35 23 36 24 37 85 38 25 39 84 40 26 41 27 42 28 43
REMARK SMILES IDX 78 44 29 45 83 46 77 47 79 48 30 49 82 50 76 51 75 52 31 54
REMARK SMILES IDX 63 55 43 56 62 57 44 58 47 59 61 60 80 61 45 62 46 63 60 65
REMARK SMILES IDX 81 66 48 67 32 68 33 69 41 70 34 71 36 72 42 73 35 74 37 75
REMARK SMILES IDX 38 76 39 77 40 78 64 79 65 80 73 81 66 82 68 83 74 84 67 85
REMARK SMILES IDX 69 86 70 87 71 88 72 89 49 90 50 91 58 92 51 93 53 94 59 95
REMARK SMILES IDX 52 96 54 97 55 98 56 99 57 100
REMARK H PARENT 79 53 47 64
REMARK Flexibility Score: inf
ROOT
ATOM      1  C   UNL A   1      35.598  33.573  29.659  1.00  0.00     0.188 C 
ENDROOT
BRANCH   1   2
ATOM      2  C   UNL A   1      34.637  32.896  28.700  1.00  0.00     0.188 C 
BRANCH   2   3
ATOM      3  O   UNL A   1      34.451  31.523  28.668  1.00  0.00    -0.376 OA
BRANCH   3   4
ATOM      4  C   UNL A   1      35.502  30.903  27.971  1.00  0.00     0.202 C 
BRANCH   4   5
ATOM      5  C   UNL A   1      35.432  29.328  27.527  1.00  0.00     0.261 C 
BRANCH   5   6
ATOM      6  O   UNL A   1      34.350  28.370  26.439  1.00  0.00    -0.458 OA
BRANCH   6   7
ATOM      7  C   UNL A   1      33.010  28.376  25.400  1.00  0.00     0.361 C 
ATOM      8  O   UNL A   1      32.779  29.149  24.460  1.00  0.00    -0.244 OA
BRANCH   7   9
ATOM      9  C   UNL A   1      31.909  27.532  25.665  1.00  0.00     0.198 A 
ATOM     10  C   UNL A   1      32.082  26.246  25.248  1.00  0.00     0.104 A 
ATOM     11  N   UNL A   1      31.136  25.584  25.964  1.00  0.00    -0.239 N 
ATOM     12  N   UNL A   1      31.126  27.564  26.786  1.00  0.00    -0.122 NA
ATOM     13  N   UNL A   1      30.594  26.360  26.922  1.00  0.00    -0.066 NA
BRANCH  10  14
ATOM     14  C   UNL A   1      33.045  25.916  24.182  1.00  0.00     0.003 A 
ATOM     15  C   UNL A   1      36.649  23.512  25.272  1.00  0.00     0.044 C 
ATOM     16  C   UNL A   1      35.451  23.837  24.431  1.00  0.00    -0.050 A 
ATOM     17  C   UNL A   1      34.980  22.882  22.959  1.00  0.00     0.003 A 
ATOM     18  C   UNL A   1      34.529  25.287  25.011  1.00  0.00     0.013 A 
ATOM     19  C   UNL A   1      33.426  23.305  22.022  1.00  0.00     0.001 A 
ATOM     20  C   UNL A   1      32.373  25.025  22.672  1.00  0.00     0.010 A 
ENDBRANCH  10  14
BRANCH  11  21
ATOM     21  C   UNL A   1      30.597  24.268  25.758  1.00  0.00     0.182 C 
BRANCH  21  22
ATOM     22  C   UNL A   1      31.590  23.201  26.108  1.00  0.00    -0.021 A 
ATOM     23  C   UNL A   1      31.799  22.172  25.189  1.00  0.00     0.045 A 
ATOM     24  C   UNL A   1      32.390  23.258  27.265  1.00  0.00     0.045 A 
ATOM     25  C   UNL A   1      32.858  21.295  25.374  1.00  0.00     0.126 A 
ATOM     26  C   UNL A   1      33.489  22.420  27.384  1.00  0.00     0.126 A 
ATOM     27  F   UNL A   1      33.043  20.318  24.478  1.00  0.00    -0.207 F 
ATOM     28  C   UNL A   1      33.734  21.435  26.442  1.00  0.00     0.078 A 
ATOM     29  F   UNL A   1      34.345  22.610  28.394  1.00  0.00    -0.207 F 
ENDBRANCH  21  22
ENDBRANCH  11  21
ENDBRANCH   7   9
ENDBRANCH   6   7
ENDBRANCH   5   6
ENDBRANCH   4   5
ENDBRANCH   3   4
ENDBRANCH   2   3
ENDBRANCH   1   2
BRANCH   1  30
ATOM     30  O   UNL A   1      36.455  32.678  30.304  1.00  0.00    -0.376 OA
BRANCH  30  31
ATOM     31  C   UNL A   1      36.288  32.771  31.706  1.00  0.00     0.202 C 
BRANCH  31  32
ATOM     32  C   UNL A   1      36.403  31.452  32.594  1.00  0.00     0.261 C 
BRANCH  32  33
ATOM     33  O   UNL A   1      37.283  30.229  32.243  1.00  0.00    -0.460 OA
BRANCH  33  34
ATOM     34  C   UNL A   1      38.035  29.154  32.710  1.00  0.00     0.338 C 
ATOM     35  O   UNL A   1      37.446  28.175  33.168  1.00  0.00    -0.246 OA
BRANCH  34  36
ATOM     36  C   UNL A   1      39.482  28.912  32.382  1.00  0.00     0.060 A 
ATOM     37  C   UNL A   1      40.520  28.762  33.301  1.00  0.00     0.016 A 
ATOM     38  C   UNL A   1      39.925  28.810  31.113  1.00  0.00     0.016 A 
ATOM     39  C   UNL A   1      41.731  29.531  33.169  1.00  0.00     0.010 A 
ATOM     40  C   UNL A   1      41.147  29.455  30.959  1.00  0.00     0.010 A 
ATOM     41  C   UNL A   1      41.908  30.271  32.045  1.00  0.00    -0.014 A 
BRANCH  41  42
ATOM     42  C   UNL A   1      43.105  31.686  31.894  1.00  0.00     0.031 A 
ATOM     43  C   UNL A   1      42.919  33.424  32.688  1.00  0.00     0.074 A 
ATOM     44  C   UNL A   1      44.189  31.469  31.123  1.00  0.00     0.049 A 
ATOM     45  N   UNL A   1      43.574  34.726  32.186  1.00  0.00    -0.248 NA
ATOM     46  C   UNL A   1      41.614  33.884  34.235  1.00  0.00     0.031 C 
ATOM     47  C   UNL A   1      45.396  32.282  30.972  1.00  0.00     0.029 A 
ATOM     48  N   UNL A   1      44.449  30.379  30.328  1.00  0.00    -0.354 N 
ATOM     49  C   UNL A   1      43.081  36.246  33.064  1.00  0.00     0.074 A 
ATOM     50  C   UNL A   1      41.756  35.741  34.376  1.00  0.00     0.031 C 
ATOM     51  C   UNL A   1      46.170  31.740  30.007  1.00  0.00     0.029 A 
ATOM     52  C   UNL A   1      45.370  30.727  29.342  1.00  0.00     0.049 A 
ATOM     53  H   UNL A   1      44.046  29.488  30.438  1.00  0.00     0.167 HD
ATOM     54  C   UNL A   1      44.021  37.236  33.047  1.00  0.00     0.034 A 
ATOM     55  C   UNL A   1      44.883  30.853  28.064  1.00  0.00     0.034 A 
ATOM     56  C   UNL A   1      44.955  36.873  31.956  1.00  0.00     0.049 A 
ATOM     57  C   UNL A   1      44.720  32.350  27.677  1.00  0.00     0.074 A 
ATOM     58  C   UNL A   1      46.213  36.286  31.889  1.00  0.00     0.029 A 
ATOM     59  N   UNL A   1      44.399  36.631  30.695  1.00  0.00    -0.354 N 
ATOM     60  N   UNL A   1      45.005  33.379  28.449  1.00  0.00    -0.248 NA
ATOM     61  C   UNL A   1      44.201  32.784  26.386  1.00  0.00     0.031 C 
ATOM     62  C   UNL A   1      46.373  35.695  30.579  1.00  0.00     0.029 A 
ATOM     63  C   UNL A   1      45.252  35.972  29.814  1.00  0.00     0.049 A 
ATOM     64  H   UNL A   1      43.485  36.901  30.453  1.00  0.00     0.167 HD
ATOM     65  C   UNL A   1      44.652  34.563  27.853  1.00  0.00     0.074 A 
ATOM     66  C   UNL A   1      44.114  34.113  26.567  1.00  0.00     0.031 C 
ATOM     67  C   UNL A   1      44.812  35.819  28.414  1.00  0.00     0.034 A 
BRANCH  54  68
ATOM     68  C   UNL A   1      44.249  38.228  34.194  1.00  0.00     0.023 A 
ATOM     69  C   UNL A   1      44.557  37.705  35.462  1.00  0.00     0.012 A 
ATOM     70  C   UNL A   1      44.139  39.649  34.154  1.00  0.00     0.148 A 
ATOM     71  C   UNL A   1      44.690  38.521  36.606  1.00  0.00     0.002 A 
ATOM     72  C   UNL A   1      44.218  40.463  35.292  1.00  0.00     0.091 A 
ATOM     73  F   UNL A   1      44.041  40.278  32.994  1.00  0.00    -0.205 F 
ATOM     74  C   UNL A   1      44.501  39.897  36.529  1.00  0.00     0.022 A 
BRANCH  72  75
ATOM     75  S   UNL A   1      43.945  42.256  35.235  1.00  0.00     0.127 S 
ATOM     76  O   UNL A   1      45.014  42.704  34.338  1.00  0.00    -0.237 OA
ATOM     77  O   UNL A   1      42.601  42.353  34.669  1.00  0.00    -0.237 OA
ATOM     78  O   UNL A   1      44.081  42.744  36.603  1.00  0.00    -0.744 OA
ENDBRANCH  72  75
ENDBRANCH  54  68
BRANCH  55  79
ATOM     79  C   UNL A   1      43.924  29.703  27.752  1.00  0.00     0.023 A 
ATOM     80  C   UNL A   1      42.562  30.054  27.487  1.00  0.00     0.012 A 
ATOM     81  C   UNL A   1      44.365  28.453  27.297  1.00  0.00     0.148 A 
ATOM     82  C   UNL A   1      41.794  29.338  26.562  1.00  0.00     0.002 A 
ATOM     83  C   UNL A   1      43.557  27.690  26.447  1.00  0.00     0.091 A 
ATOM     84  F   UNL A   1      45.587  28.026  27.631  1.00  0.00    -0.205 F 
ATOM     85  C   UNL A   1      42.300  28.158  26.030  1.00  0.00     0.022 A 
BRANCH  83  86
ATOM     86  S   UNL A   1      44.261  26.212  25.676  1.00  0.00     0.127 S 
ATOM     87  O   UNL A   1      45.379  26.739  24.891  1.00  0.00    -0.237 OA
ATOM     88  O   UNL A   1      44.659  25.388  26.807  1.00  0.00    -0.237 OA
ATOM     89  O   UNL A   1      43.136  25.734  24.880  1.00  0.00    -0.744 OA
ENDBRANCH  83  86
ENDBRANCH  55  79
BRANCH  67  90
ATOM     90  C   UNL A   1      44.530  37.110  27.629  1.00  0.00     0.023 A 
ATOM     91  C   UNL A   1      43.218  37.555  27.409  1.00  0.00     0.012 A 
ATOM     92  C   UNL A   1      45.540  37.871  26.975  1.00  0.00     0.148 A 
ATOM     93  C   UNL A   1      42.940  38.782  26.796  1.00  0.00     0.002 A 
ATOM     94  C   UNL A   1      45.273  39.075  26.344  1.00  0.00     0.091 A 
ATOM     95  F   UNL A   1      46.783  37.413  26.859  1.00  0.00    -0.205 F 
ATOM     96  C   UNL A   1      43.973  39.561  26.294  1.00  0.00     0.022 A 
BRANCH  94  97
ATOM     97  S   UNL A   1      46.565  40.010  25.509  1.00  0.00     0.127 S 
ATOM     98  O   UNL A   1      47.113  39.000  24.605  1.00  0.00    -0.237 OA
ATOM     99  O   UNL A   1      45.792  41.066  24.855  1.00  0.00    -0.237 OA
ATOM    100  O   UNL A   1      47.483  40.477  26.538  1.00  0.00    -0.744 OA
ENDBRANCH  94  97
ENDBRANCH  67  90
ENDBRANCH  41  42
ENDBRANCH  34  36
ENDBRANCH  33  34
ENDBRANCH  32  33
ENDBRANCH  31  32
ENDBRANCH  30  31
ENDBRANCH   1  30
TORSDOF 23
ENDMDL
MODEL 3
REMARK VINA RESULT:     -11.2      4.915      9.093
REMARK SMILES Cc1cccc(-c2c(C(=O)OCCOCCOCCOC(=O)c3ccc(-c4c5nc(c(-c6cccc(S(=O)(=O)[O-])c6F)c6ccc([nH]6)c(-c6cccc(S(=O)(=O)[O-])c6F)c6nc(c(-c7cccc(S(=O)(=O)[O-])c7F)c7ccc4[nH]7)C=C6)C=C5)cc3)nnn2Cc2cc(F)cc(F)c2)c1
REMARK SMILES IDX 16 1 15 2 14 3 13 4 12 5 11 6 9 7 10 8 8 9 7 10 88 11 86 12
REMARK SMILES IDX 87 13 6 14 1 15 2 16 3 17 98 18 4 19 5 20 89 21 90 22 91 23
REMARK SMILES IDX 97 24 92 25 95 26 93 27 94 28 96 29 17 30 18 31 19 32 20 33
REMARK SMILES IDX 21 34 22 35 23 36 24 37 85 38 25 39 84 40 26 41 27 42 28 43
REMARK SMILES IDX 78 44 29 45 83 46 77 47 79 48 30 49 82 50 76 51 75 52 31 54
REMARK SMILES IDX 63 55 43 56 62 57 44 58 47 59 61 60 80 61 45 62 46 63 60 65
REMARK SMILES IDX 81 66 48 67 32 68 33 69 41 70 34 71 36 72 42 73 35 74 37 75
REMARK SMILES IDX 38 76 39 77 40 78 64 79 65 80 73 81 66 82 68 83 74 84 67 85
REMARK SMILES IDX 69 86 70 87 71 88 72 89 49 90 50 91 58 92 51 93 53 94 59 95
REMARK SMILES IDX 52 96 54 97 55 98 56 99 57 100
REMARK H PARENT 79 53 47 64
REMARK Flexibility Score: inf
ROOT
ATOM      1  C   UNL A   1      35.467  31.916  27.914  1.00  0.00     0.188 C 
ENDROOT
BRANCH   1   2
ATOM      2  C   UNL A   1      35.593  30.435  28.220  1.00  0.00     0.188 C 
BRANCH   2   3
ATOM      3  O   UNL A   1      36.076  29.518  27.299  1.00  0.00    -0.376 OA
BRANCH   3   4
ATOM      4  C   UNL A   1      35.011  28.887  26.632  1.00  0.00     0.202 C 
BRANCH   4   5
ATOM      5  C   UNL A   1      33.533  28.731  27.321  1.00  0.00     0.261 C 
BRANCH   5   6
ATOM      6  O   UNL A   1      32.007  27.878  26.855  1.00  0.00    -0.458 OA
BRANCH   6   7
ATOM      7  C   UNL A   1      31.017  27.316  25.598  1.00  0.00     0.361 C 
ATOM      8  O   UNL A   1      30.648  27.929  24.587  1.00  0.00    -0.244 OA
BRANCH   7   9
ATOM      9  C   UNL A   1      30.370  26.066  25.716  1.00  0.00     0.198 A 
ATOM     10  C   UNL A   1      31.124  25.009  25.302  1.00  0.00     0.104 A 
ATOM     11  N   UNL A   1      30.491  23.960  25.889  1.00  0.00    -0.239 N 
ATOM     12  N   UNL A   1      29.542  25.685  26.736  1.00  0.00    -0.122 NA
ATOM     13  N   UNL A   1      29.574  24.364  26.789  1.00  0.00    -0.066 NA
BRANCH  10  14
ATOM     14  C   UNL A   1      32.236  25.194  24.353  1.00  0.00     0.003 A 
ATOM     15  C   UNL A   1      36.350  24.074  25.687  1.00  0.00     0.044 C 
ATOM     16  C   UNL A   1      35.201  24.077  24.724  1.00  0.00    -0.050 A 
ATOM     17  C   UNL A   1      35.251  23.240  23.112  1.00  0.00     0.003 A 
ATOM     18  C   UNL A   1      33.763  25.012  25.313  1.00  0.00     0.013 A 
ATOM     19  C   UNL A   1      33.745  23.223  22.015  1.00  0.00     0.001 A 
ATOM     20  C   UNL A   1      32.080  24.353  22.681  1.00  0.00     0.010 A 
ENDBRANCH  10  14
BRANCH  11  21
ATOM     21  C   UNL A   1      30.599  22.556  25.599  1.00  0.00     0.182 C 
BRANCH  21  22
ATOM     22  C   UNL A   1      32.007  22.064  25.755  1.00  0.00    -0.021 A 
ATOM     23  C   UNL A   1      32.676  22.356  26.942  1.00  0.00     0.045 A 
ATOM     24  C   UNL A   1      32.629  21.232  24.804  1.00  0.00     0.045 A 
ATOM     25  C   UNL A   1      33.888  21.737  27.215  1.00  0.00     0.126 A 
ATOM     26  C   UNL A   1      33.800  20.565  25.135  1.00  0.00     0.126 A 
ATOM     27  F   UNL A   1      34.512  22.029  28.362  1.00  0.00    -0.207 F 
ATOM     28  C   UNL A   1      34.438  20.809  26.340  1.00  0.00     0.078 A 
ATOM     29  F   UNL A   1      34.279  19.638  24.298  1.00  0.00    -0.207 F 
ENDBRANCH  21  22
ENDBRANCH  11  21
ENDBRANCH   7   9
ENDBRANCH   6   7
ENDBRANCH   5   6
ENDBRANCH   4   5
ENDBRANCH   3   4
ENDBRANCH   2   3
ENDBRANCH   1   2
BRANCH   1  30
ATOM     30  O   UNL A   1      34.206  32.435  28.214  1.00  0.00    -0.376 OA
BRANCH  30  31
ATOM     31  C   UNL A   1      34.318  33.790  28.602  1.00  0.00     0.202 C 
BRANCH  31  32
ATOM     32  C   UNL A   1      34.440  34.150  30.150  1.00  0.00     0.261 C 
BRANCH  32  33
ATOM     33  O   UNL A   1      35.357  33.413  31.155  1.00  0.00    -0.460 OA
BRANCH  33  34
ATOM     34  C   UNL A   1      36.359  32.465  31.349  1.00  0.00     0.338 C 
ATOM     35  O   UNL A   1      36.035  31.310  31.627  1.00  0.00    -0.246 OA
BRANCH  34  36
ATOM     36  C   UNL A   1      37.785  32.620  30.899  1.00  0.00     0.060 A 
ATOM     37  C   UNL A   1      38.813  31.696  31.091  1.00  0.00     0.016 A 
ATOM     38  C   UNL A   1      38.217  33.711  30.238  1.00  0.00     0.016 A 
ATOM     39  C   UNL A   1      40.073  32.110  31.652  1.00  0.00     0.010 A 
ATOM     40  C   UNL A   1      39.480  34.093  30.677  1.00  0.00     0.010 A 
ATOM     41  C   UNL A   1      40.298  33.438  31.829  1.00  0.00    -0.014 A 
BRANCH  41  42
ATOM     42  C   UNL A   1      41.588  34.144  32.966  1.00  0.00     0.031 A 
ATOM     43  C   UNL A   1      41.278  34.946  34.681  1.00  0.00     0.074 A 
ATOM     44  C   UNL A   1      42.859  34.114  32.516  1.00  0.00     0.049 A 
ATOM     45  N   UNL A   1      42.193  35.968  35.385  1.00  0.00    -0.248 NA
ATOM     46  C   UNL A   1      39.533  34.738  35.786  1.00  0.00     0.031 C 
ATOM     47  C   UNL A   1      44.103  34.389  33.235  1.00  0.00     0.029 A 
ATOM     48  N   UNL A   1      43.298  33.749  31.266  1.00  0.00    -0.354 N 
ATOM     49  C   UNL A   1      41.548  36.664  36.942  1.00  0.00     0.074 A 
ATOM     50  C   UNL A   1      39.783  35.923  37.208  1.00  0.00     0.031 C 
ATOM     51  C   UNL A   1      45.132  34.351  32.360  1.00  0.00     0.029 A 
ATOM     52  C   UNL A   1      44.553  34.308  31.028  1.00  0.00     0.049 A 
ATOM     53  H   UNL A   1      42.803  33.179  30.634  1.00  0.00     0.167 HD
ATOM     54  C   UNL A   1      42.512  37.069  37.820  1.00  0.00     0.034 A 
ATOM     55  C   UNL A   1      44.601  35.352  30.138  1.00  0.00     0.034 A 
ATOM     56  C   UNL A   1      43.752  37.183  37.018  1.00  0.00     0.049 A 
ATOM     57  C   UNL A   1      44.736  36.710  30.883  1.00  0.00     0.074 A 
ATOM     58  C   UNL A   1      44.880  36.395  36.828  1.00  0.00     0.029 A 
ATOM     59  N   UNL A   1      43.696  37.978  35.867  1.00  0.00    -0.354 N 
ATOM     60  N   UNL A   1      44.803  36.867  32.190  1.00  0.00    -0.248 NA
ATOM     61  C   UNL A   1      44.789  37.993  30.191  1.00  0.00     0.031 C 
ATOM     62  C   UNL A   1      45.469  36.738  35.552  1.00  0.00     0.029 A 
ATOM     63  C   UNL A   1      44.753  37.779  34.985  1.00  0.00     0.049 A 
ATOM     64  H   UNL A   1      42.971  38.622  35.697  1.00  0.00     0.167 HD
ATOM     65  C   UNL A   1      44.814  38.195  32.533  1.00  0.00     0.074 A 
ATOM     66  C   UNL A   1      44.764  38.853  31.224  1.00  0.00     0.031 C 
ATOM     67  C   UNL A   1      44.865  38.686  33.826  1.00  0.00     0.034 A 
BRANCH  54  68
ATOM     68  C   UNL A   1      42.380  36.985  39.345  1.00  0.00     0.023 A 
ATOM     69  C   UNL A   1      43.073  35.957  40.008  1.00  0.00     0.012 A 
ATOM     70  C   UNL A   1      41.584  37.804  40.199  1.00  0.00     0.148 A 
ATOM     71  C   UNL A   1      42.945  35.729  41.394  1.00  0.00     0.002 A 
ATOM     72  C   UNL A   1      41.409  37.554  41.567  1.00  0.00     0.091 A 
ATOM     73  F   UNL A   1      41.034  38.914  39.735  1.00  0.00    -0.205 F 
ATOM     74  C   UNL A   1      42.098  36.512  42.173  1.00  0.00     0.022 A 
BRANCH  72  75
ATOM     75  S   UNL A   1      40.289  38.533  42.606  1.00  0.00     0.127 S 
ATOM     76  O   UNL A   1      41.145  39.649  43.019  1.00  0.00    -0.237 OA
ATOM     77  O   UNL A   1      39.229  38.900  41.670  1.00  0.00    -0.237 OA
ATOM     78  O   UNL A   1      39.877  37.669  43.706  1.00  0.00    -0.744 OA
ENDBRANCH  72  75
ENDBRANCH  54  68
BRANCH  55  79
ATOM     79  C   UNL A   1      43.729  35.044  28.920  1.00  0.00     0.023 A 
ATOM     80  C   UNL A   1      42.620  35.917  28.683  1.00  0.00     0.012 A 
ATOM     81  C   UNL A   1      44.186  34.279  27.838  1.00  0.00     0.148 A 
ATOM     82  C   UNL A   1      42.205  36.230  27.384  1.00  0.00     0.002 A 
ATOM     83  C   UNL A   1      43.700  34.526  26.549  1.00  0.00     0.091 A 
ATOM     84  F   UNL A   1      45.132  33.357  28.038  1.00  0.00    -0.205 F 
ATOM     85  C   UNL A   1      42.757  35.541  26.312  1.00  0.00     0.022 A 
BRANCH  83  86
ATOM     86  S   UNL A   1      44.497  33.703  25.148  1.00  0.00     0.127 S 
ATOM     87  O   UNL A   1      45.640  34.568  24.853  1.00  0.00    -0.237 OA
ATOM     88  O   UNL A   1      44.855  32.395  25.674  1.00  0.00    -0.237 OA
ATOM     89  O   UNL A   1      43.438  33.739  24.147  1.00  0.00    -0.744 OA
ENDBRANCH  83  86
ENDBRANCH  55  79
BRANCH  67  90
ATOM     90  C   UNL A   1      45.024  40.184  34.130  1.00  0.00     0.023 A 
ATOM     91  C   UNL A   1      46.209  40.692  34.684  1.00  0.00     0.012 A 
ATOM     92  C   UNL A   1      43.969  41.131  33.994  1.00  0.00     0.148 A 
ATOM     93  C   UNL A   1      46.418  42.064  34.865  1.00  0.00     0.002 A 
ATOM     94  C   UNL A   1      44.159  42.489  34.194  1.00  0.00     0.091 A 
ATOM     95  F   UNL A   1      42.720  40.744  33.754  1.00  0.00    -0.205 F 
ATOM     96  C   UNL A   1      45.403  42.968  34.585  1.00  0.00     0.022 A 
BRANCH  94  97
ATOM     97  S   UNL A   1      42.806  43.665  34.031  1.00  0.00     0.127 S 
ATOM     98  O   UNL A   1      42.277  43.314  32.714  1.00  0.00    -0.237 OA
ATOM     99  O   UNL A   1      41.951  43.291  35.157  1.00  0.00    -0.237 OA
ATOM    100  O   UNL A   1      43.387  44.997  34.125  1.00  0.00    -0.744 OA
ENDBRANCH  94  97
ENDBRANCH  67  90
ENDBRANCH  41  42
ENDBRANCH  34  36
ENDBRANCH  33  34
ENDBRANCH  32  33
ENDBRANCH  31  32
ENDBRANCH  30  31
ENDBRANCH   1  30
TORSDOF 23
ENDMDL
