MODEL 1
REMARK VINA RESULT:      -8.6      0.000      0.000
REMARK SMILES CC[C@@](C)(NC(=O)CCc1ccc(OC)c(Br)c1)C(=O)OCCOCCOCCOC(=O)c1ccc(-c2c3nc(c(-c4cccc(S(=O)(=O)[O-])c4F)c4ccc([nH]4)c(-c4cccc(S(=O)(=O)[O-])c4F)c4nc(c(-c5cccc(S(=O)(=O)[O-])c5F)c5ccc2[nH]5)C=C4)C=C3)cc1
REMARK SMILES IDX 25 1 24 2 23 3 22 4 21 5 19 6 20 7 3 8 4 9 2 10 1 11 5 12
REMARK SMILES IDX 6 13 7 15 8 16 9 17 10 18 11 19 18 20 12 21 16 22 13 23
REMARK SMILES IDX 17 24 14 25 15 26 26 27 27 28 28 29 29 30 30 31 31 32 32 33
REMARK SMILES IDX 33 34 34 35 95 36 35 37 94 38 36 39 37 40 38 41 88 42 39 43
REMARK SMILES IDX 93 44 87 45 89 46 40 47 92 48 86 49 85 50 41 52 73 53 53 54
REMARK SMILES IDX 72 55 54 56 57 57 71 58 90 59 55 60 56 61 70 63 91 64 58 65
REMARK SMILES IDX 42 66 43 67 51 68 44 69 46 70 52 71 45 72 47 73 48 74 49 75
REMARK SMILES IDX 50 76 74 77 75 78 83 79 76 80 78 81 84 82 77 83 79 84 80 85
REMARK SMILES IDX 81 86 82 87 59 88 60 89 68 90 61 91 63 92 69 93 62 94 64 95
REMARK SMILES IDX 65 96 66 97 67 98
REMARK H PARENT 5 14 89 51 57 62
REMARK Flexibility Score: inf
ROOT
ATOM      1  C   UNL A   1      38.300  24.233  26.156  1.00  0.00     0.188 C 
ENDROOT
BRANCH   1   2
ATOM      2  O   UNL A   1      37.164  23.386  25.973  1.00  0.00    -0.376 OA
BRANCH   2   3
ATOM      3  C   UNL A   1      36.511  23.294  24.703  1.00  0.00     0.202 C 
BRANCH   3   4
ATOM      4  C   UNL A   1      35.203  24.204  24.679  1.00  0.00     0.261 C 
BRANCH   4   5
ATOM      5  O   UNL A   1      34.386  24.020  23.448  1.00  0.00    -0.462 OA
BRANCH   5   6
ATOM      6  C   UNL A   1      33.016  23.907  23.474  1.00  0.00     0.331 C 
ATOM      7  O   UNL A   1      32.302  24.849  23.135  1.00  0.00    -0.249 OA
BRANCH   6   8
ATOM      8  C   UNL A   1      32.387  22.390  23.982  1.00  0.00     0.135 C 
ATOM      9  C   UNL A   1      32.243  21.635  22.644  1.00  0.00     0.047 C 
BRANCH   8  10
ATOM     10  C   UNL A   1      32.859  21.240  25.075  1.00  0.00     0.037 C 
ATOM     11  C   UNL A   1      34.082  20.346  25.257  1.00  0.00     0.007 C 
ENDBRANCH   8  10
BRANCH   8  12
ATOM     12  N   UNL A   1      31.059  22.672  24.522  1.00  0.00    -0.340 N 
ATOM     13  C   UNL A   1      30.929  22.966  25.845  1.00  0.00     0.221 C 
ATOM     14  H   UNL A   1      30.268  22.650  23.937  1.00  0.00     0.164 HD
ATOM     15  O   UNL A   1      29.906  22.608  26.427  1.00  0.00    -0.275 OA
BRANCH  13  16
ATOM     16  C   UNL A   1      32.016  23.761  26.540  1.00  0.00     0.105 C 
BRANCH  16  17
ATOM     17  C   UNL A   1      32.281  25.324  26.749  1.00  0.00     0.045 C 
BRANCH  17  18
ATOM     18  C   UNL A   1      31.989  26.809  26.441  1.00  0.00    -0.046 A 
ATOM     19  C   UNL A   1      32.442  27.742  27.397  1.00  0.00     0.007 A 
ATOM     20  C   UNL A   1      31.368  27.408  25.346  1.00  0.00     0.023 A 
ATOM     21  C   UNL A   1      32.429  29.134  27.164  1.00  0.00     0.048 A 
ATOM     22  C   UNL A   1      31.305  28.794  25.102  1.00  0.00     0.060 A 
ATOM     23  C   UNL A   1      31.923  29.667  25.976  1.00  0.00     0.133 A 
ATOM     24  Br  UNL A   1      30.355  29.304  23.528  1.00  0.00    -0.047 Br
BRANCH  23  25
ATOM     25  O   UNL A   1      32.062  31.015  25.815  1.00  0.00    -0.496 OA
ATOM     26  C   UNL A   1      31.077  31.813  26.478  1.00  0.00     0.278 C 
ENDBRANCH  23  25
ENDBRANCH  17  18
ENDBRANCH  16  17
ENDBRANCH  13  16
ENDBRANCH   8  12
ENDBRANCH   6   8
ENDBRANCH   5   6
ENDBRANCH   4   5
ENDBRANCH   3   4
ENDBRANCH   2   3
ENDBRANCH   1   2
BRANCH   1  27
ATOM     27  C   UNL A   1      39.545  23.704  26.879  1.00  0.00     0.188 C 
BRANCH  27  28
ATOM     28  O   UNL A   1      39.600  22.309  27.160  1.00  0.00    -0.376 OA
BRANCH  28  29
ATOM     29  C   UNL A   1      40.774  21.901  27.855  1.00  0.00     0.202 C 
BRANCH  29  30
ATOM     30  C   UNL A   1      41.343  20.501  27.517  1.00  0.00     0.261 C 
BRANCH  30  31
ATOM     31  O   UNL A   1      41.373  20.186  26.114  1.00  0.00    -0.460 OA
BRANCH  31  32
ATOM     32  C   UNL A   1      42.624  19.971  25.610  1.00  0.00     0.338 C 
ATOM     33  O   UNL A   1      43.038  18.932  25.146  1.00  0.00    -0.246 OA
BRANCH  32  34
ATOM     34  C   UNL A   1      43.388  21.252  25.537  1.00  0.00     0.060 A 
ATOM     35  C   UNL A   1      44.604  21.318  26.237  1.00  0.00     0.016 A 
ATOM     36  C   UNL A   1      42.921  22.377  24.852  1.00  0.00     0.016 A 
ATOM     37  C   UNL A   1      45.293  22.530  26.354  1.00  0.00     0.010 A 
ATOM     38  C   UNL A   1      43.606  23.595  24.977  1.00  0.00     0.010 A 
ATOM     39  C   UNL A   1      44.750  23.693  25.796  1.00  0.00    -0.014 A 
BRANCH  39  40
ATOM     40  C   UNL A   1      45.114  25.018  26.375  1.00  0.00     0.031 A 
ATOM     41  C   UNL A   1      46.452  25.591  25.964  1.00  0.00     0.074 A 
ATOM     42  C   UNL A   1      44.326  25.701  27.225  1.00  0.00     0.049 A 
ATOM     43  N   UNL A   1      47.066  26.670  26.373  1.00  0.00    -0.248 NA
ATOM     44  C   UNL A   1      47.206  24.826  24.953  1.00  0.00     0.031 C 
ATOM     45  C   UNL A   1      42.997  25.292  27.672  1.00  0.00     0.029 A 
ATOM     46  N   UNL A   1      44.553  26.885  27.886  1.00  0.00    -0.354 N 
ATOM     47  C   UNL A   1      48.292  26.681  25.712  1.00  0.00     0.074 A 
ATOM     48  C   UNL A   1      48.338  25.503  24.880  1.00  0.00     0.031 C 
ATOM     49  C   UNL A   1      42.539  26.196  28.559  1.00  0.00     0.029 A 
ATOM     50  C   UNL A   1      43.552  27.230  28.765  1.00  0.00     0.049 A 
ATOM     51  H   UNL A   1      45.357  27.436  27.743  1.00  0.00     0.167 HD
ATOM     52  C   UNL A   1      49.293  27.589  25.784  1.00  0.00     0.034 A 
ATOM     53  C   UNL A   1      43.479  28.249  29.647  1.00  0.00     0.034 A 
ATOM     54  C   UNL A   1      49.241  28.770  26.597  1.00  0.00     0.049 A 
ATOM     55  C   UNL A   1      44.619  29.238  29.731  1.00  0.00     0.074 A 
ATOM     56  C   UNL A   1      50.183  29.776  26.716  1.00  0.00     0.029 A 
ATOM     57  N   UNL A   1      48.194  29.097  27.443  1.00  0.00    -0.354 N 
ATOM     58  N   UNL A   1      45.735  29.278  29.043  1.00  0.00    -0.248 NA
ATOM     59  C   UNL A   1      44.471  30.345  30.690  1.00  0.00     0.031 C 
ATOM     60  C   UNL A   1      49.724  30.690  27.670  1.00  0.00     0.029 A 
ATOM     61  C   UNL A   1      48.470  30.284  28.098  1.00  0.00     0.049 A 
ATOM     62  H   UNL A   1      47.375  28.564  27.561  1.00  0.00     0.167 HD
ATOM     63  C   UNL A   1      46.393  30.439  29.443  1.00  0.00     0.074 A 
ATOM     64  C   UNL A   1      45.546  31.076  30.430  1.00  0.00     0.031 C 
ATOM     65  C   UNL A   1      47.588  30.934  29.034  1.00  0.00     0.034 A 
BRANCH  52  66
ATOM     66  C   UNL A   1      50.535  27.323  24.974  1.00  0.00     0.023 A 
ATOM     67  C   UNL A   1      50.705  27.926  23.711  1.00  0.00     0.012 A 
ATOM     68  C   UNL A   1      51.547  26.483  25.478  1.00  0.00     0.148 A 
ATOM     69  C   UNL A   1      51.842  27.661  22.945  1.00  0.00     0.002 A 
ATOM     70  C   UNL A   1      52.701  26.268  24.734  1.00  0.00     0.091 A 
ATOM     71  F   UNL A   1      51.356  25.896  26.668  1.00  0.00    -0.205 F 
ATOM     72  C   UNL A   1      52.842  26.843  23.461  1.00  0.00     0.022 A 
BRANCH  70  73
ATOM     73  S   UNL A   1      54.081  25.298  25.349  1.00  0.00     0.127 S 
ATOM     74  O   UNL A   1      55.097  25.550  24.329  1.00  0.00    -0.237 OA
ATOM     75  O   UNL A   1      54.345  25.929  26.642  1.00  0.00    -0.237 OA
ATOM     76  O   UNL A   1      53.605  23.924  25.429  1.00  0.00    -0.744 OA
ENDBRANCH  70  73
ENDBRANCH  52  66
BRANCH  53  77
ATOM     77  C   UNL A   1      42.271  28.420  30.510  1.00  0.00     0.023 A 
ATOM     78  C   UNL A   1      42.300  27.977  31.848  1.00  0.00     0.012 A 
ATOM     79  C   UNL A   1      41.091  29.004  30.010  1.00  0.00     0.148 A 
ATOM     80  C   UNL A   1      41.170  28.082  32.660  1.00  0.00     0.002 A 
ATOM     81  C   UNL A   1      39.986  29.157  30.840  1.00  0.00     0.091 A 
ATOM     82  F   UNL A   1      41.073  29.400  28.729  1.00  0.00    -0.205 F 
ATOM     83  C   UNL A   1      40.017  28.681  32.160  1.00  0.00     0.022 A 
BRANCH  81  84
ATOM     84  S   UNL A   1      38.497  30.015  30.321  1.00  0.00     0.127 S 
ATOM     85  O   UNL A   1      37.778  28.964  29.606  1.00  0.00    -0.237 OA
ATOM     86  O   UNL A   1      37.910  30.398  31.606  1.00  0.00    -0.237 OA
ATOM     87  O   UNL A   1      38.949  31.135  29.507  1.00  0.00    -0.744 OA
ENDBRANCH  81  84
ENDBRANCH  53  77
BRANCH  65  88
ATOM     88  C   UNL A   1      48.022  32.271  29.578  1.00  0.00     0.023 A 
ATOM     89  C   UNL A   1      48.794  32.352  30.752  1.00  0.00     0.012 A 
ATOM     90  C   UNL A   1      47.711  33.452  28.873  1.00  0.00     0.148 A 
ATOM     91  C   UNL A   1      49.209  33.591  31.243  1.00  0.00     0.002 A 
ATOM     92  C   UNL A   1      48.178  34.676  29.334  1.00  0.00     0.091 A 
ATOM     93  F   UNL A   1      46.963  33.358  27.764  1.00  0.00    -0.205 F 
ATOM     94  C   UNL A   1      48.912  34.751  30.528  1.00  0.00     0.022 A 
BRANCH  92  95
ATOM     95  S   UNL A   1      47.933  36.202  28.419  1.00  0.00     0.127 S 
ATOM     96  O   UNL A   1      48.547  35.880  27.132  1.00  0.00    -0.237 OA
ATOM     97  O   UNL A   1      46.473  36.313  28.387  1.00  0.00    -0.237 OA
ATOM     98  O   UNL A   1      48.598  37.243  29.189  1.00  0.00    -0.744 OA
ENDBRANCH  92  95
ENDBRANCH  65  88
ENDBRANCH  39  40
ENDBRANCH  32  34
ENDBRANCH  31  32
ENDBRANCH  30  31
ENDBRANCH  29  30
ENDBRANCH  28  29
ENDBRANCH  27  28
ENDBRANCH   1  27
TORSDOF 26
ENDMDL
MODEL 2
REMARK VINA RESULT:      -8.5      2.463      3.301
REMARK SMILES CC[C@@](C)(NC(=O)CCc1ccc(OC)c(Br)c1)C(=O)OCCOCCOCCOC(=O)c1ccc(-c2c3nc(c(-c4cccc(S(=O)(=O)[O-])c4F)c4ccc([nH]4)c(-c4cccc(S(=O)(=O)[O-])c4F)c4nc(c(-c5cccc(S(=O)(=O)[O-])c5F)c5ccc2[nH]5)C=C4)C=C3)cc1
REMARK SMILES IDX 25 1 24 2 23 3 22 4 21 5 19 6 20 7 3 8 4 9 2 10 1 11 5 12
REMARK SMILES IDX 6 13 7 15 8 16 9 17 10 18 11 19 18 20 12 21 16 22 13 23
REMARK SMILES IDX 17 24 14 25 15 26 26 27 27 28 28 29 29 30 30 31 31 32 32 33
REMARK SMILES IDX 33 34 34 35 95 36 35 37 94 38 36 39 37 40 38 41 88 42 39 43
REMARK SMILES IDX 93 44 87 45 89 46 40 47 92 48 86 49 85 50 41 52 73 53 53 54
REMARK SMILES IDX 72 55 54 56 57 57 71 58 90 59 55 60 56 61 70 63 91 64 58 65
REMARK SMILES IDX 42 66 43 67 51 68 44 69 46 70 52 71 45 72 47 73 48 74 49 75
REMARK SMILES IDX 50 76 74 77 75 78 83 79 76 80 78 81 84 82 77 83 79 84 80 85
REMARK SMILES IDX 81 86 82 87 59 88 60 89 68 90 61 91 63 92 69 93 62 94 64 95
REMARK SMILES IDX 65 96 66 97 67 98
REMARK H PARENT 5 14 89 51 57 62
REMARK Flexibility Score: inf
ROOT
ATOM      1  C   UNL A   1      38.351  24.130  26.194  1.00  0.00     0.188 C 
ENDROOT
BRANCH   1   2
ATOM      2  O   UNL A   1      37.128  23.435  25.944  1.00  0.00    -0.376 OA
BRANCH   2   3
ATOM      3  C   UNL A   1      36.530  23.439  24.644  1.00  0.00     0.202 C 
BRANCH   3   4
ATOM      4  C   UNL A   1      35.206  24.326  24.640  1.00  0.00     0.261 C 
BRANCH   4   5
ATOM      5  O   UNL A   1      34.422  24.198  23.380  1.00  0.00    -0.462 OA
BRANCH   5   6
ATOM      6  C   UNL A   1      33.068  23.957  23.368  1.00  0.00     0.331 C 
ATOM      7  O   UNL A   1      32.276  24.838  23.039  1.00  0.00    -0.249 OA
BRANCH   6   8
ATOM      8  C   UNL A   1      32.573  22.373  23.814  1.00  0.00     0.135 C 
ATOM      9  C   UNL A   1      32.521  21.653  22.451  1.00  0.00     0.047 C 
BRANCH   8  10
ATOM     10  C   UNL A   1      33.130  21.234  24.879  1.00  0.00     0.037 C 
ATOM     11  C   UNL A   1      34.380  20.366  24.992  1.00  0.00     0.007 C 
ENDBRANCH   8  10
BRANCH   8  12
ATOM     12  N   UNL A   1      31.216  22.513  24.337  1.00  0.00    -0.340 N 
ATOM     13  C   UNL A   1      31.037  22.738  25.669  1.00  0.00     0.221 C 
ATOM     14  H   UNL A   1      30.440  22.448  23.735  1.00  0.00     0.164 HD
ATOM     15  O   UNL A   1      30.039  22.267  26.213  1.00  0.00    -0.275 OA
BRANCH  13  16
ATOM     16  C   UNL A   1      32.037  23.594  26.419  1.00  0.00     0.105 C 
BRANCH  16  17
ATOM     17  C   UNL A   1      32.177  25.166  26.672  1.00  0.00     0.045 C 
BRANCH  17  18
ATOM     18  C   UNL A   1      31.832  26.635  26.343  1.00  0.00    -0.046 A 
ATOM     19  C   UNL A   1      32.167  27.588  27.328  1.00  0.00     0.007 A 
ATOM     20  C   UNL A   1      31.260  27.206  25.206  1.00  0.00     0.023 A 
ATOM     21  C   UNL A   1      32.099  28.978  27.094  1.00  0.00     0.048 A 
ATOM     22  C   UNL A   1      31.144  28.587  24.957  1.00  0.00     0.060 A 
ATOM     23  C   UNL A   1      31.653  29.488  25.873  1.00  0.00     0.133 A 
ATOM     24  Br  UNL A   1      30.284  29.053  23.319  1.00  0.00    -0.047 Br
BRANCH  23  25
ATOM     25  O   UNL A   1      31.733  30.842  25.721  1.00  0.00    -0.496 OA
ATOM     26  C   UNL A   1      32.165  31.561  26.880  1.00  0.00     0.278 C 
ENDBRANCH  23  25
ENDBRANCH  17  18
ENDBRANCH  16  17
ENDBRANCH  13  16
ENDBRANCH   8  12
ENDBRANCH   6   8
ENDBRANCH   5   6
ENDBRANCH   4   5
ENDBRANCH   3   4
ENDBRANCH   2   3
ENDBRANCH   1   2
BRANCH   1  27
ATOM     27  C   UNL A   1      39.520  23.409  26.876  1.00  0.00     0.188 C 
BRANCH  27  28
ATOM     28  O   UNL A   1      39.528  21.986  26.835  1.00  0.00    -0.376 OA
BRANCH  28  29
ATOM     29  C   UNL A   1      40.704  21.394  27.380  1.00  0.00     0.202 C 
BRANCH  29  30
ATOM     30  C   UNL A   1      41.661  20.685  26.392  1.00  0.00     0.261 C 
BRANCH  30  31
ATOM     31  O   UNL A   1      42.308  21.559  25.449  1.00  0.00    -0.460 OA
BRANCH  31  32
ATOM     32  C   UNL A   1      43.672  21.548  25.513  1.00  0.00     0.338 C 
ATOM     33  O   UNL A   1      44.395  20.631  25.193  1.00  0.00    -0.246 OA
BRANCH  32  34
ATOM     34  C   UNL A   1      44.191  22.902  25.871  1.00  0.00     0.060 A 
ATOM     35  C   UNL A   1      44.525  23.130  27.216  1.00  0.00     0.016 A 
ATOM     36  C   UNL A   1      44.306  23.941  24.942  1.00  0.00     0.016 A 
ATOM     37  C   UNL A   1      44.859  24.415  27.658  1.00  0.00     0.010 A 
ATOM     38  C   UNL A   1      44.632  25.231  25.386  1.00  0.00     0.010 A 
ATOM     39  C   UNL A   1      44.828  25.488  26.758  1.00  0.00    -0.014 A 
BRANCH  39  40
ATOM     40  C   UNL A   1      44.599  26.867  27.278  1.00  0.00     0.031 A 
ATOM     41  C   UNL A   1      45.802  27.782  27.321  1.00  0.00     0.074 A 
ATOM     42  C   UNL A   1      43.402  27.314  27.698  1.00  0.00     0.049 A 
ATOM     43  N   UNL A   1      45.921  28.992  27.802  1.00  0.00    -0.248 NA
ATOM     44  C   UNL A   1      47.051  27.245  26.749  1.00  0.00     0.031 C 
ATOM     45  C   UNL A   1      42.152  26.559  27.672  1.00  0.00     0.029 A 
ATOM     46  N   UNL A   1      43.054  28.521  28.258  1.00  0.00    -0.354 N 
ATOM     47  C   UNL A   1      47.261  29.334  27.637  1.00  0.00     0.074 A 
ATOM     48  C   UNL A   1      47.916  28.207  27.018  1.00  0.00     0.031 C 
ATOM     49  C   UNL A   1      41.179  27.310  28.222  1.00  0.00     0.029 A 
ATOM     50  C   UNL A   1      41.741  28.585  28.666  1.00  0.00     0.049 A 
ATOM     51  H   UNL A   1      43.686  29.270  28.357  1.00  0.00     0.167 HD
ATOM     52  C   UNL A   1      47.896  30.482  27.967  1.00  0.00     0.034 A 
ATOM     53  C   UNL A   1      41.084  29.552  29.339  1.00  0.00     0.034 A 
ATOM     54  C   UNL A   1      47.244  31.611  28.566  1.00  0.00     0.049 A 
ATOM     55  C   UNL A   1      41.818  30.817  29.721  1.00  0.00     0.074 A 
ATOM     56  C   UNL A   1      47.784  32.838  28.906  1.00  0.00     0.029 A 
ATOM     57  N   UNL A   1      45.907  31.645  28.928  1.00  0.00    -0.354 N 
ATOM     58  N   UNL A   1      43.063  31.156  29.488  1.00  0.00    -0.248 NA
ATOM     59  C   UNL A   1      41.042  31.849  30.429  1.00  0.00     0.031 C 
ATOM     60  C   UNL A   1      46.782  33.599  29.516  1.00  0.00     0.029 A 
ATOM     61  C   UNL A   1      45.604  32.867  29.500  1.00  0.00     0.049 A 
ATOM     62  H   UNL A   1      45.267  30.908  28.799  1.00  0.00     0.167 HD
ATOM     63  C   UNL A   1      43.205  32.457  29.968  1.00  0.00     0.074 A 
ATOM     64  C   UNL A   1      41.914  32.846  30.498  1.00  0.00     0.031 C 
ATOM     65  C   UNL A   1      44.299  33.258  29.969  1.00  0.00     0.034 A 
BRANCH  52  66
ATOM     66  C   UNL A   1      49.378  30.561  27.701  1.00  0.00     0.023 A 
ATOM     67  C   UNL A   1      49.864  31.245  26.568  1.00  0.00     0.012 A 
ATOM     68  C   UNL A   1      50.292  29.967  28.592  1.00  0.00     0.148 A 
ATOM     69  C   UNL A   1      51.233  31.298  26.304  1.00  0.00     0.002 A 
ATOM     70  C   UNL A   1      51.657  30.071  28.352  1.00  0.00     0.091 A 
ATOM     71  F   UNL A   1      49.811  29.297  29.649  1.00  0.00    -0.205 F 
ATOM     72  C   UNL A   1      52.128  30.722  27.200  1.00  0.00     0.022 A 
BRANCH  70  73
ATOM     73  S   UNL A   1      52.890  29.434  29.491  1.00  0.00     0.127 S 
ATOM     74  O   UNL A   1      54.134  29.841  28.838  1.00  0.00    -0.237 OA
ATOM     75  O   UNL A   1      52.578  30.167  30.719  1.00  0.00    -0.237 OA
ATOM     76  O   UNL A   1      52.667  27.997  29.566  1.00  0.00    -0.744 OA
ENDBRANCH  70  73
ENDBRANCH  52  66
BRANCH  53  77
ATOM     77  C   UNL A   1      39.637  29.392  29.676  1.00  0.00     0.023 A 
ATOM     78  C   UNL A   1      39.267  28.779  30.891  1.00  0.00     0.012 A 
ATOM     79  C   UNL A   1      38.628  29.829  28.797  1.00  0.00     0.148 A 
ATOM     80  C   UNL A   1      37.923  28.575  31.207  1.00  0.00     0.002 A 
ATOM     81  C   UNL A   1      37.290  29.673  29.143  1.00  0.00     0.091 A 
ATOM     82  F   UNL A   1      38.997  30.390  27.636  1.00  0.00    -0.205 F 
ATOM     83  C   UNL A   1      36.935  29.031  30.339  1.00  0.00     0.022 A 
BRANCH  81  84
ATOM     84  S   UNL A   1      35.949  30.327  28.144  1.00  0.00     0.127 S 
ATOM     85  O   UNL A   1      34.896  30.513  29.138  1.00  0.00    -0.237 OA
ATOM     86  O   UNL A   1      36.537  31.565  27.629  1.00  0.00    -0.237 OA
ATOM     87  O   UNL A   1      35.685  29.317  27.128  1.00  0.00    -0.744 OA
ENDBRANCH  81  84
ENDBRANCH  53  77
BRANCH  65  88
ATOM     88  C   UNL A   1      44.142  34.668  30.479  1.00  0.00     0.023 A 
ATOM     89  C   UNL A   1      44.403  34.976  31.828  1.00  0.00     0.012 A 
ATOM     90  C   UNL A   1      43.794  35.704  29.589  1.00  0.00     0.148 A 
ATOM     91  C   UNL A   1      44.273  36.286  32.293  1.00  0.00     0.002 A 
ATOM     92  C   UNL A   1      43.726  37.014  30.045  1.00  0.00     0.091 A 
ATOM     93  F   UNL A   1      43.536  35.390  28.311  1.00  0.00    -0.205 F 
ATOM     94  C   UNL A   1      43.947  37.306  31.400  1.00  0.00     0.022 A 
BRANCH  92  95
ATOM     95  S   UNL A   1      43.419  38.398  28.941  1.00  0.00     0.127 S 
ATOM     96  O   UNL A   1      44.550  38.301  28.019  1.00  0.00    -0.237 OA
ATOM     97  O   UNL A   1      42.124  38.046  28.357  1.00  0.00    -0.237 OA
ATOM     98  O   UNL A   1      43.397  39.585  29.784  1.00  0.00    -0.744 OA
ENDBRANCH  92  95
ENDBRANCH  65  88
ENDBRANCH  39  40
ENDBRANCH  32  34
ENDBRANCH  31  32
ENDBRANCH  30  31
ENDBRANCH  29  30
ENDBRANCH  28  29
ENDBRANCH  27  28
ENDBRANCH   1  27
TORSDOF 26
ENDMDL
MODEL 3
REMARK VINA RESULT:      -8.1      5.148      8.954
REMARK SMILES CC[C@@](C)(NC(=O)CCc1ccc(OC)c(Br)c1)C(=O)OCCOCCOCCOC(=O)c1ccc(-c2c3nc(c(-c4cccc(S(=O)(=O)[O-])c4F)c4ccc([nH]4)c(-c4cccc(S(=O)(=O)[O-])c4F)c4nc(c(-c5cccc(S(=O)(=O)[O-])c5F)c5ccc2[nH]5)C=C4)C=C3)cc1
REMARK SMILES IDX 25 1 24 2 23 3 22 4 21 5 19 6 20 7 3 8 4 9 2 10 1 11 5 12
REMARK SMILES IDX 6 13 7 15 8 16 9 17 10 18 11 19 18 20 12 21 16 22 13 23
REMARK SMILES IDX 17 24 14 25 15 26 26 27 27 28 28 29 29 30 30 31 31 32 32 33
REMARK SMILES IDX 33 34 34 35 95 36 35 37 94 38 36 39 37 40 38 41 88 42 39 43
REMARK SMILES IDX 93 44 87 45 89 46 40 47 92 48 86 49 85 50 41 52 73 53 53 54
REMARK SMILES IDX 72 55 54 56 57 57 71 58 90 59 55 60 56 61 70 63 91 64 58 65
REMARK SMILES IDX 42 66 43 67 51 68 44 69 46 70 52 71 45 72 47 73 48 74 49 75
REMARK SMILES IDX 50 76 74 77 75 78 83 79 76 80 78 81 84 82 77 83 79 84 80 85
REMARK SMILES IDX 81 86 82 87 59 88 60 89 68 90 61 91 63 92 69 93 62 94 64 95
REMARK SMILES IDX 65 96 66 97 67 98
REMARK H PARENT 5 14 89 51 57 62
REMARK Flexibility Score: inf
ROOT
ATOM      1  C   UNL A   1      47.777  25.163  26.687  1.00  0.00     0.188 C 
ENDROOT
BRANCH   1   2
ATOM      2  O   UNL A   1      47.365  24.937  28.036  1.00  0.00    -0.376 OA
BRANCH   2   3
ATOM      3  C   UNL A   1      46.103  24.328  28.328  1.00  0.00     0.202 C 
BRANCH   3   4
ATOM      4  C   UNL A   1      45.010  25.439  28.662  1.00  0.00     0.261 C 
BRANCH   4   5
ATOM      5  O   UNL A   1      43.707  24.864  29.097  1.00  0.00    -0.462 OA
BRANCH   5   6
ATOM      6  C   UNL A   1      43.241  23.653  28.642  1.00  0.00     0.331 C 
ATOM      7  O   UNL A   1      43.380  22.634  29.316  1.00  0.00    -0.249 OA
BRANCH   6   8
ATOM      8  C   UNL A   1      42.452  23.665  27.115  1.00  0.00     0.135 C 
ATOM      9  C   UNL A   1      43.427  22.852  26.240  1.00  0.00     0.047 C 
BRANCH   8  10
ATOM     10  C   UNL A   1      40.943  23.245  26.580  1.00  0.00     0.037 C 
ATOM     11  C   UNL A   1      39.973  22.098  26.845  1.00  0.00     0.007 C 
ENDBRANCH   8  10
BRANCH   8  12
ATOM     12  N   UNL A   1      42.458  25.059  26.676  1.00  0.00    -0.340 N 
ATOM     13  C   UNL A   1      41.337  25.813  26.846  1.00  0.00     0.221 C 
ATOM     14  H   UNL A   1      43.262  25.449  26.264  1.00  0.00     0.164 HD
ATOM     15  O   UNL A   1      41.082  26.680  26.010  1.00  0.00    -0.275 OA
BRANCH  13  16
ATOM     16  C   UNL A   1      40.474  25.598  28.072  1.00  0.00     0.105 C 
BRANCH  16  17
ATOM     17  C   UNL A   1      39.447  26.521  28.878  1.00  0.00     0.045 C 
BRANCH  17  18
ATOM     18  C   UNL A   1      38.910  27.901  29.317  1.00  0.00    -0.046 A 
ATOM     19  C   UNL A   1      38.793  28.873  28.302  1.00  0.00     0.007 A 
ATOM     20  C   UNL A   1      38.482  28.359  30.562  1.00  0.00     0.023 A 
ATOM     21  C   UNL A   1      38.136  30.106  28.504  1.00  0.00     0.048 A 
ATOM     22  C   UNL A   1      37.856  29.598  30.805  1.00  0.00     0.060 A 
ATOM     23  C   UNL A   1      37.596  30.446  29.746  1.00  0.00     0.133 A 
ATOM     24  Br  UNL A   1      37.416  29.949  32.628  1.00  0.00    -0.047 Br
BRANCH  23  25
ATOM     25  O   UNL A   1      36.890  31.613  29.795  1.00  0.00    -0.496 OA
ATOM     26  C   UNL A   1      35.670  31.619  29.048  1.00  0.00     0.278 C 
ENDBRANCH  23  25
ENDBRANCH  17  18
ENDBRANCH  16  17
ENDBRANCH  13  16
ENDBRANCH   8  12
ENDBRANCH   6   8
ENDBRANCH   5   6
ENDBRANCH   4   5
ENDBRANCH   3   4
ENDBRANCH   2   3
ENDBRANCH   1   2
BRANCH   1  27
ATOM     27  C   UNL A   1      46.962  24.581  25.525  1.00  0.00     0.188 C 
BRANCH  27  28
ATOM     28  O   UNL A   1      47.020  25.262  24.276  1.00  0.00    -0.376 OA
BRANCH  28  29
ATOM     29  C   UNL A   1      47.675  26.526  24.331  1.00  0.00     0.202 C 
BRANCH  29  30
ATOM     30  C   UNL A   1      46.785  27.788  24.227  1.00  0.00     0.261 C 
BRANCH  30  31
ATOM     31  O   UNL A   1      46.291  28.280  25.485  1.00  0.00    -0.460 OA
BRANCH  31  32
ATOM     32  C   UNL A   1      44.987  27.968  25.741  1.00  0.00     0.338 C 
ATOM     33  O   UNL A   1      44.335  27.110  25.188  1.00  0.00    -0.246 OA
BRANCH  32  34
ATOM     34  C   UNL A   1      44.493  28.712  26.938  1.00  0.00     0.060 A 
ATOM     35  C   UNL A   1      43.379  29.550  26.764  1.00  0.00     0.016 A 
ATOM     36  C   UNL A   1      45.119  28.643  28.187  1.00  0.00     0.016 A 
ATOM     37  C   UNL A   1      42.962  30.403  27.791  1.00  0.00     0.010 A 
ATOM     38  C   UNL A   1      44.707  29.505  29.215  1.00  0.00     0.010 A 
ATOM     39  C   UNL A   1      43.680  30.445  28.992  1.00  0.00    -0.014 A 
BRANCH  39  40
ATOM     40  C   UNL A   1      43.641  31.684  29.820  1.00  0.00     0.031 A 
ATOM     41  C   UNL A   1      44.827  32.616  29.700  1.00  0.00     0.074 A 
ATOM     42  C   UNL A   1      42.626  31.996  30.646  1.00  0.00     0.049 A 
ATOM     43  N   UNL A   1      45.107  33.710  30.359  1.00  0.00    -0.248 NA
ATOM     44  C   UNL A   1      45.846  32.248  28.700  1.00  0.00     0.031 C 
ATOM     45  C   UNL A   1      41.404  31.217  30.828  1.00  0.00     0.029 A 
ATOM     46  N   UNL A   1      42.481  33.055  31.511  1.00  0.00    -0.354 N 
ATOM     47  C   UNL A   1      46.350  34.126  29.890  1.00  0.00     0.074 A 
ATOM     48  C   UNL A   1      46.774  33.168  28.897  1.00  0.00     0.031 C 
ATOM     49  C   UNL A   1      40.647  31.808  31.772  1.00  0.00     0.029 A 
ATOM     50  C   UNL A   1      41.343  32.989  32.282  1.00  0.00     0.049 A 
ATOM     51  H   UNL A   1      43.131  33.792  31.574  1.00  0.00     0.167 HD
ATOM     52  C   UNL A   1      47.079  35.208  30.247  1.00  0.00     0.034 A 
ATOM     53  C   UNL A   1      40.928  33.780  33.295  1.00  0.00     0.034 A 
ATOM     54  C   UNL A   1      46.652  36.172  31.221  1.00  0.00     0.049 A 
ATOM     55  C   UNL A   1      41.770  34.970  33.696  1.00  0.00     0.074 A 
ATOM     56  C   UNL A   1      47.295  37.325  31.631  1.00  0.00     0.029 A 
ATOM     57  N   UNL A   1      45.477  36.085  31.950  1.00  0.00    -0.354 N 
ATOM     58  N   UNL A   1      42.904  35.393  33.190  1.00  0.00    -0.248 NA
ATOM     59  C   UNL A   1      41.254  35.812  34.787  1.00  0.00     0.031 C 
ATOM     60  C   UNL A   1      46.528  37.913  32.642  1.00  0.00     0.029 A 
ATOM     61  C   UNL A   1      45.379  37.158  32.816  1.00  0.00     0.049 A 
ATOM     62  H   UNL A   1      44.810  35.365  31.864  1.00  0.00     0.167 HD
ATOM     63  C   UNL A   1      43.206  36.577  33.859  1.00  0.00     0.074 A 
ATOM     64  C   UNL A   1      42.132  36.806  34.802  1.00  0.00     0.031 C 
ATOM     65  C   UNL A   1      44.273  37.400  33.708  1.00  0.00     0.034 A 
BRANCH  52  66
ATOM     66  C   UNL A   1      48.424  35.391  29.591  1.00  0.00     0.023 A 
ATOM     67  C   UNL A   1      49.576  34.801  30.149  1.00  0.00     0.012 A 
ATOM     68  C   UNL A   1      48.539  36.139  28.404  1.00  0.00     0.148 A 
ATOM     69  C   UNL A   1      50.827  34.990  29.560  1.00  0.00     0.002 A 
ATOM     70  C   UNL A   1      49.779  36.277  27.792  1.00  0.00     0.091 A 
ATOM     71  F   UNL A   1      47.438  36.716  27.902  1.00  0.00    -0.205 F 
ATOM     72  C   UNL A   1      50.925  35.717  28.377  1.00  0.00     0.022 A 
BRANCH  70  73
ATOM     73  S   UNL A   1      49.994  37.124  26.223  1.00  0.00     0.127 S 
ATOM     74  O   UNL A   1      49.322  38.397  26.480  1.00  0.00    -0.237 OA
ATOM     75  O   UNL A   1      51.451  37.213  26.122  1.00  0.00    -0.237 OA
ATOM     76  O   UNL A   1      49.365  36.279  25.218  1.00  0.00    -0.744 OA
ENDBRANCH  70  73
ENDBRANCH  52  66
BRANCH  53  77
ATOM     77  C   UNL A   1      39.636  33.503  33.992  1.00  0.00     0.023 A 
ATOM     78  C   UNL A   1      39.645  32.903  35.267  1.00  0.00     0.012 A 
ATOM     79  C   UNL A   1      38.401  33.819  33.394  1.00  0.00     0.148 A 
ATOM     80  C   UNL A   1      38.450  32.592  35.918  1.00  0.00     0.002 A 
ATOM     81  C   UNL A   1      37.215  33.558  34.073  1.00  0.00     0.091 A 
ATOM     82  F   UNL A   1      38.409  34.370  32.172  1.00  0.00    -0.205 F 
ATOM     83  C   UNL A   1      37.237  32.929  35.327  1.00  0.00     0.022 A 
BRANCH  81  84
ATOM     84  S   UNL A   1      35.609  34.055  33.441  1.00  0.00     0.127 S 
ATOM     85  O   UNL A   1      35.722  35.511  33.445  1.00  0.00    -0.237 OA
ATOM     86  O   UNL A   1      35.607  33.441  32.113  1.00  0.00    -0.237 OA
ATOM     87  O   UNL A   1      34.631  33.497  34.365  1.00  0.00    -0.744 OA
ENDBRANCH  81  84
ENDBRANCH  53  77
BRANCH  65  88
ATOM     88  C   UNL A   1      44.301  38.674  34.513  1.00  0.00     0.023 A 
ATOM     89  C   UNL A   1      44.918  38.711  35.778  1.00  0.00     0.012 A 
ATOM     90  C   UNL A   1      43.766  39.861  33.972  1.00  0.00     0.148 A 
ATOM     91  C   UNL A   1      44.958  39.897  36.513  1.00  0.00     0.002 A 
ATOM     92  C   UNL A   1      43.862  41.050  34.682  1.00  0.00     0.091 A 
ATOM     93  F   UNL A   1      43.170  39.806  32.772  1.00  0.00    -0.205 F 
ATOM     94  C   UNL A   1      44.441  41.068  35.960  1.00  0.00     0.022 A 
BRANCH  92  95
ATOM     95  S   UNL A   1      43.320  42.621  33.999  1.00  0.00     0.127 S 
ATOM     96  O   UNL A   1      43.839  43.569  34.984  1.00  0.00    -0.237 OA
ATOM     97  O   UNL A   1      44.005  42.649  32.705  1.00  0.00    -0.237 OA
ATOM     98  O   UNL A   1      41.869  42.541  33.911  1.00  0.00    -0.744 OA
ENDBRANCH  92  95
ENDBRANCH  65  88
ENDBRANCH  39  40
ENDBRANCH  32  34
ENDBRANCH  31  32
ENDBRANCH  30  31
ENDBRANCH  29  30
ENDBRANCH  28  29
ENDBRANCH  27  28
ENDBRANCH   1  27
TORSDOF 26
ENDMDL
