MODEL 1
REMARK VINA RESULT:     -11.4      0.000      0.000
REMARK SMILES Cc1cc(NC(=O)NCc2sccc2C)ccc1C(=O)OCCOCCOCCOC(=O)c1ccc(-c2c3nc(c(-c4cccc(S(=O)(=O)[O-])c4F)c4ccc([nH]4)c(-c4cccc(S(=O)(=O)[O-])c4F)c4nc(c(-c5cccc(S(=O)(=O)[O-])c5F)c5ccc2[nH]5)C=C4)C=C3)cc1
REMARK SMILES IDX 25 1 24 2 23 3 22 4 21 5 19 6 20 7 18 8 1 9 2 10 3 11 4 12
REMARK SMILES IDX 17 13 16 14 5 15 6 16 7 18 8 19 9 21 10 22 11 23 14 24 12 25
REMARK SMILES IDX 13 26 15 27 26 28 27 29 28 30 29 31 30 32 31 33 32 34 33 35
REMARK SMILES IDX 34 36 95 37 35 38 94 39 36 40 37 41 38 42 88 43 39 44 93 45
REMARK SMILES IDX 87 46 89 47 40 48 92 49 86 50 85 51 41 53 73 54 53 55 72 56
REMARK SMILES IDX 54 57 57 58 71 59 90 60 55 61 56 62 70 64 91 65 58 66 42 67
REMARK SMILES IDX 43 68 51 69 44 70 46 71 52 72 45 73 47 74 48 75 49 76 50 77
REMARK SMILES IDX 74 78 75 79 83 80 76 81 78 82 84 83 77 84 79 85 80 86 81 87
REMARK SMILES IDX 82 88 59 89 60 90 68 91 61 92 63 93 69 94 62 95 64 96 65 97
REMARK SMILES IDX 66 98 67 99
REMARK H PARENT 5 17 8 20 89 52 57 63
REMARK Flexibility Score: inf
ROOT
ATOM      1  C   UNL A   1      40.602  20.518  26.687  1.00  0.00     0.188 C 
ENDROOT
BRANCH   1   2
ATOM      2  O   UNL A   1      40.160  21.542  25.825  1.00  0.00    -0.376 OA
BRANCH   2   3
ATOM      3  C   UNL A   1      38.707  21.683  25.965  1.00  0.00     0.202 C 
BRANCH   3   4
ATOM      4  C   UNL A   1      37.837  21.287  24.652  1.00  0.00     0.261 C 
BRANCH   4   5
ATOM      5  O   UNL A   1      36.683  22.045  23.819  1.00  0.00    -0.460 OA
BRANCH   5   6
ATOM      6  C   UNL A   1      35.436  22.648  23.769  1.00  0.00     0.338 C 
ATOM      7  O   UNL A   1      34.928  23.342  22.895  1.00  0.00    -0.246 OA
BRANCH   6   8
ATOM      8  C   UNL A   1      34.360  22.301  24.700  1.00  0.00     0.063 A 
ATOM      9  C   UNL A   1      35.484  23.379  26.701  1.00  0.00     0.045 C 
ATOM     10  C   UNL A   1      34.379  22.614  26.044  1.00  0.00    -0.035 A 
ATOM     11  C   UNL A   1      33.177  22.418  26.739  1.00  0.00     0.030 A 
ATOM     12  C   UNL A   1      32.001  22.018  26.076  1.00  0.00     0.043 A 
ATOM     13  C   UNL A   1      33.224  21.626  24.123  1.00  0.00     0.018 A 
ATOM     14  C   UNL A   1      32.041  21.467  24.813  1.00  0.00     0.027 A 
BRANCH  12  15
ATOM     15  N   UNL A   1      30.749  22.425  26.549  1.00  0.00    -0.308 N 
ATOM     16  C   UNL A   1      30.225  23.685  26.599  1.00  0.00     0.319 C 
ATOM     17  H   UNL A   1      30.169  21.708  26.891  1.00  0.00     0.171 HD
ATOM     18  O   UNL A   1      29.258  23.898  27.333  1.00  0.00    -0.248 OA
ATOM     19  N   UNL A   1      30.661  24.690  25.784  1.00  0.00    -0.333 N 
ATOM     20  H   UNL A   1      30.222  25.562  25.914  1.00  0.00     0.165 HD
BRANCH  19  21
ATOM     21  C   UNL A   1      31.679  24.653  24.758  1.00  0.00     0.165 C 
BRANCH  21  22
ATOM     22  C   UNL A   1      32.196  25.935  24.196  1.00  0.00     0.027 A 
ATOM     23  S   UNL A   1      31.604  26.398  22.641  1.00  0.00    -0.147 S 
ATOM     24  C   UNL A   1      33.281  26.708  24.582  1.00  0.00    -0.035 A 
ATOM     25  C   UNL A   1      32.910  27.453  22.384  1.00  0.00     0.065 A 
ATOM     26  C   UNL A   1      33.709  27.554  23.499  1.00  0.00     0.015 A 
ATOM     27  C   UNL A   1      34.007  26.613  25.879  1.00  0.00     0.045 C 
ENDBRANCH  21  22
ENDBRANCH  19  21
ENDBRANCH  12  15
ENDBRANCH   6   8
ENDBRANCH   5   6
ENDBRANCH   4   5
ENDBRANCH   3   4
ENDBRANCH   2   3
ENDBRANCH   1   2
BRANCH   1  28
ATOM     28  C   UNL A   1      41.726  19.615  26.216  1.00  0.00     0.188 C 
BRANCH  28  29
ATOM     29  O   UNL A   1      42.666  20.170  25.317  1.00  0.00    -0.376 OA
BRANCH  29  30
ATOM     30  C   UNL A   1      43.876  19.432  25.191  1.00  0.00     0.202 C 
BRANCH  30  31
ATOM     31  C   UNL A   1      45.213  20.238  25.058  1.00  0.00     0.261 C 
BRANCH  31  32
ATOM     32  O   UNL A   1      45.145  21.622  25.523  1.00  0.00    -0.460 OA
BRANCH  32  33
ATOM     33  C   UNL A   1      45.697  22.686  24.843  1.00  0.00     0.338 C 
ATOM     34  O   UNL A   1      46.636  22.595  24.078  1.00  0.00    -0.246 OA
BRANCH  33  35
ATOM     35  C   UNL A   1      44.809  23.874  24.933  1.00  0.00     0.060 A 
ATOM     36  C   UNL A   1      45.156  25.200  24.984  1.00  0.00     0.016 A 
ATOM     37  C   UNL A   1      43.474  23.711  24.864  1.00  0.00     0.016 A 
ATOM     38  C   UNL A   1      44.304  26.144  25.647  1.00  0.00     0.010 A 
ATOM     39  C   UNL A   1      42.688  24.634  25.578  1.00  0.00     0.010 A 
ATOM     40  C   UNL A   1      43.124  25.778  26.279  1.00  0.00    -0.014 A 
BRANCH  40  41
ATOM     41  C   UNL A   1      42.475  26.664  27.553  1.00  0.00     0.031 A 
ATOM     42  C   UNL A   1      41.145  27.673  27.755  1.00  0.00     0.074 A 
ATOM     43  C   UNL A   1      43.054  26.347  28.732  1.00  0.00     0.049 A 
ATOM     44  N   UNL A   1      40.117  27.453  28.564  1.00  0.00    -0.248 NA
ATOM     45  C   UNL A   1      40.845  28.938  26.997  1.00  0.00     0.031 C 
ATOM     46  C   UNL A   1      42.723  26.803  30.075  1.00  0.00     0.029 A 
ATOM     47  N   UNL A   1      44.301  25.745  28.886  1.00  0.00    -0.354 N 
ATOM     48  C   UNL A   1      39.083  28.381  28.248  1.00  0.00     0.074 A 
ATOM     49  C   UNL A   1      39.515  29.010  27.013  1.00  0.00     0.031 C 
ATOM     50  C   UNL A   1      43.862  26.822  30.794  1.00  0.00     0.029 A 
ATOM     51  C   UNL A   1      44.953  26.461  29.894  1.00  0.00     0.049 A 
ATOM     52  H   UNL A   1      44.651  24.973  28.386  1.00  0.00     0.167 HD
ATOM     53  C   UNL A   1      38.579  29.344  29.083  1.00  0.00     0.034 A 
ATOM     54  C   UNL A   1      45.945  27.311  29.486  1.00  0.00     0.034 A 
ATOM     55  C   UNL A   1      39.638  29.885  29.930  1.00  0.00     0.049 A 
ATOM     56  C   UNL A   1      45.484  28.765  29.566  1.00  0.00     0.074 A 
ATOM     57  C   UNL A   1      40.089  29.532  31.181  1.00  0.00     0.029 A 
ATOM     58  N   UNL A   1      40.641  30.689  29.367  1.00  0.00    -0.354 N 
ATOM     59  N   UNL A   1      44.238  29.183  29.546  1.00  0.00    -0.248 NA
ATOM     60  C   UNL A   1      46.433  29.846  29.788  1.00  0.00     0.031 C 
ATOM     61  C   UNL A   1      41.451  29.933  31.269  1.00  0.00     0.029 A 
ATOM     62  C   UNL A   1      41.812  30.617  30.115  1.00  0.00     0.049 A 
ATOM     63  H   UNL A   1      40.531  31.232  28.554  1.00  0.00     0.167 HD
ATOM     64  C   UNL A   1      44.204  30.547  29.722  1.00  0.00     0.074 A 
ATOM     65  C   UNL A   1      45.608  30.897  29.903  1.00  0.00     0.031 C 
ATOM     66  C   UNL A   1      43.057  31.310  29.741  1.00  0.00     0.034 A 
BRANCH  53  67
ATOM     67  C   UNL A   1      37.178  29.942  28.838  1.00  0.00     0.023 A 
ATOM     68  C   UNL A   1      36.327  29.280  27.929  1.00  0.00     0.012 A 
ATOM     69  C   UNL A   1      36.682  31.177  29.372  1.00  0.00     0.148 A 
ATOM     70  C   UNL A   1      35.089  29.820  27.530  1.00  0.00     0.002 A 
ATOM     71  C   UNL A   1      35.429  31.698  28.991  1.00  0.00     0.091 A 
ATOM     72  F   UNL A   1      37.444  31.874  30.229  1.00  0.00    -0.205 F 
ATOM     73  C   UNL A   1      34.642  31.028  28.054  1.00  0.00     0.022 A 
BRANCH  71  74
ATOM     74  S   UNL A   1      34.740  33.233  29.667  1.00  0.00     0.127 S 
ATOM     75  O   UNL A   1      33.605  33.481  28.780  1.00  0.00    -0.237 OA
ATOM     76  O   UNL A   1      34.365  32.854  31.031  1.00  0.00    -0.237 OA
ATOM     77  O   UNL A   1      35.818  34.212  29.601  1.00  0.00    -0.744 OA
ENDBRANCH  71  74
ENDBRANCH  53  67
BRANCH  54  78
ATOM     78  C   UNL A   1      46.912  26.716  28.474  1.00  0.00     0.023 A 
ATOM     79  C   UNL A   1      47.178  25.317  28.587  1.00  0.00     0.012 A 
ATOM     80  C   UNL A   1      47.364  27.358  27.304  1.00  0.00     0.148 A 
ATOM     81  C   UNL A   1      47.711  24.565  27.537  1.00  0.00     0.002 A 
ATOM     82  C   UNL A   1      47.919  26.599  26.255  1.00  0.00     0.091 A 
ATOM     83  F   UNL A   1      47.153  28.672  27.155  1.00  0.00    -0.205 F 
ATOM     84  C   UNL A   1      48.087  25.208  26.368  1.00  0.00     0.022 A 
BRANCH  82  85
ATOM     85  S   UNL A   1      48.214  27.366  24.645  1.00  0.00     0.127 S 
ATOM     86  O   UNL A   1      47.006  28.183  24.441  1.00  0.00    -0.237 OA
ATOM     87  O   UNL A   1      49.425  28.172  24.871  1.00  0.00    -0.237 OA
ATOM     88  O   UNL A   1      48.335  26.230  23.774  1.00  0.00    -0.744 OA
ENDBRANCH  82  85
ENDBRANCH  54  78
BRANCH  66  89
ATOM     89  C   UNL A   1      43.075  32.834  29.584  1.00  0.00     0.023 A 
ATOM     90  C   UNL A   1      42.824  33.703  30.669  1.00  0.00     0.012 A 
ATOM     91  C   UNL A   1      43.437  33.466  28.368  1.00  0.00     0.148 A 
ATOM     92  C   UNL A   1      42.756  35.094  30.526  1.00  0.00     0.002 A 
ATOM     93  C   UNL A   1      43.507  34.856  28.265  1.00  0.00     0.091 A 
ATOM     94  F   UNL A   1      43.700  32.735  27.279  1.00  0.00    -0.205 F 
ATOM     95  C   UNL A   1      43.108  35.674  29.321  1.00  0.00     0.022 A 
BRANCH  93  96
ATOM     96  S   UNL A   1      44.250  35.645  26.830  1.00  0.00     0.127 S 
ATOM     97  O   UNL A   1      44.075  37.061  27.138  1.00  0.00    -0.237 OA
ATOM     98  O   UNL A   1      45.634  35.171  26.895  1.00  0.00    -0.237 OA
ATOM     99  O   UNL A   1      43.501  35.135  25.687  1.00  0.00    -0.744 OA
ENDBRANCH  93  96
ENDBRANCH  66  89
ENDBRANCH  40  41
ENDBRANCH  33  35
ENDBRANCH  32  33
ENDBRANCH  31  32
ENDBRANCH  30  31
ENDBRANCH  29  30
ENDBRANCH  28  29
ENDBRANCH   1  28
TORSDOF 23
ENDMDL
MODEL 2
REMARK VINA RESULT:      -9.9      2.304      3.047
REMARK SMILES Cc1cc(NC(=O)NCc2sccc2C)ccc1C(=O)OCCOCCOCCOC(=O)c1ccc(-c2c3nc(c(-c4cccc(S(=O)(=O)[O-])c4F)c4ccc([nH]4)c(-c4cccc(S(=O)(=O)[O-])c4F)c4nc(c(-c5cccc(S(=O)(=O)[O-])c5F)c5ccc2[nH]5)C=C4)C=C3)cc1
REMARK SMILES IDX 25 1 24 2 23 3 22 4 21 5 19 6 20 7 18 8 1 9 2 10 3 11 4 12
REMARK SMILES IDX 17 13 16 14 5 15 6 16 7 18 8 19 9 21 10 22 11 23 14 24 12 25
REMARK SMILES IDX 13 26 15 27 26 28 27 29 28 30 29 31 30 32 31 33 32 34 33 35
REMARK SMILES IDX 34 36 95 37 35 38 94 39 36 40 37 41 38 42 88 43 39 44 93 45
REMARK SMILES IDX 87 46 89 47 40 48 92 49 86 50 85 51 41 53 73 54 53 55 72 56
REMARK SMILES IDX 54 57 57 58 71 59 90 60 55 61 56 62 70 64 91 65 58 66 42 67
REMARK SMILES IDX 43 68 51 69 44 70 46 71 52 72 45 73 47 74 48 75 49 76 50 77
REMARK SMILES IDX 74 78 75 79 83 80 76 81 78 82 84 83 77 84 79 85 80 86 81 87
REMARK SMILES IDX 82 88 59 89 60 90 68 91 61 92 63 93 69 94 62 95 64 96 65 97
REMARK SMILES IDX 66 98 67 99
REMARK H PARENT 5 17 8 20 89 52 57 63
REMARK Flexibility Score: inf
ROOT
ATOM      1  C   UNL A   1      40.778  21.648  27.661  1.00  0.00     0.188 C 
ENDROOT
BRANCH   1   2
ATOM      2  O   UNL A   1      41.568  22.783  27.396  1.00  0.00    -0.376 OA
BRANCH   2   3
ATOM      3  C   UNL A   1      40.718  23.977  27.459  1.00  0.00     0.202 C 
BRANCH   3   4
ATOM      4  C   UNL A   1      39.516  24.036  26.368  1.00  0.00     0.261 C 
BRANCH   4   5
ATOM      5  O   UNL A   1      37.954  23.640  26.419  1.00  0.00    -0.460 OA
BRANCH   5   6
ATOM      6  C   UNL A   1      36.743  23.443  25.775  1.00  0.00     0.338 C 
ATOM      7  O   UNL A   1      36.162  24.143  24.952  1.00  0.00    -0.246 OA
BRANCH   6   8
ATOM      8  C   UNL A   1      36.054  22.150  25.779  1.00  0.00     0.063 A 
ATOM      9  C   UNL A   1      34.191  22.933  27.311  1.00  0.00     0.045 C 
ATOM     10  C   UNL A   1      34.898  21.901  26.490  1.00  0.00    -0.035 A 
ATOM     11  C   UNL A   1      34.247  20.694  26.202  1.00  0.00     0.030 A 
ATOM     12  C   UNL A   1      34.698  19.840  25.177  1.00  0.00     0.043 A 
ATOM     13  C   UNL A   1      36.637  21.126  24.949  1.00  0.00     0.018 A 
ATOM     14  C   UNL A   1      35.969  19.956  24.654  1.00  0.00     0.027 A 
BRANCH  12  15
ATOM     15  N   UNL A   1      33.792  19.047  24.465  1.00  0.00    -0.308 N 
ATOM     16  C   UNL A   1      32.596  19.406  23.913  1.00  0.00     0.319 C 
ATOM     17  H   UNL A   1      34.051  18.105  24.347  1.00  0.00     0.171 HD
ATOM     18  O   UNL A   1      31.791  18.522  23.611  1.00  0.00    -0.248 OA
ATOM     19  N   UNL A   1      32.304  20.697  23.579  1.00  0.00    -0.333 N 
ATOM     20  H   UNL A   1      31.408  20.844  23.200  1.00  0.00     0.165 HD
BRANCH  19  21
ATOM     21  C   UNL A   1      33.127  21.879  23.708  1.00  0.00     0.165 C 
BRANCH  21  22
ATOM     22  C   UNL A   1      32.475  23.201  23.939  1.00  0.00     0.027 A 
ATOM     23  S   UNL A   1      31.261  23.268  25.165  1.00  0.00    -0.147 S 
ATOM     24  C   UNL A   1      32.481  24.349  23.160  1.00  0.00    -0.035 A 
ATOM     25  C   UNL A   1      30.600  24.697  24.525  1.00  0.00     0.065 A 
ATOM     26  C   UNL A   1      31.357  25.186  23.486  1.00  0.00     0.015 A 
ATOM     27  C   UNL A   1      33.424  24.648  22.047  1.00  0.00     0.045 C 
ENDBRANCH  21  22
ENDBRANCH  19  21
ENDBRANCH  12  15
ENDBRANCH   6   8
ENDBRANCH   5   6
ENDBRANCH   4   5
ENDBRANCH   3   4
ENDBRANCH   2   3
ENDBRANCH   1   2
BRANCH   1  28
ATOM     28  C   UNL A   1      41.056  20.378  26.880  1.00  0.00     0.188 C 
BRANCH  28  29
ATOM     29  O   UNL A   1      41.977  20.467  25.809  1.00  0.00    -0.376 OA
BRANCH  29  30
ATOM     30  C   UNL A   1      42.835  19.341  25.668  1.00  0.00     0.202 C 
BRANCH  30  31
ATOM     31  C   UNL A   1      44.231  19.567  24.995  1.00  0.00     0.261 C 
BRANCH  31  32
ATOM     32  O   UNL A   1      45.031  20.639  25.583  1.00  0.00    -0.460 OA
BRANCH  32  33
ATOM     33  C   UNL A   1      45.971  21.365  24.883  1.00  0.00     0.338 C 
ATOM     34  O   UNL A   1      46.860  20.871  24.219  1.00  0.00    -0.246 OA
BRANCH  33  35
ATOM     35  C   UNL A   1      45.568  22.793  24.804  1.00  0.00     0.060 A 
ATOM     36  C   UNL A   1      46.363  23.910  24.833  1.00  0.00     0.016 A 
ATOM     37  C   UNL A   1      44.278  23.106  24.577  1.00  0.00     0.016 A 
ATOM     38  C   UNL A   1      45.848  25.150  25.338  1.00  0.00     0.010 A 
ATOM     39  C   UNL A   1      43.812  24.307  25.142  1.00  0.00     0.010 A 
ATOM     40  C   UNL A   1      44.559  25.282  25.835  1.00  0.00    -0.014 A 
BRANCH  40  41
ATOM     41  C   UNL A   1      44.152  26.451  26.973  1.00  0.00     0.031 A 
ATOM     42  C   UNL A   1      42.773  27.346  27.330  1.00  0.00     0.074 A 
ATOM     43  C   UNL A   1      45.092  26.565  27.937  1.00  0.00     0.049 A 
ATOM     44  N   UNL A   1      42.079  27.290  28.459  1.00  0.00    -0.248 NA
ATOM     45  C   UNL A   1      42.040  28.285  26.410  1.00  0.00     0.031 C 
ATOM     46  C   UNL A   1      45.081  27.377  29.145  1.00  0.00     0.029 A 
ATOM     47  N   UNL A   1      46.419  26.157  27.824  1.00  0.00    -0.354 N 
ATOM     48  C   UNL A   1      40.845  27.976  28.269  1.00  0.00     0.074 A 
ATOM     49  C   UNL A   1      40.781  28.235  26.843  1.00  0.00     0.031 C 
ATOM     50  C   UNL A   1      46.355  27.721  29.419  1.00  0.00     0.029 A 
ATOM     51  C   UNL A   1      47.190  27.204  28.338  1.00  0.00     0.049 A 
ATOM     52  H   UNL A   1      46.748  25.305  27.456  1.00  0.00     0.167 HD
ATOM     53  C   UNL A   1      40.433  29.097  28.942  1.00  0.00     0.034 A 
ATOM     54  C   UNL A   1      47.849  27.977  27.421  1.00  0.00     0.034 A 
ATOM     55  C   UNL A   1      41.571  29.966  29.222  1.00  0.00     0.049 A 
ATOM     56  C   UNL A   1      47.169  29.336  27.265  1.00  0.00     0.074 A 
ATOM     57  C   UNL A   1      42.419  30.057  30.302  1.00  0.00     0.029 A 
ATOM     58  N   UNL A   1      42.205  30.650  28.172  1.00  0.00    -0.354 N 
ATOM     59  N   UNL A   1      45.915  29.611  27.548  1.00  0.00    -0.248 NA
ATOM     60  C   UNL A   1      47.926  30.517  26.874  1.00  0.00     0.031 C 
ATOM     61  C   UNL A   1      43.651  30.590  29.831  1.00  0.00     0.029 A 
ATOM     62  C   UNL A   1      43.534  30.918  28.486  1.00  0.00     0.049 A 
ATOM     63  H   UNL A   1      41.768  30.905  27.328  1.00  0.00     0.167 HD
ATOM     64  C   UNL A   1      45.682  30.954  27.362  1.00  0.00     0.074 A 
ATOM     65  C   UNL A   1      46.989  31.471  26.975  1.00  0.00     0.031 C 
ATOM     66  C   UNL A   1      44.468  31.577  27.557  1.00  0.00     0.034 A 
BRANCH  53  67
ATOM     67  C   UNL A   1      38.935  29.459  29.023  1.00  0.00     0.023 A 
ATOM     68  C   UNL A   1      38.077  28.948  28.027  1.00  0.00     0.012 A 
ATOM     69  C   UNL A   1      38.334  30.357  29.966  1.00  0.00     0.148 A 
ATOM     70  C   UNL A   1      36.727  29.333  27.930  1.00  0.00     0.002 A 
ATOM     71  C   UNL A   1      36.973  30.716  29.882  1.00  0.00     0.091 A 
ATOM     72  F   UNL A   1      39.092  30.898  30.932  1.00  0.00    -0.205 F 
ATOM     73  C   UNL A   1      36.175  30.218  28.850  1.00  0.00     0.022 A 
BRANCH  71  74
ATOM     74  S   UNL A   1      36.155  31.813  31.071  1.00  0.00     0.127 S 
ATOM     75  O   UNL A   1      36.995  33.008  31.019  1.00  0.00    -0.237 OA
ATOM     76  O   UNL A   1      34.821  31.991  30.492  1.00  0.00    -0.237 OA
ATOM     77  O   UNL A   1      36.158  31.094  32.338  1.00  0.00    -0.744 OA
ENDBRANCH  71  74
ENDBRANCH  53  67
BRANCH  54  78
ATOM     78  C   UNL A   1      48.577  27.193  26.340  1.00  0.00     0.023 A 
ATOM     79  C   UNL A   1      48.044  27.279  25.017  1.00  0.00     0.012 A 
ATOM     80  C   UNL A   1      49.848  26.603  26.478  1.00  0.00     0.148 A 
ATOM     81  C   UNL A   1      48.793  26.953  23.883  1.00  0.00     0.002 A 
ATOM     82  C   UNL A   1      50.592  26.257  25.333  1.00  0.00     0.091 A 
ATOM     83  F   UNL A   1      50.386  26.484  27.699  1.00  0.00    -0.205 F 
ATOM     84  C   UNL A   1      50.069  26.437  24.040  1.00  0.00     0.022 A 
BRANCH  82  85
ATOM     85  S   UNL A   1      52.331  25.792  25.492  1.00  0.00     0.127 S 
ATOM     86  O   UNL A   1      52.871  26.829  26.388  1.00  0.00    -0.237 OA
ATOM     87  O   UNL A   1      52.269  24.462  26.121  1.00  0.00    -0.237 OA
ATOM     88  O   UNL A   1      52.799  25.855  24.136  1.00  0.00    -0.744 OA
ENDBRANCH  82  85
ENDBRANCH  54  78
BRANCH  66  89
ATOM     89  C   UNL A   1      44.160  32.974  27.012  1.00  0.00     0.023 A 
ATOM     90  C   UNL A   1      44.182  33.262  25.629  1.00  0.00     0.012 A 
ATOM     91  C   UNL A   1      43.742  34.040  27.849  1.00  0.00     0.148 A 
ATOM     92  C   UNL A   1      43.983  34.551  25.119  1.00  0.00     0.002 A 
ATOM     93  C   UNL A   1      43.408  35.288  27.324  1.00  0.00     0.091 A 
ATOM     94  F   UNL A   1      43.683  33.872  29.175  1.00  0.00    -0.205 F 
ATOM     95  C   UNL A   1      43.586  35.567  25.969  1.00  0.00     0.022 A 
BRANCH  93  96
ATOM     96  S   UNL A   1      42.597  36.535  28.335  1.00  0.00     0.127 S 
ATOM     97  O   UNL A   1      41.400  35.830  28.784  1.00  0.00    -0.237 OA
ATOM     98  O   UNL A   1      43.591  36.783  29.381  1.00  0.00    -0.237 OA
ATOM     99  O   UNL A   1      42.383  37.667  27.440  1.00  0.00    -0.744 OA
ENDBRANCH  93  96
ENDBRANCH  66  89
ENDBRANCH  40  41
ENDBRANCH  33  35
ENDBRANCH  32  33
ENDBRANCH  31  32
ENDBRANCH  30  31
ENDBRANCH  29  30
ENDBRANCH  28  29
ENDBRANCH   1  28
TORSDOF 23
ENDMDL
MODEL 3
REMARK VINA RESULT:      -9.8      2.626      4.122
REMARK SMILES Cc1cc(NC(=O)NCc2sccc2C)ccc1C(=O)OCCOCCOCCOC(=O)c1ccc(-c2c3nc(c(-c4cccc(S(=O)(=O)[O-])c4F)c4ccc([nH]4)c(-c4cccc(S(=O)(=O)[O-])c4F)c4nc(c(-c5cccc(S(=O)(=O)[O-])c5F)c5ccc2[nH]5)C=C4)C=C3)cc1
REMARK SMILES IDX 25 1 24 2 23 3 22 4 21 5 19 6 20 7 18 8 1 9 2 10 3 11 4 12
REMARK SMILES IDX 17 13 16 14 5 15 6 16 7 18 8 19 9 21 10 22 11 23 14 24 12 25
REMARK SMILES IDX 13 26 15 27 26 28 27 29 28 30 29 31 30 32 31 33 32 34 33 35
REMARK SMILES IDX 34 36 95 37 35 38 94 39 36 40 37 41 38 42 88 43 39 44 93 45
REMARK SMILES IDX 87 46 89 47 40 48 92 49 86 50 85 51 41 53 73 54 53 55 72 56
REMARK SMILES IDX 54 57 57 58 71 59 90 60 55 61 56 62 70 64 91 65 58 66 42 67
REMARK SMILES IDX 43 68 51 69 44 70 46 71 52 72 45 73 47 74 48 75 49 76 50 77
REMARK SMILES IDX 74 78 75 79 83 80 76 81 78 82 84 83 77 84 79 85 80 86 81 87
REMARK SMILES IDX 82 88 59 89 60 90 68 91 61 92 63 93 69 94 62 95 64 96 65 97
REMARK SMILES IDX 66 98 67 99
REMARK H PARENT 5 17 8 20 89 52 57 63
REMARK Flexibility Score: inf
ROOT
ATOM      1  C   UNL A   1      35.832  21.899  24.334  1.00  0.00     0.188 C 
ENDROOT
BRANCH   1   2
ATOM      2  O   UNL A   1      34.645  21.775  25.082  1.00  0.00    -0.376 OA
BRANCH   2   3
ATOM      3  C   UNL A   1      34.230  23.107  25.535  1.00  0.00     0.202 C 
BRANCH   3   4
ATOM      4  C   UNL A   1      32.805  23.629  24.957  1.00  0.00     0.261 C 
BRANCH   4   5
ATOM      5  O   UNL A   1      32.339  24.985  24.220  1.00  0.00    -0.460 OA
BRANCH   5   6
ATOM      6  C   UNL A   1      31.683  26.205  24.253  1.00  0.00     0.338 C 
ATOM      7  O   UNL A   1      30.579  26.522  23.822  1.00  0.00    -0.246 OA
BRANCH   6   8
ATOM      8  C   UNL A   1      32.127  27.312  25.104  1.00  0.00     0.063 A 
ATOM      9  C   UNL A   1      33.724  28.253  23.373  1.00  0.00     0.045 C 
ATOM     10  C   UNL A   1      33.071  28.242  24.720  1.00  0.00    -0.035 A 
ATOM     11  C   UNL A   1      33.209  29.360  25.554  1.00  0.00     0.030 A 
ATOM     12  C   UNL A   1      32.363  29.560  26.663  1.00  0.00     0.043 A 
ATOM     13  C   UNL A   1      31.486  27.410  26.391  1.00  0.00     0.018 A 
ATOM     14  C   UNL A   1      31.611  28.530  27.187  1.00  0.00     0.027 A 
BRANCH  12  15
ATOM     15  N   UNL A   1      32.041  30.854  27.082  1.00  0.00    -0.308 N 
ATOM     16  C   UNL A   1      31.439  31.855  26.375  1.00  0.00     0.319 C 
ATOM     17  H   UNL A   1      32.280  31.073  28.011  1.00  0.00     0.171 HD
ATOM     18  O   UNL A   1      31.526  33.013  26.789  1.00  0.00    -0.248 OA
ATOM     19  N   UNL A   1      30.651  31.609  25.287  1.00  0.00    -0.333 N 
ATOM     20  H   UNL A   1      30.278  32.405  24.845  1.00  0.00     0.165 HD
BRANCH  19  21
ATOM     21  C   UNL A   1      30.290  30.341  24.693  1.00  0.00     0.165 C 
BRANCH  21  22
ATOM     22  C   UNL A   1      29.457  30.324  23.455  1.00  0.00     0.027 A 
ATOM     23  S   UNL A   1      30.200  29.701  22.026  1.00  0.00    -0.147 S 
ATOM     24  C   UNL A   1      28.261  30.966  23.173  1.00  0.00    -0.035 A 
ATOM     25  C   UNL A   1      29.068  30.474  21.022  1.00  0.00     0.065 A 
ATOM     26  C   UNL A   1      28.074  31.083  21.751  1.00  0.00     0.015 A 
ATOM     27  C   UNL A   1      27.339  31.577  24.170  1.00  0.00     0.045 C 
ENDBRANCH  21  22
ENDBRANCH  19  21
ENDBRANCH  12  15
ENDBRANCH   6   8
ENDBRANCH   5   6
ENDBRANCH   4   5
ENDBRANCH   3   4
ENDBRANCH   2   3
ENDBRANCH   1   2
BRANCH   1  28
ATOM     28  C   UNL A   1      37.058  21.133  24.794  1.00  0.00     0.188 C 
BRANCH  28  29
ATOM     29  O   UNL A   1      38.089  21.877  25.414  1.00  0.00    -0.376 OA
BRANCH  29  30
ATOM     30  C   UNL A   1      39.203  21.104  25.844  1.00  0.00     0.202 C 
BRANCH  30  31
ATOM     31  C   UNL A   1      40.112  21.699  26.973  1.00  0.00     0.261 C 
BRANCH  31  32
ATOM     32  O   UNL A   1      41.395  21.022  27.151  1.00  0.00    -0.460 OA
BRANCH  32  33
ATOM     33  C   UNL A   1      42.564  21.424  26.541  1.00  0.00     0.338 C 
ATOM     34  O   UNL A   1      42.864  21.158  25.395  1.00  0.00    -0.246 OA
BRANCH  33  35
ATOM     35  C   UNL A   1      43.243  22.463  27.359  1.00  0.00     0.060 A 
ATOM     36  C   UNL A   1      43.344  22.546  28.725  1.00  0.00     0.016 A 
ATOM     37  C   UNL A   1      43.954  23.428  26.748  1.00  0.00     0.016 A 
ATOM     38  C   UNL A   1      43.476  23.824  29.362  1.00  0.00     0.010 A 
ATOM     39  C   UNL A   1      44.005  24.679  27.391  1.00  0.00     0.010 A 
ATOM     40  C   UNL A   1      43.484  25.019  28.657  1.00  0.00    -0.014 A 
BRANCH  40  41
ATOM     41  C   UNL A   1      42.996  26.473  29.347  1.00  0.00     0.031 A 
ATOM     42  C   UNL A   1      41.705  27.528  29.129  1.00  0.00     0.074 A 
ATOM     43  C   UNL A   1      43.707  26.767  30.458  1.00  0.00     0.049 A 
ATOM     44  N   UNL A   1      40.777  27.822  30.031  1.00  0.00    -0.248 NA
ATOM     45  C   UNL A   1      41.325  28.243  27.860  1.00  0.00     0.031 C 
ATOM     46  C   UNL A   1      43.539  27.867  31.397  1.00  0.00     0.029 A 
ATOM     47  N   UNL A   1      44.960  26.248  30.777  1.00  0.00    -0.354 N 
ATOM     48  C   UNL A   1      39.719  28.522  29.384  1.00  0.00     0.074 A 
ATOM     49  C   UNL A   1      40.006  28.401  27.967  1.00  0.00     0.031 C 
ATOM     50  C   UNL A   1      44.755  28.176  31.887  1.00  0.00     0.029 A 
ATOM     51  C   UNL A   1      45.731  27.334  31.201  1.00  0.00     0.049 A 
ATOM     52  H   UNL A   1      45.245  25.307  30.716  1.00  0.00     0.167 HD
ATOM     53  C   UNL A   1      39.322  29.808  29.648  1.00  0.00     0.034 A 
ATOM     54  C   UNL A   1      46.673  27.789  30.319  1.00  0.00     0.034 A 
ATOM     55  C   UNL A   1      40.477  30.635  29.985  1.00  0.00     0.049 A 
ATOM     56  C   UNL A   1      46.232  29.105  29.681  1.00  0.00     0.074 A 
ATOM     57  C   UNL A   1      41.070  30.944  31.188  1.00  0.00     0.029 A 
ATOM     58  N   UNL A   1      41.412  30.970  28.993  1.00  0.00    -0.354 N 
ATOM     59  N   UNL A   1      44.996  29.535  29.571  1.00  0.00    -0.248 NA
ATOM     60  C   UNL A   1      47.208  30.082  29.219  1.00  0.00     0.031 C 
ATOM     61  C   UNL A   1      42.436  31.242  30.922  1.00  0.00     0.029 A 
ATOM     62  C   UNL A   1      42.662  31.214  29.553  1.00  0.00     0.049 A 
ATOM     63  H   UNL A   1      41.210  31.026  28.031  1.00  0.00     0.167 HD
ATOM     64  C   UNL A   1      44.991  30.795  29.019  1.00  0.00     0.074 A 
ATOM     65  C   UNL A   1      46.408  31.095  28.855  1.00  0.00     0.031 C 
ATOM     66  C   UNL A   1      43.858  31.534  28.754  1.00  0.00     0.034 A 
BRANCH  53  67
ATOM     67  C   UNL A   1      37.906  30.287  29.267  1.00  0.00     0.023 A 
ATOM     68  C   UNL A   1      37.328  29.771  28.089  1.00  0.00     0.012 A 
ATOM     69  C   UNL A   1      37.145  31.294  29.947  1.00  0.00     0.148 A 
ATOM     70  C   UNL A   1      36.105  30.248  27.581  1.00  0.00     0.002 A 
ATOM     71  C   UNL A   1      35.906  31.748  29.450  1.00  0.00     0.091 A 
ATOM     72  F   UNL A   1      37.639  31.846  31.066  1.00  0.00    -0.205 F 
ATOM     73  C   UNL A   1      35.397  31.237  28.255  1.00  0.00     0.022 A 
BRANCH  71  74
ATOM     74  S   UNL A   1      34.887  32.988  30.292  1.00  0.00     0.127 S 
ATOM     75  O   UNL A   1      35.791  34.133  30.370  1.00  0.00    -0.237 OA
ATOM     76  O   UNL A   1      33.763  33.172  29.370  1.00  0.00    -0.237 OA
ATOM     77  O   UNL A   1      34.512  32.391  31.568  1.00  0.00    -0.744 OA
ENDBRANCH  71  74
ENDBRANCH  53  67
BRANCH  54  78
ATOM     78  C   UNL A   1      47.510  26.697  29.670  1.00  0.00     0.023 A 
ATOM     79  C   UNL A   1      46.798  25.673  28.973  1.00  0.00     0.012 A 
ATOM     80  C   UNL A   1      48.906  26.741  29.486  1.00  0.00     0.148 A 
ATOM     81  C   UNL A   1      47.407  24.847  28.024  1.00  0.00     0.002 A 
ATOM     82  C   UNL A   1      49.518  25.893  28.543  1.00  0.00     0.091 A 
ATOM     83  F   UNL A   1      49.622  27.673  30.129  1.00  0.00    -0.205 F 
ATOM     84  C   UNL A   1      48.772  24.955  27.810  1.00  0.00     0.022 A 
BRANCH  82  85
ATOM     85  S   UNL A   1      51.247  26.156  28.082  1.00  0.00     0.127 S 
ATOM     86  O   UNL A   1      51.962  25.969  29.356  1.00  0.00    -0.237 OA
ATOM     87  O   UNL A   1      51.505  25.078  27.112  1.00  0.00    -0.237 OA
ATOM     88  O   UNL A   1      51.237  27.501  27.580  1.00  0.00    -0.744 OA
ENDBRANCH  82  85
ENDBRANCH  54  78
BRANCH  66  89
ATOM     89  C   UNL A   1      43.867  32.758  27.833  1.00  0.00     0.023 A 
ATOM     90  C   UNL A   1      44.146  32.655  26.452  1.00  0.00     0.012 A 
ATOM     91  C   UNL A   1      43.505  34.051  28.287  1.00  0.00     0.148 A 
ATOM     92  C   UNL A   1      44.239  33.772  25.613  1.00  0.00     0.002 A 
ATOM     93  C   UNL A   1      43.461  35.141  27.417  1.00  0.00     0.091 A 
ATOM     94  F   UNL A   1      43.218  34.258  29.578  1.00  0.00    -0.205 F 
ATOM     95  C   UNL A   1      43.887  35.020  26.094  1.00  0.00     0.022 A 
BRANCH  93  96
ATOM     96  S   UNL A   1      42.719  36.700  27.917  1.00  0.00     0.127 S 
ATOM     97  O   UNL A   1      41.458  36.261  28.507  1.00  0.00    -0.237 OA
ATOM     98  O   UNL A   1      43.697  37.218  28.877  1.00  0.00    -0.237 OA
ATOM     99  O   UNL A   1      42.621  37.483  26.690  1.00  0.00    -0.744 OA
ENDBRANCH  93  96
ENDBRANCH  66  89
ENDBRANCH  40  41
ENDBRANCH  33  35
ENDBRANCH  32  33
ENDBRANCH  31  32
ENDBRANCH  30  31
ENDBRANCH  29  30
ENDBRANCH  28  29
ENDBRANCH   1  28
TORSDOF 23
ENDMDL
