MODEL 1
REMARK VINA RESULT:      -9.9      0.000      0.000
REMARK SMILES COc1cc([C@@H]2CC(=O)Nc3c(C(=O)OCCOCCOCCOC(=O)c4ccc(-c5c6nc(c(-c7cccc(S(=O)(=O)[O-])c7F)c7ccc([nH]7)c(-c7cccc(S(=O)(=O)[O-])c7F)c7nc(c(-c8cccc(S(=O)(=O)[O-])c8F)c8ccc5[nH]8)C=C7)C=C6)cc4)cn(-c4ccc(F)cc4)c32)c(OC)c2c1OCO2
REMARK SMILES IDX 20 1 19 2 18 3 17 4 16 5 15 6 13 7 14 8 12 9 6 10 7 11 99 12
REMARK SMILES IDX 8 13 11 14 91 15 9 16 10 17 90 18 5 20 3 21 4 22 104 23
REMARK SMILES IDX 103 24 105 25 100 26 107 27 106 28 2 29 1 30 101 31 102 32
REMARK SMILES IDX 92 33 93 34 98 35 94 36 97 37 95 38 96 39 21 40 22 41 23 42
REMARK SMILES IDX 24 43 25 44 26 45 27 46 28 47 89 48 29 49 88 50 30 51 31 52
REMARK SMILES IDX 32 53 82 54 33 55 87 56 81 57 83 58 34 59 86 60 80 61 79 62
REMARK SMILES IDX 35 64 67 65 47 66 66 67 48 68 51 69 65 70 84 71 49 72 50 73
REMARK SMILES IDX 64 75 85 76 52 77 36 78 37 79 45 80 38 81 40 82 46 83 39 84
REMARK SMILES IDX 41 85 42 86 43 87 44 88 68 89 69 90 77 91 70 92 72 93 78 94
REMARK SMILES IDX 71 95 73 96 74 97 75 98 76 99 53 100 54 101 62 102 55 103
REMARK SMILES IDX 57 104 63 105 56 106 58 107 59 108 60 109 61 110
REMARK H PARENT 10 19 83 63 51 74
REMARK Flexibility Score: inf
ROOT
ATOM      1  C   UNL A   1      33.215  32.012  27.621  1.00  0.00     0.188 C 
ENDROOT
BRANCH   1   2
ATOM      2  C   UNL A   1      32.366  30.958  26.870  1.00  0.00     0.188 C 
BRANCH   2   3
ATOM      3  O   UNL A   1      32.830  29.631  26.678  1.00  0.00    -0.376 OA
BRANCH   3   4
ATOM      4  C   UNL A   1      33.560  29.275  25.518  1.00  0.00     0.202 C 
BRANCH   4   5
ATOM      5  C   UNL A   1      32.924  29.340  24.112  1.00  0.00     0.261 C 
BRANCH   5   6
ATOM      6  O   UNL A   1      33.037  28.163  23.296  1.00  0.00    -0.460 OA
BRANCH   6   7
ATOM      7  C   UNL A   1      32.168  27.157  23.577  1.00  0.00     0.341 C 
ATOM      8  O   UNL A   1      31.012  27.097  23.157  1.00  0.00    -0.246 OA
BRANCH   7   9
ATOM      9  C   UNL A   1      32.778  26.076  24.340  1.00  0.00     0.102 A 
ATOM     10  C   UNL A   1      32.875  22.909  26.245  1.00  0.00     0.082 C 
ATOM     11  C   UNL A   1      31.602  23.064  27.094  1.00  0.00     0.115 C 
ATOM     12  C   UNL A   1      33.162  24.199  25.539  1.00  0.00     0.055 A 
ATOM     13  C   UNL A   1      30.521  23.969  26.506  1.00  0.00     0.225 C 
ATOM     14  C   UNL A   1      32.204  25.139  25.233  1.00  0.00     0.078 A 
ATOM     15  N   UNL A   1      34.379  24.675  25.099  1.00  0.00    -0.317 N 
ATOM     16  O   UNL A   1      29.336  23.830  26.817  1.00  0.00    -0.275 OA
ATOM     17  N   UNL A   1      30.917  25.009  25.697  1.00  0.00    -0.324 N 
ATOM     18  C   UNL A   1      34.144  25.815  24.365  1.00  0.00     0.109 A 
ATOM     19  H   UNL A   1      30.250  25.686  25.440  1.00  0.00     0.170 HD
BRANCH  10  20
ATOM     20  C   UNL A   1      32.806  21.710  25.282  1.00  0.00     0.012 A 
ATOM     21  C   UNL A   1      32.129  20.918  23.056  1.00  0.00     0.165 A 
ATOM     22  C   UNL A   1      32.400  21.962  23.944  1.00  0.00     0.059 A 
ATOM     23  C   UNL A   1      32.380  19.629  23.481  1.00  0.00     0.211 A 
ATOM     24  C   UNL A   1      32.834  19.363  24.757  1.00  0.00     0.211 A 
ATOM     25  O   UNL A   1      32.235  18.493  22.739  1.00  0.00    -0.449 OA
ATOM     26  C   UNL A   1      33.048  20.374  25.683  1.00  0.00     0.168 A 
ATOM     27  O   UNL A   1      33.012  18.025  24.954  1.00  0.00    -0.449 OA
ATOM     28  C   UNL A   1      32.710  17.498  23.656  1.00  0.00     0.468 C 
BRANCH  21  29
ATOM     29  O   UNL A   1      31.652  21.261  21.824  1.00  0.00    -0.493 OA
ATOM     30  C   UNL A   1      32.326  22.387  21.261  1.00  0.00     0.278 C 
ENDBRANCH  21  29
BRANCH  26  31
ATOM     31  O   UNL A   1      33.473  20.195  26.962  1.00  0.00    -0.492 OA
ATOM     32  C   UNL A   1      34.433  21.069  27.528  1.00  0.00     0.278 C 
ENDBRANCH  26  31
ENDBRANCH  10  20
BRANCH  15  33
ATOM     33  C   UNL A   1      35.647  24.098  25.309  1.00  0.00     0.046 A 
ATOM     34  C   UNL A   1      36.428  24.554  26.373  1.00  0.00     0.029 A 
ATOM     35  C   UNL A   1      36.127  23.121  24.430  1.00  0.00     0.029 A 
ATOM     36  C   UNL A   1      37.736  24.098  26.512  1.00  0.00     0.041 A 
ATOM     37  C   UNL A   1      37.440  22.663  24.582  1.00  0.00     0.041 A 
ATOM     38  C   UNL A   1      38.236  23.169  25.608  1.00  0.00     0.123 A 
ATOM     39  F   UNL A   1      39.504  22.757  25.728  1.00  0.00    -0.207 F 
ENDBRANCH  15  33
ENDBRANCH   7   9
ENDBRANCH   6   7
ENDBRANCH   5   6
ENDBRANCH   4   5
ENDBRANCH   3   4
ENDBRANCH   2   3
ENDBRANCH   1   2
BRANCH   1  40
ATOM     40  O   UNL A   1      34.092  31.496  28.600  1.00  0.00    -0.376 OA
BRANCH  40  41
ATOM     41  C   UNL A   1      34.831  32.346  29.469  1.00  0.00     0.202 C 
BRANCH  41  42
ATOM     42  C   UNL A   1      36.359  32.359  29.536  1.00  0.00     0.261 C 
BRANCH  42  43
ATOM     43  O   UNL A   1      36.904  31.603  30.590  1.00  0.00    -0.460 OA
BRANCH  43  44
ATOM     44  C   UNL A   1      36.884  30.274  30.380  1.00  0.00     0.338 C 
ATOM     45  O   UNL A   1      36.205  29.442  30.961  1.00  0.00    -0.246 OA
BRANCH  44  46
ATOM     46  C   UNL A   1      37.825  29.974  29.300  1.00  0.00     0.060 A 
ATOM     47  C   UNL A   1      37.718  28.695  28.751  1.00  0.00     0.016 A 
ATOM     48  C   UNL A   1      39.003  30.727  29.277  1.00  0.00     0.016 A 
ATOM     49  C   UNL A   1      38.887  28.008  28.566  1.00  0.00     0.010 A 
ATOM     50  C   UNL A   1      40.165  30.033  29.137  1.00  0.00     0.010 A 
ATOM     51  C   UNL A   1      40.069  28.660  28.920  1.00  0.00    -0.014 A 
BRANCH  51  52
ATOM     52  C   UNL A   1      41.239  27.858  29.150  1.00  0.00     0.031 A 
ATOM     53  C   UNL A   1      41.790  28.069  30.498  1.00  0.00     0.074 A 
ATOM     54  C   UNL A   1      41.627  26.954  28.230  1.00  0.00     0.049 A 
ATOM     55  N   UNL A   1      42.863  28.714  30.814  1.00  0.00    -0.248 NA
ATOM     56  C   UNL A   1      40.910  27.766  31.639  1.00  0.00     0.031 C 
ATOM     57  C   UNL A   1      40.910  26.504  27.029  1.00  0.00     0.029 A 
ATOM     58  N   UNL A   1      42.686  26.111  28.278  1.00  0.00    -0.354 N 
ATOM     59  C   UNL A   1      42.897  28.668  32.203  1.00  0.00     0.074 A 
ATOM     60  C   UNL A   1      41.559  28.373  32.629  1.00  0.00     0.031 C 
ATOM     61  C   UNL A   1      41.398  25.298  26.656  1.00  0.00     0.029 A 
ATOM     62  C   UNL A   1      42.515  24.958  27.522  1.00  0.00     0.049 A 
ATOM     63  H   UNL A   1      43.499  26.298  28.798  1.00  0.00     0.167 HD
ATOM     64  C   UNL A   1      44.071  28.543  32.877  1.00  0.00     0.034 A 
ATOM     65  C   UNL A   1      43.159  23.780  27.727  1.00  0.00     0.034 A 
ATOM     66  C   UNL A   1      45.191  28.798  32.006  1.00  0.00     0.049 A 
ATOM     67  C   UNL A   1      44.335  24.070  28.593  1.00  0.00     0.074 A 
ATOM     68  C   UNL A   1      45.617  29.877  31.259  1.00  0.00     0.029 A 
ATOM     69  N   UNL A   1      45.835  27.693  31.497  1.00  0.00    -0.354 N 
ATOM     70  N   UNL A   1      45.341  24.810  28.212  1.00  0.00    -0.248 NA
ATOM     71  C   UNL A   1      44.151  23.963  30.035  1.00  0.00     0.031 C 
ATOM     72  C   UNL A   1      46.130  29.309  30.059  1.00  0.00     0.029 A 
ATOM     73  C   UNL A   1      46.058  27.918  30.165  1.00  0.00     0.049 A 
ATOM     74  H   UNL A   1      46.088  26.885  32.000  1.00  0.00     0.167 HD
ATOM     75  C   UNL A   1      45.627  25.606  29.317  1.00  0.00     0.074 A 
ATOM     76  C   UNL A   1      44.927  24.976  30.436  1.00  0.00     0.031 C 
ATOM     77  C   UNL A   1      46.128  26.869  29.169  1.00  0.00     0.034 A 
BRANCH  64  78
ATOM     78  C   UNL A   1      44.247  27.810  34.188  1.00  0.00     0.023 A 
ATOM     79  C   UNL A   1      44.876  28.530  35.226  1.00  0.00     0.012 A 
ATOM     80  C   UNL A   1      44.091  26.417  34.383  1.00  0.00     0.148 A 
ATOM     81  C   UNL A   1      45.390  27.890  36.358  1.00  0.00     0.002 A 
ATOM     82  C   UNL A   1      44.535  25.796  35.543  1.00  0.00     0.091 A 
ATOM     83  F   UNL A   1      43.634  25.638  33.402  1.00  0.00    -0.205 F 
ATOM     84  C   UNL A   1      45.217  26.521  36.518  1.00  0.00     0.022 A 
BRANCH  82  85
ATOM     85  S   UNL A   1      44.301  24.032  35.811  1.00  0.00     0.127 S 
ATOM     86  O   UNL A   1      42.845  23.929  35.823  1.00  0.00    -0.237 OA
ATOM     87  O   UNL A   1      44.954  23.462  34.633  1.00  0.00    -0.237 OA
ATOM     88  O   UNL A   1      44.974  23.731  37.069  1.00  0.00    -0.744 OA
ENDBRANCH  82  85
ENDBRANCH  64  78
BRANCH  65  89
ATOM     89  C   UNL A   1      42.627  22.405  27.543  1.00  0.00     0.023 A 
ATOM     90  C   UNL A   1      41.305  22.099  27.924  1.00  0.00     0.012 A 
ATOM     91  C   UNL A   1      43.327  21.450  26.771  1.00  0.00     0.148 A 
ATOM     92  C   UNL A   1      40.704  20.889  27.545  1.00  0.00     0.002 A 
ATOM     93  C   UNL A   1      42.735  20.243  26.413  1.00  0.00     0.091 A 
ATOM     94  F   UNL A   1      44.543  21.763  26.302  1.00  0.00    -0.205 F 
ATOM     95  C   UNL A   1      41.418  19.961  26.789  1.00  0.00     0.022 A 
BRANCH  93  96
ATOM     96  S   UNL A   1      43.604  19.011  25.429  1.00  0.00     0.127 S 
ATOM     97  O   UNL A   1      44.822  18.802  26.213  1.00  0.00    -0.237 OA
ATOM     98  O   UNL A   1      42.664  17.893  25.446  1.00  0.00    -0.237 OA
ATOM     99  O   UNL A   1      43.830  19.629  24.129  1.00  0.00    -0.744 OA
ENDBRANCH  93  96
ENDBRANCH  65  89
BRANCH  77 100
ATOM    100  C   UNL A   1      46.563  27.314  27.797  1.00  0.00     0.023 A 
ATOM    101  C   UNL A   1      45.663  27.862  26.859  1.00  0.00     0.012 A 
ATOM    102  C   UNL A   1      47.942  27.417  27.557  1.00  0.00     0.148 A 
ATOM    103  C   UNL A   1      46.132  28.500  25.705  1.00  0.00     0.002 A 
ATOM    104  C   UNL A   1      48.405  28.101  26.441  1.00  0.00     0.091 A 
ATOM    105  F   UNL A   1      48.781  26.892  28.463  1.00  0.00    -0.205 F 
ATOM    106  C   UNL A   1      47.504  28.637  25.507  1.00  0.00     0.022 A 
BRANCH 104 107
ATOM    107  S   UNL A   1      50.150  28.451  26.220  1.00  0.00     0.127 S 
ATOM    108  O   UNL A   1      50.764  27.176  26.586  1.00  0.00    -0.237 OA
ATOM    109  O   UNL A   1      50.225  28.783  24.797  1.00  0.00    -0.237 OA
ATOM    110  O   UNL A   1      50.451  29.568  27.107  1.00  0.00    -0.744 OA
ENDBRANCH 104 107
ENDBRANCH  77 100
ENDBRANCH  51  52
ENDBRANCH  44  46
ENDBRANCH  43  44
ENDBRANCH  42  43
ENDBRANCH  41  42
ENDBRANCH  40  41
ENDBRANCH   1  40
TORSDOF 24
ENDMDL
MODEL 2
REMARK VINA RESULT:      -9.7      1.972      3.472
REMARK SMILES COc1cc([C@@H]2CC(=O)Nc3c(C(=O)OCCOCCOCCOC(=O)c4ccc(-c5c6nc(c(-c7cccc(S(=O)(=O)[O-])c7F)c7ccc([nH]7)c(-c7cccc(S(=O)(=O)[O-])c7F)c7nc(c(-c8cccc(S(=O)(=O)[O-])c8F)c8ccc5[nH]8)C=C7)C=C6)cc4)cn(-c4ccc(F)cc4)c32)c(OC)c2c1OCO2
REMARK SMILES IDX 20 1 19 2 18 3 17 4 16 5 15 6 13 7 14 8 12 9 6 10 7 11 99 12
REMARK SMILES IDX 8 13 11 14 91 15 9 16 10 17 90 18 5 20 3 21 4 22 104 23
REMARK SMILES IDX 103 24 105 25 100 26 107 27 106 28 2 29 1 30 101 31 102 32
REMARK SMILES IDX 92 33 93 34 98 35 94 36 97 37 95 38 96 39 21 40 22 41 23 42
REMARK SMILES IDX 24 43 25 44 26 45 27 46 28 47 89 48 29 49 88 50 30 51 31 52
REMARK SMILES IDX 32 53 82 54 33 55 87 56 81 57 83 58 34 59 86 60 80 61 79 62
REMARK SMILES IDX 35 64 67 65 47 66 66 67 48 68 51 69 65 70 84 71 49 72 50 73
REMARK SMILES IDX 64 75 85 76 52 77 36 78 37 79 45 80 38 81 40 82 46 83 39 84
REMARK SMILES IDX 41 85 42 86 43 87 44 88 68 89 69 90 77 91 70 92 72 93 78 94
REMARK SMILES IDX 71 95 73 96 74 97 75 98 76 99 53 100 54 101 62 102 55 103
REMARK SMILES IDX 57 104 63 105 56 106 58 107 59 108 60 109 61 110
REMARK H PARENT 10 19 83 63 51 74
REMARK Flexibility Score: inf
ROOT
ATOM      1  C   UNL A   1      32.699  31.722  27.500  1.00  0.00     0.188 C 
ENDROOT
BRANCH   1   2
ATOM      2  C   UNL A   1      32.156  30.751  26.423  1.00  0.00     0.188 C 
BRANCH   2   3
ATOM      3  O   UNL A   1      32.566  29.393  26.374  1.00  0.00    -0.376 OA
BRANCH   3   4
ATOM      4  C   UNL A   1      31.655  28.346  26.659  1.00  0.00     0.202 C 
BRANCH   4   5
ATOM      5  C   UNL A   1      31.898  26.906  26.157  1.00  0.00     0.261 C 
BRANCH   5   6
ATOM      6  O   UNL A   1      31.111  25.869  26.763  1.00  0.00    -0.460 OA
BRANCH   6   7
ATOM      7  C   UNL A   1      30.361  25.117  25.916  1.00  0.00     0.341 C 
ATOM      8  O   UNL A   1      29.160  25.292  25.706  1.00  0.00    -0.246 OA
BRANCH   7   9
ATOM      9  C   UNL A   1      31.148  24.139  25.176  1.00  0.00     0.102 A 
ATOM     10  C   UNL A   1      33.870  22.944  22.978  1.00  0.00     0.082 C 
ATOM     11  C   UNL A   1      33.858  24.047  21.907  1.00  0.00     0.115 C 
ATOM     12  C   UNL A   1      32.680  23.107  23.875  1.00  0.00     0.055 A 
ATOM     13  C   UNL A   1      33.313  25.401  22.358  1.00  0.00     0.225 C 
ATOM     14  C   UNL A   1      32.030  24.303  24.081  1.00  0.00     0.078 A 
ATOM     15  N   UNL A   1      32.030  22.139  24.611  1.00  0.00    -0.317 N 
ATOM     16  O   UNL A   1      33.652  26.443  21.794  1.00  0.00    -0.275 OA
ATOM     17  N   UNL A   1      32.357  25.418  23.347  1.00  0.00    -0.324 N 
ATOM     18  C   UNL A   1      31.101  22.768  25.406  1.00  0.00     0.109 A 
ATOM     19  H   UNL A   1      31.890  26.263  23.536  1.00  0.00     0.170 HD
BRANCH  10  20
ATOM     20  C   UNL A   1      35.195  22.888  23.761  1.00  0.00     0.012 A 
ATOM     21  C   UNL A   1      37.069  21.482  24.502  1.00  0.00     0.165 A 
ATOM     22  C   UNL A   1      35.957  21.691  23.683  1.00  0.00     0.059 A 
ATOM     23  C   UNL A   1      37.478  22.521  25.314  1.00  0.00     0.211 A 
ATOM     24  C   UNL A   1      36.788  23.716  25.361  1.00  0.00     0.211 A 
ATOM     25  O   UNL A   1      38.569  22.523  26.133  1.00  0.00    -0.449 OA
ATOM     26  C   UNL A   1      35.642  23.930  24.609  1.00  0.00     0.168 A 
ATOM     27  O   UNL A   1      37.371  24.593  26.227  1.00  0.00    -0.449 OA
ATOM     28  C   UNL A   1      38.532  23.863  26.644  1.00  0.00     0.468 C 
BRANCH  21  29
ATOM     29  O   UNL A   1      37.677  20.262  24.420  1.00  0.00    -0.493 OA
ATOM     30  C   UNL A   1      36.898  19.214  25.000  1.00  0.00     0.278 C 
ENDBRANCH  21  29
BRANCH  26  31
ATOM     31  O   UNL A   1      34.896  25.066  24.615  1.00  0.00    -0.492 OA
ATOM     32  C   UNL A   1      34.707  25.795  25.814  1.00  0.00     0.278 C 
ENDBRANCH  26  31
ENDBRANCH  10  20
BRANCH  15  33
ATOM     33  C   UNL A   1      32.279  20.752  24.604  1.00  0.00     0.046 A 
ATOM     34  C   UNL A   1      32.717  20.138  25.779  1.00  0.00     0.029 A 
ATOM     35  C   UNL A   1      32.134  20.020  23.420  1.00  0.00     0.029 A 
ATOM     36  C   UNL A   1      33.103  18.801  25.756  1.00  0.00     0.041 A 
ATOM     37  C   UNL A   1      32.517  18.674  23.408  1.00  0.00     0.041 A 
ATOM     38  C   UNL A   1      33.014  18.085  24.569  1.00  0.00     0.123 A 
ATOM     39  F   UNL A   1      33.414  16.807  24.545  1.00  0.00    -0.207 F 
ENDBRANCH  15  33
ENDBRANCH   7   9
ENDBRANCH   6   7
ENDBRANCH   5   6
ENDBRANCH   4   5
ENDBRANCH   3   4
ENDBRANCH   2   3
ENDBRANCH   1   2
BRANCH   1  40
ATOM     40  O   UNL A   1      34.050  31.529  27.863  1.00  0.00    -0.376 OA
BRANCH  40  41
ATOM     41  C   UNL A   1      34.569  32.000  29.100  1.00  0.00     0.202 C 
BRANCH  41  42
ATOM     42  C   UNL A   1      36.052  32.290  29.336  1.00  0.00     0.261 C 
BRANCH  42  43
ATOM     43  O   UNL A   1      36.916  31.736  28.375  1.00  0.00    -0.460 OA
BRANCH  43  44
ATOM     44  C   UNL A   1      37.116  30.413  28.512  1.00  0.00     0.338 C 
ATOM     45  O   UNL A   1      36.782  29.528  27.741  1.00  0.00    -0.246 OA
BRANCH  44  46
ATOM     46  C   UNL A   1      37.836  30.195  29.769  1.00  0.00     0.060 A 
ATOM     47  C   UNL A   1      38.927  31.037  29.986  1.00  0.00     0.016 A 
ATOM     48  C   UNL A   1      37.716  28.925  30.341  1.00  0.00     0.016 A 
ATOM     49  C   UNL A   1      40.081  30.445  30.422  1.00  0.00     0.010 A 
ATOM     50  C   UNL A   1      38.872  28.324  30.731  1.00  0.00     0.010 A 
ATOM     51  C   UNL A   1      40.047  29.065  30.629  1.00  0.00    -0.014 A 
BRANCH  51  52
ATOM     52  C   UNL A   1      41.297  28.357  30.661  1.00  0.00     0.031 A 
ATOM     53  C   UNL A   1      41.888  28.352  32.009  1.00  0.00     0.074 A 
ATOM     54  C   UNL A   1      41.724  27.698  29.568  1.00  0.00     0.049 A 
ATOM     55  N   UNL A   1      42.909  29.027  32.419  1.00  0.00    -0.248 NA
ATOM     56  C   UNL A   1      41.095  27.742  33.089  1.00  0.00     0.031 C 
ATOM     57  C   UNL A   1      40.998  27.424  28.321  1.00  0.00     0.029 A 
ATOM     58  N   UNL A   1      42.859  26.974  29.416  1.00  0.00    -0.354 N 
ATOM     59  C   UNL A   1      43.013  28.711  33.769  1.00  0.00     0.074 A 
ATOM     60  C   UNL A   1      41.730  28.203  34.163  1.00  0.00     0.031 C 
ATOM     61  C   UNL A   1      41.579  26.371  27.699  1.00  0.00     0.029 A 
ATOM     62  C   UNL A   1      42.762  25.982  28.448  1.00  0.00     0.049 A 
ATOM     63  H   UNL A   1      43.675  27.136  29.941  1.00  0.00     0.167 HD
ATOM     64  C   UNL A   1      44.224  28.575  34.372  1.00  0.00     0.034 A 
ATOM     65  C   UNL A   1      43.523  24.859  28.394  1.00  0.00     0.034 A 
ATOM     66  C   UNL A   1      45.273  29.109  33.540  1.00  0.00     0.049 A 
ATOM     67  C   UNL A   1      44.705  25.089  29.268  1.00  0.00     0.074 A 
ATOM     68  C   UNL A   1      45.559  30.352  33.015  1.00  0.00     0.029 A 
ATOM     69  N   UNL A   1      45.993  28.198  32.801  1.00  0.00    -0.354 N 
ATOM     70  N   UNL A   1      45.619  25.988  29.017  1.00  0.00    -0.248 NA
ATOM     71  C   UNL A   1      44.601  24.680  30.664  1.00  0.00     0.031 C 
ATOM     72  C   UNL A   1      46.067  30.088  31.711  1.00  0.00     0.029 A 
ATOM     73  C   UNL A   1      46.131  28.704  31.537  1.00  0.00     0.049 A 
ATOM     74  H   UNL A   1      46.345  27.337  33.124  1.00  0.00     0.167 HD
ATOM     75  C   UNL A   1      45.880  26.575  30.252  1.00  0.00     0.074 A 
ATOM     76  C   UNL A   1      45.296  25.667  31.240  1.00  0.00     0.031 C 
ATOM     77  C   UNL A   1      46.253  27.885  30.348  1.00  0.00     0.034 A 
BRANCH  64  78
ATOM     78  C   UNL A   1      44.529  27.618  35.502  1.00  0.00     0.023 A 
ATOM     79  C   UNL A   1      45.052  28.192  36.681  1.00  0.00     0.012 A 
ATOM     80  C   UNL A   1      44.595  26.209  35.397  1.00  0.00     0.148 A 
ATOM     81  C   UNL A   1      45.674  27.416  37.663  1.00  0.00     0.002 A 
ATOM     82  C   UNL A   1      45.145  25.434  36.410  1.00  0.00     0.091 A 
ATOM     83  F   UNL A   1      44.252  25.592  34.266  1.00  0.00    -0.205 F 
ATOM     84  C   UNL A   1      45.719  26.034  37.529  1.00  0.00     0.022 A 
BRANCH  82  85
ATOM     85  S   UNL A   1      45.192  23.639  36.297  1.00  0.00     0.127 S 
ATOM     86  O   UNL A   1      45.520  23.268  37.670  1.00  0.00    -0.237 OA
ATOM     87  O   UNL A   1      43.825  23.330  35.879  1.00  0.00    -0.237 OA
ATOM     88  O   UNL A   1      46.205  23.332  35.293  1.00  0.00    -0.744 OA
ENDBRANCH  82  85
ENDBRANCH  64  78
BRANCH  65  89
ATOM     89  C   UNL A   1      43.115  23.500  27.951  1.00  0.00     0.023 A 
ATOM     90  C   UNL A   1      41.896  22.947  28.392  1.00  0.00     0.012 A 
ATOM     91  C   UNL A   1      43.797  22.839  26.904  1.00  0.00     0.148 A 
ATOM     92  C   UNL A   1      41.376  21.782  27.806  1.00  0.00     0.002 A 
ATOM     93  C   UNL A   1      43.289  21.674  26.339  1.00  0.00     0.091 A 
ATOM     94  F   UNL A   1      44.899  23.405  26.392  1.00  0.00    -0.205 F 
ATOM     95  C   UNL A   1      42.071  21.146  26.780  1.00  0.00     0.022 A 
BRANCH  93  96
ATOM     96  S   UNL A   1      44.136  20.814  25.004  1.00  0.00     0.127 S 
ATOM     97  O   UNL A   1      45.459  20.581  25.586  1.00  0.00    -0.237 OA
ATOM     98  O   UNL A   1      43.316  19.616  24.847  1.00  0.00    -0.237 OA
ATOM     99  O   UNL A   1      44.136  21.736  23.875  1.00  0.00    -0.744 OA
ENDBRANCH  93  96
ENDBRANCH  65  89
BRANCH  77 100
ATOM    100  C   UNL A   1      46.579  28.636  29.082  1.00  0.00     0.023 A 
ATOM    101  C   UNL A   1      45.601  29.334  28.344  1.00  0.00     0.012 A 
ATOM    102  C   UNL A   1      47.935  28.848  28.787  1.00  0.00     0.148 A 
ATOM    103  C   UNL A   1      45.970  30.226  27.331  1.00  0.00     0.002 A 
ATOM    104  C   UNL A   1      48.299  29.776  27.822  1.00  0.00     0.091 A 
ATOM    105  F   UNL A   1      48.849  28.177  29.504  1.00  0.00    -0.205 F 
ATOM    106  C   UNL A   1      47.320  30.462  27.084  1.00  0.00     0.022 A 
BRANCH 104 107
ATOM    107  S   UNL A   1      50.014  30.242  27.577  1.00  0.00     0.127 S 
ATOM    108  O   UNL A   1      49.911  31.226  26.502  1.00  0.00    -0.237 OA
ATOM    109  O   UNL A   1      50.377  30.795  28.883  1.00  0.00    -0.237 OA
ATOM    110  O   UNL A   1      50.719  29.012  27.236  1.00  0.00    -0.744 OA
ENDBRANCH 104 107
ENDBRANCH  77 100
ENDBRANCH  51  52
ENDBRANCH  44  46
ENDBRANCH  43  44
ENDBRANCH  42  43
ENDBRANCH  41  42
ENDBRANCH  40  41
ENDBRANCH   1  40
TORSDOF 24
ENDMDL
MODEL 3
REMARK VINA RESULT:      -9.6      1.700      2.092
REMARK SMILES COc1cc([C@@H]2CC(=O)Nc3c(C(=O)OCCOCCOCCOC(=O)c4ccc(-c5c6nc(c(-c7cccc(S(=O)(=O)[O-])c7F)c7ccc([nH]7)c(-c7cccc(S(=O)(=O)[O-])c7F)c7nc(c(-c8cccc(S(=O)(=O)[O-])c8F)c8ccc5[nH]8)C=C7)C=C6)cc4)cn(-c4ccc(F)cc4)c32)c(OC)c2c1OCO2
REMARK SMILES IDX 20 1 19 2 18 3 17 4 16 5 15 6 13 7 14 8 12 9 6 10 7 11 99 12
REMARK SMILES IDX 8 13 11 14 91 15 9 16 10 17 90 18 5 20 3 21 4 22 104 23
REMARK SMILES IDX 103 24 105 25 100 26 107 27 106 28 2 29 1 30 101 31 102 32
REMARK SMILES IDX 92 33 93 34 98 35 94 36 97 37 95 38 96 39 21 40 22 41 23 42
REMARK SMILES IDX 24 43 25 44 26 45 27 46 28 47 89 48 29 49 88 50 30 51 31 52
REMARK SMILES IDX 32 53 82 54 33 55 87 56 81 57 83 58 34 59 86 60 80 61 79 62
REMARK SMILES IDX 35 64 67 65 47 66 66 67 48 68 51 69 65 70 84 71 49 72 50 73
REMARK SMILES IDX 64 75 85 76 52 77 36 78 37 79 45 80 38 81 40 82 46 83 39 84
REMARK SMILES IDX 41 85 42 86 43 87 44 88 68 89 69 90 77 91 70 92 72 93 78 94
REMARK SMILES IDX 71 95 73 96 74 97 75 98 76 99 53 100 54 101 62 102 55 103
REMARK SMILES IDX 57 104 63 105 56 106 58 107 59 108 60 109 61 110
REMARK H PARENT 10 19 83 63 51 74
REMARK Flexibility Score: inf
ROOT
ATOM      1  C   UNL A   1      33.679  32.396  27.866  1.00  0.00     0.188 C 
ENDROOT
BRANCH   1   2
ATOM      2  C   UNL A   1      32.768  31.215  27.451  1.00  0.00     0.188 C 
BRANCH   2   3
ATOM      3  O   UNL A   1      33.264  29.888  27.369  1.00  0.00    -0.376 OA
BRANCH   3   4
ATOM      4  C   UNL A   1      34.005  29.455  26.242  1.00  0.00     0.202 C 
BRANCH   4   5
ATOM      5  C   UNL A   1      33.356  29.339  24.846  1.00  0.00     0.261 C 
BRANCH   5   6
ATOM      6  O   UNL A   1      33.201  28.013  24.314  1.00  0.00    -0.460 OA
BRANCH   6   7
ATOM      7  C   UNL A   1      32.366  27.189  24.999  1.00  0.00     0.341 C 
ATOM      8  O   UNL A   1      31.180  27.431  25.225  1.00  0.00    -0.246 OA
BRANCH   7   9
ATOM      9  C   UNL A   1      32.983  25.917  25.348  1.00  0.00     0.102 A 
ATOM     10  C   UNL A   1      33.084  22.320  26.202  1.00  0.00     0.082 C 
ATOM     11  C   UNL A   1      31.888  22.237  27.165  1.00  0.00     0.115 C 
ATOM     12  C   UNL A   1      33.374  23.758  25.892  1.00  0.00     0.055 A 
ATOM     13  C   UNL A   1      30.806  23.299  26.970  1.00  0.00     0.225 C 
ATOM     14  C   UNL A   1      32.438  24.765  25.965  1.00  0.00     0.078 A 
ATOM     15  N   UNL A   1      34.573  24.321  25.512  1.00  0.00    -0.317 N 
ATOM     16  O   UNL A   1      29.644  23.096  27.326  1.00  0.00    -0.275 OA
ATOM     17  N   UNL A   1      31.185  24.526  26.478  1.00  0.00    -0.324 N 
ATOM     18  C   UNL A   1      34.335  25.634  25.176  1.00  0.00     0.109 A 
ATOM     19  H   UNL A   1      30.532  25.262  26.494  1.00  0.00     0.170 HD
BRANCH  10  20
ATOM     20  C   UNL A   1      32.889  21.471  24.934  1.00  0.00     0.012 A 
ATOM     21  C   UNL A   1      32.401  21.483  22.525  1.00  0.00     0.165 A 
ATOM     22  C   UNL A   1      32.765  22.155  23.694  1.00  0.00     0.059 A 
ATOM     23  C   UNL A   1      32.274  20.109  22.583  1.00  0.00     0.211 A 
ATOM     24  C   UNL A   1      32.450  19.416  23.763  1.00  0.00     0.211 A 
ATOM     25  O   UNL A   1      31.986  19.281  21.537  1.00  0.00    -0.449 OA
ATOM     26  C   UNL A   1      32.747  20.062  24.955  1.00  0.00     0.168 A 
ATOM     27  O   UNL A   1      32.278  18.075  23.583  1.00  0.00    -0.449 OA
ATOM     28  C   UNL A   1      32.067  17.996  22.168  1.00  0.00     0.468 C 
BRANCH  21  29
ATOM     29  O   UNL A   1      32.214  22.243  21.407  1.00  0.00    -0.493 OA
ATOM     30  C   UNL A   1      33.185  23.282  21.273  1.00  0.00     0.278 C 
ENDBRANCH  21  29
BRANCH  26  31
ATOM     31  O   UNL A   1      32.914  19.457  26.160  1.00  0.00    -0.492 OA
ATOM     32  C   UNL A   1      33.150  18.062  26.237  1.00  0.00     0.278 C 
ENDBRANCH  26  31
ENDBRANCH  10  20
BRANCH  15  33
ATOM     33  C   UNL A   1      35.827  23.683  25.429  1.00  0.00     0.046 A 
ATOM     34  C   UNL A   1      36.021  22.698  24.460  1.00  0.00     0.029 A 
ATOM     35  C   UNL A   1      36.838  24.004  26.342  1.00  0.00     0.029 A 
ATOM     36  C   UNL A   1      37.201  21.959  24.454  1.00  0.00     0.041 A 
ATOM     37  C   UNL A   1      38.023  23.262  26.324  1.00  0.00     0.041 A 
ATOM     38  C   UNL A   1      38.185  22.236  25.394  1.00  0.00     0.123 A 
ATOM     39  F   UNL A   1      39.306  21.503  25.403  1.00  0.00    -0.207 F 
ENDBRANCH  15  33
ENDBRANCH   7   9
ENDBRANCH   6   7
ENDBRANCH   5   6
ENDBRANCH   4   5
ENDBRANCH   3   4
ENDBRANCH   2   3
ENDBRANCH   1   2
BRANCH   1  40
ATOM     40  O   UNL A   1      34.635  32.101  28.863  1.00  0.00    -0.376 OA
BRANCH  40  41
ATOM     41  C   UNL A   1      35.533  33.087  29.355  1.00  0.00     0.202 C 
BRANCH  41  42
ATOM     42  C   UNL A   1      36.995  32.799  29.700  1.00  0.00     0.261 C 
BRANCH  42  43
ATOM     43  O   UNL A   1      37.190  31.678  30.529  1.00  0.00    -0.460 OA
BRANCH  43  44
ATOM     44  C   UNL A   1      37.146  30.500  29.880  1.00  0.00     0.338 C 
ATOM     45  O   UNL A   1      36.266  29.657  29.934  1.00  0.00    -0.246 OA
BRANCH  44  46
ATOM     46  C   UNL A   1      38.355  30.393  29.061  1.00  0.00     0.060 A 
ATOM     47  C   UNL A   1      38.454  29.234  28.290  1.00  0.00     0.016 A 
ATOM     48  C   UNL A   1      39.462  31.131  29.490  1.00  0.00     0.016 A 
ATOM     49  C   UNL A   1      39.658  28.584  28.313  1.00  0.00     0.010 A 
ATOM     50  C   UNL A   1      40.647  30.466  29.552  1.00  0.00     0.010 A 
ATOM     51  C   UNL A   1      40.673  29.154  29.082  1.00  0.00    -0.014 A 
BRANCH  51  52
ATOM     52  C   UNL A   1      41.771  28.317  29.478  1.00  0.00     0.031 A 
ATOM     53  C   UNL A   1      41.961  28.319  30.938  1.00  0.00     0.074 A 
ATOM     54  C   UNL A   1      42.403  27.559  28.563  1.00  0.00     0.049 A 
ATOM     55  N   UNL A   1      42.901  28.900  31.605  1.00  0.00    -0.248 NA
ATOM     56  C   UNL A   1      40.833  27.856  31.763  1.00  0.00     0.031 C 
ATOM     57  C   UNL A   1      42.023  27.300  27.168  1.00  0.00     0.029 A 
ATOM     58  N   UNL A   1      43.441  26.709  28.751  1.00  0.00    -0.354 N 
ATOM     59  C   UNL A   1      42.588  28.646  32.936  1.00  0.00     0.074 A 
ATOM     60  C   UNL A   1      41.196  28.301  32.962  1.00  0.00     0.031 C 
ATOM     61  C   UNL A   1      42.625  26.159  26.756  1.00  0.00     0.029 A 
ATOM     62  C   UNL A   1      43.499  25.684  27.815  1.00  0.00     0.049 A 
ATOM     63  H   UNL A   1      44.093  26.809  29.481  1.00  0.00     0.167 HD
ATOM     64  C   UNL A   1      43.560  28.411  33.858  1.00  0.00     0.034 A 
ATOM     65  C   UNL A   1      44.106  24.484  27.999  1.00  0.00     0.034 A 
ATOM     66  C   UNL A   1      44.854  28.783  33.344  1.00  0.00     0.049 A 
ATOM     67  C   UNL A   1      45.019  24.630  29.166  1.00  0.00     0.074 A 
ATOM     68  C   UNL A   1      45.420  29.959  32.895  1.00  0.00     0.029 A 
ATOM     69  N   UNL A   1      45.637  27.762  32.856  1.00  0.00    -0.354 N 
ATOM     70  N   UNL A   1      46.066  25.410  29.165  1.00  0.00    -0.248 NA
ATOM     71  C   UNL A   1      44.484  24.309  30.484  1.00  0.00     0.031 C 
ATOM     72  C   UNL A   1      46.234  29.573  31.793  1.00  0.00     0.029 A 
ATOM     73  C   UNL A   1      46.179  28.183  31.671  1.00  0.00     0.049 A 
ATOM     74  H   UNL A   1      45.780  26.886  33.281  1.00  0.00     0.167 HD
ATOM     75  C   UNL A   1      46.043  26.029  30.411  1.00  0.00     0.074 A 
ATOM     76  C   UNL A   1      45.104  25.244  31.212  1.00  0.00     0.031 C 
ATOM     77  C   UNL A   1      46.527  27.295  30.581  1.00  0.00     0.034 A 
BRANCH  64  78
ATOM     78  C   UNL A   1      43.424  27.487  35.047  1.00  0.00     0.023 A 
ATOM     79  C   UNL A   1      42.190  26.814  35.176  1.00  0.00     0.012 A 
ATOM     80  C   UNL A   1      44.293  27.443  36.162  1.00  0.00     0.148 A 
ATOM     81  C   UNL A   1      41.811  26.199  36.372  1.00  0.00     0.002 A 
ATOM     82  C   UNL A   1      43.945  26.766  37.324  1.00  0.00     0.091 A 
ATOM     83  F   UNL A   1      45.416  28.162  36.182  1.00  0.00    -0.205 F 
ATOM     84  C   UNL A   1      42.690  26.172  37.447  1.00  0.00     0.022 A 
BRANCH  82  85
ATOM     85  S   UNL A   1      45.065  26.674  38.729  1.00  0.00     0.127 S 
ATOM     86  O   UNL A   1      45.593  25.320  38.593  1.00  0.00    -0.237 OA
ATOM     87  O   UNL A   1      46.013  27.745  38.424  1.00  0.00    -0.237 OA
ATOM     88  O   UNL A   1      44.243  26.925  39.907  1.00  0.00    -0.744 OA
ENDBRANCH  82  85
ENDBRANCH  64  78
BRANCH  65  89
ATOM     89  C   UNL A   1      43.678  23.155  27.487  1.00  0.00     0.023 A 
ATOM     90  C   UNL A   1      42.414  22.636  27.832  1.00  0.00     0.012 A 
ATOM     91  C   UNL A   1      44.401  22.503  26.462  1.00  0.00     0.148 A 
ATOM     92  C   UNL A   1      41.891  21.511  27.177  1.00  0.00     0.002 A 
ATOM     93  C   UNL A   1      43.887  21.375  25.828  1.00  0.00     0.091 A 
ATOM     94  F   UNL A   1      45.553  23.041  26.039  1.00  0.00    -0.205 F 
ATOM     95  C   UNL A   1      42.626  20.881  26.176  1.00  0.00     0.022 A 
BRANCH  93  96
ATOM     96  S   UNL A   1      44.786  20.525  24.521  1.00  0.00     0.127 S 
ATOM     97  O   UNL A   1      44.724  21.498  23.429  1.00  0.00    -0.237 OA
ATOM     98  O   UNL A   1      46.107  20.360  25.120  1.00  0.00    -0.237 OA
ATOM     99  O   UNL A   1      44.047  19.295  24.266  1.00  0.00    -0.744 OA
ENDBRANCH  93  96
ENDBRANCH  65  89
BRANCH  77 100
ATOM    100  C   UNL A   1      47.278  27.937  29.444  1.00  0.00     0.023 A 
ATOM    101  C   UNL A   1      48.645  27.685  29.202  1.00  0.00     0.012 A 
ATOM    102  C   UNL A   1      46.524  28.597  28.460  1.00  0.00     0.148 A 
ATOM    103  C   UNL A   1      49.246  28.084  28.003  1.00  0.00     0.002 A 
ATOM    104  C   UNL A   1      47.109  28.939  27.249  1.00  0.00     0.091 A 
ATOM    105  F   UNL A   1      45.225  28.824  28.709  1.00  0.00    -0.205 F 
ATOM    106  C   UNL A   1      48.471  28.693  27.018  1.00  0.00     0.022 A 
BRANCH 104 107
ATOM    107  S   UNL A   1      46.128  29.572  25.888  1.00  0.00     0.127 S 
ATOM    108  O   UNL A   1      46.651  28.809  24.756  1.00  0.00    -0.237 OA
ATOM    109  O   UNL A   1      44.766  29.216  26.291  1.00  0.00    -0.237 OA
ATOM    110  O   UNL A   1      46.378  31.008  25.845  1.00  0.00    -0.744 OA
ENDBRANCH 104 107
ENDBRANCH  77 100
ENDBRANCH  51  52
ENDBRANCH  44  46
ENDBRANCH  43  44
ENDBRANCH  42  43
ENDBRANCH  41  42
ENDBRANCH  40  41
ENDBRANCH   1  40
TORSDOF 24
ENDMDL
