MODEL 1
REMARK VINA RESULT:     -11.5      0.000      0.000
REMARK SMILES Cc1ccccc1C(=O)Nc1ccc(OCC(=O)OCCOCCOCCOC(=O)c2ccc(-c3c4nc(c(-c5cccc(S(=O)(=O)[O-])c5F)c5ccc([nH]5)c(-c5cccc(S(=O)(=O)[O-])c5F)c5nc(c(-c6cccc(S(=O)(=O)[O-])c6F)c6ccc3[nH]6)C=C5)C=C4)cc2)c(-c2nc3ccccc3s2)c1
REMARK SMILES IDX 23 1 22 2 21 3 20 4 19 5 17 6 18 7 16 8 15 9 14 10 11 11
REMARK SMILES IDX 12 12 104 13 13 14 94 15 10 16 8 17 9 18 7 20 1 21 2 22 3 23
REMARK SMILES IDX 4 24 6 25 5 26 95 27 96 28 103 29 97 30 102 31 98 32 101 33
REMARK SMILES IDX 99 34 100 35 24 36 25 37 26 38 27 39 28 40 29 41 30 42 31 43
REMARK SMILES IDX 32 44 93 45 33 46 92 47 34 48 35 49 36 50 86 51 37 52 91 53
REMARK SMILES IDX 85 54 87 55 38 56 90 57 84 58 83 59 39 61 71 62 51 63 70 64
REMARK SMILES IDX 52 65 55 66 69 67 88 68 53 69 54 70 68 72 89 73 56 74 40 75
REMARK SMILES IDX 41 76 49 77 42 78 44 79 50 80 43 81 45 82 46 83 47 84 48 85
REMARK SMILES IDX 72 86 73 87 81 88 74 89 76 90 82 91 75 92 77 93 78 94 79 95
REMARK SMILES IDX 80 96 57 97 58 98 66 99 59 100 61 101 67 102 60 103 62 104
REMARK SMILES IDX 63 105 64 106 65 107
REMARK H PARENT 10 19 87 60 55 71
REMARK Flexibility Score: inf
ROOT
ATOM      1  C   UNL A   1      34.936  22.990  23.009  1.00  0.00     0.188 C 
ENDROOT
BRANCH   1   2
ATOM      2  O   UNL A   1      33.632  23.583  22.868  1.00  0.00    -0.376 OA
BRANCH   2   3
ATOM      3  C   UNL A   1      33.494  24.904  22.201  1.00  0.00     0.202 C 
BRANCH   3   4
ATOM      4  C   UNL A   1      32.109  25.847  21.512  1.00  0.00     0.261 C 
BRANCH   4   5
ATOM      5  O   UNL A   1      31.044  27.317  21.683  1.00  0.00    -0.461 OA
BRANCH   5   6
ATOM      6  C   UNL A   1      30.142  28.233  22.579  1.00  0.00     0.344 C 
ATOM      7  O   UNL A   1      29.212  27.964  23.363  1.00  0.00    -0.248 OA
BRANCH   6   8
ATOM      8  C   UNL A   1      30.512  29.646  22.811  1.00  0.00     0.352 C 
BRANCH   8   9
ATOM      9  O   UNL A   1      30.522  29.975  24.159  1.00  0.00    -0.481 OA
BRANCH   9  10
ATOM     10  C   UNL A   1      31.254  29.114  25.042  1.00  0.00     0.130 A 
ATOM     11  C   UNL A   1      34.297  28.948  27.113  1.00  0.00     0.042 A 
ATOM     12  C   UNL A   1      33.084  30.214  27.282  1.00  0.00     0.030 A 
ATOM     13  C   UNL A   1      34.013  27.603  26.122  1.00  0.00     0.041 A 
ATOM     14  C   UNL A   1      31.603  30.346  26.331  1.00  0.00     0.049 A 
ATOM     15  C   UNL A   1      32.628  27.519  24.918  1.00  0.00     0.055 A 
BRANCH  11  16
ATOM     16  N   UNL A   1      35.693  29.336  27.432  1.00  0.00    -0.322 N 
ATOM     17  C   UNL A   1      36.463  30.447  27.940  1.00  0.00     0.255 C 
ATOM     18  O   UNL A   1      37.690  30.382  27.765  1.00  0.00    -0.269 OA
ATOM     19  H   UNL A   1      36.295  28.584  27.232  1.00  0.00     0.170 HD
BRANCH  17  20
ATOM     20  C   UNL A   1      36.068  31.593  28.872  1.00  0.00     0.043 A 
ATOM     21  C   UNL A   1      36.440  30.135  30.835  1.00  0.00     0.045 C 
ATOM     22  C   UNL A   1      35.821  31.351  30.201  1.00  0.00    -0.038 A 
ATOM     23  C   UNL A   1      35.050  32.331  30.887  1.00  0.00     0.004 A 
ATOM     24  C   UNL A   1      35.039  33.656  30.545  1.00  0.00     0.000 A 
ATOM     25  C   UNL A   1      36.398  32.955  28.694  1.00  0.00     0.014 A 
ATOM     26  C   UNL A   1      35.918  33.987  29.556  1.00  0.00     0.001 A 
ENDBRANCH  17  20
ENDBRANCH  11  16
BRANCH  15  27
ATOM     27  C   UNL A   1      32.428  25.763  25.460  1.00  0.00     0.128 A 
ATOM     28  N   UNL A   1      33.303  24.910  26.637  1.00  0.00    -0.236 NA
ATOM     29  S   UNL A   1      30.852  24.316  24.618  1.00  0.00    -0.114 S 
ATOM     30  C   UNL A   1      33.096  22.992  26.728  1.00  0.00     0.082 A 
ATOM     31  C   UNL A   1      31.766  22.498  25.726  1.00  0.00     0.055 A 
ATOM     32  C   UNL A   1      33.952  21.972  27.160  1.00  0.00     0.030 A 
ATOM     33  C   UNL A   1      31.586  21.140  25.394  1.00  0.00     0.021 A 
ATOM     34  C   UNL A   1      33.772  20.704  26.549  1.00  0.00     0.002 A 
ATOM     35  C   UNL A   1      32.683  20.322  25.711  1.00  0.00     0.002 A 
ENDBRANCH  15  27
ENDBRANCH   9  10
ENDBRANCH   8   9
ENDBRANCH   6   8
ENDBRANCH   5   6
ENDBRANCH   4   5
ENDBRANCH   3   4
ENDBRANCH   2   3
ENDBRANCH   1   2
BRANCH   1  36
ATOM     36  C   UNL A   1      35.462  23.626  24.199  1.00  0.00     0.188 C 
BRANCH  36  37
ATOM     37  O   UNL A   1      36.351  22.926  25.031  1.00  0.00    -0.376 OA
BRANCH  37  38
ATOM     38  C   UNL A   1      37.182  23.590  25.936  1.00  0.00     0.202 C 
BRANCH  38  39
ATOM     39  C   UNL A   1      38.598  23.895  25.480  1.00  0.00     0.261 C 
BRANCH  39  40
ATOM     40  O   UNL A   1      39.496  24.709  26.361  1.00  0.00    -0.460 OA
BRANCH  40  41
ATOM     41  C   UNL A   1      39.940  24.431  27.709  1.00  0.00     0.338 C 
ATOM     42  O   UNL A   1      39.417  24.979  28.675  1.00  0.00    -0.246 OA
BRANCH  41  43
ATOM     43  C   UNL A   1      41.530  23.752  27.766  1.00  0.00     0.060 A 
ATOM     44  C   UNL A   1      42.874  23.095  29.175  1.00  0.00     0.016 A 
ATOM     45  C   UNL A   1      41.666  25.255  27.151  1.00  0.00     0.016 A 
ATOM     46  C   UNL A   1      44.001  24.538  29.758  1.00  0.00     0.010 A 
ATOM     47  C   UNL A   1      42.414  26.333  27.981  1.00  0.00     0.010 A 
ATOM     48  C   UNL A   1      43.532  26.260  29.309  1.00  0.00    -0.014 A 
BRANCH  48  49
ATOM     49  C   UNL A   1      43.892  28.018  29.761  1.00  0.00     0.031 A 
ATOM     50  C   UNL A   1      42.671  29.266  30.285  1.00  0.00     0.074 A 
ATOM     51  C   UNL A   1      45.149  28.478  30.141  1.00  0.00     0.049 A 
ATOM     52  N   UNL A   1      42.284  30.316  29.579  1.00  0.00    -0.248 NA
ATOM     53  C   UNL A   1      41.516  29.165  31.477  1.00  0.00     0.031 C 
ATOM     54  C   UNL A   1      45.485  29.670  30.974  1.00  0.00     0.029 A 
ATOM     55  N   UNL A   1      46.439  27.942  30.029  1.00  0.00    -0.354 N 
ATOM     56  C   UNL A   1      41.149  30.813  30.304  1.00  0.00     0.074 A 
ATOM     57  C   UNL A   1      40.507  29.668  30.788  1.00  0.00     0.031 C 
ATOM     58  C   UNL A   1      46.817  29.874  31.089  1.00  0.00     0.029 A 
ATOM     59  C   UNL A   1      47.429  28.974  30.160  1.00  0.00     0.049 A 
ATOM     60  H   UNL A   1      46.639  26.990  29.880  1.00  0.00     0.167 HD
ATOM     61  C   UNL A   1      41.233  31.823  31.255  1.00  0.00     0.034 A 
ATOM     62  C   UNL A   1      48.224  29.331  29.113  1.00  0.00     0.034 A 
ATOM     63  C   UNL A   1      42.616  32.329  31.274  1.00  0.00     0.049 A 
ATOM     64  C   UNL A   1      47.648  30.636  28.524  1.00  0.00     0.074 A 
ATOM     65  C   UNL A   1      43.683  32.427  32.147  1.00  0.00     0.029 A 
ATOM     66  N   UNL A   1      43.183  32.494  30.030  1.00  0.00    -0.354 N 
ATOM     67  N   UNL A   1      46.766  31.384  29.140  1.00  0.00    -0.248 NA
ATOM     68  C   UNL A   1      47.947  31.171  27.203  1.00  0.00     0.031 C 
ATOM     69  C   UNL A   1      44.866  32.733  31.356  1.00  0.00     0.029 A 
ATOM     70  C   UNL A   1      44.514  32.796  30.015  1.00  0.00     0.049 A 
ATOM     71  H   UNL A   1      42.660  32.400  29.201  1.00  0.00     0.167 HD
ATOM     72  C   UNL A   1      46.187  32.285  28.295  1.00  0.00     0.074 A 
ATOM     73  C   UNL A   1      47.006  32.129  27.090  1.00  0.00     0.031 C 
ATOM     74  C   UNL A   1      45.085  33.031  28.673  1.00  0.00     0.034 A 
BRANCH  61  75
ATOM     75  C   UNL A   1      40.146  32.077  32.394  1.00  0.00     0.023 A 
ATOM     76  C   UNL A   1      39.089  32.916  32.004  1.00  0.00     0.012 A 
ATOM     77  C   UNL A   1      40.019  31.572  33.749  1.00  0.00     0.148 A 
ATOM     78  C   UNL A   1      37.996  33.211  32.841  1.00  0.00     0.002 A 
ATOM     79  C   UNL A   1      38.935  31.882  34.591  1.00  0.00     0.091 A 
ATOM     80  F   UNL A   1      40.925  30.768  34.299  1.00  0.00    -0.205 F 
ATOM     81  C   UNL A   1      37.912  32.695  34.127  1.00  0.00     0.022 A 
BRANCH  79  82
ATOM     82  S   UNL A   1      38.769  31.270  36.300  1.00  0.00     0.127 S 
ATOM     83  O   UNL A   1      39.065  29.842  36.147  1.00  0.00    -0.237 OA
ATOM     84  O   UNL A   1      39.802  32.025  37.006  1.00  0.00    -0.237 OA
ATOM     85  O   UNL A   1      37.400  31.546  36.719  1.00  0.00    -0.744 OA
ENDBRANCH  79  82
ENDBRANCH  61  75
BRANCH  62  86
ATOM     86  C   UNL A   1      48.515  28.033  28.408  1.00  0.00     0.023 A 
ATOM     87  C   UNL A   1      47.509  27.450  27.611  1.00  0.00     0.012 A 
ATOM     88  C   UNL A   1      49.884  27.852  28.079  1.00  0.00     0.148 A 
ATOM     89  C   UNL A   1      47.825  26.896  26.379  1.00  0.00     0.002 A 
ATOM     90  C   UNL A   1      50.452  27.125  26.835  1.00  0.00     0.091 A 
ATOM     91  F   UNL A   1      50.656  28.495  28.990  1.00  0.00    -0.205 F 
ATOM     92  C   UNL A   1      49.162  26.796  25.971  1.00  0.00     0.022 A 
BRANCH  90  93
ATOM     93  S   UNL A   1      52.738  25.935  26.480  1.00  0.00     0.127 S 
ATOM     94  O   UNL A   1      52.558  24.503  26.060  1.00  0.00    -0.237 OA
ATOM     95  O   UNL A   1      53.584  26.574  25.450  1.00  0.00    -0.237 OA
ATOM     96  O   UNL A   1      53.566  25.886  27.727  1.00  0.00    -0.744 OA
ENDBRANCH  90  93
ENDBRANCH  62  86
BRANCH  74  97
ATOM     97  C   UNL A   1      44.341  34.052  27.773  1.00  0.00     0.023 A 
ATOM     98  C   UNL A   1      43.840  33.669  26.526  1.00  0.00     0.012 A 
ATOM     99  C   UNL A   1      44.197  35.449  28.067  1.00  0.00     0.148 A 
ATOM    100  C   UNL A   1      43.185  34.561  25.668  1.00  0.00     0.002 A 
ATOM    101  C   UNL A   1      43.541  36.336  27.226  1.00  0.00     0.091 A 
ATOM    102  F   UNL A   1      44.767  36.008  29.133  1.00  0.00    -0.205 F 
ATOM    103  C   UNL A   1      43.028  35.891  26.019  1.00  0.00     0.022 A 
BRANCH 101 104
ATOM    104  S   UNL A   1      43.399  38.090  27.618  1.00  0.00     0.127 S 
ATOM    105  O   UNL A   1      42.720  38.594  26.424  1.00  0.00    -0.237 OA
ATOM    106  O   UNL A   1      42.575  38.061  28.825  1.00  0.00    -0.237 OA
ATOM    107  O   UNL A   1      44.752  38.590  27.821  1.00  0.00    -0.744 OA
ENDBRANCH 101 104
ENDBRANCH  74  97
ENDBRANCH  48  49
ENDBRANCH  41  43
ENDBRANCH  40  41
ENDBRANCH  39  40
ENDBRANCH  38  39
ENDBRANCH  37  38
ENDBRANCH  36  37
ENDBRANCH   1  36
TORSDOF 25
ENDMDL
MODEL 2
REMARK VINA RESULT:     -11.3     10.318     15.984
REMARK SMILES Cc1ccccc1C(=O)Nc1ccc(OCC(=O)OCCOCCOCCOC(=O)c2ccc(-c3c4nc(c(-c5cccc(S(=O)(=O)[O-])c5F)c5ccc([nH]5)c(-c5cccc(S(=O)(=O)[O-])c5F)c5nc(c(-c6cccc(S(=O)(=O)[O-])c6F)c6ccc3[nH]6)C=C5)C=C4)cc2)c(-c2nc3ccccc3s2)c1
REMARK SMILES IDX 23 1 22 2 21 3 20 4 19 5 17 6 18 7 16 8 15 9 14 10 11 11
REMARK SMILES IDX 12 12 104 13 13 14 94 15 10 16 8 17 9 18 7 20 1 21 2 22 3 23
REMARK SMILES IDX 4 24 6 25 5 26 95 27 96 28 103 29 97 30 102 31 98 32 101 33
REMARK SMILES IDX 99 34 100 35 24 36 25 37 26 38 27 39 28 40 29 41 30 42 31 43
REMARK SMILES IDX 32 44 93 45 33 46 92 47 34 48 35 49 36 50 86 51 37 52 91 53
REMARK SMILES IDX 85 54 87 55 38 56 90 57 84 58 83 59 39 61 71 62 51 63 70 64
REMARK SMILES IDX 52 65 55 66 69 67 88 68 53 69 54 70 68 72 89 73 56 74 40 75
REMARK SMILES IDX 41 76 49 77 42 78 44 79 50 80 43 81 45 82 46 83 47 84 48 85
REMARK SMILES IDX 72 86 73 87 81 88 74 89 76 90 82 91 75 92 77 93 78 94 79 95
REMARK SMILES IDX 80 96 57 97 58 98 66 99 59 100 61 101 67 102 60 103 62 104
REMARK SMILES IDX 63 105 64 106 65 107
REMARK H PARENT 10 19 87 60 55 71
REMARK Flexibility Score: inf
ROOT
ATOM      1  C   UNL A   1      45.211  23.318  35.215  1.00  0.00     0.188 C 
ENDROOT
BRANCH   1   2
ATOM      2  O   UNL A   1      45.525  22.031  34.653  1.00  0.00    -0.376 OA
BRANCH   2   3
ATOM      3  C   UNL A   1      46.273  21.036  35.466  1.00  0.00     0.202 C 
BRANCH   3   4
ATOM      4  C   UNL A   1      45.810  19.766  36.670  1.00  0.00     0.261 C 
BRANCH   4   5
ATOM      5  O   UNL A   1      45.909  19.218  38.407  1.00  0.00    -0.461 OA
BRANCH   5   6
ATOM      6  C   UNL A   1      46.675  19.197  39.774  1.00  0.00     0.344 C 
ATOM      7  O   UNL A   1      46.864  20.083  40.629  1.00  0.00    -0.248 OA
BRANCH   6   8
ATOM      8  C   UNL A   1      47.077  17.911  40.382  1.00  0.00     0.352 C 
BRANCH   8   9
ATOM      9  O   UNL A   1      47.719  18.081  41.601  1.00  0.00    -0.481 OA
BRANCH   9  10
ATOM     10  C   UNL A   1      47.100  17.501  42.758  1.00  0.00     0.130 A 
ATOM     11  C   UNL A   1      47.556  16.996  46.379  1.00  0.00     0.042 A 
ATOM     12  C   UNL A   1      47.593  18.583  45.615  1.00  0.00     0.030 A 
ATOM     13  C   UNL A   1      47.086  15.624  45.504  1.00  0.00     0.041 A 
ATOM     14  C   UNL A   1      47.374  18.894  43.891  1.00  0.00     0.049 A 
ATOM     15  C   UNL A   1      46.919  15.610  43.675  1.00  0.00     0.055 A 
BRANCH  11  16
ATOM     16  N   UNL A   1      48.400  16.835  47.589  1.00  0.00    -0.322 N 
ATOM     17  C   UNL A   1      49.636  17.306  48.168  1.00  0.00     0.255 C 
ATOM     18  O   UNL A   1      50.074  16.646  49.124  1.00  0.00    -0.269 OA
ATOM     19  H   UNL A   1      47.975  16.194  48.202  1.00  0.00     0.170 HD
BRANCH  17  20
ATOM     20  C   UNL A   1      50.396  18.618  47.971  1.00  0.00     0.043 A 
ATOM     21  C   UNL A   1      51.324  17.771  45.842  1.00  0.00     0.045 C 
ATOM     22  C   UNL A   1      51.373  18.716  47.011  1.00  0.00    -0.038 A 
ATOM     23  C   UNL A   1      52.314  19.770  47.174  1.00  0.00     0.004 A 
ATOM     24  C   UNL A   1      52.022  20.951  47.801  1.00  0.00     0.000 A 
ATOM     25  C   UNL A   1      49.914  19.908  48.287  1.00  0.00     0.014 A 
ATOM     26  C   UNL A   1      50.714  21.085  48.162  1.00  0.00     0.001 A 
ENDBRANCH  17  20
ENDBRANCH  11  16
BRANCH  15  27
ATOM     27  C   UNL A   1      45.403  14.586  43.945  1.00  0.00     0.128 A 
ATOM     28  N   UNL A   1      45.291  12.964  44.428  1.00  0.00    -0.236 NA
ATOM     29  S   UNL A   1      43.252  15.359  43.689  1.00  0.00    -0.114 S 
ATOM     30  C   UNL A   1      43.582  12.075  44.281  1.00  0.00     0.082 A 
ATOM     31  C   UNL A   1      42.344  13.241  43.933  1.00  0.00     0.055 A 
ATOM     32  C   UNL A   1      43.233  10.733  44.094  1.00  0.00     0.030 A 
ATOM     33  C   UNL A   1      41.069  12.824  43.497  1.00  0.00     0.021 A 
ATOM     34  C   UNL A   1      42.002  10.493  43.431  1.00  0.00     0.002 A 
ATOM     35  C   UNL A   1      41.003  11.468  43.134  1.00  0.00     0.002 A 
ENDBRANCH  15  27
ENDBRANCH   9  10
ENDBRANCH   8   9
ENDBRANCH   6   8
ENDBRANCH   5   6
ENDBRANCH   4   5
ENDBRANCH   3   4
ENDBRANCH   2   3
ENDBRANCH   1   2
BRANCH   1  36
ATOM     36  C   UNL A   1      45.273  24.204  34.072  1.00  0.00     0.188 C 
BRANCH  36  37
ATOM     37  O   UNL A   1      46.519  24.567  33.536  1.00  0.00    -0.376 OA
BRANCH  37  38
ATOM     38  C   UNL A   1      47.399  25.401  34.230  1.00  0.00     0.202 C 
BRANCH  38  39
ATOM     39  C   UNL A   1      48.878  25.256  33.921  1.00  0.00     0.261 C 
BRANCH  39  40
ATOM     40  O   UNL A   1      49.383  25.611  32.554  1.00  0.00    -0.460 OA
BRANCH  40  41
ATOM     41  C   UNL A   1      50.607  26.285  32.185  1.00  0.00     0.338 C 
ATOM     42  O   UNL A   1      51.697  25.734  32.309  1.00  0.00    -0.246 OA
BRANCH  41  43
ATOM     43  C   UNL A   1      50.431  28.004  32.111  1.00  0.00     0.060 A 
ATOM     44  C   UNL A   1      49.155  29.453  32.818  1.00  0.00     0.016 A 
ATOM     45  C   UNL A   1      50.252  27.432  30.596  1.00  0.00     0.016 A 
ATOM     46  C   UNL A   1      47.711  29.742  31.583  1.00  0.00     0.010 A 
ATOM     47  C   UNL A   1      48.861  27.553  29.915  1.00  0.00     0.010 A 
ATOM     48  C   UNL A   1      47.456  28.527  30.224  1.00  0.00    -0.014 A 
BRANCH  48  49
ATOM     49  C   UNL A   1      46.193  27.998  28.981  1.00  0.00     0.031 A 
ATOM     50  C   UNL A   1      44.395  27.880  29.258  1.00  0.00     0.074 A 
ATOM     51  C   UNL A   1      46.402  28.017  27.606  1.00  0.00     0.049 A 
ATOM     52  N   UNL A   1      43.693  26.759  29.333  1.00  0.00    -0.248 NA
ATOM     53  C   UNL A   1      43.353  29.019  29.876  1.00  0.00     0.031 C 
ATOM     54  C   UNL A   1      45.385  28.105  26.516  1.00  0.00     0.029 A 
ATOM     55  N   UNL A   1      47.554  28.122  26.814  1.00  0.00    -0.354 N 
ATOM     56  C   UNL A   1      42.412  27.192  29.815  1.00  0.00     0.074 A 
ATOM     57  C   UNL A   1      42.700  28.229  30.709  1.00  0.00     0.031 C 
ATOM     58  C   UNL A   1      45.930  28.024  25.281  1.00  0.00     0.029 A 
ATOM     59  C   UNL A   1      47.296  27.652  25.482  1.00  0.00     0.049 A 
ATOM     60  H   UNL A   1      48.419  28.468  27.128  1.00  0.00     0.167 HD
ATOM     61  C   UNL A   1      41.342  27.488  28.978  1.00  0.00     0.034 A 
ATOM     62  C   UNL A   1      47.893  26.525  25.000  1.00  0.00     0.034 A 
ATOM     63  C   UNL A   1      41.732  27.168  27.594  1.00  0.00     0.049 A 
ATOM     64  C   UNL A   1      46.854  25.387  25.077  1.00  0.00     0.074 A 
ATOM     65  C   UNL A   1      41.905  27.807  26.381  1.00  0.00     0.029 A 
ATOM     66  N   UNL A   1      42.421  25.984  27.453  1.00  0.00    -0.354 N 
ATOM     67  N   UNL A   1      45.573  25.583  25.271  1.00  0.00    -0.248 NA
ATOM     68  C   UNL A   1      47.156  23.964  25.015  1.00  0.00     0.031 C 
ATOM     69  C   UNL A   1      42.652  26.905  25.517  1.00  0.00     0.029 A 
ATOM     70  C   UNL A   1      42.945  25.742  26.216  1.00  0.00     0.049 A 
ATOM     71  H   UNL A   1      42.529  25.351  28.199  1.00  0.00     0.167 HD
ATOM     72  C   UNL A   1      44.931  24.431  25.617  1.00  0.00     0.074 A 
ATOM     73  C   UNL A   1      45.978  23.431  25.399  1.00  0.00     0.031 C 
ATOM     74  C   UNL A   1      43.623  24.438  26.071  1.00  0.00     0.034 A 
BRANCH  61  75
ATOM     75  C   UNL A   1      40.101  28.398  29.396  1.00  0.00     0.023 A 
ATOM     76  C   UNL A   1      39.558  29.151  28.341  1.00  0.00     0.012 A 
ATOM     77  C   UNL A   1      39.397  28.567  30.654  1.00  0.00     0.148 A 
ATOM     78  C   UNL A   1      38.420  29.966  28.489  1.00  0.00     0.002 A 
ATOM     79  C   UNL A   1      38.270  29.395  30.804  1.00  0.00     0.091 A 
ATOM     80  F   UNL A   1      39.766  27.941  31.769  1.00  0.00    -0.205 F 
ATOM     81  C   UNL A   1      37.772  30.087  29.710  1.00  0.00     0.022 A 
BRANCH  79  82
ATOM     82  S   UNL A   1      37.385  29.631  32.381  1.00  0.00     0.127 S 
ATOM     83  O   UNL A   1      38.241  30.597  33.075  1.00  0.00    -0.237 OA
ATOM     84  O   UNL A   1      36.101  30.174  31.942  1.00  0.00    -0.237 OA
ATOM     85  O   UNL A   1      37.320  28.328  33.031  1.00  0.00    -0.744 OA
ENDBRANCH  79  82
ENDBRANCH  61  75
BRANCH  62  86
ATOM     86  C   UNL A   1      49.284  26.567  25.576  1.00  0.00     0.023 A 
ATOM     87  C   UNL A   1      49.532  25.923  26.805  1.00  0.00     0.012 A 
ATOM     88  C   UNL A   1      50.309  26.661  24.597  1.00  0.00     0.148 A 
ATOM     89  C   UNL A   1      50.687  25.177  26.984  1.00  0.00     0.002 A 
ATOM     90  C   UNL A   1      51.724  26.038  24.673  1.00  0.00     0.091 A 
ATOM     91  F   UNL A   1      49.837  27.325  23.512  1.00  0.00    -0.205 F 
ATOM     92  C   UNL A   1      51.678  25.160  25.994  1.00  0.00     0.022 A 
BRANCH  90  93
ATOM     93  S   UNL A   1      53.945  26.766  23.529  1.00  0.00     0.127 S 
ATOM     94  O   UNL A   1      55.137  26.101  24.159  1.00  0.00    -0.237 OA
ATOM     95  O   UNL A   1      53.999  26.450  22.086  1.00  0.00    -0.237 OA
ATOM     96  O   UNL A   1      54.201  28.237  23.643  1.00  0.00    -0.744 OA
ENDBRANCH  90  93
ENDBRANCH  62  86
BRANCH  74  97
ATOM     97  C   UNL A   1      42.823  23.187  26.518  1.00  0.00     0.023 A 
ATOM     98  C   UNL A   1      41.891  23.271  27.555  1.00  0.00     0.012 A 
ATOM     99  C   UNL A   1      43.030  21.860  26.011  1.00  0.00     0.148 A 
ATOM    100  C   UNL A   1      41.164  22.164  28.010  1.00  0.00     0.002 A 
ATOM    101  C   UNL A   1      42.307  20.761  26.450  1.00  0.00     0.091 A 
ATOM    102  F   UNL A   1      44.000  21.580  25.143  1.00  0.00    -0.205 F 
ATOM    103  C   UNL A   1      41.365  20.911  27.454  1.00  0.00     0.022 A 
BRANCH 101 104
ATOM    104  S   UNL A   1      42.609  19.104  25.806  1.00  0.00     0.127 S 
ATOM    105  O   UNL A   1      41.250  18.566  25.757  1.00  0.00    -0.237 OA
ATOM    106  O   UNL A   1      43.202  19.394  24.502  1.00  0.00    -0.237 OA
ATOM    107  O   UNL A   1      43.506  18.443  26.744  1.00  0.00    -0.744 OA
ENDBRANCH 101 104
ENDBRANCH  74  97
ENDBRANCH  48  49
ENDBRANCH  41  43
ENDBRANCH  40  41
ENDBRANCH  39  40
ENDBRANCH  38  39
ENDBRANCH  37  38
ENDBRANCH  36  37
ENDBRANCH   1  36
TORSDOF 25
ENDMDL
MODEL 3
REMARK VINA RESULT:     -11.1      4.327      7.646
REMARK SMILES Cc1ccccc1C(=O)Nc1ccc(OCC(=O)OCCOCCOCCOC(=O)c2ccc(-c3c4nc(c(-c5cccc(S(=O)(=O)[O-])c5F)c5ccc([nH]5)c(-c5cccc(S(=O)(=O)[O-])c5F)c5nc(c(-c6cccc(S(=O)(=O)[O-])c6F)c6ccc3[nH]6)C=C5)C=C4)cc2)c(-c2nc3ccccc3s2)c1
REMARK SMILES IDX 23 1 22 2 21 3 20 4 19 5 17 6 18 7 16 8 15 9 14 10 11 11
REMARK SMILES IDX 12 12 104 13 13 14 94 15 10 16 8 17 9 18 7 20 1 21 2 22 3 23
REMARK SMILES IDX 4 24 6 25 5 26 95 27 96 28 103 29 97 30 102 31 98 32 101 33
REMARK SMILES IDX 99 34 100 35 24 36 25 37 26 38 27 39 28 40 29 41 30 42 31 43
REMARK SMILES IDX 32 44 93 45 33 46 92 47 34 48 35 49 36 50 86 51 37 52 91 53
REMARK SMILES IDX 85 54 87 55 38 56 90 57 84 58 83 59 39 61 71 62 51 63 70 64
REMARK SMILES IDX 52 65 55 66 69 67 88 68 53 69 54 70 68 72 89 73 56 74 40 75
REMARK SMILES IDX 41 76 49 77 42 78 44 79 50 80 43 81 45 82 46 83 47 84 48 85
REMARK SMILES IDX 72 86 73 87 81 88 74 89 76 90 82 91 75 92 77 93 78 94 79 95
REMARK SMILES IDX 80 96 57 97 58 98 66 99 59 100 61 101 67 102 60 103 62 104
REMARK SMILES IDX 63 105 64 106 65 107
REMARK H PARENT 10 19 87 60 55 71
REMARK Flexibility Score: inf
ROOT
ATOM      1  C   UNL A   1      39.342  25.843  28.600  1.00  0.00     0.188 C 
ENDROOT
BRANCH   1   2
ATOM      2  O   UNL A   1      40.076  27.039  28.285  1.00  0.00    -0.376 OA
BRANCH   2   3
ATOM      3  C   UNL A   1      39.447  28.368  28.509  1.00  0.00     0.202 C 
BRANCH   3   4
ATOM      4  C   UNL A   1      37.804  29.069  28.211  1.00  0.00     0.261 C 
BRANCH   4   5
ATOM      5  O   UNL A   1      36.233  28.910  27.298  1.00  0.00    -0.461 OA
BRANCH   5   6
ATOM      6  C   UNL A   1      34.689  29.162  27.215  1.00  0.00     0.344 C 
ATOM      7  O   UNL A   1      33.784  29.035  28.061  1.00  0.00    -0.248 OA
BRANCH   6   8
ATOM      8  C   UNL A   1      34.117  29.909  26.074  1.00  0.00     0.352 C 
BRANCH   8   9
ATOM      9  O   UNL A   1      34.333  29.269  24.862  1.00  0.00    -0.481 OA
BRANCH   9  10
ATOM     10  C   UNL A   1      33.448  28.195  24.517  1.00  0.00     0.130 A 
ATOM     11  C   UNL A   1      30.014  27.478  23.388  1.00  0.00     0.042 A 
ATOM     12  C   UNL A   1      31.108  28.555  22.524  1.00  0.00     0.030 A 
ATOM     13  C   UNL A   1      30.569  26.536  24.682  1.00  0.00     0.041 A 
ATOM     14  C   UNL A   1      32.763  28.934  23.005  1.00  0.00     0.049 A 
ATOM     15  C   UNL A   1      32.199  26.800  25.488  1.00  0.00     0.055 A 
BRANCH  11  16
ATOM     16  N   UNL A   1      28.569  27.798  23.287  1.00  0.00    -0.322 N 
ATOM     17  C   UNL A   1      27.676  28.918  23.097  1.00  0.00     0.255 C 
ATOM     18  O   UNL A   1      26.482  28.711  23.368  1.00  0.00    -0.269 OA
ATOM     19  H   UNL A   1      28.043  26.972  23.381  1.00  0.00     0.170 HD
BRANCH  17  20
ATOM     20  C   UNL A   1      27.889  30.257  22.393  1.00  0.00     0.043 A 
ATOM     21  C   UNL A   1      29.363  31.000  24.234  1.00  0.00     0.045 C 
ATOM     22  C   UNL A   1      28.473  31.306  23.060  1.00  0.00    -0.038 A 
ATOM     23  C   UNL A   1      28.240  32.603  22.524  1.00  0.00     0.004 A 
ATOM     24  C   UNL A   1      28.013  32.839  21.195  1.00  0.00     0.000 A 
ATOM     25  C   UNL A   1      28.034  30.446  21.000  1.00  0.00     0.014 A 
ATOM     26  C   UNL A   1      28.138  31.738  20.400  1.00  0.00     0.001 A 
ENDBRANCH  17  20
ENDBRANCH  11  16
BRANCH  15  27
ATOM     27  C   UNL A   1      32.331  24.956  25.542  1.00  0.00     0.128 A 
ATOM     28  N   UNL A   1      33.442  23.998  26.392  1.00  0.00    -0.236 NA
ATOM     29  S   UNL A   1      30.925  23.521  24.425  1.00  0.00    -0.114 S 
ATOM     30  C   UNL A   1      33.548  22.116  25.970  1.00  0.00     0.082 A 
ATOM     31  C   UNL A   1      32.219  21.671  24.945  1.00  0.00     0.055 A 
ATOM     32  C   UNL A   1      34.592  21.188  26.060  1.00  0.00     0.030 A 
ATOM     33  C   UNL A   1      32.221  20.435  24.266  1.00  0.00     0.021 A 
ATOM     34  C   UNL A   1      34.553  20.111  25.138  1.00  0.00     0.002 A 
ATOM     35  C   UNL A   1      33.458  19.771  24.288  1.00  0.00     0.002 A 
ENDBRANCH  15  27
ENDBRANCH   9  10
ENDBRANCH   8   9
ENDBRANCH   6   8
ENDBRANCH   5   6
ENDBRANCH   4   5
ENDBRANCH   3   4
ENDBRANCH   2   3
ENDBRANCH   1   2
BRANCH   1  36
ATOM     36  C   UNL A   1      39.227  25.178  27.319  1.00  0.00     0.188 C 
BRANCH  36  37
ATOM     37  O   UNL A   1      40.363  24.610  26.721  1.00  0.00    -0.376 OA
BRANCH  37  38
ATOM     38  C   UNL A   1      41.118  23.630  27.370  1.00  0.00     0.202 C 
BRANCH  38  39
ATOM     39  C   UNL A   1      42.313  24.101  28.180  1.00  0.00     0.261 C 
BRANCH  39  40
ATOM     40  O   UNL A   1      43.593  24.437  27.476  1.00  0.00    -0.460 OA
BRANCH  40  41
ATOM     41  C   UNL A   1      43.883  25.552  26.602  1.00  0.00     0.338 C 
ATOM     42  O   UNL A   1      43.356  25.645  25.498  1.00  0.00    -0.246 OA
BRANCH  41  43
ATOM     43  C   UNL A   1      45.361  26.355  27.006  1.00  0.00     0.060 A 
ATOM     44  C   UNL A   1      46.906  26.153  28.346  1.00  0.00     0.016 A 
ATOM     45  C   UNL A   1      44.144  27.393  27.317  1.00  0.00     0.016 A 
ATOM     46  C   UNL A   1      46.517  27.103  29.972  1.00  0.00     0.010 A 
ATOM     47  C   UNL A   1      43.866  27.792  28.792  1.00  0.00     0.010 A 
ATOM     48  C   UNL A   1      44.801  27.705  30.253  1.00  0.00    -0.014 A 
BRANCH  48  49
ATOM     49  C   UNL A   1      43.693  28.327  31.597  1.00  0.00     0.031 A 
ATOM     50  C   UNL A   1      42.680  29.842  31.542  1.00  0.00     0.074 A 
ATOM     51  C   UNL A   1      43.195  27.530  32.622  1.00  0.00     0.049 A 
ATOM     52  N   UNL A   1      42.896  30.945  32.240  1.00  0.00    -0.248 NA
ATOM     53  C   UNL A   1      41.597  30.336  30.380  1.00  0.00     0.031 C 
ATOM     54  C   UNL A   1      41.962  27.736  33.441  1.00  0.00     0.029 A 
ATOM     55  N   UNL A   1      43.547  26.262  33.107  1.00  0.00    -0.354 N 
ATOM     56  C   UNL A   1      42.003  31.901  31.650  1.00  0.00     0.074 A 
ATOM     57  C   UNL A   1      42.000  31.590  30.285  1.00  0.00     0.031 C 
ATOM     58  C   UNL A   1      41.812  26.805  34.409  1.00  0.00     0.029 A 
ATOM     59  C   UNL A   1      43.039  26.071  34.437  1.00  0.00     0.049 A 
ATOM     60  H   UNL A   1      44.070  25.597  32.606  1.00  0.00     0.167 HD
ATOM     61  C   UNL A   1      40.728  32.162  32.142  1.00  0.00     0.034 A 
ATOM     62  C   UNL A   1      43.877  25.961  35.506  1.00  0.00     0.034 A 
ATOM     63  C   UNL A   1      40.546  31.394  33.386  1.00  0.00     0.049 A 
ATOM     64  C   UNL A   1      43.878  27.325  36.229  1.00  0.00     0.074 A 
ATOM     65  C   UNL A   1      39.736  30.394  33.889  1.00  0.00     0.029 A 
ATOM     66  N   UNL A   1      41.635  31.401  34.229  1.00  0.00    -0.354 N 
ATOM     67  N   UNL A   1      42.991  28.264  36.011  1.00  0.00    -0.248 NA
ATOM     68  C   UNL A   1      44.882  27.773  37.184  1.00  0.00     0.031 C 
ATOM     69  C   UNL A   1      40.369  29.887  35.098  1.00  0.00     0.029 A 
ATOM     70  C   UNL A   1      41.564  30.564  35.305  1.00  0.00     0.049 A 
ATOM     71  H   UNL A   1      42.417  31.976  34.066  1.00  0.00     0.167 HD
ATOM     72  C   UNL A   1      43.389  29.465  36.521  1.00  0.00     0.074 A 
ATOM     73  C   UNL A   1      44.577  29.082  37.288  1.00  0.00     0.031 C 
ATOM     74  C   UNL A   1      42.713  30.637  36.229  1.00  0.00     0.034 A 
BRANCH  61  75
ATOM     75  C   UNL A   1      39.555  32.825  31.291  1.00  0.00     0.023 A 
ATOM     76  C   UNL A   1      39.967  33.895  30.479  1.00  0.00     0.012 A 
ATOM     77  C   UNL A   1      38.145  32.507  31.163  1.00  0.00     0.148 A 
ATOM     78  C   UNL A   1      39.096  34.571  29.603  1.00  0.00     0.002 A 
ATOM     79  C   UNL A   1      37.272  33.195  30.300  1.00  0.00     0.091 A 
ATOM     80  F   UNL A   1      37.567  31.529  31.856  1.00  0.00    -0.205 F 
ATOM     81  C   UNL A   1      37.756  34.223  29.506  1.00  0.00     0.022 A 
BRANCH  79  82
ATOM     82  S   UNL A   1      35.495  32.818  30.141  1.00  0.00     0.127 S 
ATOM     83  O   UNL A   1      35.069  33.767  29.107  1.00  0.00    -0.237 OA
ATOM     84  O   UNL A   1      35.507  31.423  29.706  1.00  0.00    -0.237 OA
ATOM     85  O   UNL A   1      34.891  33.058  31.446  1.00  0.00    -0.744 OA
ENDBRANCH  79  82
ENDBRANCH  61  75
BRANCH  62  86
ATOM     86  C   UNL A   1      45.050  25.179  34.980  1.00  0.00     0.023 A 
ATOM     87  C   UNL A   1      46.210  25.873  34.583  1.00  0.00     0.012 A 
ATOM     88  C   UNL A   1      45.149  23.864  35.510  1.00  0.00     0.148 A 
ATOM     89  C   UNL A   1      47.466  25.387  34.915  1.00  0.00     0.002 A 
ATOM     90  C   UNL A   1      46.449  23.078  35.806  1.00  0.00     0.091 A 
ATOM     91  F   UNL A   1      43.908  23.404  35.809  1.00  0.00    -0.205 F 
ATOM     92  C   UNL A   1      47.599  24.138  35.536  1.00  0.00     0.022 A 
BRANCH  90  93
ATOM     93  S   UNL A   1      46.878  20.513  35.904  1.00  0.00     0.127 S 
ATOM     94  O   UNL A   1      48.038  20.180  36.800  1.00  0.00    -0.237 OA
ATOM     95  O   UNL A   1      45.722  19.739  36.403  1.00  0.00    -0.237 OA
ATOM     96  O   UNL A   1      47.223  19.932  34.568  1.00  0.00    -0.744 OA
ENDBRANCH  90  93
ENDBRANCH  62  86
BRANCH  74  97
ATOM     97  C   UNL A   1      43.109  32.049  36.733  1.00  0.00     0.023 A 
ATOM     98  C   UNL A   1      43.519  33.037  35.834  1.00  0.00     0.012 A 
ATOM     99  C   UNL A   1      43.196  32.430  38.113  1.00  0.00     0.148 A 
ATOM    100  C   UNL A   1      43.910  34.318  36.244  1.00  0.00     0.002 A 
ATOM    101  C   UNL A   1      43.573  33.699  38.526  1.00  0.00     0.091 A 
ATOM    102  F   UNL A   1      43.005  31.556  39.100  1.00  0.00    -0.205 F 
ATOM    103  C   UNL A   1      43.930  34.653  37.588  1.00  0.00     0.022 A 
BRANCH 101 104
ATOM    104  S   UNL A   1      43.692  34.136  40.272  1.00  0.00     0.127 S 
ATOM    105  O   UNL A   1      43.351  35.558  40.234  1.00  0.00    -0.237 OA
ATOM    106  O   UNL A   1      42.670  33.276  40.866  1.00  0.00    -0.237 OA
ATOM    107  O   UNL A   1      45.054  33.835  40.691  1.00  0.00    -0.744 OA
ENDBRANCH 101 104
ENDBRANCH  74  97
ENDBRANCH  48  49
ENDBRANCH  41  43
ENDBRANCH  40  41
ENDBRANCH  39  40
ENDBRANCH  38  39
ENDBRANCH  37  38
ENDBRANCH  36  37
ENDBRANCH   1  36
TORSDOF 25
ENDMDL
