MODEL 1
REMARK VINA RESULT:      -7.6      0.000      0.000
REMARK SMILES COc1ccc(-c2cc(C(F)(F)F)n3nc(C(=O)OCCOCCOCCOC(=O)c4ccc(-c5c6nc(c(-c7cccc(S(=O)(=O)[O-])c7F)c7ccc([nH]7)c(-c7cccc(S(=O)(=O)[O-])c7F)c7nc(c(-c8cccc(S(=O)(=O)[O-])c8F)c8ccc5[nH]8)C=C7)C=C6)cc4)cc3n2)cc1OC
REMARK SMILES IDX 24 1 23 2 22 3 21 4 20 5 19 6 17 7 18 8 16 9 7 10 8 11 96 12
REMARK SMILES IDX 9 13 95 14 14 15 94 16 15 17 6 18 3 19 4 20 98 21 5 22 97 23
REMARK SMILES IDX 2 24 1 25 99 26 100 27 10 28 11 29 12 30 13 31 25 32 26 33
REMARK SMILES IDX 27 34 28 35 29 36 30 37 31 38 32 39 93 40 33 41 92 42 34 43
REMARK SMILES IDX 35 44 36 45 86 46 37 47 91 48 85 49 87 50 38 51 90 52 84 53
REMARK SMILES IDX 83 54 39 56 71 57 51 58 70 59 52 60 55 61 69 62 88 63 53 64
REMARK SMILES IDX 54 65 68 67 89 68 56 69 40 70 41 71 49 72 42 73 44 74 50 75
REMARK SMILES IDX 43 76 45 77 46 78 47 79 48 80 72 81 73 82 81 83 74 84 76 85
REMARK SMILES IDX 82 86 75 87 77 88 78 89 79 90 80 91 57 92 58 93 66 94 59 95
REMARK SMILES IDX 61 96 67 97 60 98 62 99 63 100 64 101 65 102
REMARK H PARENT 87 55 55 66
REMARK Flexibility Score: inf
ROOT
ATOM      1  C   UNL A   1      37.816  34.443  41.129  1.00  0.00     0.188 C 
ENDROOT
BRANCH   1   2
ATOM      2  C   UNL A   1      36.995  33.454  41.982  1.00  0.00     0.188 C 
BRANCH   2   3
ATOM      3  O   UNL A   1      37.300  32.064  41.940  1.00  0.00    -0.376 OA
BRANCH   3   4
ATOM      4  C   UNL A   1      36.789  31.251  40.896  1.00  0.00     0.202 C 
BRANCH   4   5
ATOM      5  C   UNL A   1      36.379  31.939  39.592  1.00  0.00     0.261 C 
BRANCH   5   6
ATOM      6  O   UNL A   1      37.075  31.432  38.442  1.00  0.00    -0.458 OA
BRANCH   6   7
ATOM      7  C   UNL A   1      37.713  32.375  37.683  1.00  0.00     0.359 C 
ATOM      8  O   UNL A   1      38.106  33.455  38.107  1.00  0.00    -0.244 OA
BRANCH   7   9
ATOM      9  C   UNL A   1      37.932  31.927  36.301  1.00  0.00     0.173 A 
ATOM     10  C   UNL A   1      38.676  30.108  32.338  1.00  0.00     0.075 A 
ATOM     11  C   UNL A   1      37.585  31.046  31.924  1.00  0.00     0.062 A 
ATOM     12  N   UNL A   1      39.176  30.037  33.540  1.00  0.00    -0.228 NA
ATOM     13  C   UNL A   1      37.067  31.820  32.897  1.00  0.00     0.150 A 
ATOM     14  C   UNL A   1      38.634  30.866  34.479  1.00  0.00     0.157 A 
ATOM     15  N   UNL A   1      37.566  31.723  34.191  1.00  0.00    -0.209 N 
ATOM     16  C   UNL A   1      38.929  31.051  35.811  1.00  0.00     0.087 A 
ATOM     17  N   UNL A   1      37.148  32.362  35.302  1.00  0.00    -0.159 NA
BRANCH  10  18
ATOM     18  C   UNL A   1      39.163  29.169  31.296  1.00  0.00     0.004 A 
ATOM     19  C   UNL A   1      40.084  27.336  29.394  1.00  0.00     0.160 A 
ATOM     20  C   UNL A   1      39.489  26.885  30.581  1.00  0.00     0.051 A 
ATOM     21  C   UNL A   1      40.195  28.711  29.140  1.00  0.00     0.161 A 
ATOM     22  C   UNL A   1      39.048  27.798  31.538  1.00  0.00     0.014 A 
ATOM     23  C   UNL A   1      39.727  29.621  30.100  1.00  0.00     0.060 A 
BRANCH  19  24
ATOM     24  O   UNL A   1      40.478  26.411  28.463  1.00  0.00    -0.493 OA
ATOM     25  C   UNL A   1      39.364  25.841  27.773  1.00  0.00     0.278 C 
ENDBRANCH  19  24
BRANCH  21  26
ATOM     26  O   UNL A   1      40.718  29.327  28.035  1.00  0.00    -0.493 OA
ATOM     27  C   UNL A   1      40.001  29.242  26.813  1.00  0.00     0.278 C 
ENDBRANCH  21  26
ENDBRANCH  10  18
BRANCH  13  28
ATOM     28  C   UNL A   1      35.973  32.799  32.680  1.00  0.00     0.433 C 
ATOM     29  F   UNL A   1      36.400  34.083  32.715  1.00  0.00    -0.165 F 
ATOM     30  F   UNL A   1      35.331  32.593  31.504  1.00  0.00    -0.165 F 
ATOM     31  F   UNL A   1      35.025  32.691  33.653  1.00  0.00    -0.165 F 
ENDBRANCH  13  28
ENDBRANCH   7   9
ENDBRANCH   6   7
ENDBRANCH   5   6
ENDBRANCH   4   5
ENDBRANCH   3   4
ENDBRANCH   2   3
ENDBRANCH   1   2
BRANCH   1  32
ATOM     32  O   UNL A   1      38.192  35.636  41.805  1.00  0.00    -0.376 OA
BRANCH  32  33
ATOM     33  C   UNL A   1      39.443  36.196  41.427  1.00  0.00     0.202 C 
BRANCH  33  34
ATOM     34  C   UNL A   1      39.481  36.729  39.991  1.00  0.00     0.261 C 
BRANCH  34  35
ATOM     35  O   UNL A   1      40.191  35.898  39.060  1.00  0.00    -0.460 OA
BRANCH  35  36
ATOM     36  C   UNL A   1      41.349  36.383  38.561  1.00  0.00     0.338 C 
ATOM     37  O   UNL A   1      42.091  37.196  39.086  1.00  0.00    -0.246 OA
BRANCH  36  38
ATOM     38  C   UNL A   1      41.666  35.628  37.333  1.00  0.00     0.060 A 
ATOM     39  C   UNL A   1      40.614  35.185  36.522  1.00  0.00     0.016 A 
ATOM     40  C   UNL A   1      42.993  35.369  36.979  1.00  0.00     0.016 A 
ATOM     41  C   UNL A   1      40.892  34.458  35.363  1.00  0.00     0.010 A 
ATOM     42  C   UNL A   1      43.266  34.630  35.825  1.00  0.00     0.010 A 
ATOM     43  C   UNL A   1      42.217  34.147  35.025  1.00  0.00    -0.014 A 
BRANCH  43  44
ATOM     44  C   UNL A   1      42.499  33.219  33.904  1.00  0.00     0.031 A 
ATOM     45  C   UNL A   1      42.672  33.778  32.517  1.00  0.00     0.074 A 
ATOM     46  C   UNL A   1      42.588  31.892  34.106  1.00  0.00     0.049 A 
ATOM     47  N   UNL A   1      42.972  33.157  31.406  1.00  0.00    -0.248 NA
ATOM     48  C   UNL A   1      42.478  35.229  32.362  1.00  0.00     0.031 C 
ATOM     49  C   UNL A   1      42.406  31.218  35.390  1.00  0.00     0.029 A 
ATOM     50  N   UNL A   1      42.831  30.872  33.221  1.00  0.00    -0.354 N 
ATOM     51  C   UNL A   1      42.996  34.135  30.420  1.00  0.00     0.074 A 
ATOM     52  C   UNL A   1      42.656  35.389  31.059  1.00  0.00     0.031 C 
ATOM     53  C   UNL A   1      42.517  29.891  35.204  1.00  0.00     0.029 A 
ATOM     54  C   UNL A   1      42.778  29.622  33.790  1.00  0.00     0.049 A 
ATOM     55  H   UNL A   1      43.027  31.021  32.267  1.00  0.00     0.167 HD
ATOM     56  C   UNL A   1      43.298  34.009  29.106  1.00  0.00     0.034 A 
ATOM     57  C   UNL A   1      42.922  28.402  33.234  1.00  0.00     0.034 A 
ATOM     58  C   UNL A   1      43.649  32.769  28.468  1.00  0.00     0.049 A 
ATOM     59  C   UNL A   1      43.256  28.289  31.769  1.00  0.00     0.074 A 
ATOM     60  C   UNL A   1      44.035  32.556  27.157  1.00  0.00     0.029 A 
ATOM     61  N   UNL A   1      43.641  31.531  29.089  1.00  0.00    -0.354 N 
ATOM     62  N   UNL A   1      43.451  29.241  30.887  1.00  0.00    -0.248 NA
ATOM     63  C   UNL A   1      43.433  26.931  31.229  1.00  0.00     0.031 C 
ATOM     64  C   UNL A   1      44.244  31.184  26.979  1.00  0.00     0.029 A 
ATOM     65  C   UNL A   1      44.001  30.546  28.184  1.00  0.00     0.049 A 
ATOM     66  H   UNL A   1      43.413  31.374  30.033  1.00  0.00     0.167 HD
ATOM     67  C   UNL A   1      43.801  28.600  29.702  1.00  0.00     0.074 A 
ATOM     68  C   UNL A   1      43.817  27.180  29.985  1.00  0.00     0.031 C 
ATOM     69  C   UNL A   1      44.066  29.138  28.486  1.00  0.00     0.034 A 
BRANCH  56  70
ATOM     70  C   UNL A   1      43.316  35.264  28.277  1.00  0.00     0.023 A 
ATOM     71  C   UNL A   1      42.098  35.799  27.812  1.00  0.00     0.012 A 
ATOM     72  C   UNL A   1      44.520  35.942  28.004  1.00  0.00     0.148 A 
ATOM     73  C   UNL A   1      42.077  36.975  27.067  1.00  0.00     0.002 A 
ATOM     74  C   UNL A   1      44.488  37.134  27.288  1.00  0.00     0.091 A 
ATOM     75  F   UNL A   1      45.671  35.403  28.432  1.00  0.00    -0.205 F 
ATOM     76  C   UNL A   1      43.270  37.648  26.813  1.00  0.00     0.022 A 
BRANCH  74  77
ATOM     77  S   UNL A   1      45.964  38.106  26.967  1.00  0.00     0.127 S 
ATOM     78  O   UNL A   1      46.541  38.218  28.306  1.00  0.00    -0.237 OA
ATOM     79  O   UNL A   1      46.712  37.243  26.053  1.00  0.00    -0.237 OA
ATOM     80  O   UNL A   1      45.499  39.353  26.377  1.00  0.00    -0.744 OA
ENDBRANCH  74  77
ENDBRANCH  56  70
BRANCH  57  81
ATOM     81  C   UNL A   1      42.812  27.181  34.082  1.00  0.00     0.023 A 
ATOM     82  C   UNL A   1      41.546  26.764  34.534  1.00  0.00     0.012 A 
ATOM     83  C   UNL A   1      43.950  26.433  34.438  1.00  0.00     0.148 A 
ATOM     84  C   UNL A   1      41.416  25.638  35.347  1.00  0.00     0.002 A 
ATOM     85  C   UNL A   1      43.810  25.286  35.211  1.00  0.00     0.091 A 
ATOM     86  F   UNL A   1      45.150  26.862  34.021  1.00  0.00    -0.205 F 
ATOM     87  C   UNL A   1      42.546  24.893  35.678  1.00  0.00     0.022 A 
BRANCH  85  88
ATOM     88  S   UNL A   1      45.200  24.213  35.595  1.00  0.00     0.127 S 
ATOM     89  O   UNL A   1      45.787  24.001  34.274  1.00  0.00    -0.237 OA
ATOM     90  O   UNL A   1      45.996  25.050  36.494  1.00  0.00    -0.237 OA
ATOM     91  O   UNL A   1      44.620  23.038  36.229  1.00  0.00    -0.744 OA
ENDBRANCH  85  88
ENDBRANCH  57  81
BRANCH  69  92
ATOM     92  C   UNL A   1      44.409  28.195  27.362  1.00  0.00     0.023 A 
ATOM     93  C   UNL A   1      43.373  27.594  26.620  1.00  0.00     0.012 A 
ATOM     94  C   UNL A   1      45.748  27.957  26.993  1.00  0.00     0.148 A 
ATOM     95  C   UNL A   1      43.664  26.746  25.551  1.00  0.00     0.002 A 
ATOM     96  C   UNL A   1      46.030  27.145  25.899  1.00  0.00     0.091 A 
ATOM     97  F   UNL A   1      46.725  28.519  27.720  1.00  0.00    -0.205 F 
ATOM     98  C   UNL A   1      44.990  26.530  25.184  1.00  0.00     0.022 A 
BRANCH  96  99
ATOM     99  S   UNL A   1      47.708  26.894  25.308  1.00  0.00     0.127 S 
ATOM    100  O   UNL A   1      48.324  26.199  26.437  1.00  0.00    -0.237 OA
ATOM    101  O   UNL A   1      47.508  26.063  24.120  1.00  0.00    -0.237 OA
ATOM    102  O   UNL A   1      48.227  28.226  25.024  1.00  0.00    -0.744 OA
ENDBRANCH  96  99
ENDBRANCH  69  92
ENDBRANCH  43  44
ENDBRANCH  36  38
ENDBRANCH  35  36
ENDBRANCH  34  35
ENDBRANCH  33  34
ENDBRANCH  32  33
ENDBRANCH   1  32
TORSDOF 24
ENDMDL
MODEL 2
REMARK VINA RESULT:      -7.1      6.195     10.377
REMARK SMILES COc1ccc(-c2cc(C(F)(F)F)n3nc(C(=O)OCCOCCOCCOC(=O)c4ccc(-c5c6nc(c(-c7cccc(S(=O)(=O)[O-])c7F)c7ccc([nH]7)c(-c7cccc(S(=O)(=O)[O-])c7F)c7nc(c(-c8cccc(S(=O)(=O)[O-])c8F)c8ccc5[nH]8)C=C7)C=C6)cc4)cc3n2)cc1OC
REMARK SMILES IDX 24 1 23 2 22 3 21 4 20 5 19 6 17 7 18 8 16 9 7 10 8 11 96 12
REMARK SMILES IDX 9 13 95 14 14 15 94 16 15 17 6 18 3 19 4 20 98 21 5 22 97 23
REMARK SMILES IDX 2 24 1 25 99 26 100 27 10 28 11 29 12 30 13 31 25 32 26 33
REMARK SMILES IDX 27 34 28 35 29 36 30 37 31 38 32 39 93 40 33 41 92 42 34 43
REMARK SMILES IDX 35 44 36 45 86 46 37 47 91 48 85 49 87 50 38 51 90 52 84 53
REMARK SMILES IDX 83 54 39 56 71 57 51 58 70 59 52 60 55 61 69 62 88 63 53 64
REMARK SMILES IDX 54 65 68 67 89 68 56 69 40 70 41 71 49 72 42 73 44 74 50 75
REMARK SMILES IDX 43 76 45 77 46 78 47 79 48 80 72 81 73 82 81 83 74 84 76 85
REMARK SMILES IDX 82 86 75 87 77 88 78 89 79 90 80 91 57 92 58 93 66 94 59 95
REMARK SMILES IDX 61 96 67 97 60 98 62 99 63 100 64 101 65 102
REMARK H PARENT 87 55 55 66
REMARK Flexibility Score: inf
ROOT
ATOM      1  C   UNL A   1      35.149  29.673  27.108  1.00  0.00     0.188 C 
ENDROOT
BRANCH   1   2
ATOM      2  C   UNL A   1      34.212  28.526  26.677  1.00  0.00     0.188 C 
BRANCH   2   3
ATOM      3  O   UNL A   1      32.964  28.347  27.338  1.00  0.00    -0.376 OA
BRANCH   3   4
ATOM      4  C   UNL A   1      31.808  29.027  26.877  1.00  0.00     0.202 C 
BRANCH   4   5
ATOM      5  C   UNL A   1      31.688  29.294  25.375  1.00  0.00     0.261 C 
BRANCH   5   6
ATOM      6  O   UNL A   1      30.790  28.390  24.710  1.00  0.00    -0.458 OA
BRANCH   6   7
ATOM      7  C   UNL A   1      31.302  27.765  23.606  1.00  0.00     0.359 C 
ATOM      8  O   UNL A   1      31.087  28.115  22.451  1.00  0.00    -0.244 OA
BRANCH   7   9
ATOM      9  C   UNL A   1      32.195  26.653  23.954  1.00  0.00     0.173 A 
ATOM     10  C   UNL A   1      35.234  23.661  25.129  1.00  0.00     0.075 A 
ATOM     11  C   UNL A   1      34.033  22.941  25.660  1.00  0.00     0.062 A 
ATOM     12  N   UNL A   1      35.195  24.791  24.480  1.00  0.00    -0.228 NA
ATOM     13  C   UNL A   1      32.848  23.558  25.486  1.00  0.00     0.150 A 
ATOM     14  C   UNL A   1      33.964  25.355  24.307  1.00  0.00     0.157 A 
ATOM     15  N   UNL A   1      32.800  24.783  24.831  1.00  0.00    -0.209 N 
ATOM     16  C   UNL A   1      33.573  26.513  23.672  1.00  0.00     0.087 A 
ATOM     17  N   UNL A   1      31.732  25.577  24.612  1.00  0.00    -0.159 NA
BRANCH  10  18
ATOM     18  C   UNL A   1      36.551  23.043  25.426  1.00  0.00     0.004 A 
ATOM     19  C   UNL A   1      38.999  21.800  25.964  1.00  0.00     0.160 A 
ATOM     20  C   UNL A   1      38.030  21.149  25.187  1.00  0.00     0.051 A 
ATOM     21  C   UNL A   1      38.757  23.092  26.454  1.00  0.00     0.161 A 
ATOM     22  C   UNL A   1      36.803  21.760  24.934  1.00  0.00     0.014 A 
ATOM     23  C   UNL A   1      37.527  23.707  26.175  1.00  0.00     0.060 A 
BRANCH  19  24
ATOM     24  O   UNL A   1      40.205  21.182  26.166  1.00  0.00    -0.493 OA
ATOM     25  C   UNL A   1      40.117  19.769  25.980  1.00  0.00     0.278 C 
ENDBRANCH  19  24
BRANCH  21  26
ATOM     26  O   UNL A   1      39.588  23.884  27.200  1.00  0.00    -0.493 OA
ATOM     27  C   UNL A   1      39.473  25.293  27.070  1.00  0.00     0.278 C 
ENDBRANCH  21  26
ENDBRANCH  10  18
BRANCH  13  28
ATOM     28  C   UNL A   1      31.552  23.006  25.955  1.00  0.00     0.433 C 
ATOM     29  F   UNL A   1      31.143  23.545  27.128  1.00  0.00    -0.165 F 
ATOM     30  F   UNL A   1      30.566  23.174  25.040  1.00  0.00    -0.165 F 
ATOM     31  F   UNL A   1      31.644  21.664  26.169  1.00  0.00    -0.165 F 
ENDBRANCH  13  28
ENDBRANCH   7   9
ENDBRANCH   6   7
ENDBRANCH   5   6
ENDBRANCH   4   5
ENDBRANCH   3   4
ENDBRANCH   2   3
ENDBRANCH   1   2
BRANCH   1  32
ATOM     32  O   UNL A   1      34.727  30.377  28.268  1.00  0.00    -0.376 OA
BRANCH  32  33
ATOM     33  C   UNL A   1      35.762  30.932  29.069  1.00  0.00     0.202 C 
BRANCH  33  34
ATOM     34  C   UNL A   1      37.162  30.409  28.730  1.00  0.00     0.261 C 
BRANCH  34  35
ATOM     35  O   UNL A   1      38.081  30.394  29.834  1.00  0.00    -0.460 OA
BRANCH  35  36
ATOM     36  C   UNL A   1      39.038  31.348  29.850  1.00  0.00     0.338 C 
ATOM     37  O   UNL A   1      38.888  32.542  29.653  1.00  0.00    -0.246 OA
BRANCH  36  38
ATOM     38  C   UNL A   1      40.291  30.727  30.325  1.00  0.00     0.060 A 
ATOM     39  C   UNL A   1      41.491  31.433  30.180  1.00  0.00     0.016 A 
ATOM     40  C   UNL A   1      40.278  29.462  30.918  1.00  0.00     0.016 A 
ATOM     41  C   UNL A   1      42.689  30.858  30.610  1.00  0.00     0.010 A 
ATOM     42  C   UNL A   1      41.479  28.885  31.336  1.00  0.00     0.010 A 
ATOM     43  C   UNL A   1      42.695  29.568  31.160  1.00  0.00    -0.014 A 
BRANCH  43  44
ATOM     44  C   UNL A   1      43.981  28.886  31.441  1.00  0.00     0.031 A 
ATOM     45  C   UNL A   1      44.644  28.093  30.347  1.00  0.00     0.074 A 
ATOM     46  C   UNL A   1      44.552  28.955  32.657  1.00  0.00     0.049 A 
ATOM     47  N   UNL A   1      45.789  27.463  30.359  1.00  0.00    -0.248 NA
ATOM     48  C   UNL A   1      43.917  27.996  29.070  1.00  0.00     0.031 C 
ATOM     49  C   UNL A   1      43.999  29.658  33.813  1.00  0.00     0.029 A 
ATOM     50  N   UNL A   1      45.718  28.401  33.125  1.00  0.00    -0.354 N 
ATOM     51  C   UNL A   1      45.919  26.888  29.102  1.00  0.00     0.074 A 
ATOM     52  C   UNL A   1      44.724  27.224  28.357  1.00  0.00     0.031 C 
ATOM     53  C   UNL A   1      44.813  29.470  34.867  1.00  0.00     0.029 A 
ATOM     54  C   UNL A   1      45.943  28.635  34.461  1.00  0.00     0.049 A 
ATOM     55  H   UNL A   1      46.335  27.886  32.557  1.00  0.00     0.167 HD
ATOM     56  C   UNL A   1      46.949  26.167  28.599  1.00  0.00     0.034 A 
ATOM     57  C   UNL A   1      46.945  28.222  35.263  1.00  0.00     0.034 A 
ATOM     58  C   UNL A   1      48.144  25.840  29.329  1.00  0.00     0.049 A 
ATOM     59  C   UNL A   1      48.080  27.419  34.680  1.00  0.00     0.074 A 
ATOM     60  C   UNL A   1      49.269  25.171  28.881  1.00  0.00     0.029 A 
ATOM     61  N   UNL A   1      48.363  26.143  30.663  1.00  0.00    -0.354 N 
ATOM     62  N   UNL A   1      48.272  27.036  33.439  1.00  0.00    -0.248 NA
ATOM     63  C   UNL A   1      49.159  27.026  35.600  1.00  0.00     0.031 C 
ATOM     64  C   UNL A   1      50.164  25.054  29.951  1.00  0.00     0.029 A 
ATOM     65  C   UNL A   1      49.600  25.662  31.060  1.00  0.00     0.049 A 
ATOM     66  H   UNL A   1      47.734  26.628  31.243  1.00  0.00     0.167 HD
ATOM     67  C   UNL A   1      49.503  26.386  33.426  1.00  0.00     0.074 A 
ATOM     68  C   UNL A   1      50.024  26.450  34.776  1.00  0.00     0.031 C 
ATOM     69  C   UNL A   1      50.136  25.775  32.393  1.00  0.00     0.034 A 
BRANCH  56  70
ATOM     70  C   UNL A   1      46.851  25.727  27.164  1.00  0.00     0.023 A 
ATOM     71  C   UNL A   1      47.496  26.485  26.167  1.00  0.00     0.012 A 
ATOM     72  C   UNL A   1      46.174  24.545  26.806  1.00  0.00     0.148 A 
ATOM     73  C   UNL A   1      47.450  26.090  24.832  1.00  0.00     0.002 A 
ATOM     74  C   UNL A   1      46.160  24.138  25.477  1.00  0.00     0.091 A 
ATOM     75  F   UNL A   1      45.543  23.853  27.766  1.00  0.00    -0.205 F 
ATOM     76  C   UNL A   1      46.791  24.912  24.488  1.00  0.00     0.022 A 
BRANCH  74  77
ATOM     77  S   UNL A   1      45.393  22.604  24.946  1.00  0.00     0.127 S 
ATOM     78  O   UNL A   1      45.224  22.838  23.513  1.00  0.00    -0.237 OA
ATOM     79  O   UNL A   1      46.414  21.612  25.284  1.00  0.00    -0.237 OA
ATOM     80  O   UNL A   1      44.161  22.488  25.714  1.00  0.00    -0.744 OA
ENDBRANCH  74  77
ENDBRANCH  56  70
BRANCH  57  81
ATOM     81  C   UNL A   1      46.956  28.614  36.700  1.00  0.00     0.023 A 
ATOM     82  C   UNL A   1      47.662  29.765  37.099  1.00  0.00     0.012 A 
ATOM     83  C   UNL A   1      46.271  27.857  37.670  1.00  0.00     0.148 A 
ATOM     84  C   UNL A   1      47.708  30.143  38.441  1.00  0.00     0.002 A 
ATOM     85  C   UNL A   1      46.283  28.264  39.000  1.00  0.00     0.091 A 
ATOM     86  F   UNL A   1      45.627  26.750  37.275  1.00  0.00    -0.205 F 
ATOM     87  C   UNL A   1      47.011  29.398  39.390  1.00  0.00     0.022 A 
BRANCH  85  88
ATOM     88  S   UNL A   1      45.327  27.422  40.268  1.00  0.00     0.127 S 
ATOM     89  O   UNL A   1      44.881  28.539  41.097  1.00  0.00    -0.237 OA
ATOM     90  O   UNL A   1      44.271  26.781  39.482  1.00  0.00    -0.237 OA
ATOM     91  O   UNL A   1      46.252  26.491  40.898  1.00  0.00    -0.744 OA
ENDBRANCH  85  88
ENDBRANCH  57  81
BRANCH  69  92
ATOM     92  C   UNL A   1      51.470  25.133  32.670  1.00  0.00     0.023 A 
ATOM     93  C   UNL A   1      52.640  25.916  32.624  1.00  0.00     0.012 A 
ATOM     94  C   UNL A   1      51.563  23.777  33.043  1.00  0.00     0.148 A 
ATOM     95  C   UNL A   1      53.884  25.355  32.913  1.00  0.00     0.002 A 
ATOM     96  C   UNL A   1      52.801  23.234  33.371  1.00  0.00     0.091 A 
ATOM     97  F   UNL A   1      50.445  23.038  33.063  1.00  0.00    -0.205 F 
ATOM     98  C   UNL A   1      53.964  24.018  33.297  1.00  0.00     0.022 A 
BRANCH  96  99
ATOM     99  S   UNL A   1      52.973  21.546  33.964  1.00  0.00     0.127 S 
ATOM    100  O   UNL A   1      51.659  20.985  33.657  1.00  0.00    -0.237 OA
ATOM    101  O   UNL A   1      54.064  21.026  33.139  1.00  0.00    -0.237 OA
ATOM    102  O   UNL A   1      53.298  21.659  35.380  1.00  0.00    -0.744 OA
ENDBRANCH  96  99
ENDBRANCH  69  92
ENDBRANCH  43  44
ENDBRANCH  36  38
ENDBRANCH  35  36
ENDBRANCH  34  35
ENDBRANCH  33  34
ENDBRANCH  32  33
ENDBRANCH   1  32
TORSDOF 24
ENDMDL
MODEL 3
REMARK VINA RESULT:      -7.0      6.193     13.699
REMARK SMILES COc1ccc(-c2cc(C(F)(F)F)n3nc(C(=O)OCCOCCOCCOC(=O)c4ccc(-c5c6nc(c(-c7cccc(S(=O)(=O)[O-])c7F)c7ccc([nH]7)c(-c7cccc(S(=O)(=O)[O-])c7F)c7nc(c(-c8cccc(S(=O)(=O)[O-])c8F)c8ccc5[nH]8)C=C7)C=C6)cc4)cc3n2)cc1OC
REMARK SMILES IDX 24 1 23 2 22 3 21 4 20 5 19 6 17 7 18 8 16 9 7 10 8 11 96 12
REMARK SMILES IDX 9 13 95 14 14 15 94 16 15 17 6 18 3 19 4 20 98 21 5 22 97 23
REMARK SMILES IDX 2 24 1 25 99 26 100 27 10 28 11 29 12 30 13 31 25 32 26 33
REMARK SMILES IDX 27 34 28 35 29 36 30 37 31 38 32 39 93 40 33 41 92 42 34 43
REMARK SMILES IDX 35 44 36 45 86 46 37 47 91 48 85 49 87 50 38 51 90 52 84 53
REMARK SMILES IDX 83 54 39 56 71 57 51 58 70 59 52 60 55 61 69 62 88 63 53 64
REMARK SMILES IDX 54 65 68 67 89 68 56 69 40 70 41 71 49 72 42 73 44 74 50 75
REMARK SMILES IDX 43 76 45 77 46 78 47 79 48 80 72 81 73 82 81 83 74 84 76 85
REMARK SMILES IDX 82 86 75 87 77 88 78 89 79 90 80 91 57 92 58 93 66 94 59 95
REMARK SMILES IDX 61 96 67 97 60 98 62 99 63 100 64 101 65 102
REMARK H PARENT 87 55 55 66
REMARK Flexibility Score: inf
ROOT
ATOM      1  C   UNL A   1      35.018  29.879  27.371  1.00  0.00     0.188 C 
ENDROOT
BRANCH   1   2
ATOM      2  C   UNL A   1      33.969  28.780  27.099  1.00  0.00     0.188 C 
BRANCH   2   3
ATOM      3  O   UNL A   1      32.644  28.932  27.595  1.00  0.00    -0.376 OA
BRANCH   3   4
ATOM      4  C   UNL A   1      31.534  28.569  26.789  1.00  0.00     0.202 C 
BRANCH   4   5
ATOM      5  C   UNL A   1      31.806  28.175  25.336  1.00  0.00     0.261 C 
BRANCH   5   6
ATOM      6  O   UNL A   1      31.064  27.020  24.915  1.00  0.00    -0.458 OA
BRANCH   6   7
ATOM      7  C   UNL A   1      31.498  26.436  23.756  1.00  0.00     0.359 C 
ATOM      8  O   UNL A   1      31.051  26.690  22.643  1.00  0.00    -0.244 OA
BRANCH   7   9
ATOM      9  C   UNL A   1      32.612  25.505  23.980  1.00  0.00     0.173 A 
ATOM     10  C   UNL A   1      36.114  23.018  25.035  1.00  0.00     0.075 A 
ATOM     11  C   UNL A   1      35.165  21.902  24.727  1.00  0.00     0.062 A 
ATOM     12  N   UNL A   1      35.836  24.286  24.907  1.00  0.00    -0.228 NA
ATOM     13  C   UNL A   1      33.926  22.266  24.344  1.00  0.00     0.150 A 
ATOM     14  C   UNL A   1      34.575  24.596  24.486  1.00  0.00     0.157 A 
ATOM     15  N   UNL A   1      33.606  23.615  24.243  1.00  0.00    -0.209 N 
ATOM     16  C   UNL A   1      33.969  25.807  24.240  1.00  0.00     0.087 A 
ATOM     17  N   UNL A   1      32.419  24.177  23.937  1.00  0.00    -0.159 NA
BRANCH  10  18
ATOM     18  C   UNL A   1      37.440  22.621  25.573  1.00  0.00     0.004 A 
ATOM     19  C   UNL A   1      39.917  21.787  26.570  1.00  0.00     0.160 A 
ATOM     20  C   UNL A   1      39.164  20.938  25.748  1.00  0.00     0.051 A 
ATOM     21  C   UNL A   1      39.446  23.072  26.875  1.00  0.00     0.161 A 
ATOM     22  C   UNL A   1      37.920  21.345  25.266  1.00  0.00     0.014 A 
ATOM     23  C   UNL A   1      38.204  23.481  26.367  1.00  0.00     0.060 A 
BRANCH  19  24
ATOM     24  O   UNL A   1      41.148  21.365  27.000  1.00  0.00    -0.493 OA
ATOM     25  C   UNL A   1      41.583  20.196  26.304  1.00  0.00     0.278 C 
ENDBRANCH  19  24
BRANCH  21  26
ATOM     26  O   UNL A   1      40.053  24.038  27.633  1.00  0.00    -0.493 OA
ATOM     27  C   UNL A   1      39.652  25.388  27.451  1.00  0.00     0.278 C 
ENDBRANCH  21  26
ENDBRANCH  10  18
BRANCH  13  28
ATOM     28  C   UNL A   1      32.847  21.304  24.011  1.00  0.00     0.433 C 
ATOM     29  F   UNL A   1      33.299  20.037  23.858  1.00  0.00    -0.165 F 
ATOM     30  F   UNL A   1      31.863  21.298  24.944  1.00  0.00    -0.165 F 
ATOM     31  F   UNL A   1      32.248  21.634  22.832  1.00  0.00    -0.165 F 
ENDBRANCH  13  28
ENDBRANCH   7   9
ENDBRANCH   6   7
ENDBRANCH   5   6
ENDBRANCH   4   5
ENDBRANCH   3   4
ENDBRANCH   2   3
ENDBRANCH   1   2
BRANCH   1  32
ATOM     32  O   UNL A   1      34.525  31.207  27.258  1.00  0.00    -0.376 OA
BRANCH  32  33
ATOM     33  C   UNL A   1      35.017  32.135  28.216  1.00  0.00     0.202 C 
BRANCH  33  34
ATOM     34  C   UNL A   1      36.098  31.566  29.140  1.00  0.00     0.261 C 
BRANCH  34  35
ATOM     35  O   UNL A   1      35.745  31.537  30.532  1.00  0.00    -0.460 OA
BRANCH  35  36
ATOM     36  C   UNL A   1      36.274  30.544  31.280  1.00  0.00     0.338 C 
ATOM     37  O   UNL A   1      36.287  29.354  31.018  1.00  0.00    -0.246 OA
BRANCH  36  38
ATOM     38  C   UNL A   1      37.002  31.163  32.406  1.00  0.00     0.060 A 
ATOM     39  C   UNL A   1      36.551  32.390  32.909  1.00  0.00     0.016 A 
ATOM     40  C   UNL A   1      38.115  30.532  32.968  1.00  0.00     0.016 A 
ATOM     41  C   UNL A   1      37.232  32.998  33.964  1.00  0.00     0.010 A 
ATOM     42  C   UNL A   1      38.801  31.150  34.016  1.00  0.00     0.010 A 
ATOM     43  C   UNL A   1      38.380  32.399  34.502  1.00  0.00    -0.014 A 
BRANCH  43  44
ATOM     44  C   UNL A   1      39.208  33.133  35.490  1.00  0.00     0.031 A 
ATOM     45  C   UNL A   1      38.898  32.989  36.956  1.00  0.00     0.074 A 
ATOM     46  C   UNL A   1      40.215  33.932  35.094  1.00  0.00     0.049 A 
ATOM     47  N   UNL A   1      39.521  33.497  37.987  1.00  0.00    -0.248 NA
ATOM     48  C   UNL A   1      37.729  32.164  37.305  1.00  0.00     0.031 C 
ATOM     49  C   UNL A   1      40.597  34.188  33.707  1.00  0.00     0.029 A 
ATOM     50  N   UNL A   1      41.087  34.696  35.830  1.00  0.00    -0.354 N 
ATOM     51  C   UNL A   1      38.820  33.063  39.104  1.00  0.00     0.074 A 
ATOM     52  C   UNL A   1      37.709  32.269  38.626  1.00  0.00     0.031 C 
ATOM     53  C   UNL A   1      41.611  35.072  33.691  1.00  0.00     0.029 A 
ATOM     54  C   UNL A   1      41.949  35.443  35.065  1.00  0.00     0.049 A 
ATOM     55  H   UNL A   1      41.094  34.706  36.815  1.00  0.00     0.167 HD
ATOM     56  C   UNL A   1      39.088  33.282  40.413  1.00  0.00     0.034 A 
ATOM     57  C   UNL A   1      42.900  36.326  35.430  1.00  0.00     0.034 A 
ATOM     58  C   UNL A   1      40.197  34.060  40.897  1.00  0.00     0.049 A 
ATOM     59  C   UNL A   1      43.178  36.554  36.894  1.00  0.00     0.074 A 
ATOM     60  C   UNL A   1      40.587  34.282  42.206  1.00  0.00     0.029 A 
ATOM     61  N   UNL A   1      41.084  34.756  40.092  1.00  0.00    -0.354 N 
ATOM     62  N   UNL A   1      42.619  35.995  37.941  1.00  0.00    -0.248 NA
ATOM     63  C   UNL A   1      44.250  37.505  37.228  1.00  0.00     0.031 C 
ATOM     64  C   UNL A   1      41.701  35.127  42.193  1.00  0.00     0.029 A 
ATOM     65  C   UNL A   1      42.013  35.421  40.876  1.00  0.00     0.049 A 
ATOM     66  H   UNL A   1      41.059  34.776  39.109  1.00  0.00     0.167 HD
ATOM     67  C   UNL A   1      43.289  36.502  39.050  1.00  0.00     0.074 A 
ATOM     68  C   UNL A   1      44.313  37.394  38.548  1.00  0.00     0.031 C 
ATOM     69  C   UNL A   1      43.064  36.266  40.367  1.00  0.00     0.034 A 
BRANCH  56  70
ATOM     70  C   UNL A   1      38.191  32.622  41.424  1.00  0.00     0.023 A 
ATOM     71  C   UNL A   1      38.557  31.367  41.952  1.00  0.00     0.012 A 
ATOM     72  C   UNL A   1      37.024  33.256  41.891  1.00  0.00     0.148 A 
ATOM     73  C   UNL A   1      37.764  30.741  42.910  1.00  0.00     0.002 A 
ATOM     74  C   UNL A   1      36.255  32.641  42.873  1.00  0.00     0.091 A 
ATOM     75  F   UNL A   1      36.678  34.437  41.356  1.00  0.00    -0.205 F 
ATOM     76  C   UNL A   1      36.619  31.382  43.378  1.00  0.00     0.022 A 
BRANCH  74  77
ATOM     77  S   UNL A   1      34.799  33.417  43.584  1.00  0.00     0.127 S 
ATOM     78  O   UNL A   1      34.298  34.197  42.453  1.00  0.00    -0.237 OA
ATOM     79  O   UNL A   1      33.975  32.262  43.940  1.00  0.00    -0.237 OA
ATOM     80  O   UNL A   1      35.276  34.192  44.721  1.00  0.00    -0.744 OA
ENDBRANCH  74  77
ENDBRANCH  56  70
BRANCH  57  81
ATOM     81  C   UNL A   1      43.708  37.021  34.389  1.00  0.00     0.023 A 
ATOM     82  C   UNL A   1      44.809  36.360  33.812  1.00  0.00     0.012 A 
ATOM     83  C   UNL A   1      43.392  38.326  33.967  1.00  0.00     0.148 A 
ATOM     84  C   UNL A   1      45.598  36.995  32.852  1.00  0.00     0.002 A 
ATOM     85  C   UNL A   1      44.154  38.938  32.977  1.00  0.00     0.091 A 
ATOM     86  F   UNL A   1      42.357  38.950  34.548  1.00  0.00    -0.205 F 
ATOM     87  C   UNL A   1      45.264  38.279  32.427  1.00  0.00     0.022 A 
BRANCH  85  88
ATOM     88  S   UNL A   1      43.731  40.547  32.299  1.00  0.00     0.127 S 
ATOM     89  O   UNL A   1      44.279  41.449  33.308  1.00  0.00    -0.237 OA
ATOM     90  O   UNL A   1      44.448  40.543  31.024  1.00  0.00    -0.237 OA
ATOM     91  O   UNL A   1      42.280  40.544  32.169  1.00  0.00    -0.744 OA
ENDBRANCH  85  88
ENDBRANCH  57  81
BRANCH  69  92
ATOM     92  C   UNL A   1      43.945  36.969  41.366  1.00  0.00     0.023 A 
ATOM     93  C   UNL A   1      43.540  38.212  41.894  1.00  0.00     0.012 A 
ATOM     94  C   UNL A   1      45.133  36.375  41.837  1.00  0.00     0.148 A 
ATOM     95  C   UNL A   1      44.319  38.866  42.848  1.00  0.00     0.002 A 
ATOM     96  C   UNL A   1      45.883  37.012  42.820  1.00  0.00     0.091 A 
ATOM     97  F   UNL A   1      45.516  35.202  41.312  1.00  0.00    -0.205 F 
ATOM     98  C   UNL A   1      45.483  38.263  43.319  1.00  0.00     0.022 A 
BRANCH  96  99
ATOM     99  S   UNL A   1      47.343  36.256  43.543  1.00  0.00     0.127 S 
ATOM    100  O   UNL A   1      48.022  37.411  44.126  1.00  0.00    -0.237 OA
ATOM    101  O   UNL A   1      46.772  35.329  44.521  1.00  0.00    -0.237 OA
ATOM    102  O   UNL A   1      48.035  35.605  42.438  1.00  0.00    -0.744 OA
ENDBRANCH  96  99
ENDBRANCH  69  92
ENDBRANCH  43  44
ENDBRANCH  36  38
ENDBRANCH  35  36
ENDBRANCH  34  35
ENDBRANCH  33  34
ENDBRANCH  32  33
ENDBRANCH   1  32
TORSDOF 24
ENDMDL
