MODEL 1
REMARK VINA RESULT:     -10.2      0.000      0.000
REMARK SMILES CC(C)[NH2+][C@]1(C(=O)OCCOCCOCCOC(=O)c2ccc(-c3c4nc(c(-c5cccc(S(=O)(=O)[O-])c5F)c5ccc([nH]5)c(-c5cccc(S(=O)(=O)[O-])c5F)c5nc(c(-c6cccc(S(=O)(=O)[O-])c6F)c6ccc3[nH]6)C=C5)C=C4)cc2)CC[C@H]([N@H+](C)C2CCCC2)C1
REMARK SMILES IDX 13 1 12 2 11 3 10 4 9 5 8 6 6 7 7 8 5 9 83 10 93 11 84 12
REMARK SMILES IDX 85 13 4 14 2 17 1 18 3 19 86 20 87 21 88 23 89 24 92 25
REMARK SMILES IDX 90 26 91 27 14 28 15 29 16 30 17 31 18 32 19 33 20 34 21 35
REMARK SMILES IDX 82 36 22 37 81 38 23 39 24 40 25 41 75 42 26 43 80 44 74 45
REMARK SMILES IDX 76 46 27 47 79 48 73 49 72 50 28 52 60 53 40 54 59 55 41 56
REMARK SMILES IDX 44 57 58 58 77 59 42 60 43 61 57 63 78 64 45 65 29 66 30 67
REMARK SMILES IDX 38 68 31 69 33 70 39 71 32 72 34 73 35 74 36 75 37 76 61 77
REMARK SMILES IDX 62 78 70 79 63 80 65 81 71 82 64 83 66 84 67 85 68 86 69 87
REMARK SMILES IDX 46 88 47 89 55 90 48 91 50 92 56 93 49 94 51 95 52 96 53 97
REMARK SMILES IDX 54 98
REMARK H PARENT 4 15 4 16 86 22 76 51 44 62
REMARK Flexibility Score: inf
ROOT
ATOM      1  C   UNL A   1      36.398  21.279  24.879  1.00  0.00     0.188 C 
ENDROOT
BRANCH   1   2
ATOM      2  C   UNL A   1      35.472  21.736  25.992  1.00  0.00     0.188 C 
BRANCH   2   3
ATOM      3  O   UNL A   1      34.242  21.041  26.127  1.00  0.00    -0.376 OA
BRANCH   3   4
ATOM      4  C   UNL A   1      33.075  21.751  25.735  1.00  0.00     0.202 C 
BRANCH   4   5
ATOM      5  C   UNL A   1      32.641  22.914  26.638  1.00  0.00     0.261 C 
BRANCH   5   6
ATOM      6  O   UNL A   1      31.822  23.903  25.987  1.00  0.00    -0.459 OA
BRANCH   6   7
ATOM      7  C   UNL A   1      32.406  25.119  25.782  1.00  0.00     0.368 C 
ATOM      8  O   UNL A   1      33.358  25.509  26.453  1.00  0.00    -0.245 OA
BRANCH   7   9
ATOM      9  C   UNL A   1      31.810  25.933  24.580  1.00  0.00     0.200 C 
ATOM     10  C   UNL A   1      30.391  25.336  24.363  1.00  0.00     0.087 C 
ATOM     11  C   UNL A   1      31.397  27.380  24.928  1.00  0.00     0.146 C 
ATOM     12  C   UNL A   1      29.581  26.394  23.638  1.00  0.00     0.072 C 
ATOM     13  C   UNL A   1      30.126  27.758  24.105  1.00  0.00     0.191 C 
BRANCH   9  14
ATOM     14  N   UNL A   1      32.528  25.811  23.279  1.00  0.00    -0.330 N 
ATOM     15  H   UNL A   1      31.918  26.226  22.574  1.00  0.00     0.347 HD
ATOM     16  H   UNL A   1      33.421  26.259  23.478  1.00  0.00     0.347 HD
BRANCH  14  17
ATOM     17  C   UNL A   1      32.940  24.507  22.751  1.00  0.00     0.176 C 
ATOM     18  C   UNL A   1      32.865  24.608  21.221  1.00  0.00     0.075 C 
ATOM     19  C   UNL A   1      34.348  24.048  23.129  1.00  0.00     0.075 C 
ENDBRANCH  14  17
ENDBRANCH   9  14
BRANCH  13  20
ATOM     20  N   UNL A   1      30.213  28.642  22.911  1.00  0.00    -0.332 N 
ATOM     21  C   UNL A   1      31.584  28.926  22.489  1.00  0.00     0.333 C 
ATOM     22  H   UNL A   1      29.762  28.107  22.171  1.00  0.00     0.348 HD
BRANCH  20  23
ATOM     23  C   UNL A   1      29.489  29.929  23.105  1.00  0.00     0.184 C 
ATOM     24  C   UNL A   1      29.400  30.779  21.826  1.00  0.00     0.065 C 
ATOM     25  C   UNL A   1      28.002  29.848  23.484  1.00  0.00     0.065 C 
ATOM     26  C   UNL A   1      28.374  31.858  22.159  1.00  0.00     0.006 C 
ATOM     27  C   UNL A   1      27.443  31.239  23.195  1.00  0.00     0.006 C 
ENDBRANCH  20  23
ENDBRANCH  13  20
ENDBRANCH   7   9
ENDBRANCH   6   7
ENDBRANCH   5   6
ENDBRANCH   4   5
ENDBRANCH   3   4
ENDBRANCH   2   3
ENDBRANCH   1   2
BRANCH   1  28
ATOM     28  O   UNL A   1      37.792  21.377  25.151  1.00  0.00    -0.376 OA
BRANCH  28  29
ATOM     29  C   UNL A   1      38.466  20.113  25.220  1.00  0.00     0.202 C 
BRANCH  29  30
ATOM     30  C   UNL A   1      39.661  20.027  26.195  1.00  0.00     0.261 C 
BRANCH  30  31
ATOM     31  O   UNL A   1      40.777  19.224  25.745  1.00  0.00    -0.460 OA
BRANCH  31  32
ATOM     32  C   UNL A   1      42.011  19.521  26.217  1.00  0.00     0.338 C 
ATOM     33  O   UNL A   1      42.988  18.790  26.177  1.00  0.00    -0.246 OA
BRANCH  32  34
ATOM     34  C   UNL A   1      42.068  20.979  26.540  1.00  0.00     0.060 A 
ATOM     35  C   UNL A   1      42.183  21.894  25.481  1.00  0.00     0.016 A 
ATOM     36  C   UNL A   1      41.930  21.459  27.848  1.00  0.00     0.016 A 
ATOM     37  C   UNL A   1      42.217  23.271  25.729  1.00  0.00     0.010 A 
ATOM     38  C   UNL A   1      41.973  22.838  28.095  1.00  0.00     0.010 A 
ATOM     39  C   UNL A   1      42.154  23.753  27.042  1.00  0.00    -0.014 A 
BRANCH  39  40
ATOM     40  C   UNL A   1      42.485  25.175  27.339  1.00  0.00     0.031 A 
ATOM     41  C   UNL A   1      43.858  25.681  26.968  1.00  0.00     0.074 A 
ATOM     42  C   UNL A   1      41.612  26.013  27.929  1.00  0.00     0.049 A 
ATOM     43  N   UNL A   1      44.388  26.861  27.156  1.00  0.00    -0.248 NA
ATOM     44  C   UNL A   1      44.748  24.721  26.294  1.00  0.00     0.031 C 
ATOM     45  C   UNL A   1      40.252  25.675  28.341  1.00  0.00     0.029 A 
ATOM     46  N   UNL A   1      41.760  27.328  28.309  1.00  0.00    -0.354 N 
ATOM     47  C   UNL A   1      45.681  26.779  26.651  1.00  0.00     0.074 A 
ATOM     48  C   UNL A   1      45.858  25.431  26.157  1.00  0.00     0.031 C 
ATOM     49  C   UNL A   1      39.701  26.745  28.946  1.00  0.00     0.029 A 
ATOM     50  C   UNL A   1      40.675  27.837  28.984  1.00  0.00     0.049 A 
ATOM     51  H   UNL A   1      42.569  27.857  28.115  1.00  0.00     0.167 HD
ATOM     52  C   UNL A   1      46.635  27.738  26.586  1.00  0.00     0.034 A 
ATOM     53  C   UNL A   1      40.496  29.032  29.585  1.00  0.00     0.034 A 
ATOM     54  C   UNL A   1      46.471  29.085  27.056  1.00  0.00     0.049 A 
ATOM     55  C   UNL A   1      41.590  30.074  29.532  1.00  0.00     0.074 A 
ATOM     56  C   UNL A   1      47.373  30.134  26.986  1.00  0.00     0.029 A 
ATOM     57  N   UNL A   1      45.345  29.570  27.698  1.00  0.00    -0.354 N 
ATOM     58  N   UNL A   1      42.755  30.022  28.935  1.00  0.00    -0.248 NA
ATOM     59  C   UNL A   1      41.328  31.353  30.212  1.00  0.00     0.031 C 
ATOM     60  C   UNL A   1      46.800  31.246  27.612  1.00  0.00     0.029 A 
ATOM     61  C   UNL A   1      45.531  30.898  28.042  1.00  0.00     0.049 A 
ATOM     62  H   UNL A   1      44.530  29.047  27.883  1.00  0.00     0.167 HD
ATOM     63  C   UNL A   1      43.346  31.268  29.134  1.00  0.00     0.074 A 
ATOM     64  C   UNL A   1      42.402  32.062  29.890  1.00  0.00     0.031 C 
ATOM     65  C   UNL A   1      44.566  31.708  28.739  1.00  0.00     0.034 A 
BRANCH  52  66
ATOM     66  C   UNL A   1      47.949  27.368  25.954  1.00  0.00     0.023 A 
ATOM     67  C   UNL A   1      48.969  26.803  26.746  1.00  0.00     0.012 A 
ATOM     68  C   UNL A   1      48.152  27.523  24.570  1.00  0.00     0.148 A 
ATOM     69  C   UNL A   1      50.181  26.422  26.175  1.00  0.00     0.002 A 
ATOM     70  C   UNL A   1      49.347  27.101  24.000  1.00  0.00     0.091 A 
ATOM     71  F   UNL A   1      47.178  28.085  23.840  1.00  0.00    -0.205 F 
ATOM     72  C   UNL A   1      50.366  26.561  24.802  1.00  0.00     0.022 A 
BRANCH  70  73
ATOM     73  S   UNL A   1      49.652  27.168  22.231  1.00  0.00     0.127 S 
ATOM     74  O   UNL A   1      49.418  28.583  21.946  1.00  0.00    -0.237 OA
ATOM     75  O   UNL A   1      51.052  26.751  22.145  1.00  0.00    -0.237 OA
ATOM     76  O   UNL A   1      48.704  26.244  21.625  1.00  0.00    -0.744 OA
ENDBRANCH  70  73
ENDBRANCH  52  66
BRANCH  53  77
ATOM     77  C   UNL A   1      39.213  29.339  30.286  1.00  0.00     0.023 A 
ATOM     78  C   UNL A   1      38.945  28.749  31.537  1.00  0.00     0.012 A 
ATOM     79  C   UNL A   1      38.251  30.189  29.708  1.00  0.00     0.148 A 
ATOM     80  C   UNL A   1      37.728  28.973  32.184  1.00  0.00     0.002 A 
ATOM     81  C   UNL A   1      37.064  30.450  30.383  1.00  0.00     0.091 A 
ATOM     82  F   UNL A   1      38.513  30.719  28.505  1.00  0.00    -0.205 F 
ATOM     83  C   UNL A   1      36.793  29.830  31.611  1.00  0.00     0.022 A 
BRANCH  81  84
ATOM     84  S   UNL A   1      35.850  31.627  29.774  1.00  0.00     0.127 S 
ATOM     85  O   UNL A   1      35.179  30.853  28.734  1.00  0.00    -0.237 OA
ATOM     86  O   UNL A   1      35.047  31.877  30.971  1.00  0.00    -0.237 OA
ATOM     87  O   UNL A   1      36.617  32.776  29.313  1.00  0.00    -0.744 OA
ENDBRANCH  81  84
ENDBRANCH  53  77
BRANCH  65  88
ATOM     88  C   UNL A   1      44.953  33.129  29.068  1.00  0.00     0.023 A 
ATOM     89  C   UNL A   1      45.547  33.428  30.310  1.00  0.00     0.012 A 
ATOM     90  C   UNL A   1      44.810  34.153  28.110  1.00  0.00     0.148 A 
ATOM     91  C   UNL A   1      45.963  34.726  30.605  1.00  0.00     0.002 A 
ATOM     92  C   UNL A   1      45.270  35.435  28.391  1.00  0.00     0.091 A 
ATOM     93  F   UNL A   1      44.229  33.856  26.937  1.00  0.00    -0.205 F 
ATOM     94  C   UNL A   1      45.836  35.726  29.643  1.00  0.00     0.022 A 
BRANCH  92  95
ATOM     95  S   UNL A   1      45.236  36.761  27.179  1.00  0.00     0.127 S 
ATOM     96  O   UNL A   1      46.017  36.187  26.085  1.00  0.00    -0.237 OA
ATOM     97  O   UNL A   1      43.805  36.893  26.902  1.00  0.00    -0.237 OA
ATOM     98  O   UNL A   1      45.833  37.917  27.834  1.00  0.00    -0.744 OA
ENDBRANCH  92  95
ENDBRANCH  65  88
ENDBRANCH  39  40
ENDBRANCH  32  34
ENDBRANCH  31  32
ENDBRANCH  30  31
ENDBRANCH  29  30
ENDBRANCH  28  29
ENDBRANCH   1  28
TORSDOF 24
ENDMDL
MODEL 2
REMARK VINA RESULT:      -9.9      1.690      7.567
REMARK SMILES CC(C)[NH2+][C@]1(C(=O)OCCOCCOCCOC(=O)c2ccc(-c3c4nc(c(-c5cccc(S(=O)(=O)[O-])c5F)c5ccc([nH]5)c(-c5cccc(S(=O)(=O)[O-])c5F)c5nc(c(-c6cccc(S(=O)(=O)[O-])c6F)c6ccc3[nH]6)C=C5)C=C4)cc2)CC[C@H]([N@H+](C)C2CCCC2)C1
REMARK SMILES IDX 13 1 12 2 11 3 10 4 9 5 8 6 6 7 7 8 5 9 83 10 93 11 84 12
REMARK SMILES IDX 85 13 4 14 2 17 1 18 3 19 86 20 87 21 88 23 89 24 92 25
REMARK SMILES IDX 90 26 91 27 14 28 15 29 16 30 17 31 18 32 19 33 20 34 21 35
REMARK SMILES IDX 82 36 22 37 81 38 23 39 24 40 25 41 75 42 26 43 80 44 74 45
REMARK SMILES IDX 76 46 27 47 79 48 73 49 72 50 28 52 60 53 40 54 59 55 41 56
REMARK SMILES IDX 44 57 58 58 77 59 42 60 43 61 57 63 78 64 45 65 29 66 30 67
REMARK SMILES IDX 38 68 31 69 33 70 39 71 32 72 34 73 35 74 36 75 37 76 61 77
REMARK SMILES IDX 62 78 70 79 63 80 65 81 71 82 64 83 66 84 67 85 68 86 69 87
REMARK SMILES IDX 46 88 47 89 55 90 48 91 50 92 56 93 49 94 51 95 52 96 53 97
REMARK SMILES IDX 54 98
REMARK H PARENT 4 15 4 16 86 22 76 51 44 62
REMARK Flexibility Score: inf
ROOT
ATOM      1  C   UNL A   1      36.399  21.411  24.548  1.00  0.00     0.188 C 
ENDROOT
BRANCH   1   2
ATOM      2  C   UNL A   1      35.205  21.031  25.406  1.00  0.00     0.188 C 
BRANCH   2   3
ATOM      3  O   UNL A   1      34.357  20.010  24.906  1.00  0.00    -0.376 OA
BRANCH   3   4
ATOM      4  C   UNL A   1      33.203  20.444  24.198  1.00  0.00     0.202 C 
BRANCH   4   5
ATOM      5  C   UNL A   1      32.687  21.853  24.522  1.00  0.00     0.261 C 
BRANCH   5   6
ATOM      6  O   UNL A   1      32.156  22.569  23.392  1.00  0.00    -0.459 OA
BRANCH   6   7
ATOM      7  C   UNL A   1      33.027  23.399  22.749  1.00  0.00     0.368 C 
ATOM      8  O   UNL A   1      33.943  22.973  22.050  1.00  0.00    -0.245 OA
BRANCH   7   9
ATOM      9  C   UNL A   1      32.715  24.928  22.918  1.00  0.00     0.200 C 
ATOM     10  C   UNL A   1      32.705  25.492  21.469  1.00  0.00     0.087 C 
ATOM     11  C   UNL A   1      31.251  25.245  23.296  1.00  0.00     0.146 C 
ATOM     12  C   UNL A   1      31.888  26.770  21.505  1.00  0.00     0.072 C 
ATOM     13  C   UNL A   1      30.825  26.578  22.605  1.00  0.00     0.191 C 
BRANCH   9  14
ATOM     14  N   UNL A   1      33.717  25.727  23.679  1.00  0.00    -0.330 N 
ATOM     15  H   UNL A   1      34.635  25.403  23.374  1.00  0.00     0.347 HD
ATOM     16  H   UNL A   1      33.441  26.685  23.465  1.00  0.00     0.347 HD
BRANCH  14  17
ATOM     17  C   UNL A   1      33.744  25.726  25.144  1.00  0.00     0.176 C 
ATOM     18  C   UNL A   1      34.833  24.728  25.564  1.00  0.00     0.075 C 
ATOM     19  C   UNL A   1      34.048  27.068  25.809  1.00  0.00     0.075 C 
ENDBRANCH  14  17
ENDBRANCH   9  14
BRANCH  13  20
ATOM     20  N   UNL A   1      30.733  27.851  23.371  1.00  0.00    -0.332 N 
ATOM     21  C   UNL A   1      30.606  27.660  24.815  1.00  0.00     0.333 C 
ATOM     22  H   UNL A   1      31.624  28.313  23.194  1.00  0.00     0.348 HD
BRANCH  20  23
ATOM     23  C   UNL A   1      29.620  28.718  22.897  1.00  0.00     0.184 C 
ATOM     24  C   UNL A   1      28.225  28.168  23.242  1.00  0.00     0.065 C 
ATOM     25  C   UNL A   1      29.517  30.126  23.506  1.00  0.00     0.065 C 
ATOM     26  C   UNL A   1      27.279  29.332  22.963  1.00  0.00     0.006 C 
ATOM     27  C   UNL A   1      28.102  30.596  23.180  1.00  0.00     0.006 C 
ENDBRANCH  20  23
ENDBRANCH  13  20
ENDBRANCH   7   9
ENDBRANCH   6   7
ENDBRANCH   5   6
ENDBRANCH   4   5
ENDBRANCH   3   4
ENDBRANCH   2   3
ENDBRANCH   1   2
BRANCH   1  28
ATOM     28  O   UNL A   1      37.646  21.509  25.228  1.00  0.00    -0.376 OA
BRANCH  28  29
ATOM     29  C   UNL A   1      38.479  20.349  25.093  1.00  0.00     0.202 C 
BRANCH  29  30
ATOM     30  C   UNL A   1      39.687  20.259  26.052  1.00  0.00     0.261 C 
BRANCH  30  31
ATOM     31  O   UNL A   1      40.569  19.132  25.840  1.00  0.00    -0.460 OA
BRANCH  31  32
ATOM     32  C   UNL A   1      41.897  19.312  26.037  1.00  0.00     0.338 C 
ATOM     33  O   UNL A   1      42.778  18.521  25.742  1.00  0.00    -0.246 OA
BRANCH  32  34
ATOM     34  C   UNL A   1      42.141  20.737  26.415  1.00  0.00     0.060 A 
ATOM     35  C   UNL A   1      42.182  21.700  25.394  1.00  0.00     0.016 A 
ATOM     36  C   UNL A   1      42.249  21.148  27.749  1.00  0.00     0.016 A 
ATOM     37  C   UNL A   1      42.386  23.052  25.697  1.00  0.00     0.010 A 
ATOM     38  C   UNL A   1      42.460  22.501  28.050  1.00  0.00     0.010 A 
ATOM     39  C   UNL A   1      42.568  23.458  27.025  1.00  0.00    -0.014 A 
BRANCH  39  40
ATOM     40  C   UNL A   1      43.075  24.824  27.331  1.00  0.00     0.031 A 
ATOM     41  C   UNL A   1      42.121  25.818  27.948  1.00  0.00     0.074 A 
ATOM     42  C   UNL A   1      44.342  25.202  27.070  1.00  0.00     0.049 A 
ATOM     43  N   UNL A   1      42.318  27.070  28.270  1.00  0.00    -0.248 NA
ATOM     44  C   UNL A   1      40.763  25.327  28.238  1.00  0.00     0.031 C 
ATOM     45  C   UNL A   1      45.378  24.357  26.483  1.00  0.00     0.029 A 
ATOM     46  N   UNL A   1      44.961  26.419  27.247  1.00  0.00    -0.354 N 
ATOM     47  C   UNL A   1      41.104  27.526  28.773  1.00  0.00     0.074 A 
ATOM     48  C   UNL A   1      40.176  26.418  28.706  1.00  0.00     0.031 C 
ATOM     49  C   UNL A   1      46.496  25.090  26.318  1.00  0.00     0.029 A 
ATOM     50  C   UNL A   1      46.249  26.461  26.767  1.00  0.00     0.049 A 
ATOM     51  H   UNL A   1      44.522  27.188  27.679  1.00  0.00     0.167 HD
ATOM     52  C   UNL A   1      40.788  28.747  29.264  1.00  0.00     0.034 A 
ATOM     53  C   UNL A   1      47.119  27.489  26.677  1.00  0.00     0.034 A 
ATOM     54  C   UNL A   1      41.701  29.852  29.353  1.00  0.00     0.049 A 
ATOM     55  C   UNL A   1      46.730  28.854  27.197  1.00  0.00     0.074 A 
ATOM     56  C   UNL A   1      41.475  31.112  29.881  1.00  0.00     0.029 A 
ATOM     57  N   UNL A   1      43.007  29.842  28.892  1.00  0.00    -0.354 N 
ATOM     58  N   UNL A   1      45.624  29.230  27.789  1.00  0.00    -0.248 NA
ATOM     59  C   UNL A   1      47.726  29.930  27.061  1.00  0.00     0.031 C 
ATOM     60  C   UNL A   1      42.636  31.873  29.713  1.00  0.00     0.029 A 
ATOM     61  C   UNL A   1      43.595  31.077  29.109  1.00  0.00     0.049 A 
ATOM     62  H   UNL A   1      43.451  29.071  28.471  1.00  0.00     0.167 HD
ATOM     63  C   UNL A   1      45.805  30.569  28.130  1.00  0.00     0.074 A 
ATOM     64  C   UNL A   1      47.136  30.933  27.696  1.00  0.00     0.031 C 
ATOM     65  C   UNL A   1      44.941  31.422  28.734  1.00  0.00     0.034 A 
BRANCH  52  66
ATOM     66  C   UNL A   1      39.386  28.949  29.773  1.00  0.00     0.023 A 
ATOM     67  C   UNL A   1      39.059  28.555  31.086  1.00  0.00     0.012 A 
ATOM     68  C   UNL A   1      38.414  29.583  28.976  1.00  0.00     0.148 A 
ATOM     69  C   UNL A   1      37.776  28.765  31.588  1.00  0.00     0.002 A 
ATOM     70  C   UNL A   1      37.151  29.826  29.498  1.00  0.00     0.091 A 
ATOM     71  F   UNL A   1      38.742  29.927  27.721  1.00  0.00    -0.205 F 
ATOM     72  C   UNL A   1      36.827  29.409  30.800  1.00  0.00     0.022 A 
BRANCH  70  73
ATOM     73  S   UNL A   1      35.883  30.717  28.589  1.00  0.00     0.127 S 
ATOM     74  O   UNL A   1      36.690  31.606  27.756  1.00  0.00    -0.237 OA
ATOM     75  O   UNL A   1      35.213  29.639  27.860  1.00  0.00    -0.237 OA
ATOM     76  O   UNL A   1      35.059  31.377  29.592  1.00  0.00    -0.744 OA
ENDBRANCH  70  73
ENDBRANCH  52  66
BRANCH  53  77
ATOM     77  C   UNL A   1      48.473  27.280  26.082  1.00  0.00     0.023 A 
ATOM     78  C   UNL A   1      48.655  27.437  24.694  1.00  0.00     0.012 A 
ATOM     79  C   UNL A   1      49.570  26.903  26.880  1.00  0.00     0.148 A 
ATOM     80  C   UNL A   1      49.898  27.190  24.107  1.00  0.00     0.002 A 
ATOM     81  C   UNL A   1      50.817  26.710  26.296  1.00  0.00     0.091 A 
ATOM     82  F   UNL A   1      49.370  26.732  28.194  1.00  0.00    -0.205 F 
ATOM     83  C   UNL A   1      50.979  26.836  24.908  1.00  0.00     0.022 A 
BRANCH  81  84
ATOM     84  S   UNL A   1      52.290  26.361  27.264  1.00  0.00     0.127 S 
ATOM     85  O   UNL A   1      52.970  27.653  27.249  1.00  0.00    -0.237 OA
ATOM     86  O   UNL A   1      51.717  25.981  28.555  1.00  0.00    -0.237 OA
ATOM     87  O   UNL A   1      52.969  25.280  26.565  1.00  0.00    -0.744 OA
ENDBRANCH  81  84
ENDBRANCH  53  77
BRANCH  65  88
ATOM     88  C   UNL A   1      45.406  32.829  29.014  1.00  0.00     0.023 A 
ATOM     89  C   UNL A   1      46.170  33.102  30.167  1.00  0.00     0.012 A 
ATOM     90  C   UNL A   1      45.165  33.865  28.089  1.00  0.00     0.148 A 
ATOM     91  C   UNL A   1      46.657  34.386  30.410  1.00  0.00     0.002 A 
ATOM     92  C   UNL A   1      45.693  35.131  28.312  1.00  0.00     0.091 A 
ATOM     93  F   UNL A   1      44.423  33.593  27.004  1.00  0.00    -0.205 F 
ATOM     94  C   UNL A   1      46.429  35.397  29.478  1.00  0.00     0.022 A 
BRANCH  92  95
ATOM     95  S   UNL A   1      45.533  36.468  27.122  1.00  0.00     0.127 S 
ATOM     96  O   UNL A   1      46.142  37.585  27.843  1.00  0.00    -0.237 OA
ATOM     97  O   UNL A   1      46.316  35.973  25.990  1.00  0.00    -0.237 OA
ATOM     98  O   UNL A   1      44.106  36.599  26.857  1.00  0.00    -0.744 OA
ENDBRANCH  92  95
ENDBRANCH  65  88
ENDBRANCH  39  40
ENDBRANCH  32  34
ENDBRANCH  31  32
ENDBRANCH  30  31
ENDBRANCH  29  30
ENDBRANCH  28  29
ENDBRANCH   1  28
TORSDOF 24
ENDMDL
MODEL 3
REMARK VINA RESULT:      -9.9      6.467     11.698
REMARK SMILES CC(C)[NH2+][C@]1(C(=O)OCCOCCOCCOC(=O)c2ccc(-c3c4nc(c(-c5cccc(S(=O)(=O)[O-])c5F)c5ccc([nH]5)c(-c5cccc(S(=O)(=O)[O-])c5F)c5nc(c(-c6cccc(S(=O)(=O)[O-])c6F)c6ccc3[nH]6)C=C5)C=C4)cc2)CC[C@H]([N@H+](C)C2CCCC2)C1
REMARK SMILES IDX 13 1 12 2 11 3 10 4 9 5 8 6 6 7 7 8 5 9 83 10 93 11 84 12
REMARK SMILES IDX 85 13 4 14 2 17 1 18 3 19 86 20 87 21 88 23 89 24 92 25
REMARK SMILES IDX 90 26 91 27 14 28 15 29 16 30 17 31 18 32 19 33 20 34 21 35
REMARK SMILES IDX 82 36 22 37 81 38 23 39 24 40 25 41 75 42 26 43 80 44 74 45
REMARK SMILES IDX 76 46 27 47 79 48 73 49 72 50 28 52 60 53 40 54 59 55 41 56
REMARK SMILES IDX 44 57 58 58 77 59 42 60 43 61 57 63 78 64 45 65 29 66 30 67
REMARK SMILES IDX 38 68 31 69 33 70 39 71 32 72 34 73 35 74 36 75 37 76 61 77
REMARK SMILES IDX 62 78 70 79 63 80 65 81 71 82 64 83 66 84 67 85 68 86 69 87
REMARK SMILES IDX 46 88 47 89 55 90 48 91 50 92 56 93 49 94 51 95 52 96 53 97
REMARK SMILES IDX 54 98
REMARK H PARENT 4 15 4 16 86 22 76 51 44 62
REMARK Flexibility Score: inf
ROOT
ATOM      1  C   UNL A   1      35.394  34.051  28.330  1.00  0.00     0.188 C 
ENDROOT
BRANCH   1   2
ATOM      2  C   UNL A   1      34.564  32.780  28.355  1.00  0.00     0.188 C 
BRANCH   2   3
ATOM      3  O   UNL A   1      35.238  31.569  28.050  1.00  0.00    -0.376 OA
BRANCH   3   4
ATOM      4  C   UNL A   1      34.417  30.421  27.880  1.00  0.00     0.202 C 
BRANCH   4   5
ATOM      5  C   UNL A   1      33.568  30.365  26.602  1.00  0.00     0.261 C 
BRANCH   5   6
ATOM      6  O   UNL A   1      33.498  29.065  25.988  1.00  0.00    -0.459 OA
BRANCH   6   7
ATOM      7  C   UNL A   1      32.306  28.744  25.407  1.00  0.00     0.368 C 
ATOM      8  O   UNL A   1      31.494  29.600  25.064  1.00  0.00    -0.245 OA
BRANCH   7   9
ATOM      9  C   UNL A   1      32.099  27.210  25.150  1.00  0.00     0.200 C 
ATOM     10  C   UNL A   1      33.357  26.533  25.762  1.00  0.00     0.087 C 
ATOM     11  C   UNL A   1      31.027  26.549  26.045  1.00  0.00     0.146 C 
ATOM     12  C   UNL A   1      32.979  25.092  26.049  1.00  0.00     0.072 C 
ATOM     13  C   UNL A   1      31.475  25.093  26.383  1.00  0.00     0.191 C 
BRANCH   9  14
ATOM     14  N   UNL A   1      32.036  26.782  23.723  1.00  0.00    -0.330 N 
ATOM     15  H   UNL A   1      31.662  25.833  23.724  1.00  0.00     0.347 HD
ATOM     16  H   UNL A   1      31.483  27.525  23.295  1.00  0.00     0.347 HD
BRANCH  14  17
ATOM     17  C   UNL A   1      33.233  26.753  22.879  1.00  0.00     0.176 C 
ATOM     18  C   UNL A   1      32.886  25.900  21.651  1.00  0.00     0.075 C 
ATOM     19  C   UNL A   1      33.738  28.109  22.387  1.00  0.00     0.075 C 
ENDBRANCH  14  17
ENDBRANCH   9  14
BRANCH  13  20
ATOM     20  N   UNL A   1      30.861  23.919  25.706  1.00  0.00    -0.332 N 
ATOM     21  C   UNL A   1      30.270  22.949  26.628  1.00  0.00     0.333 C 
ATOM     22  H   UNL A   1      30.107  24.319  25.147  1.00  0.00     0.348 HD
BRANCH  20  23
ATOM     23  C   UNL A   1      31.821  23.215  24.811  1.00  0.00     0.184 C 
ATOM     24  C   UNL A   1      32.009  21.729  25.164  1.00  0.00     0.065 C 
ATOM     25  C   UNL A   1      31.443  23.097  23.326  1.00  0.00     0.065 C 
ATOM     26  C   UNL A   1      32.753  21.146  23.966  1.00  0.00     0.006 C 
ATOM     27  C   UNL A   1      32.349  22.002  22.771  1.00  0.00     0.006 C 
ENDBRANCH  20  23
ENDBRANCH  13  20
ENDBRANCH   7   9
ENDBRANCH   6   7
ENDBRANCH   5   6
ENDBRANCH   4   5
ENDBRANCH   3   4
ENDBRANCH   2   3
ENDBRANCH   1   2
BRANCH   1  28
ATOM     28  O   UNL A   1      34.665  35.266  28.192  1.00  0.00    -0.376 OA
BRANCH  28  29
ATOM     29  C   UNL A   1      33.267  35.148  28.485  1.00  0.00     0.202 C 
BRANCH  29  30
ATOM     30  C   UNL A   1      32.775  35.850  29.770  1.00  0.00     0.261 C 
BRANCH  30  31
ATOM     31  O   UNL A   1      32.729  35.021  30.955  1.00  0.00    -0.460 OA
BRANCH  31  32
ATOM     32  C   UNL A   1      33.130  35.561  32.131  1.00  0.00     0.338 C 
ATOM     33  O   UNL A   1      32.501  36.364  32.802  1.00  0.00    -0.246 OA
BRANCH  32  34
ATOM     34  C   UNL A   1      34.329  34.817  32.621  1.00  0.00     0.060 A 
ATOM     35  C   UNL A   1      35.599  35.250  32.207  1.00  0.00     0.016 A 
ATOM     36  C   UNL A   1      34.231  33.761  33.535  1.00  0.00     0.016 A 
ATOM     37  C   UNL A   1      36.756  34.601  32.656  1.00  0.00     0.010 A 
ATOM     38  C   UNL A   1      35.390  33.108  33.978  1.00  0.00     0.010 A 
ATOM     39  C   UNL A   1      36.658  33.497  33.512  1.00  0.00    -0.014 A 
BRANCH  39  40
ATOM     40  C   UNL A   1      37.842  32.627  33.755  1.00  0.00     0.031 A 
ATOM     41  C   UNL A   1      38.705  32.914  34.959  1.00  0.00     0.074 A 
ATOM     42  C   UNL A   1      38.169  31.606  32.939  1.00  0.00     0.049 A 
ATOM     43  N   UNL A   1      39.800  32.322  35.358  1.00  0.00    -0.248 NA
ATOM     44  C   UNL A   1      38.268  34.021  35.827  1.00  0.00     0.031 C 
ATOM     45  C   UNL A   1      37.434  31.202  31.743  1.00  0.00     0.029 A 
ATOM     46  N   UNL A   1      39.235  30.736  32.987  1.00  0.00    -0.354 N 
ATOM     47  C   UNL A   1      40.200  32.999  36.504  1.00  0.00     0.074 A 
ATOM     48  C   UNL A   1      39.235  34.053  36.732  1.00  0.00     0.031 C 
ATOM     49  C   UNL A   1      38.088  30.185  31.152  1.00  0.00     0.029 A 
ATOM     50  C   UNL A   1      39.300  29.878  31.914  1.00  0.00     0.049 A 
ATOM     51  H   UNL A   1      39.891  30.729  33.722  1.00  0.00     0.167 HD
ATOM     52  C   UNL A   1      41.263  32.763  37.309  1.00  0.00     0.034 A 
ATOM     53  C   UNL A   1      40.237  28.968  31.572  1.00  0.00     0.034 A 
ATOM     54  C   UNL A   1      42.221  31.712  37.107  1.00  0.00     0.049 A 
ATOM     55  C   UNL A   1      41.435  28.748  32.467  1.00  0.00     0.074 A 
ATOM     56  C   UNL A   1      43.303  31.373  37.903  1.00  0.00     0.029 A 
ATOM     57  N   UNL A   1      42.229  30.841  36.032  1.00  0.00    -0.354 N 
ATOM     58  N   UNL A   1      41.725  29.309  33.615  1.00  0.00    -0.248 NA
ATOM     59  C   UNL A   1      42.420  27.745  32.030  1.00  0.00     0.031 C 
ATOM     60  C   UNL A   1      43.982  30.315  37.291  1.00  0.00     0.029 A 
ATOM     61  C   UNL A   1      43.304  29.974  36.133  1.00  0.00     0.049 A 
ATOM     62  H   UNL A   1      41.568  30.838  35.301  1.00  0.00     0.167 HD
ATOM     63  C   UNL A   1      42.900  28.701  34.054  1.00  0.00     0.074 A 
ATOM     64  C   UNL A   1      43.258  27.715  33.058  1.00  0.00     0.031 C 
ATOM     65  C   UNL A   1      43.625  28.949  35.174  1.00  0.00     0.034 A 
BRANCH  52  66
ATOM     66  C   UNL A   1      41.435  33.651  38.512  1.00  0.00     0.023 A 
ATOM     67  C   UNL A   1      40.930  33.237  39.761  1.00  0.00     0.012 A 
ATOM     68  C   UNL A   1      42.146  34.862  38.418  1.00  0.00     0.148 A 
ATOM     69  C   UNL A   1      41.107  34.028  40.894  1.00  0.00     0.002 A 
ATOM     70  C   UNL A   1      42.356  35.624  39.560  1.00  0.00     0.091 A 
ATOM     71  F   UNL A   1      42.597  35.247  37.215  1.00  0.00    -0.205 F 
ATOM     72  C   UNL A   1      41.829  35.215  40.796  1.00  0.00     0.022 A 
BRANCH  70  73
ATOM     73  S   UNL A   1      43.337  37.129  39.552  1.00  0.00     0.127 S 
ATOM     74  O   UNL A   1      42.801  37.835  40.714  1.00  0.00    -0.237 OA
ATOM     75  O   UNL A   1      44.695  36.611  39.726  1.00  0.00    -0.237 OA
ATOM     76  O   UNL A   1      43.089  37.763  38.266  1.00  0.00    -0.744 OA
ENDBRANCH  70  73
ENDBRANCH  52  66
BRANCH  53  77
ATOM     77  C   UNL A   1      40.087  28.165  30.323  1.00  0.00     0.023 A 
ATOM     78  C   UNL A   1      39.231  27.046  30.313  1.00  0.00     0.012 A 
ATOM     79  C   UNL A   1      40.807  28.488  29.157  1.00  0.00     0.148 A 
ATOM     80  C   UNL A   1      39.119  26.245  29.175  1.00  0.00     0.002 A 
ATOM     81  C   UNL A   1      40.650  27.717  28.011  1.00  0.00     0.091 A 
ATOM     82  F   UNL A   1      41.637  29.540  29.194  1.00  0.00    -0.205 F 
ATOM     83  C   UNL A   1      39.822  26.585  28.022  1.00  0.00     0.022 A 
BRANCH  81  84
ATOM     84  S   UNL A   1      41.429  28.145  26.449  1.00  0.00     0.127 S 
ATOM     85  O   UNL A   1      41.279  26.906  25.691  1.00  0.00    -0.237 OA
ATOM     86  O   UNL A   1      40.592  29.253  25.989  1.00  0.00    -0.237 OA
ATOM     87  O   UNL A   1      42.795  28.521  26.783  1.00  0.00    -0.744 OA
ENDBRANCH  81  84
ENDBRANCH  53  77
BRANCH  65  88
ATOM     88  C   UNL A   1      44.858  28.118  35.425  1.00  0.00     0.023 A 
ATOM     89  C   UNL A   1      46.123  28.598  35.030  1.00  0.00     0.012 A 
ATOM     90  C   UNL A   1      44.775  26.901  36.132  1.00  0.00     0.148 A 
ATOM     91  C   UNL A   1      47.279  27.867  35.307  1.00  0.00     0.002 A 
ATOM     92  C   UNL A   1      45.934  26.202  36.448  1.00  0.00     0.091 A 
ATOM     93  F   UNL A   1      43.561  26.451  36.488  1.00  0.00    -0.205 F 
ATOM     94  C   UNL A   1      47.186  26.677  36.025  1.00  0.00     0.022 A 
BRANCH  92  95
ATOM     95  S   UNL A   1      45.919  24.711  37.451  1.00  0.00     0.127 S 
ATOM     96  O   UNL A   1      47.344  24.401  37.548  1.00  0.00    -0.237 OA
ATOM     97  O   UNL A   1      45.311  25.180  38.697  1.00  0.00    -0.237 OA
ATOM     98  O   UNL A   1      45.118  23.742  36.716  1.00  0.00    -0.744 OA
ENDBRANCH  92  95
ENDBRANCH  65  88
ENDBRANCH  39  40
ENDBRANCH  32  34
ENDBRANCH  31  32
ENDBRANCH  30  31
ENDBRANCH  29  30
ENDBRANCH  28  29
ENDBRANCH   1  28
TORSDOF 24
ENDMDL
