MODEL 1
REMARK VINA RESULT:     -10.3      0.000      0.000
REMARK SMILES Cc1ccc(NC(=O)C[C@@H](C(=O)OCCOCCOCCOCCOC(=O)c2ccc(-c3c4nc(c(-c5cccc(S(=O)(=O)[O-])c5F)c5ccc([nH]5)c(-c5cccc(S(=O)(=O)[O-])c5F)c5nc(c(-c6cccc(S(=O)(=O)[O-])c6F)c6ccc3[nH]6)C=C5)C=C4)cc2)[C@@H](C)c2ccccc2)cc1Br
REMARK SMILES IDX 19 1 18 2 17 3 16 4 15 5 14 6 13 7 11 8 12 9 10 10 9 11 7 12
REMARK SMILES IDX 6 13 8 15 5 16 1 17 2 18 3 19 100 20 4 21 99 22 101 23 91 24
REMARK SMILES IDX 92 25 93 26 94 27 98 28 95 29 97 30 96 31 20 32 21 33 22 34
REMARK SMILES IDX 23 35 24 36 25 37 26 38 27 39 28 40 29 41 90 42 30 43 89 44
REMARK SMILES IDX 31 45 32 46 33 47 83 48 34 49 88 50 82 51 84 52 35 53 87 54
REMARK SMILES IDX 81 55 80 56 36 58 68 59 48 60 67 61 49 62 52 63 66 64 85 65
REMARK SMILES IDX 50 66 51 67 65 69 86 70 53 71 37 72 38 73 46 74 39 75 41 76
REMARK SMILES IDX 47 77 40 78 42 79 43 80 44 81 45 82 69 83 70 84 78 85 71 86
REMARK SMILES IDX 73 87 79 88 72 89 74 90 75 91 76 92 77 93 54 94 55 95 63 96
REMARK SMILES IDX 56 97 58 98 64 99 57 100 59 101 60 102 61 103 62 104
REMARK H PARENT 6 14 84 57 52 68
REMARK Flexibility Score: inf
ROOT
ATOM      1  O   UNL A   1      34.360  34.683  28.053  1.00  0.00    -0.377 OA
ENDROOT
BRANCH   1   2
ATOM      2  C   UNL A   1      35.500  34.002  28.482  1.00  0.00     0.188 C 
BRANCH   2   3
ATOM      3  C   UNL A   1      35.281  32.512  28.747  1.00  0.00     0.188 C 
BRANCH   3   4
ATOM      4  O   UNL A   1      35.242  31.575  27.656  1.00  0.00    -0.376 OA
BRANCH   4   5
ATOM      5  C   UNL A   1      34.775  30.051  27.706  1.00  0.00     0.202 C 
BRANCH   5   6
ATOM      6  C   UNL A   1      33.936  28.776  26.130  1.00  0.00     0.261 C 
BRANCH   6   7
ATOM      7  O   UNL A   1      33.142  27.289  26.446  1.00  0.00    -0.463 OA
BRANCH   7   8
ATOM      8  C   UNL A   1      31.841  27.062  26.744  1.00  0.00     0.310 C 
ATOM      9  O   UNL A   1      31.387  27.448  27.816  1.00  0.00    -0.252 OA
BRANCH   8  10
ATOM     10  C   UNL A   1      30.981  26.180  25.724  1.00  0.00     0.116 C 
BRANCH  10  11
ATOM     11  C   UNL A   1      31.053  24.631  25.664  1.00  0.00     0.116 C 
BRANCH  11  12
ATOM     12  C   UNL A   1      30.575  23.685  26.725  1.00  0.00     0.225 C 
ATOM     13  N   UNL A   1      31.202  22.520  26.980  1.00  0.00    -0.326 N 
ATOM     14  H   UNL A   1      30.738  21.940  27.626  1.00  0.00     0.169 HD
ATOM     15  O   UNL A   1      29.517  23.922  27.315  1.00  0.00    -0.275 OA
BRANCH  13  16
ATOM     16  C   UNL A   1      32.395  21.997  26.486  1.00  0.00     0.042 A 
ATOM     17  C   UNL A   1      36.991  20.592  25.000  1.00  0.00     0.045 C 
ATOM     18  C   UNL A   1      35.587  21.161  25.008  1.00  0.00    -0.037 A 
ATOM     19  C   UNL A   1      35.356  22.707  25.882  1.00  0.00     0.007 A 
ATOM     20  C   UNL A   1      34.232  20.004  24.828  1.00  0.00     0.022 A 
ATOM     21  C   UNL A   1      33.786  23.125  26.613  1.00  0.00     0.026 A 
ATOM     22  C   UNL A   1      32.615  20.426  25.566  1.00  0.00     0.042 A 
ATOM     23  Br  UNL A   1      34.709  18.224  24.291  1.00  0.00    -0.050 Br
ENDBRANCH  13  16
ENDBRANCH  11  12
ENDBRANCH  10  11
BRANCH  10  24
ATOM     24  C   UNL A   1      31.034  26.664  24.192  1.00  0.00     0.031 C 
ATOM     25  C   UNL A   1      30.882  25.528  23.162  1.00  0.00     0.013 C 
BRANCH  24  26
ATOM     26  C   UNL A   1      30.172  27.866  23.890  1.00  0.00    -0.044 A 
ATOM     27  C   UNL A   1      30.583  29.188  23.994  1.00  0.00     0.004 A 
ATOM     28  C   UNL A   1      28.900  27.615  23.367  1.00  0.00     0.004 A 
ATOM     29  C   UNL A   1      29.767  30.207  23.490  1.00  0.00     0.000 A 
ATOM     30  C   UNL A   1      28.106  28.608  22.817  1.00  0.00     0.000 A 
ATOM     31  C   UNL A   1      28.550  29.915  22.868  1.00  0.00     0.000 A 
ENDBRANCH  24  26
ENDBRANCH  10  24
ENDBRANCH   8  10
ENDBRANCH   7   8
ENDBRANCH   6   7
ENDBRANCH   5   6
ENDBRANCH   4   5
ENDBRANCH   3   4
ENDBRANCH   2   3
ENDBRANCH   1   2
BRANCH   1  32
ATOM     32  C   UNL A   1      33.958  35.851  28.737  1.00  0.00     0.188 C 
BRANCH  32  33
ATOM     33  C   UNL A   1      32.750  35.901  29.710  1.00  0.00     0.188 C 
BRANCH  33  34
ATOM     34  O   UNL A   1      32.627  36.810  30.787  1.00  0.00    -0.376 OA
BRANCH  34  35
ATOM     35  C   UNL A   1      33.676  37.134  31.663  1.00  0.00     0.202 C 
BRANCH  35  36
ATOM     36  C   UNL A   1      33.645  36.821  33.164  1.00  0.00     0.261 C 
BRANCH  36  37
ATOM     37  O   UNL A   1      34.431  35.723  33.637  1.00  0.00    -0.460 OA
BRANCH  37  38
ATOM     38  C   UNL A   1      34.205  34.519  33.052  1.00  0.00     0.338 C 
ATOM     39  O   UNL A   1      33.123  34.095  32.684  1.00  0.00    -0.246 OA
BRANCH  38  40
ATOM     40  C   UNL A   1      35.508  33.882  32.698  1.00  0.00     0.060 A 
ATOM     41  C   UNL A   1      35.775  32.591  33.188  1.00  0.00     0.016 A 
ATOM     42  C   UNL A   1      36.444  34.512  31.872  1.00  0.00     0.016 A 
ATOM     43  C   UNL A   1      36.991  31.960  32.920  1.00  0.00     0.010 A 
ATOM     44  C   UNL A   1      37.683  33.898  31.639  1.00  0.00     0.010 A 
ATOM     45  C   UNL A   1      37.982  32.648  32.215  1.00  0.00    -0.014 A 
BRANCH  45  46
ATOM     46  C   UNL A   1      39.397  32.227  32.384  1.00  0.00     0.031 A 
ATOM     47  C   UNL A   1      39.992  31.370  31.294  1.00  0.00     0.074 A 
ATOM     48  C   UNL A   1      40.153  32.604  33.430  1.00  0.00     0.049 A 
ATOM     49  N   UNL A   1      41.178  30.826  31.213  1.00  0.00    -0.248 NA
ATOM     50  C   UNL A   1      39.123  31.085  30.138  1.00  0.00     0.031 C 
ATOM     51  C   UNL A   1      39.718  33.467  34.524  1.00  0.00     0.029 A 
ATOM     52  N   UNL A   1      41.449  32.279  33.748  1.00  0.00    -0.354 N 
ATOM     53  C   UNL A   1      41.179  30.100  30.028  1.00  0.00     0.074 A 
ATOM     54  C   UNL A   1      39.877  30.266  29.424  1.00  0.00     0.031 C 
ATOM     55  C   UNL A   1      40.722  33.578  35.414  1.00  0.00     0.029 A 
ATOM     56  C   UNL A   1      41.855  32.767  34.968  1.00  0.00     0.049 A 
ATOM     57  H   UNL A   1      42.032  31.748  33.160  1.00  0.00     0.167 HD
ATOM     58  C   UNL A   1      42.172  29.360  29.483  1.00  0.00     0.034 A 
ATOM     59  C   UNL A   1      42.995  32.553  35.658  1.00  0.00     0.034 A 
ATOM     60  C   UNL A   1      43.468  29.199  30.080  1.00  0.00     0.049 A 
ATOM     61  C   UNL A   1      44.070  31.679  35.059  1.00  0.00     0.074 A 
ATOM     62  C   UNL A   1      44.558  28.505  29.589  1.00  0.00     0.029 A 
ATOM     63  N   UNL A   1      43.840  29.714  31.311  1.00  0.00    -0.354 N 
ATOM     64  N   UNL A   1      44.091  31.069  33.898  1.00  0.00    -0.248 NA
ATOM     65  C   UNL A   1      45.291  31.484  35.857  1.00  0.00     0.031 C 
ATOM     66  C   UNL A   1      45.571  28.551  30.551  1.00  0.00     0.029 A 
ATOM     67  C   UNL A   1      45.136  29.332  31.610  1.00  0.00     0.049 A 
ATOM     68  H   UNL A   1      43.268  30.270  31.888  1.00  0.00     0.167 HD
ATOM     69  C   UNL A   1      45.339  30.458  33.807  1.00  0.00     0.074 A 
ATOM     70  C   UNL A   1      46.050  30.783  35.025  1.00  0.00     0.031 C 
ATOM     71  C   UNL A   1      45.848  29.696  32.808  1.00  0.00     0.034 A 
BRANCH  58  72
ATOM     72  C   UNL A   1      41.882  28.648  28.187  1.00  0.00     0.023 A 
ATOM     73  C   UNL A   1      42.020  29.320  26.957  1.00  0.00     0.012 A 
ATOM     74  C   UNL A   1      41.497  27.293  28.194  1.00  0.00     0.148 A 
ATOM     75  C   UNL A   1      41.738  28.669  25.756  1.00  0.00     0.002 A 
ATOM     76  C   UNL A   1      41.272  26.635  26.993  1.00  0.00     0.091 A 
ATOM     77  F   UNL A   1      41.347  26.677  29.376  1.00  0.00    -0.205 F 
ATOM     78  C   UNL A   1      41.375  27.324  25.774  1.00  0.00     0.022 A 
BRANCH  76  79
ATOM     79  S   UNL A   1      40.881  24.884  26.907  1.00  0.00     0.127 S 
ATOM     80  O   UNL A   1      39.585  24.904  26.230  1.00  0.00    -0.237 OA
ATOM     81  O   UNL A   1      41.985  24.367  26.098  1.00  0.00    -0.237 OA
ATOM     82  O   UNL A   1      40.856  24.408  28.282  1.00  0.00    -0.744 OA
ENDBRANCH  76  79
ENDBRANCH  58  72
BRANCH  59  83
ATOM     83  C   UNL A   1      43.192  33.181  36.996  1.00  0.00     0.023 A 
ATOM     84  C   UNL A   1      43.807  34.444  37.095  1.00  0.00     0.012 A 
ATOM     85  C   UNL A   1      42.777  32.527  38.173  1.00  0.00     0.148 A 
ATOM     86  C   UNL A   1      44.033  35.032  38.340  1.00  0.00     0.002 A 
ATOM     87  C   UNL A   1      42.953  33.143  39.406  1.00  0.00     0.091 A 
ATOM     88  F   UNL A   1      42.208  31.319  38.059  1.00  0.00    -0.205 F 
ATOM     89  C   UNL A   1      43.597  34.386  39.494  1.00  0.00     0.022 A 
BRANCH  87  90
ATOM     90  S   UNL A   1      42.319  32.445  40.934  1.00  0.00     0.127 S 
ATOM     91  O   UNL A   1      40.893  32.324  40.639  1.00  0.00    -0.237 OA
ATOM     92  O   UNL A   1      43.047  31.178  41.002  1.00  0.00    -0.237 OA
ATOM     93  O   UNL A   1      42.665  33.400  41.978  1.00  0.00    -0.744 OA
ENDBRANCH  87  90
ENDBRANCH  59  83
BRANCH  71  94
ATOM     94  C   UNL A   1      47.269  29.206  32.946  1.00  0.00     0.023 A 
ATOM     95  C   UNL A   1      47.539  27.950  33.523  1.00  0.00     0.012 A 
ATOM     96  C   UNL A   1      48.334  29.970  32.427  1.00  0.00     0.148 A 
ATOM     97  C   UNL A   1      48.849  27.481  33.619  1.00  0.00     0.002 A 
ATOM     98  C   UNL A   1      49.629  29.471  32.473  1.00  0.00     0.091 A 
ATOM     99  F   UNL A   1      48.058  31.168  31.891  1.00  0.00    -0.205 F 
ATOM    100  C   UNL A   1      49.892  28.235  33.083  1.00  0.00     0.022 A 
BRANCH  98 101
ATOM    101  S   UNL A   1      51.019  30.324  31.718  1.00  0.00     0.127 S 
ATOM    102  O   UNL A   1      51.761  30.780  32.893  1.00  0.00    -0.237 OA
ATOM    103  O   UNL A   1      51.667  29.250  30.965  1.00  0.00    -0.237 OA
ATOM    104  O   UNL A   1      50.447  31.382  30.896  1.00  0.00    -0.744 OA
ENDBRANCH  98 101
ENDBRANCH  71  94
ENDBRANCH  45  46
ENDBRANCH  38  40
ENDBRANCH  37  38
ENDBRANCH  36  37
ENDBRANCH  35  36
ENDBRANCH  34  35
ENDBRANCH  33  34
ENDBRANCH  32  33
ENDBRANCH   1  32
TORSDOF 28
ENDMDL
MODEL 2
REMARK VINA RESULT:     -10.0      2.323      2.579
REMARK SMILES Cc1ccc(NC(=O)C[C@@H](C(=O)OCCOCCOCCOCCOC(=O)c2ccc(-c3c4nc(c(-c5cccc(S(=O)(=O)[O-])c5F)c5ccc([nH]5)c(-c5cccc(S(=O)(=O)[O-])c5F)c5nc(c(-c6cccc(S(=O)(=O)[O-])c6F)c6ccc3[nH]6)C=C5)C=C4)cc2)[C@@H](C)c2ccccc2)cc1Br
REMARK SMILES IDX 19 1 18 2 17 3 16 4 15 5 14 6 13 7 11 8 12 9 10 10 9 11 7 12
REMARK SMILES IDX 6 13 8 15 5 16 1 17 2 18 3 19 100 20 4 21 99 22 101 23 91 24
REMARK SMILES IDX 92 25 93 26 94 27 98 28 95 29 97 30 96 31 20 32 21 33 22 34
REMARK SMILES IDX 23 35 24 36 25 37 26 38 27 39 28 40 29 41 90 42 30 43 89 44
REMARK SMILES IDX 31 45 32 46 33 47 83 48 34 49 88 50 82 51 84 52 35 53 87 54
REMARK SMILES IDX 81 55 80 56 36 58 68 59 48 60 67 61 49 62 52 63 66 64 85 65
REMARK SMILES IDX 50 66 51 67 65 69 86 70 53 71 37 72 38 73 46 74 39 75 41 76
REMARK SMILES IDX 47 77 40 78 42 79 43 80 44 81 45 82 69 83 70 84 78 85 71 86
REMARK SMILES IDX 73 87 79 88 72 89 74 90 75 91 76 92 77 93 54 94 55 95 63 96
REMARK SMILES IDX 56 97 58 98 64 99 57 100 59 101 60 102 61 103 62 104
REMARK H PARENT 6 14 84 57 52 68
REMARK Flexibility Score: inf
ROOT
ATOM      1  O   UNL A   1      34.383  34.311  27.981  1.00  0.00    -0.377 OA
ENDROOT
BRANCH   1   2
ATOM      2  C   UNL A   1      35.522  33.634  28.417  1.00  0.00     0.188 C 
BRANCH   2   3
ATOM      3  C   UNL A   1      35.317  32.135  28.635  1.00  0.00     0.188 C 
BRANCH   3   4
ATOM      4  O   UNL A   1      35.228  31.238  27.513  1.00  0.00    -0.376 OA
BRANCH   4   5
ATOM      5  C   UNL A   1      34.972  29.665  27.550  1.00  0.00     0.202 C 
BRANCH   5   6
ATOM      6  C   UNL A   1      34.059  28.346  26.054  1.00  0.00     0.261 C 
BRANCH   6   7
ATOM      7  O   UNL A   1      33.069  27.005  26.461  1.00  0.00    -0.463 OA
BRANCH   7   8
ATOM      8  C   UNL A   1      31.718  26.929  26.525  1.00  0.00     0.310 C 
ATOM      9  O   UNL A   1      31.113  27.583  27.368  1.00  0.00    -0.252 OA
BRANCH   8  10
ATOM     10  C   UNL A   1      30.981  25.881  25.569  1.00  0.00     0.116 C 
BRANCH  10  11
ATOM     11  C   UNL A   1      31.217  24.349  25.638  1.00  0.00     0.116 C 
BRANCH  11  12
ATOM     12  C   UNL A   1      30.754  23.435  26.734  1.00  0.00     0.225 C 
ATOM     13  N   UNL A   1      31.373  22.269  27.002  1.00  0.00    -0.326 N 
ATOM     14  H   UNL A   1      30.919  21.710  27.673  1.00  0.00     0.169 HD
ATOM     15  O   UNL A   1      29.714  23.699  27.343  1.00  0.00    -0.275 OA
BRANCH  13  16
ATOM     16  C   UNL A   1      32.547  21.719  26.492  1.00  0.00     0.042 A 
ATOM     17  C   UNL A   1      37.091  20.202  24.957  1.00  0.00     0.045 C 
ATOM     18  C   UNL A   1      35.706  20.814  24.984  1.00  0.00    -0.037 A 
ATOM     19  C   UNL A   1      35.527  22.348  25.891  1.00  0.00     0.007 A 
ATOM     20  C   UNL A   1      34.314  19.705  24.784  1.00  0.00     0.022 A 
ATOM     21  C   UNL A   1      33.974  22.799  26.637  1.00  0.00     0.026 A 
ATOM     22  C   UNL A   1      32.715  20.163  25.538  1.00  0.00     0.042 A 
ATOM     23  Br  UNL A   1      34.733  17.923  24.207  1.00  0.00    -0.050 Br
ENDBRANCH  13  16
ENDBRANCH  11  12
ENDBRANCH  10  11
BRANCH  10  24
ATOM     24  C   UNL A   1      31.018  26.242  24.003  1.00  0.00     0.031 C 
ATOM     25  C   UNL A   1      30.795  25.038  23.068  1.00  0.00     0.013 C 
BRANCH  24  26
ATOM     26  C   UNL A   1      30.200  27.453  23.625  1.00  0.00    -0.044 A 
ATOM     27  C   UNL A   1      30.724  28.668  23.203  1.00  0.00     0.004 A 
ATOM     28  C   UNL A   1      28.812  27.296  23.601  1.00  0.00     0.004 A 
ATOM     29  C   UNL A   1      29.868  29.647  22.683  1.00  0.00     0.000 A 
ATOM     30  C   UNL A   1      27.959  28.233  23.040  1.00  0.00     0.000 A 
ATOM     31  C   UNL A   1      28.495  29.415  22.565  1.00  0.00     0.000 A 
ENDBRANCH  24  26
ENDBRANCH  10  24
ENDBRANCH   8  10
ENDBRANCH   7   8
ENDBRANCH   6   7
ENDBRANCH   5   6
ENDBRANCH   4   5
ENDBRANCH   3   4
ENDBRANCH   2   3
ENDBRANCH   1   2
BRANCH   1  32
ATOM     32  C   UNL A   1      33.935  35.440  28.703  1.00  0.00     0.188 C 
BRANCH  32  33
ATOM     33  C   UNL A   1      32.778  35.391  29.736  1.00  0.00     0.188 C 
BRANCH  33  34
ATOM     34  O   UNL A   1      32.750  36.132  30.941  1.00  0.00    -0.376 OA
BRANCH  34  35
ATOM     35  C   UNL A   1      33.885  36.400  31.723  1.00  0.00     0.202 C 
BRANCH  35  36
ATOM     36  C   UNL A   1      33.879  36.361  33.256  1.00  0.00     0.261 C 
BRANCH  36  37
ATOM     37  O   UNL A   1      34.601  35.309  33.904  1.00  0.00    -0.460 OA
BRANCH  37  38
ATOM     38  C   UNL A   1      34.470  34.067  33.373  1.00  0.00     0.338 C 
ATOM     39  O   UNL A   1      33.419  33.481  33.176  1.00  0.00    -0.246 OA
BRANCH  38  40
ATOM     40  C   UNL A   1      35.786  33.609  32.836  1.00  0.00     0.060 A 
ATOM     41  C   UNL A   1      36.381  32.470  33.407  1.00  0.00     0.016 A 
ATOM     42  C   UNL A   1      36.418  34.254  31.769  1.00  0.00     0.016 A 
ATOM     43  C   UNL A   1      37.626  32.017  32.970  1.00  0.00     0.010 A 
ATOM     44  C   UNL A   1      37.689  33.827  31.358  1.00  0.00     0.010 A 
ATOM     45  C   UNL A   1      38.323  32.746  32.002  1.00  0.00    -0.014 A 
BRANCH  45  46
ATOM     46  C   UNL A   1      39.799  32.597  31.925  1.00  0.00     0.031 A 
ATOM     47  C   UNL A   1      40.339  31.647  30.884  1.00  0.00     0.074 A 
ATOM     48  C   UNL A   1      40.646  33.288  32.707  1.00  0.00     0.049 A 
ATOM     49  N   UNL A   1      41.572  31.293  30.636  1.00  0.00    -0.248 NA
ATOM     50  C   UNL A   1      39.345  31.005  30.006  1.00  0.00     0.031 C 
ATOM     51  C   UNL A   1      40.261  34.271  33.716  1.00  0.00     0.029 A 
ATOM     52  N   UNL A   1      42.017  33.243  32.784  1.00  0.00    -0.354 N 
ATOM     53  C   UNL A   1      41.496  30.357  29.612  1.00  0.00     0.074 A 
ATOM     54  C   UNL A   1      40.099  30.191  29.286  1.00  0.00     0.031 C 
ATOM     55  C   UNL A   1      41.370  34.714  34.336  1.00  0.00     0.029 A 
ATOM     56  C   UNL A   1      42.537  34.021  33.791  1.00  0.00     0.049 A 
ATOM     57  H   UNL A   1      42.574  32.706  32.176  1.00  0.00     0.167 HD
ATOM     58  C   UNL A   1      42.497  29.692  28.990  1.00  0.00     0.034 A 
ATOM     59  C   UNL A   1      43.805  34.131  34.242  1.00  0.00     0.034 A 
ATOM     60  C   UNL A   1      43.888  29.859  29.309  1.00  0.00     0.049 A 
ATOM     61  C   UNL A   1      44.901  33.338  33.573  1.00  0.00     0.074 A 
ATOM     62  C   UNL A   1      44.983  29.265  28.710  1.00  0.00     0.029 A 
ATOM     63  N   UNL A   1      44.372  30.660  30.331  1.00  0.00    -0.354 N 
ATOM     64  N   UNL A   1      44.826  32.522  32.549  1.00  0.00    -0.248 NA
ATOM     65  C   UNL A   1      46.263  33.501  34.106  1.00  0.00     0.031 C 
ATOM     66  C   UNL A   1      46.126  29.660  29.410  1.00  0.00     0.029 A 
ATOM     67  C   UNL A   1      45.750  30.556  30.398  1.00  0.00     0.049 A 
ATOM     68  H   UNL A   1      43.819  31.221  30.921  1.00  0.00     0.167 HD
ATOM     69  C   UNL A   1      46.131  32.112  32.288  1.00  0.00     0.074 A 
ATOM     70  C   UNL A   1      46.977  32.780  33.253  1.00  0.00     0.031 C 
ATOM     71  C   UNL A   1      46.586  31.258  31.338  1.00  0.00     0.034 A 
BRANCH  58  72
ATOM     72  C   UNL A   1      42.119  28.700  27.921  1.00  0.00     0.023 A 
ATOM     73  C   UNL A   1      42.018  29.106  26.575  1.00  0.00     0.012 A 
ATOM     74  C   UNL A   1      41.888  27.351  28.254  1.00  0.00     0.148 A 
ATOM     75  C   UNL A   1      41.653  28.195  25.584  1.00  0.00     0.002 A 
ATOM     76  C   UNL A   1      41.579  26.438  27.255  1.00  0.00     0.091 A 
ATOM     77  F   UNL A   1      41.964  26.990  29.543  1.00  0.00    -0.205 F 
ATOM     78  C   UNL A   1      41.444  26.860  25.922  1.00  0.00     0.022 A 
BRANCH  76  79
ATOM     79  S   UNL A   1      41.374  24.684  27.578  1.00  0.00     0.127 S 
ATOM     80  O   UNL A   1      41.556  24.115  26.243  1.00  0.00    -0.237 OA
ATOM     81  O   UNL A   1      42.471  24.417  28.509  1.00  0.00    -0.237 OA
ATOM     82  O   UNL A   1      40.043  24.529  28.144  1.00  0.00    -0.744 OA
ENDBRANCH  76  79
ENDBRANCH  58  72
BRANCH  59  83
ATOM     83  C   UNL A   1      44.119  35.034  35.386  1.00  0.00     0.023 A 
ATOM     84  C   UNL A   1      44.090  34.535  36.703  1.00  0.00     0.012 A 
ATOM     85  C   UNL A   1      44.441  36.389  35.174  1.00  0.00     0.148 A 
ATOM     86  C   UNL A   1      44.346  35.373  37.789  1.00  0.00     0.002 A 
ATOM     87  C   UNL A   1      44.751  37.204  36.256  1.00  0.00     0.091 A 
ATOM     88  F   UNL A   1      44.449  36.849  33.915  1.00  0.00    -0.205 F 
ATOM     89  C   UNL A   1      44.686  36.705  37.565  1.00  0.00     0.022 A 
BRANCH  87  90
ATOM     90  S   UNL A   1      45.316  38.898  36.059  1.00  0.00     0.127 S 
ATOM     91  O   UNL A   1      45.470  39.325  37.447  1.00  0.00    -0.237 OA
ATOM     92  O   UNL A   1      46.568  38.707  35.327  1.00  0.00    -0.237 OA
ATOM     93  O   UNL A   1      44.270  39.577  35.306  1.00  0.00    -0.744 OA
ENDBRANCH  87  90
ENDBRANCH  59  83
BRANCH  71  94
ATOM     94  C   UNL A   1      48.076  31.037  31.241  1.00  0.00     0.023 A 
ATOM     95  C   UNL A   1      48.688  29.974  31.933  1.00  0.00     0.012 A 
ATOM     96  C   UNL A   1      48.857  31.847  30.393  1.00  0.00     0.148 A 
ATOM     97  C   UNL A   1      50.059  29.747  31.816  1.00  0.00     0.002 A 
ATOM     98  C   UNL A   1      50.211  31.580  30.235  1.00  0.00     0.091 A 
ATOM     99  F   UNL A   1      48.259  32.861  29.750  1.00  0.00    -0.205 F 
ATOM    100  C   UNL A   1      50.817  30.542  30.958  1.00  0.00     0.022 A 
BRANCH  98 101
ATOM    101  S   UNL A   1      51.244  32.484  29.076  1.00  0.00     0.127 S 
ATOM    102  O   UNL A   1      51.428  33.758  29.772  1.00  0.00    -0.237 OA
ATOM    103  O   UNL A   1      52.442  31.645  29.012  1.00  0.00    -0.237 OA
ATOM    104  O   UNL A   1      50.488  32.560  27.833  1.00  0.00    -0.744 OA
ENDBRANCH  98 101
ENDBRANCH  71  94
ENDBRANCH  45  46
ENDBRANCH  38  40
ENDBRANCH  37  38
ENDBRANCH  36  37
ENDBRANCH  35  36
ENDBRANCH  34  35
ENDBRANCH  33  34
ENDBRANCH  32  33
ENDBRANCH   1  32
TORSDOF 28
ENDMDL
MODEL 3
REMARK VINA RESULT:      -9.5      5.026     10.409
REMARK SMILES Cc1ccc(NC(=O)C[C@@H](C(=O)OCCOCCOCCOCCOC(=O)c2ccc(-c3c4nc(c(-c5cccc(S(=O)(=O)[O-])c5F)c5ccc([nH]5)c(-c5cccc(S(=O)(=O)[O-])c5F)c5nc(c(-c6cccc(S(=O)(=O)[O-])c6F)c6ccc3[nH]6)C=C5)C=C4)cc2)[C@@H](C)c2ccccc2)cc1Br
REMARK SMILES IDX 19 1 18 2 17 3 16 4 15 5 14 6 13 7 11 8 12 9 10 10 9 11 7 12
REMARK SMILES IDX 6 13 8 15 5 16 1 17 2 18 3 19 100 20 4 21 99 22 101 23 91 24
REMARK SMILES IDX 92 25 93 26 94 27 98 28 95 29 97 30 96 31 20 32 21 33 22 34
REMARK SMILES IDX 23 35 24 36 25 37 26 38 27 39 28 40 29 41 90 42 30 43 89 44
REMARK SMILES IDX 31 45 32 46 33 47 83 48 34 49 88 50 82 51 84 52 35 53 87 54
REMARK SMILES IDX 81 55 80 56 36 58 68 59 48 60 67 61 49 62 52 63 66 64 85 65
REMARK SMILES IDX 50 66 51 67 65 69 86 70 53 71 37 72 38 73 46 74 39 75 41 76
REMARK SMILES IDX 47 77 40 78 42 79 43 80 44 81 45 82 69 83 70 84 78 85 71 86
REMARK SMILES IDX 73 87 79 88 72 89 74 90 75 91 76 92 77 93 54 94 55 95 63 96
REMARK SMILES IDX 56 97 58 98 64 99 57 100 59 101 60 102 61 103 62 104
REMARK H PARENT 6 14 84 57 52 68
REMARK Flexibility Score: inf
ROOT
ATOM      1  O   UNL A   1      42.121  26.326  26.814  1.00  0.00    -0.377 OA
ENDROOT
BRANCH   1   2
ATOM      2  C   UNL A   1      41.496  25.788  27.939  1.00  0.00     0.188 C 
BRANCH   2   3
ATOM      3  C   UNL A   1      40.013  25.472  27.744  1.00  0.00     0.188 C 
BRANCH   3   4
ATOM      4  O   UNL A   1      39.565  24.109  27.629  1.00  0.00    -0.376 OA
BRANCH   4   5
ATOM      5  C   UNL A   1      38.154  23.596  27.095  1.00  0.00     0.202 C 
BRANCH   5   6
ATOM      6  C   UNL A   1      37.397  23.419  25.043  1.00  0.00     0.261 C 
BRANCH   6   7
ATOM      7  O   UNL A   1      36.056  24.311  24.455  1.00  0.00    -0.463 OA
BRANCH   7   8
ATOM      8  C   UNL A   1      34.956  23.868  23.801  1.00  0.00     0.310 C 
ATOM      9  O   UNL A   1      35.018  23.631  22.599  1.00  0.00    -0.252 OA
BRANCH   8  10
ATOM     10  C   UNL A   1      33.581  23.793  24.614  1.00  0.00     0.116 C 
BRANCH  10  11
ATOM     11  C   UNL A   1      33.496  23.890  26.160  1.00  0.00     0.116 C 
BRANCH  11  12
ATOM     12  C   UNL A   1      32.267  23.671  26.991  1.00  0.00     0.225 C 
ATOM     13  N   UNL A   1      31.266  24.573  27.040  1.00  0.00    -0.326 N 
ATOM     14  H   UNL A   1      30.562  24.365  27.696  1.00  0.00     0.169 HD
ATOM     15  O   UNL A   1      32.206  22.689  27.735  1.00  0.00    -0.275 OA
BRANCH  13  16
ATOM     16  C   UNL A   1      31.059  25.748  26.322  1.00  0.00     0.042 A 
ATOM     17  C   UNL A   1      29.898  29.658  23.377  1.00  0.00     0.045 C 
ATOM     18  C   UNL A   1      30.627  28.485  23.999  1.00  0.00    -0.037 A 
ATOM     19  C   UNL A   1      29.984  26.855  23.628  1.00  0.00     0.007 A 
ATOM     20  C   UNL A   1      31.521  28.788  25.521  1.00  0.00     0.022 A 
ATOM     21  C   UNL A   1      30.193  25.503  24.769  1.00  0.00     0.026 A 
ATOM     22  C   UNL A   1      31.748  27.406  26.693  1.00  0.00     0.042 A 
ATOM     23  Br  UNL A   1      31.752  30.629  26.010  1.00  0.00    -0.050 Br
ENDBRANCH  13  16
ENDBRANCH  11  12
ENDBRANCH  10  11
BRANCH  10  24
ATOM     24  C   UNL A   1      32.618  22.569  24.215  1.00  0.00     0.031 C 
ATOM     25  C   UNL A   1      31.770  22.813  22.952  1.00  0.00     0.013 C 
BRANCH  24  26
ATOM     26  C   UNL A   1      33.291  21.218  24.233  1.00  0.00    -0.044 A 
ATOM     27  C   UNL A   1      34.593  20.981  24.653  1.00  0.00     0.004 A 
ATOM     28  C   UNL A   1      32.500  20.115  23.899  1.00  0.00     0.004 A 
ATOM     29  C   UNL A   1      35.037  19.664  24.820  1.00  0.00     0.000 A 
ATOM     30  C   UNL A   1      32.908  18.807  24.110  1.00  0.00     0.000 A 
ATOM     31  C   UNL A   1      34.184  18.581  24.588  1.00  0.00     0.000 A 
ENDBRANCH  24  26
ENDBRANCH  10  24
ENDBRANCH   8  10
ENDBRANCH   7   8
ENDBRANCH   6   7
ENDBRANCH   5   6
ENDBRANCH   4   5
ENDBRANCH   3   4
ENDBRANCH   2   3
ENDBRANCH   1   2
BRANCH   1  32
ATOM     32  C   UNL A   1      41.971  25.678  25.568  1.00  0.00     0.188 C 
BRANCH  32  33
ATOM     33  C   UNL A   1      42.538  24.267  25.262  1.00  0.00     0.188 C 
BRANCH  33  34
ATOM     34  O   UNL A   1      43.688  23.717  25.874  1.00  0.00    -0.376 OA
BRANCH  34  35
ATOM     35  C   UNL A   1      44.810  23.258  25.164  1.00  0.00     0.202 C 
BRANCH  35  36
ATOM     36  C   UNL A   1      46.129  22.860  25.840  1.00  0.00     0.261 C 
BRANCH  36  37
ATOM     37  O   UNL A   1      47.108  23.881  26.053  1.00  0.00    -0.460 OA
BRANCH  37  38
ATOM     38  C   UNL A   1      47.019  24.981  25.263  1.00  0.00     0.338 C 
ATOM     39  O   UNL A   1      47.291  25.033  24.076  1.00  0.00    -0.246 OA
BRANCH  38  40
ATOM     40  C   UNL A   1      46.307  26.070  25.998  1.00  0.00     0.060 A 
ATOM     41  C   UNL A   1      45.544  26.989  25.255  1.00  0.00     0.016 A 
ATOM     42  C   UNL A   1      46.349  26.176  27.391  1.00  0.00     0.016 A 
ATOM     43  C   UNL A   1      44.886  28.046  25.884  1.00  0.00     0.010 A 
ATOM     44  C   UNL A   1      45.725  27.264  28.019  1.00  0.00     0.010 A 
ATOM     45  C   UNL A   1      45.046  28.236  27.260  1.00  0.00    -0.014 A 
BRANCH  45  46
ATOM     46  C   UNL A   1      44.815  29.591  27.822  1.00  0.00     0.031 A 
ATOM     47  C   UNL A   1      45.886  30.626  27.581  1.00  0.00     0.074 A 
ATOM     48  C   UNL A   1      43.695  29.925  28.489  1.00  0.00     0.049 A 
ATOM     49  N   UNL A   1      45.961  31.863  27.998  1.00  0.00    -0.248 NA
ATOM     50  C   UNL A   1      47.032  30.202  26.758  1.00  0.00     0.031 C 
ATOM     51  C   UNL A   1      42.565  29.039  28.748  1.00  0.00     0.029 A 
ATOM     52  N   UNL A   1      43.344  31.109  29.092  1.00  0.00    -0.354 N 
ATOM     53  C   UNL A   1      47.179  32.344  27.530  1.00  0.00     0.074 A 
ATOM     54  C   UNL A   1      47.812  31.268  26.803  1.00  0.00     0.031 C 
ATOM     55  C   UNL A   1      41.656  29.700  29.489  1.00  0.00     0.029 A 
ATOM     56  C   UNL A   1      42.157  31.043  29.782  1.00  0.00     0.049 A 
ATOM     57  H   UNL A   1      43.890  31.925  29.035  1.00  0.00     0.167 HD
ATOM     58  C   UNL A   1      47.726  33.571  27.687  1.00  0.00     0.034 A 
ATOM     59  C   UNL A   1      41.564  31.950  30.586  1.00  0.00     0.034 A 
ATOM     60  C   UNL A   1      47.094  34.643  28.404  1.00  0.00     0.049 A 
ATOM     61  C   UNL A   1      42.218  33.295  30.794  1.00  0.00     0.074 A 
ATOM     62  C   UNL A   1      47.544  35.937  28.585  1.00  0.00     0.029 A 
ATOM     63  N   UNL A   1      45.891  34.537  29.083  1.00  0.00    -0.354 N 
ATOM     64  N   UNL A   1      43.326  33.766  30.276  1.00  0.00    -0.248 NA
ATOM     65  C   UNL A   1      41.523  34.244  31.679  1.00  0.00     0.031 C 
ATOM     66  C   UNL A   1      46.642  36.597  29.424  1.00  0.00     0.029 A 
ATOM     67  C   UNL A   1      45.594  35.736  29.707  1.00  0.00     0.049 A 
ATOM     68  H   UNL A   1      45.329  33.729  29.116  1.00  0.00     0.167 HD
ATOM     69  C   UNL A   1      43.438  35.076  30.734  1.00  0.00     0.074 A 
ATOM     70  C   UNL A   1      42.278  35.328  31.561  1.00  0.00     0.031 C 
ATOM     71  C   UNL A   1      44.414  35.987  30.494  1.00  0.00     0.034 A 
BRANCH  58  72
ATOM     72  C   UNL A   1      49.089  33.810  27.090  1.00  0.00     0.023 A 
ATOM     73  C   UNL A   1      49.217  34.314  25.781  1.00  0.00     0.012 A 
ATOM     74  C   UNL A   1      50.248  33.555  27.849  1.00  0.00     0.148 A 
ATOM     75  C   UNL A   1      50.477  34.521  25.220  1.00  0.00     0.002 A 
ATOM     76  C   UNL A   1      51.499  33.816  27.304  1.00  0.00     0.091 A 
ATOM     77  F   UNL A   1      50.107  33.053  29.084  1.00  0.00    -0.205 F 
ATOM     78  C   UNL A   1      51.616  34.283  25.985  1.00  0.00     0.022 A 
BRANCH  76  79
ATOM     79  S   UNL A   1      53.020  33.621  28.238  1.00  0.00     0.127 S 
ATOM     80  O   UNL A   1      52.831  34.592  29.315  1.00  0.00    -0.237 OA
ATOM     81  O   UNL A   1      52.940  32.221  28.657  1.00  0.00    -0.237 OA
ATOM     82  O   UNL A   1      54.103  33.920  27.313  1.00  0.00    -0.744 OA
ENDBRANCH  76  79
ENDBRANCH  58  72
BRANCH  59  83
ATOM     83  C   UNL A   1      40.272  31.628  31.257  1.00  0.00     0.023 A 
ATOM     84  C   UNL A   1      40.272  31.003  32.519  1.00  0.00     0.012 A 
ATOM     85  C   UNL A   1      39.041  31.935  30.645  1.00  0.00     0.148 A 
ATOM     86  C   UNL A   1      39.073  30.662  33.146  1.00  0.00     0.002 A 
ATOM     87  C   UNL A   1      37.850  31.645  31.300  1.00  0.00     0.091 A 
ATOM     88  F   UNL A   1      39.061  32.516  29.437  1.00  0.00    -0.205 F 
ATOM     89  C   UNL A   1      37.863  30.991  32.542  1.00  0.00     0.022 A 
BRANCH  87  90
ATOM     90  S   UNL A   1      36.247  32.137  30.657  1.00  0.00     0.127 S 
ATOM     91  O   UNL A   1      36.157  31.338  29.437  1.00  0.00    -0.237 OA
ATOM     92  O   UNL A   1      35.356  31.720  31.739  1.00  0.00    -0.237 OA
ATOM     93  O   UNL A   1      36.327  33.578  30.458  1.00  0.00    -0.744 OA
ENDBRANCH  87  90
ENDBRANCH  59  83
BRANCH  71  94
ATOM     94  C   UNL A   1      44.250  37.370  31.076  1.00  0.00     0.023 A 
ATOM     95  C   UNL A   1      44.793  37.685  32.336  1.00  0.00     0.012 A 
ATOM     96  C   UNL A   1      43.617  38.381  30.326  1.00  0.00     0.148 A 
ATOM     97  C   UNL A   1      44.672  38.972  32.859  1.00  0.00     0.002 A 
ATOM     98  C   UNL A   1      43.552  39.675  30.826  1.00  0.00     0.091 A 
ATOM     99  F   UNL A   1      43.097  38.061  29.132  1.00  0.00    -0.205 F 
ATOM    100  C   UNL A   1      44.064  39.969  32.099  1.00  0.00     0.022 A 
BRANCH  98 101
ATOM    101  S   UNL A   1      42.879  41.045  29.877  1.00  0.00     0.127 S 
ATOM    102  O   UNL A   1      42.616  42.031  30.924  1.00  0.00    -0.237 OA
ATOM    103  O   UNL A   1      43.992  41.379  28.988  1.00  0.00    -0.237 OA
ATOM    104  O   UNL A   1      41.697  40.526  29.201  1.00  0.00    -0.744 OA
ENDBRANCH  98 101
ENDBRANCH  71  94
ENDBRANCH  45  46
ENDBRANCH  38  40
ENDBRANCH  37  38
ENDBRANCH  36  37
ENDBRANCH  35  36
ENDBRANCH  34  35
ENDBRANCH  33  34
ENDBRANCH  32  33
ENDBRANCH   1  32
TORSDOF 28
ENDMDL
