MODEL 1
REMARK VINA RESULT:      -7.6      0.000      0.000
REMARK SMILES O=C(OCCOCCOCCOCCOC(=O)c1cccc(Nc2ccc([N+](=O)[O-])cc2)c1)c1ccc(-c2c3nc(c(-c4cccc(S(=O)(=O)[O-])c4F)c4ccc([nH]4)c(-c4cccc(S(=O)(=O)[O-])c4F)c4nc(c(-c5cccc(S(=O)(=O)[O-])c5F)c5ccc2[nH]5)C=C4)C=C3)cc1
REMARK SMILES IDX 9 1 8 2 7 3 6 4 5 5 4 6 3 7 2 8 1 9 34 10 35 11 96 12 36 13
REMARK SMILES IDX 95 14 37 15 38 16 39 17 89 18 40 19 94 20 88 21 90 22 41 23
REMARK SMILES IDX 93 24 87 25 86 26 42 28 74 29 54 30 73 31 55 32 58 33 72 34
REMARK SMILES IDX 91 35 56 36 57 37 71 39 92 40 59 41 43 42 44 43 52 44 45 45
REMARK SMILES IDX 47 46 53 47 46 48 48 49 49 50 50 51 51 52 75 53 76 54 84 55
REMARK SMILES IDX 77 56 79 57 85 58 78 59 80 60 81 61 82 62 83 63 60 64 61 65
REMARK SMILES IDX 69 66 62 67 64 68 70 69 63 70 65 71 66 72 67 73 68 74 10 75
REMARK SMILES IDX 11 76 12 77 13 78 14 79 15 80 16 81 17 82 18 83 19 84 33 85
REMARK SMILES IDX 20 86 22 87 21 88 23 89 24 91 25 92 32 93 26 94 31 95 27 96
REMARK SMILES IDX 28 97 29 98 30 99
REMARK H PARENT 90 27 58 38 23 90
REMARK Flexibility Score: inf
ROOT
ATOM      1  O   UNL A   1      41.528  24.843  26.781  1.00  0.00    -0.377 OA
ENDROOT
BRANCH   1   2
ATOM      2  C   UNL A   1      41.669  23.516  26.275  1.00  0.00     0.188 C 
BRANCH   2   3
ATOM      3  C   UNL A   1      42.605  22.606  27.070  1.00  0.00     0.188 C 
BRANCH   3   4
ATOM      4  O   UNL A   1      43.823  22.374  26.364  1.00  0.00    -0.376 OA
BRANCH   4   5
ATOM      5  C   UNL A   1      43.779  22.583  24.955  1.00  0.00     0.202 C 
BRANCH   5   6
ATOM      6  C   UNL A   1      44.896  23.473  24.405  1.00  0.00     0.261 C 
BRANCH   6   7
ATOM      7  O   UNL A   1      45.574  24.209  25.431  1.00  0.00    -0.460 OA
BRANCH   7   8
ATOM      8  C   UNL A   1      45.894  25.528  25.426  1.00  0.00     0.338 C 
ATOM      9  O   UNL A   1      46.543  25.955  24.472  1.00  0.00    -0.246 OA
BRANCH   8  10
ATOM     10  C   UNL A   1      45.516  26.496  26.508  1.00  0.00     0.060 A 
ATOM     11  C   UNL A   1      46.409  27.239  27.285  1.00  0.00     0.016 A 
ATOM     12  C   UNL A   1      44.144  26.736  26.689  1.00  0.00     0.016 A 
ATOM     13  C   UNL A   1      45.977  28.161  28.227  1.00  0.00     0.010 A 
ATOM     14  C   UNL A   1      43.694  27.672  27.626  1.00  0.00     0.010 A 
ATOM     15  C   UNL A   1      44.618  28.376  28.406  1.00  0.00    -0.014 A 
BRANCH  15  16
ATOM     16  C   UNL A   1      44.197  29.239  29.519  1.00  0.00     0.031 A 
ATOM     17  C   UNL A   1      43.989  28.596  30.853  1.00  0.00     0.074 A 
ATOM     18  C   UNL A   1      44.092  30.567  29.340  1.00  0.00     0.049 A 
ATOM     19  N   UNL A   1      43.523  29.113  31.954  1.00  0.00    -0.248 NA
ATOM     20  C   UNL A   1      44.370  27.175  30.967  1.00  0.00     0.031 C 
ATOM     21  C   UNL A   1      44.394  31.277  28.093  1.00  0.00     0.029 A 
ATOM     22  N   UNL A   1      43.690  31.554  30.199  1.00  0.00    -0.354 N 
ATOM     23  C   UNL A   1      43.481  28.068  32.866  1.00  0.00     0.074 A 
ATOM     24  C   UNL A   1      44.012  26.895  32.211  1.00  0.00     0.031 C 
ATOM     25  C   UNL A   1      44.132  32.583  28.261  1.00  0.00     0.029 A 
ATOM     26  C   UNL A   1      43.582  32.786  29.595  1.00  0.00     0.049 A 
ATOM     27  H   UNL A   1      43.499  31.399  31.152  1.00  0.00     0.167 HD
ATOM     28  C   UNL A   1      43.012  28.093  34.132  1.00  0.00     0.034 A 
ATOM     29  C   UNL A   1      43.031  33.924  30.059  1.00  0.00     0.034 A 
ATOM     30  C   UNL A   1      42.507  29.283  34.752  1.00  0.00     0.049 A 
ATOM     31  C   UNL A   1      42.463  33.905  31.455  1.00  0.00     0.074 A 
ATOM     32  C   UNL A   1      42.011  29.444  36.030  1.00  0.00     0.029 A 
ATOM     33  N   UNL A   1      42.416  30.515  34.120  1.00  0.00    -0.354 N 
ATOM     34  N   UNL A   1      42.475  32.932  32.336  1.00  0.00    -0.248 NA
ATOM     35  C   UNL A   1      41.807  35.132  31.925  1.00  0.00     0.031 C 
ATOM     36  C   UNL A   1      41.578  30.767  36.156  1.00  0.00     0.029 A 
ATOM     37  C   UNL A   1      41.840  31.438  34.968  1.00  0.00     0.049 A 
ATOM     38  H   UNL A   1      42.718  30.703  33.201  1.00  0.00     0.167 HD
ATOM     39  C   UNL A   1      41.844  33.431  33.468  1.00  0.00     0.074 A 
ATOM     40  C   UNL A   1      41.492  34.806  33.171  1.00  0.00     0.031 C 
ATOM     41  C   UNL A   1      41.555  32.812  34.639  1.00  0.00     0.034 A 
BRANCH  28  42
ATOM     42  C   UNL A   1      42.965  26.795  34.885  1.00  0.00     0.023 A 
ATOM     43  C   UNL A   1      41.794  26.013  34.895  1.00  0.00     0.012 A 
ATOM     44  C   UNL A   1      44.106  26.347  35.579  1.00  0.00     0.148 A 
ATOM     45  C   UNL A   1      41.753  24.812  35.605  1.00  0.00     0.002 A 
ATOM     46  C   UNL A   1      44.070  25.132  36.249  1.00  0.00     0.091 A 
ATOM     47  F   UNL A   1      45.197  27.125  35.579  1.00  0.00    -0.205 F 
ATOM     48  C   UNL A   1      42.892  24.369  36.274  1.00  0.00     0.022 A 
BRANCH  46  49
ATOM     49  S   UNL A   1      45.501  24.447  37.091  1.00  0.00     0.127 S 
ATOM     50  O   UNL A   1      45.151  23.029  37.162  1.00  0.00    -0.237 OA
ATOM     51  O   UNL A   1      46.581  24.763  36.157  1.00  0.00    -0.237 OA
ATOM     52  O   UNL A   1      45.580  25.128  38.376  1.00  0.00    -0.744 OA
ENDBRANCH  46  49
ENDBRANCH  28  42
BRANCH  29  53
ATOM     53  C   UNL A   1      42.936  35.136  29.193  1.00  0.00     0.023 A 
ATOM     54  C   UNL A   1      41.776  35.367  28.429  1.00  0.00     0.012 A 
ATOM     55  C   UNL A   1      43.996  36.064  29.117  1.00  0.00     0.148 A 
ATOM     56  C   UNL A   1      41.688  36.475  27.583  1.00  0.00     0.002 A 
ATOM     57  C   UNL A   1      43.879  37.196  28.319  1.00  0.00     0.091 A 
ATOM     58  F   UNL A   1      45.108  35.820  29.826  1.00  0.00    -0.205 F 
ATOM     59  C   UNL A   1      42.733  37.394  27.536  1.00  0.00     0.022 A 
BRANCH  57  60
ATOM     60  S   UNL A   1      45.125  38.490  28.306  1.00  0.00     0.127 S 
ATOM     61  O   UNL A   1      44.348  39.649  27.875  1.00  0.00    -0.237 OA
ATOM     62  O   UNL A   1      45.549  38.520  29.707  1.00  0.00    -0.237 OA
ATOM     63  O   UNL A   1      46.153  38.030  27.383  1.00  0.00    -0.744 OA
ENDBRANCH  57  60
ENDBRANCH  29  53
BRANCH  41  64
ATOM     64  C   UNL A   1      40.844  33.618  35.688  1.00  0.00     0.023 A 
ATOM     65  C   UNL A   1      39.443  33.542  35.792  1.00  0.00     0.012 A 
ATOM     66  C   UNL A   1      41.580  34.348  36.640  1.00  0.00     0.148 A 
ATOM     67  C   UNL A   1      38.779  34.200  36.825  1.00  0.00     0.002 A 
ATOM     68  C   UNL A   1      40.917  34.953  37.697  1.00  0.00     0.091 A 
ATOM     69  F   UNL A   1      42.913  34.413  36.505  1.00  0.00    -0.205 F 
ATOM     70  C   UNL A   1      39.516  34.891  37.786  1.00  0.00     0.022 A 
BRANCH  68  71
ATOM     71  S   UNL A   1      41.790  35.765  39.039  1.00  0.00     0.127 S 
ATOM     72  O   UNL A   1      42.774  34.751  39.411  1.00  0.00    -0.237 OA
ATOM     73  O   UNL A   1      42.347  36.944  38.376  1.00  0.00    -0.237 OA
ATOM     74  O   UNL A   1      40.786  36.059  40.054  1.00  0.00    -0.744 OA
ENDBRANCH  68  71
ENDBRANCH  41  64
ENDBRANCH  15  16
ENDBRANCH   8  10
ENDBRANCH   7   8
ENDBRANCH   6   7
ENDBRANCH   5   6
ENDBRANCH   4   5
ENDBRANCH   3   4
ENDBRANCH   2   3
ENDBRANCH   1   2
BRANCH   1  75
ATOM     75  C   UNL A   1      40.220  25.404  26.771  1.00  0.00     0.188 C 
BRANCH  75  76
ATOM     76  C   UNL A   1      39.218  25.036  27.892  1.00  0.00     0.188 C 
BRANCH  76  77
ATOM     77  O   UNL A   1      39.246  25.877  29.033  1.00  0.00    -0.376 OA
BRANCH  77  78
ATOM     78  C   UNL A   1      39.816  27.168  28.833  1.00  0.00     0.202 C 
BRANCH  78  79
ATOM     79  C   UNL A   1      38.851  28.331  29.105  1.00  0.00     0.261 C 
BRANCH  79  80
ATOM     80  O   UNL A   1      39.410  29.423  29.862  1.00  0.00    -0.460 OA
BRANCH  80  81
ATOM     81  C   UNL A   1      38.730  30.590  29.894  1.00  0.00     0.338 C 
ATOM     82  O   UNL A   1      38.352  31.259  28.948  1.00  0.00    -0.246 OA
BRANCH  81  83
ATOM     83  C   UNL A   1      38.310  30.815  31.294  1.00  0.00     0.062 A 
ATOM     84  C   UNL A   1      38.452  29.770  32.215  1.00  0.00     0.016 A 
ATOM     85  C   UNL A   1      37.881  32.077  31.715  1.00  0.00     0.041 A 
ATOM     86  C   UNL A   1      38.215  30.009  33.565  1.00  0.00     0.003 A 
ATOM     87  C   UNL A   1      37.551  32.300  33.058  1.00  0.00     0.039 A 
ATOM     88  C   UNL A   1      37.760  31.264  33.979  1.00  0.00     0.026 A 
BRANCH  87  89
ATOM     89  N   UNL A   1      37.005  33.548  33.431  1.00  0.00    -0.355 N 
ATOM     90  H   UNL A   1      37.391  33.983  34.226  1.00  0.00     0.167 HD
BRANCH  89  91
ATOM     91  C   UNL A   1      35.967  34.230  32.777  1.00  0.00     0.039 A 
ATOM     92  C   UNL A   1      35.478  33.729  31.562  1.00  0.00     0.033 A 
ATOM     93  C   UNL A   1      35.359  35.354  33.348  1.00  0.00     0.033 A 
ATOM     94  C   UNL A   1      34.397  34.338  30.921  1.00  0.00     0.088 A 
ATOM     95  C   UNL A   1      34.279  35.978  32.715  1.00  0.00     0.088 A 
ATOM     96  C   UNL A   1      33.801  35.464  31.503  1.00  0.00     0.269 A 
BRANCH  96  97
ATOM     97  N   UNL A   1      32.661  36.105  30.836  1.00  0.00     0.062 N 
ATOM     98  O   UNL A   1      31.857  36.731  31.542  1.00  0.00    -0.258 OA
ATOM     99  O   UNL A   1      32.567  35.981  29.606  1.00  0.00    -0.258 OA
ENDBRANCH  96  97
ENDBRANCH  89  91
ENDBRANCH  87  89
ENDBRANCH  81  83
ENDBRANCH  80  81
ENDBRANCH  79  80
ENDBRANCH  78  79
ENDBRANCH  77  78
ENDBRANCH  76  77
ENDBRANCH  75  76
ENDBRANCH   1  75
TORSDOF 26
ENDMDL
MODEL 2
REMARK VINA RESULT:      -7.5      5.875     10.008
REMARK SMILES O=C(OCCOCCOCCOCCOC(=O)c1cccc(Nc2ccc([N+](=O)[O-])cc2)c1)c1ccc(-c2c3nc(c(-c4cccc(S(=O)(=O)[O-])c4F)c4ccc([nH]4)c(-c4cccc(S(=O)(=O)[O-])c4F)c4nc(c(-c5cccc(S(=O)(=O)[O-])c5F)c5ccc2[nH]5)C=C4)C=C3)cc1
REMARK SMILES IDX 9 1 8 2 7 3 6 4 5 5 4 6 3 7 2 8 1 9 34 10 35 11 96 12 36 13
REMARK SMILES IDX 95 14 37 15 38 16 39 17 89 18 40 19 94 20 88 21 90 22 41 23
REMARK SMILES IDX 93 24 87 25 86 26 42 28 74 29 54 30 73 31 55 32 58 33 72 34
REMARK SMILES IDX 91 35 56 36 57 37 71 39 92 40 59 41 43 42 44 43 52 44 45 45
REMARK SMILES IDX 47 46 53 47 46 48 48 49 49 50 50 51 51 52 75 53 76 54 84 55
REMARK SMILES IDX 77 56 79 57 85 58 78 59 80 60 81 61 82 62 83 63 60 64 61 65
REMARK SMILES IDX 69 66 62 67 64 68 70 69 63 70 65 71 66 72 67 73 68 74 10 75
REMARK SMILES IDX 11 76 12 77 13 78 14 79 15 80 16 81 17 82 18 83 19 84 33 85
REMARK SMILES IDX 20 86 22 87 21 88 23 89 24 91 25 92 32 93 26 94 31 95 27 96
REMARK SMILES IDX 28 97 29 98 30 99
REMARK H PARENT 90 27 58 38 23 90
REMARK Flexibility Score: inf
ROOT
ATOM      1  O   UNL A   1      41.878  23.251  26.146  1.00  0.00    -0.377 OA
ENDROOT
BRANCH   1   2
ATOM      2  C   UNL A   1      42.264  22.281  27.119  1.00  0.00     0.188 C 
BRANCH   2   3
ATOM      3  C   UNL A   1      43.192  22.790  28.221  1.00  0.00     0.188 C 
BRANCH   3   4
ATOM      4  O   UNL A   1      44.221  23.622  27.687  1.00  0.00    -0.376 OA
BRANCH   4   5
ATOM      5  C   UNL A   1      44.953  24.397  28.633  1.00  0.00     0.202 C 
BRANCH   5   6
ATOM      6  C   UNL A   1      46.463  24.444  28.389  1.00  0.00     0.261 C 
BRANCH   6   7
ATOM      7  O   UNL A   1      46.949  25.775  28.174  1.00  0.00    -0.460 OA
BRANCH   7   8
ATOM      8  C   UNL A   1      46.559  26.650  27.213  1.00  0.00     0.338 C 
ATOM      9  O   UNL A   1      46.173  26.187  26.140  1.00  0.00    -0.246 OA
BRANCH   8  10
ATOM     10  C   UNL A   1      46.575  28.142  27.368  1.00  0.00     0.060 A 
ATOM     11  C   UNL A   1      47.134  28.844  28.439  1.00  0.00     0.016 A 
ATOM     12  C   UNL A   1      46.059  28.893  26.300  1.00  0.00     0.016 A 
ATOM     13  C   UNL A   1      47.162  30.230  28.479  1.00  0.00     0.010 A 
ATOM     14  C   UNL A   1      46.090  30.291  26.321  1.00  0.00     0.010 A 
ATOM     15  C   UNL A   1      46.633  30.959  27.424  1.00  0.00    -0.014 A 
BRANCH  15  16
ATOM     16  C   UNL A   1      46.535  32.418  27.574  1.00  0.00     0.031 A 
ATOM     17  C   UNL A   1      45.277  32.971  28.162  1.00  0.00     0.074 A 
ATOM     18  C   UNL A   1      47.585  33.199  27.265  1.00  0.00     0.049 A 
ATOM     19  N   UNL A   1      44.907  34.212  28.301  1.00  0.00    -0.248 NA
ATOM     20  C   UNL A   1      44.304  31.990  28.678  1.00  0.00     0.031 C 
ATOM     21  C   UNL A   1      48.887  32.716  26.795  1.00  0.00     0.029 A 
ATOM     22  N   UNL A   1      47.720  34.561  27.285  1.00  0.00    -0.354 N 
ATOM     23  C   UNL A   1      43.631  34.160  28.845  1.00  0.00     0.074 A 
ATOM     24  C   UNL A   1      43.304  32.770  29.058  1.00  0.00     0.031 C 
ATOM     25  C   UNL A   1      49.677  33.772  26.539  1.00  0.00     0.029 A 
ATOM     26  C   UNL A   1      48.916  34.995  26.758  1.00  0.00     0.049 A 
ATOM     27  H   UNL A   1      47.032  35.169  27.641  1.00  0.00     0.167 HD
ATOM     28  C   UNL A   1      42.805  35.193  29.114  1.00  0.00     0.034 A 
ATOM     29  C   UNL A   1      49.307  36.241  26.431  1.00  0.00     0.034 A 
ATOM     30  C   UNL A   1      43.173  36.562  28.902  1.00  0.00     0.049 A 
ATOM     31  C   UNL A   1      48.340  37.367  26.689  1.00  0.00     0.074 A 
ATOM     32  C   UNL A   1      42.432  37.702  29.142  1.00  0.00     0.029 A 
ATOM     33  N   UNL A   1      44.391  36.971  28.375  1.00  0.00    -0.354 N 
ATOM     34  N   UNL A   1      47.157  37.322  27.257  1.00  0.00    -0.248 NA
ATOM     35  C   UNL A   1      48.754  38.711  26.267  1.00  0.00     0.031 C 
ATOM     36  C   UNL A   1      43.187  38.799  28.718  1.00  0.00     0.029 A 
ATOM     37  C   UNL A   1      44.412  38.345  28.249  1.00  0.00     0.049 A 
ATOM     38  H   UNL A   1      45.130  36.369  28.128  1.00  0.00     0.167 HD
ATOM     39  C   UNL A   1      46.690  38.631  27.273  1.00  0.00     0.074 A 
ATOM     40  C   UNL A   1      47.735  39.449  26.689  1.00  0.00     0.031 C 
ATOM     41  C   UNL A   1      45.501  39.117  27.705  1.00  0.00     0.034 A 
BRANCH  28  42
ATOM     42  C   UNL A   1      41.419  34.871  29.594  1.00  0.00     0.023 A 
ATOM     43  C   UNL A   1      40.335  34.848  28.695  1.00  0.00     0.012 A 
ATOM     44  C   UNL A   1      41.200  34.578  30.955  1.00  0.00     0.148 A 
ATOM     45  C   UNL A   1      39.048  34.558  29.149  1.00  0.00     0.002 A 
ATOM     46  C   UNL A   1      39.924  34.251  31.391  1.00  0.00     0.091 A 
ATOM     47  F   UNL A   1      42.243  34.639  31.795  1.00  0.00    -0.205 F 
ATOM     48  C   UNL A   1      38.845  34.252  30.493  1.00  0.00     0.022 A 
BRANCH  46  49
ATOM     49  S   UNL A   1      39.569  33.787  33.089  1.00  0.00     0.127 S 
ATOM     50  O   UNL A   1      38.107  33.751  33.086  1.00  0.00    -0.237 OA
ATOM     51  O   UNL A   1      40.212  32.476  33.184  1.00  0.00    -0.237 OA
ATOM     52  O   UNL A   1      40.159  34.823  33.925  1.00  0.00    -0.744 OA
ENDBRANCH  46  49
ENDBRANCH  28  42
BRANCH  29  53
ATOM     53  C   UNL A   1      50.629  36.480  25.779  1.00  0.00     0.023 A 
ATOM     54  C   UNL A   1      50.745  36.418  24.377  1.00  0.00     0.012 A 
ATOM     55  C   UNL A   1      51.779  36.764  26.544  1.00  0.00     0.148 A 
ATOM     56  C   UNL A   1      51.983  36.598  23.755  1.00  0.00     0.002 A 
ATOM     57  C   UNL A   1      52.997  37.003  25.916  1.00  0.00     0.091 A 
ATOM     58  F   UNL A   1      51.664  36.793  27.881  1.00  0.00    -0.205 F 
ATOM     59  C   UNL A   1      53.105  36.902  24.522  1.00  0.00     0.022 A 
BRANCH  57  60
ATOM     60  S   UNL A   1      54.455  37.528  26.824  1.00  0.00     0.127 S 
ATOM     61  O   UNL A   1      54.022  38.810  27.371  1.00  0.00    -0.237 OA
ATOM     62  O   UNL A   1      54.603  36.456  27.810  1.00  0.00    -0.237 OA
ATOM     63  O   UNL A   1      55.527  37.582  25.840  1.00  0.00    -0.744 OA
ENDBRANCH  57  60
ENDBRANCH  29  53
BRANCH  41  64
ATOM     64  C   UNL A   1      45.275  40.597  27.582  1.00  0.00     0.023 A 
ATOM     65  C   UNL A   1      45.623  41.444  28.651  1.00  0.00     0.012 A 
ATOM     66  C   UNL A   1      44.836  41.148  26.364  1.00  0.00     0.148 A 
ATOM     67  C   UNL A   1      45.518  42.826  28.514  1.00  0.00     0.002 A 
ATOM     68  C   UNL A   1      44.788  42.526  26.216  1.00  0.00     0.091 A 
ATOM     69  F   UNL A   1      44.498  40.314  25.369  1.00  0.00    -0.205 F 
ATOM     70  C   UNL A   1      45.118  43.367  27.293  1.00  0.00     0.022 A 
BRANCH  68  71
ATOM     71  S   UNL A   1      44.395  43.312  24.651  1.00  0.00     0.127 S 
ATOM     72  O   UNL A   1      43.015  42.880  24.440  1.00  0.00    -0.237 OA
ATOM     73  O   UNL A   1      44.551  44.731  24.971  1.00  0.00    -0.237 OA
ATOM     74  O   UNL A   1      45.361  42.799  23.688  1.00  0.00    -0.744 OA
ENDBRANCH  68  71
ENDBRANCH  41  64
ENDBRANCH  15  16
ENDBRANCH   8  10
ENDBRANCH   7   8
ENDBRANCH   6   7
ENDBRANCH   5   6
ENDBRANCH   4   5
ENDBRANCH   3   4
ENDBRANCH   2   3
ENDBRANCH   1   2
BRANCH   1  75
ATOM     75  C   UNL A   1      41.086  24.344  26.601  1.00  0.00     0.188 C 
BRANCH  75  76
ATOM     76  C   UNL A   1      39.724  24.072  27.283  1.00  0.00     0.188 C 
BRANCH  76  77
ATOM     77  O   UNL A   1      38.630  23.875  26.402  1.00  0.00    -0.376 OA
BRANCH  77  78
ATOM     78  C   UNL A   1      38.279  22.517  26.150  1.00  0.00     0.202 C 
BRANCH  78  79
ATOM     79  C   UNL A   1      37.262  22.329  25.015  1.00  0.00     0.261 C 
BRANCH  79  80
ATOM     80  O   UNL A   1      36.467  21.130  25.099  1.00  0.00    -0.460 OA
BRANCH  80  81
ATOM     81  C   UNL A   1      35.257  21.208  25.694  1.00  0.00     0.338 C 
ATOM     82  O   UNL A   1      35.015  21.456  26.863  1.00  0.00    -0.246 OA
BRANCH  81  83
ATOM     83  C   UNL A   1      34.239  21.169  24.623  1.00  0.00     0.062 A 
ATOM     84  C   UNL A   1      33.491  19.999  24.447  1.00  0.00     0.016 A 
ATOM     85  C   UNL A   1      33.952  22.313  23.871  1.00  0.00     0.041 A 
ATOM     86  C   UNL A   1      32.422  19.994  23.556  1.00  0.00     0.003 A 
ATOM     87  C   UNL A   1      32.937  22.288  22.905  1.00  0.00     0.039 A 
ATOM     88  C   UNL A   1      32.155  21.129  22.787  1.00  0.00     0.026 A 
BRANCH  87  89
ATOM     89  N   UNL A   1      32.750  23.417  22.078  1.00  0.00    -0.355 N 
ATOM     90  H   UNL A   1      32.887  23.288  21.111  1.00  0.00     0.167 HD
BRANCH  89  91
ATOM     91  C   UNL A   1      32.388  24.706  22.501  1.00  0.00     0.039 A 
ATOM     92  C   UNL A   1      31.053  24.965  22.841  1.00  0.00     0.033 A 
ATOM     93  C   UNL A   1      33.343  25.716  22.663  1.00  0.00     0.033 A 
ATOM     94  C   UNL A   1      30.669  26.213  23.336  1.00  0.00     0.088 A 
ATOM     95  C   UNL A   1      32.974  26.973  23.152  1.00  0.00     0.088 A 
ATOM     96  C   UNL A   1      31.636  27.215  23.489  1.00  0.00     0.269 A 
BRANCH  96  97
ATOM     97  N   UNL A   1      31.240  28.527  24.014  1.00  0.00     0.062 N 
ATOM     98  O   UNL A   1      30.685  29.317  23.237  1.00  0.00    -0.258 OA
ATOM     99  O   UNL A   1      31.488  28.772  25.204  1.00  0.00    -0.258 OA
ENDBRANCH  96  97
ENDBRANCH  89  91
ENDBRANCH  87  89
ENDBRANCH  81  83
ENDBRANCH  80  81
ENDBRANCH  79  80
ENDBRANCH  78  79
ENDBRANCH  77  78
ENDBRANCH  76  77
ENDBRANCH  75  76
ENDBRANCH   1  75
TORSDOF 26
ENDMDL
MODEL 3
REMARK VINA RESULT:      -7.2      2.329      3.078
REMARK SMILES O=C(OCCOCCOCCOCCOC(=O)c1cccc(Nc2ccc([N+](=O)[O-])cc2)c1)c1ccc(-c2c3nc(c(-c4cccc(S(=O)(=O)[O-])c4F)c4ccc([nH]4)c(-c4cccc(S(=O)(=O)[O-])c4F)c4nc(c(-c5cccc(S(=O)(=O)[O-])c5F)c5ccc2[nH]5)C=C4)C=C3)cc1
REMARK SMILES IDX 9 1 8 2 7 3 6 4 5 5 4 6 3 7 2 8 1 9 34 10 35 11 96 12 36 13
REMARK SMILES IDX 95 14 37 15 38 16 39 17 89 18 40 19 94 20 88 21 90 22 41 23
REMARK SMILES IDX 93 24 87 25 86 26 42 28 74 29 54 30 73 31 55 32 58 33 72 34
REMARK SMILES IDX 91 35 56 36 57 37 71 39 92 40 59 41 43 42 44 43 52 44 45 45
REMARK SMILES IDX 47 46 53 47 46 48 48 49 49 50 50 51 51 52 75 53 76 54 84 55
REMARK SMILES IDX 77 56 79 57 85 58 78 59 80 60 81 61 82 62 83 63 60 64 61 65
REMARK SMILES IDX 69 66 62 67 64 68 70 69 63 70 65 71 66 72 67 73 68 74 10 75
REMARK SMILES IDX 11 76 12 77 13 78 14 79 15 80 16 81 17 82 18 83 19 84 33 85
REMARK SMILES IDX 20 86 22 87 21 88 23 89 24 91 25 92 32 93 26 94 31 95 27 96
REMARK SMILES IDX 28 97 29 98 30 99
REMARK H PARENT 90 27 58 38 23 90
REMARK Flexibility Score: inf
ROOT
ATOM      1  O   UNL A   1      43.854  25.304  27.567  1.00  0.00    -0.377 OA
ENDROOT
BRANCH   1   2
ATOM      2  C   UNL A   1      44.633  24.488  28.441  1.00  0.00     0.188 C 
BRANCH   2   3
ATOM      3  C   UNL A   1      46.146  24.566  28.238  1.00  0.00     0.188 C 
BRANCH   3   4
ATOM      4  O   UNL A   1      46.540  23.908  27.035  1.00  0.00    -0.376 OA
BRANCH   4   5
ATOM      5  C   UNL A   1      47.571  24.544  26.283  1.00  0.00     0.202 C 
BRANCH   5   6
ATOM      6  C   UNL A   1      47.239  24.769  24.806  1.00  0.00     0.261 C 
BRANCH   6   7
ATOM      7  O   UNL A   1      46.196  25.733  24.613  1.00  0.00    -0.460 OA
BRANCH   7   8
ATOM      8  C   UNL A   1      46.281  27.080  24.754  1.00  0.00     0.338 C 
ATOM      9  O   UNL A   1      46.615  27.738  23.769  1.00  0.00    -0.246 OA
BRANCH   8  10
ATOM     10  C   UNL A   1      46.003  27.819  26.030  1.00  0.00     0.060 A 
ATOM     11  C   UNL A   1      44.754  28.288  26.445  1.00  0.00     0.016 A 
ATOM     12  C   UNL A   1      47.080  27.971  26.918  1.00  0.00     0.016 A 
ATOM     13  C   UNL A   1      44.569  28.909  27.671  1.00  0.00     0.010 A 
ATOM     14  C   UNL A   1      46.906  28.585  28.163  1.00  0.00     0.010 A 
ATOM     15  C   UNL A   1      45.645  29.068  28.531  1.00  0.00    -0.014 A 
BRANCH  15  16
ATOM     16  C   UNL A   1      45.445  29.871  29.746  1.00  0.00     0.031 A 
ATOM     17  C   UNL A   1      45.152  29.142  31.018  1.00  0.00     0.074 A 
ATOM     18  C   UNL A   1      45.609  31.205  29.706  1.00  0.00     0.049 A 
ATOM     19  N   UNL A   1      44.838  29.619  32.188  1.00  0.00    -0.248 NA
ATOM     20  C   UNL A   1      45.238  27.670  30.969  1.00  0.00     0.031 C 
ATOM     21  C   UNL A   1      46.011  31.971  28.522  1.00  0.00     0.029 A 
ATOM     22  N   UNL A   1      45.446  32.153  30.679  1.00  0.00    -0.354 N 
ATOM     23  C   UNL A   1      44.611  28.510  32.992  1.00  0.00     0.074 A 
ATOM     24  C   UNL A   1      44.869  27.334  32.196  1.00  0.00     0.031 C 
ATOM     25  C   UNL A   1      46.028  33.277  28.833  1.00  0.00     0.029 A 
ATOM     26  C   UNL A   1      45.573  33.440  30.209  1.00  0.00     0.049 A 
ATOM     27  H   UNL A   1      45.257  31.936  31.621  1.00  0.00     0.167 HD
ATOM     28  C   UNL A   1      44.198  28.491  34.277  1.00  0.00     0.034 A 
ATOM     29  C   UNL A   1      45.283  34.608  30.813  1.00  0.00     0.034 A 
ATOM     30  C   UNL A   1      43.967  29.683  35.039  1.00  0.00     0.049 A 
ATOM     31  C   UNL A   1      44.767  34.551  32.228  1.00  0.00     0.074 A 
ATOM     32  C   UNL A   1      43.556  29.801  36.351  1.00  0.00     0.029 A 
ATOM     33  N   UNL A   1      44.111  30.970  34.539  1.00  0.00    -0.354 N 
ATOM     34  N   UNL A   1      44.608  33.505  33.006  1.00  0.00    -0.248 NA
ATOM     35  C   UNL A   1      44.393  35.827  32.853  1.00  0.00     0.031 C 
ATOM     36  C   UNL A   1      43.408  31.162  36.632  1.00  0.00     0.029 A 
ATOM     37  C   UNL A   1      43.763  31.892  35.505  1.00  0.00     0.049 A 
ATOM     38  H   UNL A   1      44.415  31.193  33.629  1.00  0.00     0.167 HD
ATOM     39  C   UNL A   1      44.129  33.995  34.214  1.00  0.00     0.074 A 
ATOM     40  C   UNL A   1      44.056  35.436  34.075  1.00  0.00     0.031 C 
ATOM     41  C   UNL A   1      43.756  33.323  35.330  1.00  0.00     0.034 A 
BRANCH  28  42
ATOM     42  C   UNL A   1      43.910  27.155  34.897  1.00  0.00     0.023 A 
ATOM     43  C   UNL A   1      42.638  26.563  34.769  1.00  0.00     0.012 A 
ATOM     44  C   UNL A   1      44.922  26.479  35.607  1.00  0.00     0.148 A 
ATOM     45  C   UNL A   1      42.373  25.325  35.357  1.00  0.00     0.002 A 
ATOM     46  C   UNL A   1      44.663  25.231  36.154  1.00  0.00     0.091 A 
ATOM     47  F   UNL A   1      46.113  27.079  35.741  1.00  0.00    -0.205 F 
ATOM     48  C   UNL A   1      43.387  24.657  36.040  1.00  0.00     0.022 A 
BRANCH  46  49
ATOM     49  S   UNL A   1      45.917  24.265  37.002  1.00  0.00     0.127 S 
ATOM     50  O   UNL A   1      45.269  22.957  37.097  1.00  0.00    -0.237 OA
ATOM     51  O   UNL A   1      47.034  24.326  36.061  1.00  0.00    -0.237 OA
ATOM     52  O   UNL A   1      46.150  24.932  38.276  1.00  0.00    -0.744 OA
ENDBRANCH  46  49
ENDBRANCH  28  42
BRANCH  29  53
ATOM     53  C   UNL A   1      45.410  35.901  30.079  1.00  0.00     0.023 A 
ATOM     54  C   UNL A   1      46.633  36.599  30.088  1.00  0.00     0.012 A 
ATOM     55  C   UNL A   1      44.320  36.450  29.372  1.00  0.00     0.148 A 
ATOM     56  C   UNL A   1      46.756  37.830  29.440  1.00  0.00     0.002 A 
ATOM     57  C   UNL A   1      44.466  37.646  28.678  1.00  0.00     0.091 A 
ATOM     58  F   UNL A   1      43.151  35.792  29.393  1.00  0.00    -0.205 F 
ATOM     59  C   UNL A   1      45.678  38.348  28.727  1.00  0.00     0.022 A 
BRANCH  57  60
ATOM     60  S   UNL A   1      43.166  38.309  27.631  1.00  0.00     0.127 S 
ATOM     61  O   UNL A   1      42.033  38.352  28.551  1.00  0.00    -0.237 OA
ATOM     62  O   UNL A   1      43.708  39.617  27.260  1.00  0.00    -0.237 OA
ATOM     63  O   UNL A   1      43.050  37.376  26.517  1.00  0.00    -0.744 OA
ENDBRANCH  57  60
ENDBRANCH  29  53
BRANCH  41  64
ATOM     64  C   UNL A   1      43.259  34.136  36.491  1.00  0.00     0.023 A 
ATOM     65  C   UNL A   1      44.166  34.565  37.478  1.00  0.00     0.012 A 
ATOM     66  C   UNL A   1      41.922  34.572  36.531  1.00  0.00     0.148 A 
ATOM     67  C   UNL A   1      43.743  35.406  38.504  1.00  0.00     0.002 A 
ATOM     68  C   UNL A   1      41.520  35.454  37.523  1.00  0.00     0.091 A 
ATOM     69  F   UNL A   1      41.078  34.134  35.584  1.00  0.00    -0.205 F 
ATOM     70  C   UNL A   1      42.426  35.864  38.517  1.00  0.00     0.022 A 
BRANCH  68  71
ATOM     71  S   UNL A   1      39.881  36.184  37.554  1.00  0.00     0.127 S 
ATOM     72  O   UNL A   1      40.067  37.295  38.484  1.00  0.00    -0.237 OA
ATOM     73  O   UNL A   1      39.694  36.578  36.157  1.00  0.00    -0.237 OA
ATOM     74  O   UNL A   1      38.980  35.134  38.012  1.00  0.00    -0.744 OA
ENDBRANCH  68  71
ENDBRANCH  41  64
ENDBRANCH  15  16
ENDBRANCH   8  10
ENDBRANCH   7   8
ENDBRANCH   6   7
ENDBRANCH   5   6
ENDBRANCH   4   5
ENDBRANCH   3   4
ENDBRANCH   2   3
ENDBRANCH   1   2
BRANCH   1  75
ATOM     75  C   UNL A   1      43.201  24.651  26.482  1.00  0.00     0.188 C 
BRANCH  75  76
ATOM     76  C   UNL A   1      42.782  25.467  25.236  1.00  0.00     0.188 C 
BRANCH  76  77
ATOM     77  O   UNL A   1      41.456  25.969  25.255  1.00  0.00    -0.376 OA
BRANCH  77  78
ATOM     78  C   UNL A   1      41.223  27.061  26.140  1.00  0.00     0.202 C 
BRANCH  78  79
ATOM     79  C   UNL A   1      40.077  26.831  27.137  1.00  0.00     0.261 C 
BRANCH  79  80
ATOM     80  O   UNL A   1      40.140  27.633  28.333  1.00  0.00    -0.460 OA
BRANCH  80  81
ATOM     81  C   UNL A   1      39.273  28.661  28.458  1.00  0.00     0.338 C 
ATOM     82  O   UNL A   1      38.085  28.672  28.186  1.00  0.00    -0.246 OA
BRANCH  81  83
ATOM     83  C   UNL A   1      39.965  29.730  29.210  1.00  0.00     0.062 A 
ATOM     84  C   UNL A   1      41.341  29.610  29.436  1.00  0.00     0.016 A 
ATOM     85  C   UNL A   1      39.281  30.887  29.594  1.00  0.00     0.041 A 
ATOM     86  C   UNL A   1      42.039  30.675  29.999  1.00  0.00     0.003 A 
ATOM     87  C   UNL A   1      39.959  31.926  30.246  1.00  0.00     0.039 A 
ATOM     88  C   UNL A   1      41.349  31.820  30.407  1.00  0.00     0.026 A 
BRANCH  87  89
ATOM     89  N   UNL A   1      39.222  33.028  30.730  1.00  0.00    -0.355 N 
ATOM     90  H   UNL A   1      39.160  33.815  30.141  1.00  0.00     0.167 HD
BRANCH  89  91
ATOM     91  C   UNL A   1      38.566  33.110  31.969  1.00  0.00     0.039 A 
ATOM     92  C   UNL A   1      38.685  34.281  32.730  1.00  0.00     0.033 A 
ATOM     93  C   UNL A   1      37.737  32.078  32.425  1.00  0.00     0.033 A 
ATOM     94  C   UNL A   1      37.989  34.426  33.932  1.00  0.00     0.088 A 
ATOM     95  C   UNL A   1      37.038  32.207  33.629  1.00  0.00     0.088 A 
ATOM     96  C   UNL A   1      37.166  33.385  34.377  1.00  0.00     0.269 A 
BRANCH  96  97
ATOM     97  N   UNL A   1      36.427  33.534  35.636  1.00  0.00     0.062 N 
ATOM     98  O   UNL A   1      36.930  33.053  36.662  1.00  0.00    -0.258 OA
ATOM     99  O   UNL A   1      35.340  34.129  35.601  1.00  0.00    -0.258 OA
ENDBRANCH  96  97
ENDBRANCH  89  91
ENDBRANCH  87  89
ENDBRANCH  81  83
ENDBRANCH  80  81
ENDBRANCH  79  80
ENDBRANCH  78  79
ENDBRANCH  77  78
ENDBRANCH  76  77
ENDBRANCH  75  76
ENDBRANCH   1  75
TORSDOF 26
ENDMDL
