MODEL 1
REMARK VINA RESULT:      -8.7      0.000      0.000
REMARK SMILES O=C1CN(S(=O)(=O)c2ccc(CC(=O)OCCOCCOCCOCCOC(=O)c3ccc(-c4c5nc(c(-c6cccc(S(=O)(=O)[O-])c6F)c6ccc([nH]6)c(-c6cccc(S(=O)(=O)[O-])c6F)c6nc(c(-c7cccc(S(=O)(=O)[O-])c7F)c7ccc4[nH]7)C=C6)C=C5)cc3)cc2)CCN1
REMARK SMILES IDX 21 1 20 2 19 3 18 4 17 5 16 6 15 7 13 8 14 9 12 10 11 11
REMARK SMILES IDX 8 12 9 13 94 14 10 15 93 16 5 17 6 18 7 19 4 20 1 21 2 22
REMARK SMILES IDX 3 23 97 24 96 25 95 27 22 28 23 29 24 30 25 31 26 32 27 33
REMARK SMILES IDX 28 34 29 35 30 36 31 37 92 38 32 39 91 40 33 41 34 42 35 43
REMARK SMILES IDX 85 44 36 45 90 46 84 47 86 48 37 49 89 50 83 51 82 52 38 54
REMARK SMILES IDX 70 55 50 56 69 57 51 58 54 59 68 60 87 61 52 62 53 63 67 65
REMARK SMILES IDX 88 66 55 67 39 68 40 69 48 70 41 71 43 72 49 73 42 74 44 75
REMARK SMILES IDX 45 76 46 77 47 78 71 79 72 80 80 81 73 82 75 83 81 84 74 85
REMARK SMILES IDX 76 86 77 87 78 88 79 89 56 90 57 91 65 92 58 93 60 94 66 95
REMARK SMILES IDX 59 96 61 97 62 98 63 99 64 100
REMARK H PARENT 97 26 86 53 54 64
REMARK Flexibility Score: inf
ROOT
ATOM      1  O   UNL A   1      31.907  20.386  25.359  1.00  0.00    -0.377 OA
ENDROOT
BRANCH   1   2
ATOM      2  C   UNL A   1      32.574  19.860  24.226  1.00  0.00     0.188 C 
BRANCH   2   3
ATOM      3  C   UNL A   1      33.742  18.907  24.568  1.00  0.00     0.188 C 
BRANCH   3   4
ATOM      4  O   UNL A   1      35.031  19.395  24.941  1.00  0.00    -0.376 OA
BRANCH   4   5
ATOM      5  C   UNL A   1      35.297  20.786  24.874  1.00  0.00     0.202 C 
BRANCH   5   6
ATOM      6  C   UNL A   1      35.286  21.560  26.206  1.00  0.00     0.261 C 
BRANCH   6   7
ATOM      7  O   UNL A   1      35.209  23.000  26.104  1.00  0.00    -0.463 OA
BRANCH   7   8
ATOM      8  C   UNL A   1      36.223  23.621  25.457  1.00  0.00     0.310 C 
ATOM      9  O   UNL A   1      36.255  23.785  24.238  1.00  0.00    -0.252 OA
BRANCH   8  10
ATOM     10  C   UNL A   1      37.371  24.104  26.333  1.00  0.00     0.158 C 
BRANCH  10  11
ATOM     11  C   UNL A   1      38.715  23.392  26.382  1.00  0.00    -0.037 A 
ATOM     12  C   UNL A   1      41.229  22.085  26.396  1.00  0.00     0.082 A 
ATOM     13  C   UNL A   1      41.145  23.439  26.731  1.00  0.00     0.022 A 
ATOM     14  C   UNL A   1      40.064  21.381  26.070  1.00  0.00     0.022 A 
ATOM     15  C   UNL A   1      39.899  24.088  26.711  1.00  0.00     0.006 A 
ATOM     16  C   UNL A   1      38.822  22.033  26.051  1.00  0.00     0.006 A 
BRANCH  12  17
ATOM     17  S   UNL A   1      42.760  21.194  26.617  1.00  0.00     0.243 S 
ATOM     18  O   UNL A   1      42.452  19.966  27.313  1.00  0.00    -0.207 OA
ATOM     19  O   UNL A   1      43.727  22.122  27.171  1.00  0.00    -0.207 OA
BRANCH  17  20
ATOM     20  N   UNL A   1      43.324  20.791  25.049  1.00  0.00    -0.187 NA
ATOM     21  O   UNL A   1      45.458  17.862  25.611  1.00  0.00    -0.274 OA
ATOM     22  C   UNL A   1      45.137  19.024  25.371  1.00  0.00     0.235 C 
ATOM     23  C   UNL A   1      43.758  19.382  24.844  1.00  0.00     0.202 C 
ATOM     24  N   UNL A   1      46.066  20.029  25.438  1.00  0.00    -0.354 N 
ATOM     25  C   UNL A   1      45.749  21.438  25.297  1.00  0.00     0.132 C 
ATOM     26  H   UNL A   1      47.006  19.780  25.590  1.00  0.00     0.163 HD
ATOM     27  C   UNL A   1      44.424  21.701  24.564  1.00  0.00     0.124 C 
ENDBRANCH  17  20
ENDBRANCH  12  17
ENDBRANCH  10  11
ENDBRANCH   8  10
ENDBRANCH   7   8
ENDBRANCH   6   7
ENDBRANCH   5   6
ENDBRANCH   4   5
ENDBRANCH   3   4
ENDBRANCH   2   3
ENDBRANCH   1   2
BRANCH   1  28
ATOM     28  C   UNL A   1      31.665  21.778  25.322  1.00  0.00     0.188 C 
BRANCH  28  29
ATOM     29  C   UNL A   1      31.831  22.405  23.932  1.00  0.00     0.188 C 
BRANCH  29  30
ATOM     30  O   UNL A   1      30.634  23.021  23.469  1.00  0.00    -0.376 OA
BRANCH  30  31
ATOM     31  C   UNL A   1      30.661  24.372  23.047  1.00  0.00     0.202 C 
BRANCH  31  32
ATOM     32  C   UNL A   1      30.844  25.483  24.095  1.00  0.00     0.261 C 
BRANCH  32  33
ATOM     33  O   UNL A   1      31.646  26.606  23.723  1.00  0.00    -0.460 OA
BRANCH  33  34
ATOM     34  C   UNL A   1      31.423  27.776  24.368  1.00  0.00     0.338 C 
ATOM     35  O   UNL A   1      30.374  28.369  24.453  1.00  0.00    -0.246 OA
BRANCH  34  36
ATOM     36  C   UNL A   1      32.652  28.092  25.140  1.00  0.00     0.060 A 
ATOM     37  C   UNL A   1      32.642  27.876  26.525  1.00  0.00     0.016 A 
ATOM     38  C   UNL A   1      33.805  28.563  24.506  1.00  0.00     0.016 A 
ATOM     39  C   UNL A   1      33.772  28.170  27.286  1.00  0.00     0.010 A 
ATOM     40  C   UNL A   1      34.926  28.889  25.275  1.00  0.00     0.010 A 
ATOM     41  C   UNL A   1      34.897  28.735  26.672  1.00  0.00    -0.014 A 
BRANCH  41  42
ATOM     42  C   UNL A   1      35.923  29.395  27.514  1.00  0.00     0.031 A 
ATOM     43  C   UNL A   1      35.567  30.718  28.137  1.00  0.00     0.074 A 
ATOM     44  C   UNL A   1      37.127  28.839  27.736  1.00  0.00     0.049 A 
ATOM     45  N   UNL A   1      36.288  31.504  28.891  1.00  0.00    -0.248 NA
ATOM     46  C   UNL A   1      34.208  31.223  27.870  1.00  0.00     0.031 C 
ATOM     47  C   UNL A   1      37.581  27.556  27.204  1.00  0.00     0.029 A 
ATOM     48  N   UNL A   1      38.199  29.305  28.456  1.00  0.00    -0.354 N 
ATOM     49  C   UNL A   1      35.486  32.606  29.161  1.00  0.00     0.074 A 
ATOM     50  C   UNL A   1      34.227  32.394  28.485  1.00  0.00     0.031 C 
ATOM     51  C   UNL A   1      38.853  27.352  27.589  1.00  0.00     0.029 A 
ATOM     52  C   UNL A   1      39.310  28.499  28.372  1.00  0.00     0.049 A 
ATOM     53  H   UNL A   1      38.175  30.137  28.982  1.00  0.00     0.167 HD
ATOM     54  C   UNL A   1      35.768  33.694  29.914  1.00  0.00     0.034 A 
ATOM     55  C   UNL A   1      40.555  28.685  28.855  1.00  0.00     0.034 A 
ATOM     56  C   UNL A   1      37.019  33.899  30.589  1.00  0.00     0.049 A 
ATOM     57  C   UNL A   1      40.855  29.922  29.663  1.00  0.00     0.074 A 
ATOM     58  C   UNL A   1      37.393  34.951  31.404  1.00  0.00     0.029 A 
ATOM     59  N   UNL A   1      38.106  33.044  30.510  1.00  0.00    -0.354 N 
ATOM     60  N   UNL A   1      40.056  30.907  29.998  1.00  0.00    -0.248 NA
ATOM     61  C   UNL A   1      42.221  30.056  30.193  1.00  0.00     0.031 C 
ATOM     62  C   UNL A   1      38.722  34.752  31.788  1.00  0.00     0.029 A 
ATOM     63  C   UNL A   1      39.158  33.549  31.254  1.00  0.00     0.049 A 
ATOM     64  H   UNL A   1      38.128  32.202  30.001  1.00  0.00     0.167 HD
ATOM     65  C   UNL A   1      40.805  31.750  30.814  1.00  0.00     0.074 A 
ATOM     66  C   UNL A   1      42.119  31.153  30.932  1.00  0.00     0.031 C 
ATOM     67  C   UNL A   1      40.441  32.913  31.408  1.00  0.00     0.034 A 
BRANCH  54  68
ATOM     68  C   UNL A   1      34.698  34.747  30.045  1.00  0.00     0.023 A 
ATOM     69  C   UNL A   1      34.424  35.611  28.965  1.00  0.00     0.012 A 
ATOM     70  C   UNL A   1      33.939  34.854  31.225  1.00  0.00     0.148 A 
ATOM     71  C   UNL A   1      33.434  36.588  29.070  1.00  0.00     0.002 A 
ATOM     72  C   UNL A   1      32.921  35.796  31.306  1.00  0.00     0.091 A 
ATOM     73  F   UNL A   1      34.233  34.041  32.250  1.00  0.00    -0.205 F 
ATOM     74  C   UNL A   1      32.677  36.672  30.235  1.00  0.00     0.022 A 
BRANCH  72  75
ATOM     75  S   UNL A   1      31.838  35.931  32.731  1.00  0.00     0.127 S 
ATOM     76  O   UNL A   1      31.909  34.580  33.286  1.00  0.00    -0.237 OA
ATOM     77  O   UNL A   1      32.510  36.956  33.530  1.00  0.00    -0.237 OA
ATOM     78  O   UNL A   1      30.534  36.322  32.211  1.00  0.00    -0.744 OA
ENDBRANCH  72  75
ENDBRANCH  54  68
BRANCH  55  79
ATOM     79  C   UNL A   1      41.615  27.663  28.608  1.00  0.00     0.023 A 
ATOM     80  C   UNL A   1      41.795  26.609  29.524  1.00  0.00     0.012 A 
ATOM     81  C   UNL A   1      42.445  27.736  27.473  1.00  0.00     0.148 A 
ATOM     82  C   UNL A   1      42.808  25.668  29.334  1.00  0.00     0.002 A 
ATOM     83  C   UNL A   1      43.415  26.763  27.261  1.00  0.00     0.091 A 
ATOM     84  F   UNL A   1      42.267  28.756  26.621  1.00  0.00    -0.205 F 
ATOM     85  C   UNL A   1      43.610  25.739  28.200  1.00  0.00     0.022 A 
BRANCH  83  86
ATOM     86  S   UNL A   1      44.416  26.705  25.771  1.00  0.00     0.127 S 
ATOM     87  O   UNL A   1      45.508  25.825  26.179  1.00  0.00    -0.237 OA
ATOM     88  O   UNL A   1      43.482  26.123  24.806  1.00  0.00    -0.237 OA
ATOM     89  O   UNL A   1      44.790  28.084  25.491  1.00  0.00    -0.744 OA
ENDBRANCH  83  86
ENDBRANCH  55  79
BRANCH  67  90
ATOM     90  C   UNL A   1      41.447  33.595  32.301  1.00  0.00     0.023 A 
ATOM     91  C   UNL A   1      42.350  34.536  31.768  1.00  0.00     0.012 A 
ATOM     92  C   UNL A   1      41.440  33.353  33.690  1.00  0.00     0.148 A 
ATOM     93  C   UNL A   1      43.255  35.197  32.599  1.00  0.00     0.002 A 
ATOM     94  C   UNL A   1      42.306  34.056  34.518  1.00  0.00     0.091 A 
ATOM     95  F   UNL A   1      40.584  32.441  34.175  1.00  0.00    -0.205 F 
ATOM     96  C   UNL A   1      43.224  34.966  33.974  1.00  0.00     0.022 A 
BRANCH  94  97
ATOM     97  S   UNL A   1      42.264  33.899  36.306  1.00  0.00     0.127 S 
ATOM     98  O   UNL A   1      40.830  33.976  36.579  1.00  0.00    -0.237 OA
ATOM     99  O   UNL A   1      42.854  32.576  36.516  1.00  0.00    -0.237 OA
ATOM    100  O   UNL A   1      43.059  35.004  36.826  1.00  0.00    -0.744 OA
ENDBRANCH  94  97
ENDBRANCH  67  90
ENDBRANCH  41  42
ENDBRANCH  34  36
ENDBRANCH  33  34
ENDBRANCH  32  33
ENDBRANCH  31  32
ENDBRANCH  30  31
ENDBRANCH  29  30
ENDBRANCH  28  29
ENDBRANCH   1  28
TORSDOF 26
ENDMDL
MODEL 2
REMARK VINA RESULT:      -8.6      4.436      8.988
REMARK SMILES O=C1CN(S(=O)(=O)c2ccc(CC(=O)OCCOCCOCCOCCOC(=O)c3ccc(-c4c5nc(c(-c6cccc(S(=O)(=O)[O-])c6F)c6ccc([nH]6)c(-c6cccc(S(=O)(=O)[O-])c6F)c6nc(c(-c7cccc(S(=O)(=O)[O-])c7F)c7ccc4[nH]7)C=C6)C=C5)cc3)cc2)CCN1
REMARK SMILES IDX 21 1 20 2 19 3 18 4 17 5 16 6 15 7 13 8 14 9 12 10 11 11
REMARK SMILES IDX 8 12 9 13 94 14 10 15 93 16 5 17 6 18 7 19 4 20 1 21 2 22
REMARK SMILES IDX 3 23 97 24 96 25 95 27 22 28 23 29 24 30 25 31 26 32 27 33
REMARK SMILES IDX 28 34 29 35 30 36 31 37 92 38 32 39 91 40 33 41 34 42 35 43
REMARK SMILES IDX 85 44 36 45 90 46 84 47 86 48 37 49 89 50 83 51 82 52 38 54
REMARK SMILES IDX 70 55 50 56 69 57 51 58 54 59 68 60 87 61 52 62 53 63 67 65
REMARK SMILES IDX 88 66 55 67 39 68 40 69 48 70 41 71 43 72 49 73 42 74 44 75
REMARK SMILES IDX 45 76 46 77 47 78 71 79 72 80 80 81 73 82 75 83 81 84 74 85
REMARK SMILES IDX 76 86 77 87 78 88 79 89 56 90 57 91 65 92 58 93 60 94 66 95
REMARK SMILES IDX 59 96 61 97 62 98 63 99 64 100
REMARK H PARENT 97 26 86 53 54 64
REMARK Flexibility Score: inf
ROOT
ATOM      1  O   UNL A   1      32.418  30.614  27.170  1.00  0.00    -0.377 OA
ENDROOT
BRANCH   1   2
ATOM      2  C   UNL A   1      32.046  30.082  25.912  1.00  0.00     0.188 C 
BRANCH   2   3
ATOM      3  C   UNL A   1      32.989  28.972  25.392  1.00  0.00     0.188 C 
BRANCH   3   4
ATOM      4  O   UNL A   1      33.338  28.861  24.012  1.00  0.00    -0.376 OA
BRANCH   4   5
ATOM      5  C   UNL A   1      32.461  28.191  23.123  1.00  0.00     0.202 C 
BRANCH   5   6
ATOM      6  C   UNL A   1      31.233  28.980  22.631  1.00  0.00     0.261 C 
BRANCH   6   7
ATOM      7  O   UNL A   1      30.117  28.191  22.160  1.00  0.00    -0.463 OA
BRANCH   7   8
ATOM      8  C   UNL A   1      28.961  28.292  22.857  1.00  0.00     0.310 C 
ATOM      9  O   UNL A   1      28.226  29.278  22.818  1.00  0.00    -0.252 OA
BRANCH   8  10
ATOM     10  C   UNL A   1      28.610  27.100  23.737  1.00  0.00     0.158 C 
BRANCH  10  11
ATOM     11  C   UNL A   1      29.656  26.102  24.213  1.00  0.00    -0.037 A 
ATOM     12  C   UNL A   1      31.544  24.197  25.125  1.00  0.00     0.082 A 
ATOM     13  C   UNL A   1      31.051  24.120  23.820  1.00  0.00     0.022 A 
ATOM     14  C   UNL A   1      31.109  25.226  25.968  1.00  0.00     0.022 A 
ATOM     15  C   UNL A   1      30.106  25.060  23.374  1.00  0.00     0.006 A 
ATOM     16  C   UNL A   1      30.164  26.162  25.519  1.00  0.00     0.006 A 
BRANCH  12  17
ATOM     17  S   UNL A   1      32.894  23.149  25.644  1.00  0.00     0.243 S 
ATOM     18  O   UNL A   1      32.402  22.302  26.706  1.00  0.00    -0.207 OA
ATOM     19  O   UNL A   1      34.045  24.003  25.866  1.00  0.00    -0.207 OA
BRANCH  17  20
ATOM     20  N   UNL A   1      33.285  22.153  24.305  1.00  0.00    -0.187 NA
ATOM     21  O   UNL A   1      32.289  18.795  25.391  1.00  0.00    -0.274 OA
ATOM     22  C   UNL A   1      33.014  19.743  25.101  1.00  0.00     0.235 C 
ATOM     23  C   UNL A   1      32.541  20.868  24.197  1.00  0.00     0.202 C 
ATOM     24  N   UNL A   1      34.334  19.748  25.472  1.00  0.00    -0.354 N 
ATOM     25  C   UNL A   1      35.226  20.877  25.286  1.00  0.00     0.132 C 
ATOM     26  H   UNL A   1      34.698  18.935  25.891  1.00  0.00     0.163 HD
ATOM     27  C   UNL A   1      34.760  21.858  24.199  1.00  0.00     0.124 C 
ENDBRANCH  17  20
ENDBRANCH  12  17
ENDBRANCH  10  11
ENDBRANCH   8  10
ENDBRANCH   7   8
ENDBRANCH   6   7
ENDBRANCH   5   6
ENDBRANCH   4   5
ENDBRANCH   3   4
ENDBRANCH   2   3
ENDBRANCH   1   2
BRANCH   1  28
ATOM     28  C   UNL A   1      33.791  30.505  27.486  1.00  0.00     0.188 C 
BRANCH  28  29
ATOM     29  C   UNL A   1      34.425  31.812  27.981  1.00  0.00     0.188 C 
BRANCH  29  30
ATOM     30  O   UNL A   1      33.519  32.909  27.923  1.00  0.00    -0.376 OA
BRANCH  30  31
ATOM     31  C   UNL A   1      34.020  34.232  27.966  1.00  0.00     0.202 C 
BRANCH  31  32
ATOM     32  C   UNL A   1      34.030  34.988  29.306  1.00  0.00     0.261 C 
BRANCH  32  33
ATOM     33  O   UNL A   1      33.102  34.560  30.305  1.00  0.00    -0.460 OA
BRANCH  33  34
ATOM     34  C   UNL A   1      33.170  35.153  31.520  1.00  0.00     0.338 C 
ATOM     35  O   UNL A   1      32.356  35.898  32.011  1.00  0.00    -0.246 OA
BRANCH  34  36
ATOM     36  C   UNL A   1      34.323  34.550  32.238  1.00  0.00     0.060 A 
ATOM     37  C   UNL A   1      35.399  35.379  32.583  1.00  0.00     0.016 A 
ATOM     38  C   UNL A   1      34.329  33.199  32.593  1.00  0.00     0.016 A 
ATOM     39  C   UNL A   1      36.505  34.848  33.248  1.00  0.00     0.010 A 
ATOM     40  C   UNL A   1      35.452  32.661  33.229  1.00  0.00     0.010 A 
ATOM     41  C   UNL A   1      36.561  33.476  33.519  1.00  0.00    -0.014 A 
BRANCH  41  42
ATOM     42  C   UNL A   1      37.865  32.861  33.860  1.00  0.00     0.031 A 
ATOM     43  C   UNL A   1      38.398  33.084  35.250  1.00  0.00     0.074 A 
ATOM     44  C   UNL A   1      38.553  32.114  32.979  1.00  0.00     0.049 A 
ATOM     45  N   UNL A   1      39.517  32.677  35.788  1.00  0.00    -0.248 NA
ATOM     46  C   UNL A   1      37.550  33.879  36.156  1.00  0.00     0.031 C 
ATOM     47  C   UNL A   1      38.133  31.812  31.612  1.00  0.00     0.029 A 
ATOM     48  N   UNL A   1      39.771  31.493  33.103  1.00  0.00    -0.354 N 
ATOM     49  C   UNL A   1      39.521  33.190  37.079  1.00  0.00     0.074 A 
ATOM     50  C   UNL A   1      38.301  33.946  37.244  1.00  0.00     0.031 C 
ATOM     51  C   UNL A   1      39.095  31.089  31.012  1.00  0.00     0.029 A 
ATOM     52  C   UNL A   1      40.206  30.899  31.942  1.00  0.00     0.049 A 
ATOM     53  H   UNL A   1      40.283  31.475  33.944  1.00  0.00     0.167 HD
ATOM     54  C   UNL A   1      40.454  33.038  38.048  1.00  0.00     0.034 A 
ATOM     55  C   UNL A   1      41.379  30.295  31.663  1.00  0.00     0.034 A 
ATOM     56  C   UNL A   1      41.663  32.282  37.882  1.00  0.00     0.049 A 
ATOM     57  C   UNL A   1      42.418  30.166  32.749  1.00  0.00     0.074 A 
ATOM     58  C   UNL A   1      42.658  32.037  38.812  1.00  0.00     0.029 A 
ATOM     59  N   UNL A   1      42.053  31.664  36.705  1.00  0.00    -0.354 N 
ATOM     60  N   UNL A   1      42.365  30.567  33.998  1.00  0.00    -0.248 NA
ATOM     61  C   UNL A   1      43.665  29.469  32.398  1.00  0.00     0.031 C 
ATOM     62  C   UNL A   1      43.669  31.303  38.184  1.00  0.00     0.029 A 
ATOM     63  C   UNL A   1      43.279  31.047  36.878  1.00  0.00     0.049 A 
ATOM     64  H   UNL A   1      41.534  31.664  35.868  1.00  0.00     0.167 HD
ATOM     65  C   UNL A   1      43.546  30.129  34.591  1.00  0.00     0.074 A 
ATOM     66  C   UNL A   1      44.288  29.423  33.568  1.00  0.00     0.031 C 
ATOM     67  C   UNL A   1      43.979  30.299  35.865  1.00  0.00     0.034 A 
BRANCH  54  68
ATOM     68  C   UNL A   1      40.197  33.705  39.373  1.00  0.00     0.023 A 
ATOM     69  C   UNL A   1      39.658  32.962  40.444  1.00  0.00     0.012 A 
ATOM     70  C   UNL A   1      40.527  35.060  39.569  1.00  0.00     0.148 A 
ATOM     71  C   UNL A   1      39.418  33.567  41.678  1.00  0.00     0.002 A 
ATOM     72  C   UNL A   1      40.332  35.643  40.815  1.00  0.00     0.091 A 
ATOM     73  F   UNL A   1      41.014  35.756  38.531  1.00  0.00    -0.205 F 
ATOM     74  C   UNL A   1      39.765  34.901  41.865  1.00  0.00     0.022 A 
BRANCH  72  75
ATOM     75  S   UNL A   1      40.820  37.331  41.181  1.00  0.00     0.127 S 
ATOM     76  O   UNL A   1      42.114  37.130  41.831  1.00  0.00    -0.237 OA
ATOM     77  O   UNL A   1      40.892  37.925  39.846  1.00  0.00    -0.237 OA
ATOM     78  O   UNL A   1      39.773  37.877  42.035  1.00  0.00    -0.744 OA
ENDBRANCH  72  75
ENDBRANCH  54  68
BRANCH  55  79
ATOM     79  C   UNL A   1      41.633  29.742  30.301  1.00  0.00     0.023 A 
ATOM     80  C   UNL A   1      42.403  30.479  29.380  1.00  0.00     0.012 A 
ATOM     81  C   UNL A   1      41.110  28.492  29.915  1.00  0.00     0.148 A 
ATOM     82  C   UNL A   1      42.615  29.999  28.087  1.00  0.00     0.002 A 
ATOM     83  C   UNL A   1      41.373  27.995  28.644  1.00  0.00     0.091 A 
ATOM     84  F   UNL A   1      40.367  27.814  30.801  1.00  0.00    -0.205 F 
ATOM     85  C   UNL A   1      42.110  28.754  27.722  1.00  0.00     0.022 A 
BRANCH  83  86
ATOM     86  S   UNL A   1      40.864  26.353  28.124  1.00  0.00     0.127 S 
ATOM     87  O   UNL A   1      40.729  26.525  26.680  1.00  0.00    -0.237 OA
ATOM     88  O   UNL A   1      42.006  25.539  28.544  1.00  0.00    -0.237 OA
ATOM     89  O   UNL A   1      39.629  26.075  28.844  1.00  0.00    -0.744 OA
ENDBRANCH  83  86
ENDBRANCH  55  79
BRANCH  67  90
ATOM     90  C   UNL A   1      45.284  29.656  36.259  1.00  0.00     0.023 A 
ATOM     91  C   UNL A   1      45.311  28.328  36.730  1.00  0.00     0.012 A 
ATOM     92  C   UNL A   1      46.498  30.352  36.085  1.00  0.00     0.148 A 
ATOM     93  C   UNL A   1      46.522  27.718  37.057  1.00  0.00     0.002 A 
ATOM     94  C   UNL A   1      47.703  29.719  36.360  1.00  0.00     0.091 A 
ATOM     95  F   UNL A   1      46.450  31.621  35.652  1.00  0.00    -0.205 F 
ATOM     96  C   UNL A   1      47.717  28.408  36.860  1.00  0.00     0.022 A 
BRANCH  94  97
ATOM     97  S   UNL A   1      49.291  30.493  36.038  1.00  0.00     0.127 S 
ATOM     98  O   UNL A   1      49.193  30.792  34.610  1.00  0.00    -0.237 OA
ATOM     99  O   UNL A   1      49.246  31.667  36.911  1.00  0.00    -0.237 OA
ATOM    100  O   UNL A   1      50.301  29.509  36.402  1.00  0.00    -0.744 OA
ENDBRANCH  94  97
ENDBRANCH  67  90
ENDBRANCH  41  42
ENDBRANCH  34  36
ENDBRANCH  33  34
ENDBRANCH  32  33
ENDBRANCH  31  32
ENDBRANCH  30  31
ENDBRANCH  29  30
ENDBRANCH  28  29
ENDBRANCH   1  28
TORSDOF 26
ENDMDL
MODEL 3
REMARK VINA RESULT:      -8.5      4.517      8.882
REMARK SMILES O=C1CN(S(=O)(=O)c2ccc(CC(=O)OCCOCCOCCOCCOC(=O)c3ccc(-c4c5nc(c(-c6cccc(S(=O)(=O)[O-])c6F)c6ccc([nH]6)c(-c6cccc(S(=O)(=O)[O-])c6F)c6nc(c(-c7cccc(S(=O)(=O)[O-])c7F)c7ccc4[nH]7)C=C6)C=C5)cc3)cc2)CCN1
REMARK SMILES IDX 21 1 20 2 19 3 18 4 17 5 16 6 15 7 13 8 14 9 12 10 11 11
REMARK SMILES IDX 8 12 9 13 94 14 10 15 93 16 5 17 6 18 7 19 4 20 1 21 2 22
REMARK SMILES IDX 3 23 97 24 96 25 95 27 22 28 23 29 24 30 25 31 26 32 27 33
REMARK SMILES IDX 28 34 29 35 30 36 31 37 92 38 32 39 91 40 33 41 34 42 35 43
REMARK SMILES IDX 85 44 36 45 90 46 84 47 86 48 37 49 89 50 83 51 82 52 38 54
REMARK SMILES IDX 70 55 50 56 69 57 51 58 54 59 68 60 87 61 52 62 53 63 67 65
REMARK SMILES IDX 88 66 55 67 39 68 40 69 48 70 41 71 43 72 49 73 42 74 44 75
REMARK SMILES IDX 45 76 46 77 47 78 71 79 72 80 80 81 73 82 75 83 81 84 74 85
REMARK SMILES IDX 76 86 77 87 78 88 79 89 56 90 57 91 65 92 58 93 60 94 66 95
REMARK SMILES IDX 59 96 61 97 62 98 63 99 64 100
REMARK H PARENT 97 26 86 53 54 64
REMARK Flexibility Score: inf
ROOT
ATOM      1  O   UNL A   1      32.398  30.321  27.234  1.00  0.00    -0.377 OA
ENDROOT
BRANCH   1   2
ATOM      2  C   UNL A   1      31.987  29.910  25.943  1.00  0.00     0.188 C 
BRANCH   2   3
ATOM      3  C   UNL A   1      33.035  29.060  25.188  1.00  0.00     0.188 C 
BRANCH   3   4
ATOM      4  O   UNL A   1      33.289  29.236  23.794  1.00  0.00    -0.376 OA
BRANCH   4   5
ATOM      5  C   UNL A   1      32.474  28.569  22.846  1.00  0.00     0.202 C 
BRANCH   5   6
ATOM      6  C   UNL A   1      31.235  29.330  22.337  1.00  0.00     0.261 C 
BRANCH   6   7
ATOM      7  O   UNL A   1      30.087  28.521  21.994  1.00  0.00    -0.463 OA
BRANCH   7   8
ATOM      8  C   UNL A   1      28.991  28.654  22.776  1.00  0.00     0.310 C 
ATOM      9  O   UNL A   1      28.329  29.688  22.853  1.00  0.00    -0.252 OA
BRANCH   8  10
ATOM     10  C   UNL A   1      28.613  27.431  23.601  1.00  0.00     0.158 C 
BRANCH  10  11
ATOM     11  C   UNL A   1      29.606  26.320  23.914  1.00  0.00    -0.037 A 
ATOM     12  C   UNL A   1      31.396  24.216  24.540  1.00  0.00     0.082 A 
ATOM     13  C   UNL A   1      30.604  24.138  23.392  1.00  0.00     0.022 A 
ATOM     14  C   UNL A   1      31.307  25.343  25.366  1.00  0.00     0.022 A 
ATOM     15  C   UNL A   1      29.708  25.178  23.090  1.00  0.00     0.006 A 
ATOM     16  C   UNL A   1      30.411  26.378  25.061  1.00  0.00     0.006 A 
BRANCH  12  17
ATOM     17  S   UNL A   1      32.685  23.014  24.831  1.00  0.00     0.243 S 
ATOM     18  O   UNL A   1      33.481  22.932  23.627  1.00  0.00    -0.207 OA
ATOM     19  O   UNL A   1      32.055  21.824  25.370  1.00  0.00    -0.207 OA
BRANCH  17  20
ATOM     20  N   UNL A   1      33.672  23.645  26.081  1.00  0.00    -0.187 NA
ATOM     21  O   UNL A   1      37.012  22.348  25.301  1.00  0.00    -0.274 OA
ATOM     22  C   UNL A   1      35.931  22.477  25.871  1.00  0.00     0.235 C 
ATOM     23  C   UNL A   1      35.126  23.762  25.781  1.00  0.00     0.202 C 
ATOM     24  N   UNL A   1      35.478  21.508  26.728  1.00  0.00    -0.354 N 
ATOM     25  C   UNL A   1      34.164  21.517  27.341  1.00  0.00     0.132 C 
ATOM     26  H   UNL A   1      36.083  20.761  26.942  1.00  0.00     0.163 HD
ATOM     27  C   UNL A   1      33.514  22.910  27.388  1.00  0.00     0.124 C 
ENDBRANCH  17  20
ENDBRANCH  12  17
ENDBRANCH  10  11
ENDBRANCH   8  10
ENDBRANCH   7   8
ENDBRANCH   6   7
ENDBRANCH   5   6
ENDBRANCH   4   5
ENDBRANCH   3   4
ENDBRANCH   2   3
ENDBRANCH   1   2
BRANCH   1  28
ATOM     28  C   UNL A   1      33.795  30.345  27.440  1.00  0.00     0.188 C 
BRANCH  28  29
ATOM     29  C   UNL A   1      34.331  31.695  27.936  1.00  0.00     0.188 C 
BRANCH  29  30
ATOM     30  O   UNL A   1      33.330  32.707  27.938  1.00  0.00    -0.376 OA
BRANCH  30  31
ATOM     31  C   UNL A   1      33.711  34.068  27.844  1.00  0.00     0.202 C 
BRANCH  31  32
ATOM     32  C   UNL A   1      33.882  34.891  29.132  1.00  0.00     0.261 C 
BRANCH  32  33
ATOM     33  O   UNL A   1      32.986  34.611  30.211  1.00  0.00    -0.460 OA
BRANCH  33  34
ATOM     34  C   UNL A   1      33.158  35.299  31.364  1.00  0.00     0.338 C 
ATOM     35  O   UNL A   1      32.431  36.151  31.816  1.00  0.00    -0.246 OA
BRANCH  34  36
ATOM     36  C   UNL A   1      34.288  34.664  32.088  1.00  0.00     0.060 A 
ATOM     37  C   UNL A   1      35.368  35.471  32.475  1.00  0.00     0.016 A 
ATOM     38  C   UNL A   1      34.271  33.304  32.410  1.00  0.00     0.016 A 
ATOM     39  C   UNL A   1      36.454  34.910  33.148  1.00  0.00     0.010 A 
ATOM     40  C   UNL A   1      35.375  32.737  33.055  1.00  0.00     0.010 A 
ATOM     41  C   UNL A   1      36.487  33.531  33.386  1.00  0.00    -0.014 A 
BRANCH  41  42
ATOM     42  C   UNL A   1      37.777  32.891  33.737  1.00  0.00     0.031 A 
ATOM     43  C   UNL A   1      38.331  33.150  35.112  1.00  0.00     0.074 A 
ATOM     44  C   UNL A   1      38.433  32.092  32.878  1.00  0.00     0.049 A 
ATOM     45  N   UNL A   1      39.444  32.730  35.654  1.00  0.00    -0.248 NA
ATOM     46  C   UNL A   1      37.517  34.003  35.996  1.00  0.00     0.031 C 
ATOM     47  C   UNL A   1      37.989  31.751  31.528  1.00  0.00     0.029 A 
ATOM     48  N   UNL A   1      39.634  31.440  33.014  1.00  0.00    -0.354 N 
ATOM     49  C   UNL A   1      39.477  33.291  36.925  1.00  0.00     0.074 A 
ATOM     50  C   UNL A   1      38.281  34.089  37.073  1.00  0.00     0.031 C 
ATOM     51  C   UNL A   1      38.923  30.978  30.946  1.00  0.00     0.029 A 
ATOM     52  C   UNL A   1      40.039  30.790  31.872  1.00  0.00     0.049 A 
ATOM     53  H   UNL A   1      40.155  31.438  33.849  1.00  0.00     0.167 HD
ATOM     54  C   UNL A   1      40.416  33.148  37.889  1.00  0.00     0.034 A 
ATOM     55  C   UNL A   1      41.191  30.142  31.604  1.00  0.00     0.034 A 
ATOM     56  C   UNL A   1      41.601  32.351  37.741  1.00  0.00     0.049 A 
ATOM     57  C   UNL A   1      42.237  30.023  32.684  1.00  0.00     0.074 A 
ATOM     58  C   UNL A   1      42.598  32.113  38.669  1.00  0.00     0.029 A 
ATOM     59  N   UNL A   1      41.960  31.679  36.583  1.00  0.00    -0.354 N 
ATOM     60  N   UNL A   1      42.210  30.472  33.917  1.00  0.00    -0.248 NA
ATOM     61  C   UNL A   1      43.460  29.277  32.347  1.00  0.00     0.031 C 
ATOM     62  C   UNL A   1      43.580  31.326  38.059  1.00  0.00     0.029 A 
ATOM     63  C   UNL A   1      43.169  31.033  36.768  1.00  0.00     0.049 A 
ATOM     64  H   UNL A   1      41.432  31.662  35.753  1.00  0.00     0.167 HD
ATOM     65  C   UNL A   1      43.384  30.022  34.515  1.00  0.00     0.074 A 
ATOM     66  C   UNL A   1      44.094  29.257  33.512  1.00  0.00     0.031 C 
ATOM     67  C   UNL A   1      43.835  30.227  35.777  1.00  0.00     0.034 A 
BRANCH  54  68
ATOM     68  C   UNL A   1      40.193  33.872  39.191  1.00  0.00     0.023 A 
ATOM     69  C   UNL A   1      40.933  35.036  39.485  1.00  0.00     0.012 A 
ATOM     70  C   UNL A   1      39.223  33.420  40.106  1.00  0.00     0.148 A 
ATOM     71  C   UNL A   1      40.736  35.719  40.686  1.00  0.00     0.002 A 
ATOM     72  C   UNL A   1      38.997  34.133  41.277  1.00  0.00     0.091 A 
ATOM     73  F   UNL A   1      38.549  32.297  39.820  1.00  0.00    -0.205 F 
ATOM     74  C   UNL A   1      39.761  35.274  41.574  1.00  0.00     0.022 A 
BRANCH  72  75
ATOM     75  S   UNL A   1      37.710  33.688  42.447  1.00  0.00     0.127 S 
ATOM     76  O   UNL A   1      37.360  34.992  43.011  1.00  0.00    -0.237 OA
ATOM     77  O   UNL A   1      36.690  33.107  41.574  1.00  0.00    -0.237 OA
ATOM     78  O   UNL A   1      38.320  32.750  43.380  1.00  0.00    -0.744 OA
ENDBRANCH  72  75
ENDBRANCH  54  68
BRANCH  55  79
ATOM     79  C   UNL A   1      41.413  29.531  30.261  1.00  0.00     0.023 A 
ATOM     80  C   UNL A   1      42.138  30.239  29.283  1.00  0.00     0.012 A 
ATOM     81  C   UNL A   1      40.905  28.254  29.950  1.00  0.00     0.148 A 
ATOM     82  C   UNL A   1      42.320  29.703  28.007  1.00  0.00     0.002 A 
ATOM     83  C   UNL A   1      41.139  27.704  28.695  1.00  0.00     0.091 A 
ATOM     84  F   UNL A   1      40.204  27.604  30.890  1.00  0.00    -0.205 F 
ATOM     85  C   UNL A   1      41.830  28.434  27.717  1.00  0.00     0.022 A 
BRANCH  83  86
ATOM     86  S   UNL A   1      40.648  26.030  28.269  1.00  0.00     0.127 S 
ATOM     87  O   UNL A   1      40.751  26.050  26.812  1.00  0.00    -0.237 OA
ATOM     88  O   UNL A   1      41.674  25.236  28.948  1.00  0.00    -0.237 OA
ATOM     89  O   UNL A   1      39.305  25.862  28.804  1.00  0.00    -0.744 OA
ENDBRANCH  83  86
ENDBRANCH  55  79
BRANCH  67  90
ATOM     90  C   UNL A   1      45.126  29.561  36.182  1.00  0.00     0.023 A 
ATOM     91  C   UNL A   1      46.360  30.205  35.961  1.00  0.00     0.012 A 
ATOM     92  C   UNL A   1      45.104  28.324  36.856  1.00  0.00     0.148 A 
ATOM     93  C   UNL A   1      47.553  29.609  36.371  1.00  0.00     0.002 A 
ATOM     94  C   UNL A   1      46.290  27.763  37.311  1.00  0.00     0.091 A 
ATOM     95  F   UNL A   1      43.921  27.719  37.043  1.00  0.00    -0.205 F 
ATOM     96  C   UNL A   1      47.516  28.395  37.056  1.00  0.00     0.022 A 
BRANCH  94  97
ATOM     97  S   UNL A   1      46.329  26.259  38.292  1.00  0.00     0.127 S 
ATOM     98  O   UNL A   1      46.066  25.237  37.280  1.00  0.00    -0.237 OA
ATOM     99  O   UNL A   1      47.697  26.264  38.812  1.00  0.00    -0.237 OA
ATOM    100  O   UNL A   1      45.296  26.413  39.308  1.00  0.00    -0.744 OA
ENDBRANCH  94  97
ENDBRANCH  67  90
ENDBRANCH  41  42
ENDBRANCH  34  36
ENDBRANCH  33  34
ENDBRANCH  32  33
ENDBRANCH  31  32
ENDBRANCH  30  31
ENDBRANCH  29  30
ENDBRANCH  28  29
ENDBRANCH   1  28
TORSDOF 26
ENDMDL
