MODEL 1
REMARK VINA RESULT:      -7.2      0.000      0.000
REMARK SMILES CCOC(=O)[C@@H](C)Oc1ccc(Br)cc1/C=C/C(=O)OCCOCCOCCOCCOC(=O)c1ccc(-c2c3nc(c(-c4cccc(S(=O)(=O)[O-])c4F)c4ccc([nH]4)c(-c4cccc(S(=O)(=O)[O-])c4F)c4nc(c(-c5cccc(S(=O)(=O)[O-])c5F)c5ccc2[nH]5)C=C4)C=C3)cc1
REMARK SMILES IDX 24 1 23 2 22 3 21 4 20 5 18 6 19 7 17 8 16 9 15 10 9 11
REMARK SMILES IDX 10 12 11 13 14 14 12 15 13 16 8 17 6 18 7 19 4 20 5 21 3 22
REMARK SMILES IDX 2 23 1 24 25 25 26 26 27 27 28 28 29 29 30 30 31 31 32 32
REMARK SMILES IDX 33 33 34 34 35 35 36 36 97 37 37 38 96 39 38 40 39 41 40 42
REMARK SMILES IDX 90 43 41 44 95 45 89 46 91 47 42 48 94 49 88 50 87 51 43 53
REMARK SMILES IDX 75 54 55 55 74 56 56 57 59 58 73 59 92 60 57 61 58 62 72 64
REMARK SMILES IDX 93 65 60 66 44 67 45 68 53 69 46 70 48 71 54 72 47 73 49 74
REMARK SMILES IDX 50 75 51 76 52 77 76 78 77 79 85 80 78 81 80 82 86 83 79 84
REMARK SMILES IDX 81 85 82 86 83 87 84 88 61 89 62 90 70 91 63 92 65 93 71 94
REMARK SMILES IDX 64 95 66 96 67 97 68 98 69 99
REMARK H PARENT 91 52 59 63
REMARK Flexibility Score: inf
ROOT
ATOM      1  C   UNL A   1      37.994  29.430  29.132  1.00  0.00     0.188 C 
ENDROOT
BRANCH   1   2
ATOM      2  O   UNL A   1      36.583  29.325  29.158  1.00  0.00    -0.376 OA
BRANCH   2   3
ATOM      3  C   UNL A   1      35.807  29.940  28.146  1.00  0.00     0.202 C 
BRANCH   3   4
ATOM      4  C   UNL A   1      35.008  29.102  27.134  1.00  0.00     0.261 C 
BRANCH   4   5
ATOM      5  O   UNL A   1      33.656  28.805  27.485  1.00  0.00    -0.460 OA
BRANCH   5   6
ATOM      6  C   UNL A   1      32.851  28.373  26.497  1.00  0.00     0.330 C 
ATOM      7  O   UNL A   1      31.819  28.905  26.117  1.00  0.00    -0.247 OA
BRANCH   6   8
ATOM      8  C   UNL A   1      33.466  27.238  25.776  1.00  0.00     0.094 C 
ATOM      9  C   UNL A   1      33.076  25.952  25.854  1.00  0.00     0.019 C 
BRANCH   9  10
ATOM     10  C   UNL A   1      33.769  24.895  25.097  1.00  0.00     0.018 A 
ATOM     11  C   UNL A   1      33.206  24.340  23.936  1.00  0.00     0.127 A 
ATOM     12  C   UNL A   1      34.018  23.582  23.089  1.00  0.00     0.048 A 
ATOM     13  C   UNL A   1      35.301  23.196  23.475  1.00  0.00     0.019 A 
ATOM     14  C   UNL A   1      35.042  24.458  25.509  1.00  0.00     0.027 A 
ATOM     15  C   UNL A   1      35.792  23.602  24.707  1.00  0.00     0.018 A 
ATOM     16  Br  UNL A   1      37.515  23.055  25.257  1.00  0.00    -0.051 Br
BRANCH  11  17
ATOM     17  O   UNL A   1      31.911  24.645  23.608  1.00  0.00    -0.478 OA
BRANCH  17  18
ATOM     18  C   UNL A   1      31.702  25.639  22.583  1.00  0.00     0.279 C 
ATOM     19  C   UNL A   1      33.006  26.200  22.003  1.00  0.00     0.066 C 
BRANCH  18  20
ATOM     20  C   UNL A   1      30.654  26.717  22.919  1.00  0.00     0.347 C 
ATOM     21  O   UNL A   1      29.949  26.697  23.921  1.00  0.00    -0.248 OA
BRANCH  20  22
ATOM     22  O   UNL A   1      30.722  27.780  22.060  1.00  0.00    -0.463 OA
BRANCH  22  23
ATOM     23  C   UNL A   1      30.554  29.074  22.662  1.00  0.00     0.229 C 
ATOM     24  C   UNL A   1      29.699  29.963  21.789  1.00  0.00     0.049 C 
ENDBRANCH  22  23
ENDBRANCH  20  22
ENDBRANCH  18  20
ENDBRANCH  17  18
ENDBRANCH  11  17
ENDBRANCH   9  10
ENDBRANCH   6   8
ENDBRANCH   5   6
ENDBRANCH   4   5
ENDBRANCH   3   4
ENDBRANCH   2   3
ENDBRANCH   1   2
BRANCH   1  25
ATOM     25  C   UNL A   1      38.661  28.609  28.012  1.00  0.00     0.188 C 
BRANCH  25  26
ATOM     26  O   UNL A   1      38.907  27.232  28.245  1.00  0.00    -0.377 OA
BRANCH  26  27
ATOM     27  C   UNL A   1      40.245  26.751  28.354  1.00  0.00     0.188 C 
BRANCH  27  28
ATOM     28  C   UNL A   1      40.959  26.005  27.199  1.00  0.00     0.188 C 
BRANCH  28  29
ATOM     29  O   UNL A   1      40.777  24.598  27.187  1.00  0.00    -0.376 OA
BRANCH  29  30
ATOM     30  C   UNL A   1      41.603  23.841  26.321  1.00  0.00     0.202 C 
BRANCH  30  31
ATOM     31  C   UNL A   1      43.103  24.164  26.347  1.00  0.00     0.261 C 
BRANCH  31  32
ATOM     32  O   UNL A   1      43.595  24.955  25.255  1.00  0.00    -0.460 OA
BRANCH  32  33
ATOM     33  C   UNL A   1      44.793  25.555  25.414  1.00  0.00     0.338 C 
ATOM     34  O   UNL A   1      45.822  25.319  24.797  1.00  0.00    -0.246 OA
BRANCH  33  35
ATOM     35  C   UNL A   1      44.605  26.690  26.339  1.00  0.00     0.060 A 
ATOM     36  C   UNL A   1      43.933  27.836  25.890  1.00  0.00     0.016 A 
ATOM     37  C   UNL A   1      45.077  26.613  27.650  1.00  0.00     0.016 A 
ATOM     38  C   UNL A   1      43.763  28.923  26.747  1.00  0.00     0.010 A 
ATOM     39  C   UNL A   1      44.922  27.710  28.500  1.00  0.00     0.010 A 
ATOM     40  C   UNL A   1      44.297  28.883  28.042  1.00  0.00    -0.014 A 
BRANCH  40  41
ATOM     41  C   UNL A   1      44.370  30.123  28.852  1.00  0.00     0.031 A 
ATOM     42  C   UNL A   1      43.173  30.510  29.676  1.00  0.00     0.074 A 
ATOM     43  C   UNL A   1      45.470  30.898  28.853  1.00  0.00     0.049 A 
ATOM     44  N   UNL A   1      42.980  31.568  30.417  1.00  0.00    -0.248 NA
ATOM     45  C   UNL A   1      42.033  29.574  29.655  1.00  0.00     0.031 C 
ATOM     46  C   UNL A   1      46.696  30.627  28.106  1.00  0.00     0.029 A 
ATOM     47  N   UNL A   1      45.716  32.089  29.488  1.00  0.00    -0.354 N 
ATOM     48  C   UNL A   1      41.693  31.445  30.925  1.00  0.00     0.074 A 
ATOM     49  C   UNL A   1      41.144  30.215  30.398  1.00  0.00     0.031 C 
ATOM     50  C   UNL A   1      47.556  31.642  28.302  1.00  0.00     0.029 A 
ATOM     51  C   UNL A   1      46.930  32.645  29.161  1.00  0.00     0.049 A 
ATOM     52  H   UNL A   1      45.083  32.507  30.117  1.00  0.00     0.167 HD
ATOM     53  C   UNL A   1      41.030  32.274  31.765  1.00  0.00     0.034 A 
ATOM     54  C   UNL A   1      47.460  33.840  29.494  1.00  0.00     0.034 A 
ATOM     55  C   UNL A   1      41.579  33.491  32.295  1.00  0.00     0.049 A 
ATOM     56  C   UNL A   1      46.686  34.765  30.401  1.00  0.00     0.074 A 
ATOM     57  C   UNL A   1      41.002  34.378  33.185  1.00  0.00     0.029 A 
ATOM     58  N   UNL A   1      42.824  34.006  31.967  1.00  0.00    -0.354 N 
ATOM     59  N   UNL A   1      45.514  34.587  30.959  1.00  0.00    -0.248 NA
ATOM     60  C   UNL A   1      47.325  36.044  30.748  1.00  0.00     0.031 C 
ATOM     61  C   UNL A   1      41.883  35.451  33.365  1.00  0.00     0.029 A 
ATOM     62  C   UNL A   1      43.028  35.206  32.625  1.00  0.00     0.049 A 
ATOM     63  H   UNL A   1      43.469  33.580  31.357  1.00  0.00     0.167 HD
ATOM     64  C   UNL A   1      45.292  35.707  31.754  1.00  0.00     0.074 A 
ATOM     65  C   UNL A   1      46.461  36.552  31.617  1.00  0.00     0.031 C 
ATOM     66  C   UNL A   1      44.216  36.015  32.520  1.00  0.00     0.034 A 
BRANCH  53  67
ATOM     67  C   UNL A   1      39.632  31.884  32.170  1.00  0.00     0.023 A 
ATOM     68  C   UNL A   1      39.436  30.907  33.168  1.00  0.00     0.012 A 
ATOM     69  C   UNL A   1      38.514  32.519  31.595  1.00  0.00     0.148 A 
ATOM     70  C   UNL A   1      38.149  30.543  33.562  1.00  0.00     0.002 A 
ATOM     71  C   UNL A   1      37.236  32.186  32.027  1.00  0.00     0.091 A 
ATOM     72  F   UNL A   1      38.721  33.427  30.631  1.00  0.00    -0.205 F 
ATOM     73  C   UNL A   1      37.051  31.189  33.000  1.00  0.00     0.022 A 
BRANCH  71  74
ATOM     74  S   UNL A   1      35.763  33.017  31.424  1.00  0.00     0.127 S 
ATOM     75  O   UNL A   1      34.706  32.288  32.125  1.00  0.00    -0.237 OA
ATOM     76  O   UNL A   1      35.972  34.387  31.893  1.00  0.00    -0.237 OA
ATOM     77  O   UNL A   1      35.774  32.859  29.977  1.00  0.00    -0.744 OA
ENDBRANCH  71  74
ENDBRANCH  53  67
BRANCH  54  78
ATOM     78  C   UNL A   1      48.804  34.229  28.983  1.00  0.00     0.023 A 
ATOM     79  C   UNL A   1      49.952  33.964  29.755  1.00  0.00     0.012 A 
ATOM     80  C   UNL A   1      48.950  34.859  27.731  1.00  0.00     0.148 A 
ATOM     81  C   UNL A   1      51.217  34.347  29.306  1.00  0.00     0.002 A 
ATOM     82  C   UNL A   1      50.217  35.185  27.263  1.00  0.00     0.091 A 
ATOM     83  F   UNL A   1      47.844  35.118  27.019  1.00  0.00    -0.205 F 
ATOM     84  C   UNL A   1      51.350  34.948  28.056  1.00  0.00     0.022 A 
BRANCH  82  85
ATOM     85  S   UNL A   1      50.498  35.846  25.617  1.00  0.00     0.127 S 
ATOM     86  O   UNL A   1      49.957  34.783  24.772  1.00  0.00    -0.237 OA
ATOM     87  O   UNL A   1      49.703  37.073  25.650  1.00  0.00    -0.237 OA
ATOM     88  O   UNL A   1      51.935  36.058  25.518  1.00  0.00    -0.744 OA
ENDBRANCH  82  85
ENDBRANCH  54  78
BRANCH  66  89
ATOM     89  C   UNL A   1      44.261  37.293  33.320  1.00  0.00     0.023 A 
ATOM     90  C   UNL A   1      43.847  38.508  32.739  1.00  0.00     0.012 A 
ATOM     91  C   UNL A   1      44.645  37.270  34.676  1.00  0.00     0.148 A 
ATOM     92  C   UNL A   1      43.849  39.686  33.487  1.00  0.00     0.002 A 
ATOM     93  C   UNL A   1      44.592  38.438  35.428  1.00  0.00     0.091 A 
ATOM     94  F   UNL A   1      45.050  36.107  35.207  1.00  0.00    -0.205 F 
ATOM     95  C   UNL A   1      44.208  39.649  34.831  1.00  0.00     0.022 A 
BRANCH  93  96
ATOM     96  S   UNL A   1      44.940  38.467  37.190  1.00  0.00     0.127 S 
ATOM     97  O   UNL A   1      46.349  38.076  37.222  1.00  0.00    -0.237 OA
ATOM     98  O   UNL A   1      44.688  39.867  37.532  1.00  0.00    -0.237 OA
ATOM     99  O   UNL A   1      44.018  37.520  37.800  1.00  0.00    -0.744 OA
ENDBRANCH  93  96
ENDBRANCH  66  89
ENDBRANCH  40  41
ENDBRANCH  33  35
ENDBRANCH  32  33
ENDBRANCH  31  32
ENDBRANCH  30  31
ENDBRANCH  29  30
ENDBRANCH  28  29
ENDBRANCH  27  28
ENDBRANCH  26  27
ENDBRANCH  25  26
ENDBRANCH   1  25
TORSDOF 29
ENDMDL
MODEL 2
REMARK VINA RESULT:      -6.7      9.812     14.589
REMARK SMILES CCOC(=O)[C@@H](C)Oc1ccc(Br)cc1/C=C/C(=O)OCCOCCOCCOCCOC(=O)c1ccc(-c2c3nc(c(-c4cccc(S(=O)(=O)[O-])c4F)c4ccc([nH]4)c(-c4cccc(S(=O)(=O)[O-])c4F)c4nc(c(-c5cccc(S(=O)(=O)[O-])c5F)c5ccc2[nH]5)C=C4)C=C3)cc1
REMARK SMILES IDX 24 1 23 2 22 3 21 4 20 5 18 6 19 7 17 8 16 9 15 10 9 11
REMARK SMILES IDX 10 12 11 13 14 14 12 15 13 16 8 17 6 18 7 19 4 20 5 21 3 22
REMARK SMILES IDX 2 23 1 24 25 25 26 26 27 27 28 28 29 29 30 30 31 31 32 32
REMARK SMILES IDX 33 33 34 34 35 35 36 36 97 37 37 38 96 39 38 40 39 41 40 42
REMARK SMILES IDX 90 43 41 44 95 45 89 46 91 47 42 48 94 49 88 50 87 51 43 53
REMARK SMILES IDX 75 54 55 55 74 56 56 57 59 58 73 59 92 60 57 61 58 62 72 64
REMARK SMILES IDX 93 65 60 66 44 67 45 68 53 69 46 70 48 71 54 72 47 73 49 74
REMARK SMILES IDX 50 75 51 76 52 77 76 78 77 79 85 80 78 81 80 82 86 83 79 84
REMARK SMILES IDX 81 85 82 86 83 87 84 88 61 89 62 90 70 91 63 92 65 93 71 94
REMARK SMILES IDX 64 95 66 96 67 97 68 98 69 99
REMARK H PARENT 91 52 59 63
REMARK Flexibility Score: inf
ROOT
ATOM      1  C   UNL A   1      47.815  23.264  39.380  1.00  0.00     0.188 C 
ENDROOT
BRANCH   1   2
ATOM      2  O   UNL A   1      47.682  22.005  40.011  1.00  0.00    -0.376 OA
BRANCH   2   3
ATOM      3  C   UNL A   1      47.509  20.835  39.233  1.00  0.00     0.202 C 
BRANCH   3   4
ATOM      4  C   UNL A   1      46.142  20.139  39.134  1.00  0.00     0.261 C 
BRANCH   4   5
ATOM      5  O   UNL A   1      46.140  18.721  39.301  1.00  0.00    -0.460 OA
BRANCH   5   6
ATOM      6  C   UNL A   1      45.225  18.026  38.601  1.00  0.00     0.330 C 
ATOM      7  O   UNL A   1      45.039  18.083  37.394  1.00  0.00    -0.247 OA
BRANCH   6   8
ATOM      8  C   UNL A   1      44.562  17.018  39.454  1.00  0.00     0.094 C 
ATOM      9  C   UNL A   1      44.296  17.152  40.767  1.00  0.00     0.019 C 
BRANCH   9  10
ATOM     10  C   UNL A   1      43.636  16.076  41.528  1.00  0.00     0.018 A 
ATOM     11  C   UNL A   1      43.664  16.050  42.931  1.00  0.00     0.127 A 
ATOM     12  C   UNL A   1      42.780  15.207  43.607  1.00  0.00     0.048 A 
ATOM     13  C   UNL A   1      42.030  14.250  42.925  1.00  0.00     0.019 A 
ATOM     14  C   UNL A   1      42.922  15.072  40.845  1.00  0.00     0.027 A 
ATOM     15  C   UNL A   1      42.137  14.159  41.545  1.00  0.00     0.018 A 
ATOM     16  Br  UNL A   1      41.155  12.843  40.611  1.00  0.00    -0.051 Br
BRANCH  11  17
ATOM     17  O   UNL A   1      44.475  16.928  43.601  1.00  0.00    -0.478 OA
BRANCH  17  18
ATOM     18  C   UNL A   1      45.411  16.375  44.550  1.00  0.00     0.279 C 
ATOM     19  C   UNL A   1      44.923  16.447  46.001  1.00  0.00     0.066 C 
BRANCH  18  20
ATOM     20  C   UNL A   1      46.874  16.818  44.361  1.00  0.00     0.347 C 
ATOM     21  O   UNL A   1      47.237  17.650  43.539  1.00  0.00    -0.248 OA
BRANCH  20  22
ATOM     22  O   UNL A   1      47.693  16.301  45.329  1.00  0.00    -0.463 OA
BRANCH  22  23
ATOM     23  C   UNL A   1      48.975  16.937  45.460  1.00  0.00     0.229 C 
ATOM     24  C   UNL A   1      49.718  16.400  46.659  1.00  0.00     0.049 C 
ENDBRANCH  22  23
ENDBRANCH  20  22
ENDBRANCH  18  20
ENDBRANCH  17  18
ENDBRANCH  11  17
ENDBRANCH   9  10
ENDBRANCH   6   8
ENDBRANCH   5   6
ENDBRANCH   4   5
ENDBRANCH   3   4
ENDBRANCH   2   3
ENDBRANCH   1   2
BRANCH   1  25
ATOM     25  C   UNL A   1      47.185  23.329  37.975  1.00  0.00     0.188 C 
BRANCH  25  26
ATOM     26  O   UNL A   1      48.033  23.154  36.852  1.00  0.00    -0.377 OA
BRANCH  26  27
ATOM     27  C   UNL A   1      49.376  22.707  37.030  1.00  0.00     0.188 C 
BRANCH  27  28
ATOM     28  C   UNL A   1      50.583  23.676  37.041  1.00  0.00     0.188 C 
BRANCH  28  29
ATOM     29  O   UNL A   1      50.408  24.864  36.286  1.00  0.00    -0.376 OA
BRANCH  29  30
ATOM     30  C   UNL A   1      49.919  26.004  36.968  1.00  0.00     0.202 C 
BRANCH  30  31
ATOM     31  C   UNL A   1      50.128  27.360  36.280  1.00  0.00     0.261 C 
BRANCH  31  32
ATOM     32  O   UNL A   1      48.944  28.006  35.789  1.00  0.00    -0.460 OA
BRANCH  32  33
ATOM     33  C   UNL A   1      49.086  28.856  34.751  1.00  0.00     0.338 C 
ATOM     34  O   UNL A   1      50.125  29.154  34.182  1.00  0.00    -0.246 OA
BRANCH  33  35
ATOM     35  C   UNL A   1      47.734  29.228  34.290  1.00  0.00     0.060 A 
ATOM     36  C   UNL A   1      46.659  28.368  34.555  1.00  0.00     0.016 A 
ATOM     37  C   UNL A   1      47.529  30.431  33.613  1.00  0.00     0.016 A 
ATOM     38  C   UNL A   1      45.378  28.697  34.110  1.00  0.00     0.010 A 
ATOM     39  C   UNL A   1      46.249  30.749  33.152  1.00  0.00     0.010 A 
ATOM     40  C   UNL A   1      45.176  29.868  33.367  1.00  0.00    -0.014 A 
BRANCH  40  41
ATOM     41  C   UNL A   1      43.892  30.080  32.655  1.00  0.00     0.031 A 
ATOM     42  C   UNL A   1      42.818  30.876  33.344  1.00  0.00     0.074 A 
ATOM     43  C   UNL A   1      43.677  29.573  31.428  1.00  0.00     0.049 A 
ATOM     44  N   UNL A   1      41.602  31.148  32.948  1.00  0.00    -0.248 NA
ATOM     45  C   UNL A   1      43.161  31.437  34.663  1.00  0.00     0.031 C 
ATOM     46  C   UNL A   1      44.641  28.795  30.653  1.00  0.00     0.029 A 
ATOM     47  N   UNL A   1      42.560  29.619  30.632  1.00  0.00    -0.354 N 
ATOM     48  C   UNL A   1      41.025  31.882  33.977  1.00  0.00     0.074 A 
ATOM     49  C   UNL A   1      42.019  32.003  35.021  1.00  0.00     0.031 C 
ATOM     50  C   UNL A   1      44.061  28.408  29.503  1.00  0.00     0.029 A 
ATOM     51  C   UNL A   1      42.679  28.886  29.475  1.00  0.00     0.049 A 
ATOM     52  H   UNL A   1      41.749  30.127  30.868  1.00  0.00     0.167 HD
ATOM     53  C   UNL A   1      39.784  32.419  34.043  1.00  0.00     0.034 A 
ATOM     54  C   UNL A   1      41.768  28.608  28.521  1.00  0.00     0.034 A 
ATOM     55  C   UNL A   1      38.801  32.304  33.002  1.00  0.00     0.049 A 
ATOM     56  C   UNL A   1      40.379  29.185  28.635  1.00  0.00     0.074 A 
ATOM     57  C   UNL A   1      37.530  32.847  32.957  1.00  0.00     0.029 A 
ATOM     58  N   UNL A   1      38.970  31.582  31.831  1.00  0.00    -0.354 N 
ATOM     59  N   UNL A   1      39.881  29.966  29.562  1.00  0.00    -0.248 NA
ATOM     60  C   UNL A   1      39.436  28.867  27.552  1.00  0.00     0.031 C 
ATOM     61  C   UNL A   1      36.914  32.420  31.776  1.00  0.00     0.029 A 
ATOM     62  C   UNL A   1      37.821  31.651  31.063  1.00  0.00     0.049 A 
ATOM     63  H   UNL A   1      39.786  31.093  31.582  1.00  0.00     0.167 HD
ATOM     64  C   UNL A   1      38.584  30.265  29.157  1.00  0.00     0.074 A 
ATOM     65  C   UNL A   1      38.379  29.594  27.890  1.00  0.00     0.031 C 
ATOM     66  C   UNL A   1      37.644  31.020  29.780  1.00  0.00     0.034 A 
BRANCH  53  67
ATOM     67  C   UNL A   1      39.423  33.187  35.288  1.00  0.00     0.023 A 
ATOM     68  C   UNL A   1      39.765  34.551  35.395  1.00  0.00     0.012 A 
ATOM     69  C   UNL A   1      38.704  32.570  36.330  1.00  0.00     0.148 A 
ATOM     70  C   UNL A   1      39.427  35.280  36.536  1.00  0.00     0.002 A 
ATOM     71  C   UNL A   1      38.329  33.315  37.441  1.00  0.00     0.091 A 
ATOM     72  F   UNL A   1      38.409  31.267  36.218  1.00  0.00    -0.205 F 
ATOM     73  C   UNL A   1      38.701  34.665  37.552  1.00  0.00     0.022 A 
BRANCH  71  74
ATOM     74  S   UNL A   1      37.323  32.638  38.766  1.00  0.00     0.127 S 
ATOM     75  O   UNL A   1      37.658  33.530  39.875  1.00  0.00    -0.237 OA
ATOM     76  O   UNL A   1      35.969  32.804  38.237  1.00  0.00    -0.237 OA
ATOM     77  O   UNL A   1      37.749  31.255  38.929  1.00  0.00    -0.744 OA
ENDBRANCH  71  74
ENDBRANCH  53  67
BRANCH  54  78
ATOM     78  C   UNL A   1      42.141  27.753  27.359  1.00  0.00     0.023 A 
ATOM     79  C   UNL A   1      42.604  28.350  26.169  1.00  0.00     0.012 A 
ATOM     80  C   UNL A   1      42.041  26.349  27.428  1.00  0.00     0.148 A 
ATOM     81  C   UNL A   1      42.930  27.567  25.061  1.00  0.00     0.002 A 
ATOM     82  C   UNL A   1      42.423  25.573  26.341  1.00  0.00     0.091 A 
ATOM     83  F   UNL A   1      41.582  25.802  28.562  1.00  0.00    -0.205 F 
ATOM     84  C   UNL A   1      42.850  26.180  25.150  1.00  0.00     0.022 A 
BRANCH  82  85
ATOM     85  S   UNL A   1      42.472  23.779  26.406  1.00  0.00     0.127 S 
ATOM     86  O   UNL A   1      43.010  23.448  25.088  1.00  0.00    -0.237 OA
ATOM     87  O   UNL A   1      43.388  23.547  27.523  1.00  0.00    -0.237 OA
ATOM     88  O   UNL A   1      41.101  23.356  26.650  1.00  0.00    -0.744 OA
ENDBRANCH  82  85
ENDBRANCH  54  78
BRANCH  66  89
ATOM     89  C   UNL A   1      36.320  31.213  29.085  1.00  0.00     0.023 A 
ATOM     90  C   UNL A   1      35.615  30.103  28.579  1.00  0.00     0.012 A 
ATOM     91  C   UNL A   1      35.740  32.496  29.003  1.00  0.00     0.148 A 
ATOM     92  C   UNL A   1      34.371  30.271  27.970  1.00  0.00     0.002 A 
ATOM     93  C   UNL A   1      34.477  32.647  28.443  1.00  0.00     0.091 A 
ATOM     94  F   UNL A   1      36.432  33.542  29.476  1.00  0.00    -0.205 F 
ATOM     95  C   UNL A   1      33.798  31.539  27.914  1.00  0.00     0.022 A 
BRANCH  93  96
ATOM     96  S   UNL A   1      33.616  34.224  28.418  1.00  0.00     0.127 S 
ATOM     97  O   UNL A   1      34.559  35.066  27.682  1.00  0.00    -0.237 OA
ATOM     98  O   UNL A   1      32.392  33.897  27.687  1.00  0.00    -0.237 OA
ATOM     99  O   UNL A   1      33.409  34.594  29.811  1.00  0.00    -0.744 OA
ENDBRANCH  93  96
ENDBRANCH  66  89
ENDBRANCH  40  41
ENDBRANCH  33  35
ENDBRANCH  32  33
ENDBRANCH  31  32
ENDBRANCH  30  31
ENDBRANCH  29  30
ENDBRANCH  28  29
ENDBRANCH  27  28
ENDBRANCH  26  27
ENDBRANCH  25  26
ENDBRANCH   1  25
TORSDOF 29
ENDMDL
MODEL 3
REMARK VINA RESULT:      -6.5      5.547     11.708
REMARK SMILES CCOC(=O)[C@@H](C)Oc1ccc(Br)cc1/C=C/C(=O)OCCOCCOCCOCCOC(=O)c1ccc(-c2c3nc(c(-c4cccc(S(=O)(=O)[O-])c4F)c4ccc([nH]4)c(-c4cccc(S(=O)(=O)[O-])c4F)c4nc(c(-c5cccc(S(=O)(=O)[O-])c5F)c5ccc2[nH]5)C=C4)C=C3)cc1
REMARK SMILES IDX 24 1 23 2 22 3 21 4 20 5 18 6 19 7 17 8 16 9 15 10 9 11
REMARK SMILES IDX 10 12 11 13 14 14 12 15 13 16 8 17 6 18 7 19 4 20 5 21 3 22
REMARK SMILES IDX 2 23 1 24 25 25 26 26 27 27 28 28 29 29 30 30 31 31 32 32
REMARK SMILES IDX 33 33 34 34 35 35 36 36 97 37 37 38 96 39 38 40 39 41 40 42
REMARK SMILES IDX 90 43 41 44 95 45 89 46 91 47 42 48 94 49 88 50 87 51 43 53
REMARK SMILES IDX 75 54 55 55 74 56 56 57 59 58 73 59 92 60 57 61 58 62 72 64
REMARK SMILES IDX 93 65 60 66 44 67 45 68 53 69 46 70 48 71 54 72 47 73 49 74
REMARK SMILES IDX 50 75 51 76 52 77 76 78 77 79 85 80 78 81 80 82 86 83 79 84
REMARK SMILES IDX 81 85 82 86 83 87 84 88 61 89 62 90 70 91 63 92 65 93 71 94
REMARK SMILES IDX 64 95 66 96 67 97 68 98 69 99
REMARK H PARENT 91 52 59 63
REMARK Flexibility Score: inf
ROOT
ATOM      1  C   UNL A   1      43.180  28.621  29.987  1.00  0.00     0.188 C 
ENDROOT
BRANCH   1   2
ATOM      2  O   UNL A   1      42.150  28.337  29.060  1.00  0.00    -0.376 OA
BRANCH   2   3
ATOM      3  C   UNL A   1      41.605  27.032  28.982  1.00  0.00     0.202 C 
BRANCH   3   4
ATOM      4  C   UNL A   1      41.361  26.351  27.625  1.00  0.00     0.261 C 
BRANCH   4   5
ATOM      5  O   UNL A   1      41.309  27.210  26.486  1.00  0.00    -0.460 OA
BRANCH   5   6
ATOM      6  C   UNL A   1      42.127  26.910  25.459  1.00  0.00     0.330 C 
ATOM      7  O   UNL A   1      42.561  27.691  24.625  1.00  0.00    -0.247 OA
BRANCH   6   8
ATOM      8  C   UNL A   1      42.602  25.514  25.556  1.00  0.00     0.094 C 
ATOM      9  C   UNL A   1      43.506  24.934  24.744  1.00  0.00     0.019 C 
BRANCH   9  10
ATOM     10  C   UNL A   1      43.903  23.526  24.925  1.00  0.00     0.018 A 
ATOM     11  C   UNL A   1      45.241  23.121  24.790  1.00  0.00     0.127 A 
ATOM     12  C   UNL A   1      45.616  21.864  25.268  1.00  0.00     0.048 A 
ATOM     13  C   UNL A   1      44.663  20.934  25.678  1.00  0.00     0.019 A 
ATOM     14  C   UNL A   1      42.937  22.567  25.285  1.00  0.00     0.027 A 
ATOM     15  C   UNL A   1      43.319  21.277  25.644  1.00  0.00     0.018 A 
ATOM     16  Br  UNL A   1      42.014  20.013  26.162  1.00  0.00    -0.051 Br
BRANCH  11  17
ATOM     17  O   UNL A   1      46.163  24.007  24.296  1.00  0.00    -0.478 OA
BRANCH  17  18
ATOM     18  C   UNL A   1      47.168  24.497  25.207  1.00  0.00     0.279 C 
ATOM     19  C   UNL A   1      46.711  24.506  26.671  1.00  0.00     0.066 C 
BRANCH  18  20
ATOM     20  C   UNL A   1      47.879  25.790  24.767  1.00  0.00     0.347 C 
ATOM     21  O   UNL A   1      49.037  26.067  25.056  1.00  0.00    -0.248 OA
BRANCH  20  22
ATOM     22  O   UNL A   1      47.125  26.510  23.880  1.00  0.00    -0.463 OA
BRANCH  22  23
ATOM     23  C   UNL A   1      46.846  27.867  24.264  1.00  0.00     0.229 C 
ATOM     24  C   UNL A   1      45.977  27.905  25.498  1.00  0.00     0.049 C 
ENDBRANCH  22  23
ENDBRANCH  20  22
ENDBRANCH  18  20
ENDBRANCH  17  18
ENDBRANCH  11  17
ENDBRANCH   9  10
ENDBRANCH   6   8
ENDBRANCH   5   6
ENDBRANCH   4   5
ENDBRANCH   3   4
ENDBRANCH   2   3
ENDBRANCH   1   2
BRANCH   1  25
ATOM     25  C   UNL A   1      42.868  29.803  30.926  1.00  0.00     0.188 C 
BRANCH  25  26
ATOM     26  O   UNL A   1      42.519  29.517  32.270  1.00  0.00    -0.377 OA
BRANCH  26  27
ATOM     27  C   UNL A   1      41.147  29.421  32.649  1.00  0.00     0.188 C 
BRANCH  27  28
ATOM     28  C   UNL A   1      40.272  28.189  32.310  1.00  0.00     0.188 C 
BRANCH  28  29
ATOM     29  O   UNL A   1      39.092  28.472  31.576  1.00  0.00    -0.376 OA
BRANCH  29  30
ATOM     30  C   UNL A   1      39.190  29.410  30.520  1.00  0.00     0.202 C 
BRANCH  30  31
ATOM     31  C   UNL A   1      37.869  29.913  29.923  1.00  0.00     0.261 C 
BRANCH  31  32
ATOM     32  O   UNL A   1      37.601  31.315  30.079  1.00  0.00    -0.460 OA
BRANCH  32  33
ATOM     33  C   UNL A   1      36.571  31.664  30.878  1.00  0.00     0.338 C 
ATOM     34  O   UNL A   1      35.386  31.425  30.697  1.00  0.00    -0.246 OA
BRANCH  33  35
ATOM     35  C   UNL A   1      37.138  32.227  32.119  1.00  0.00     0.060 A 
ATOM     36  C   UNL A   1      36.770  33.520  32.516  1.00  0.00     0.016 A 
ATOM     37  C   UNL A   1      38.018  31.471  32.895  1.00  0.00     0.016 A 
ATOM     38  C   UNL A   1      37.312  34.073  33.676  1.00  0.00     0.010 A 
ATOM     39  C   UNL A   1      38.573  32.034  34.046  1.00  0.00     0.010 A 
ATOM     40  C   UNL A   1      38.251  33.349  34.423  1.00  0.00    -0.014 A 
BRANCH  40  41
ATOM     41  C   UNL A   1      39.035  34.027  35.483  1.00  0.00     0.031 A 
ATOM     42  C   UNL A   1      40.225  34.851  35.073  1.00  0.00     0.074 A 
ATOM     43  C   UNL A   1      38.708  33.910  36.782  1.00  0.00     0.049 A 
ATOM     44  N   UNL A   1      41.090  35.489  35.817  1.00  0.00    -0.248 NA
ATOM     45  C   UNL A   1      40.476  34.966  33.625  1.00  0.00     0.031 C 
ATOM     46  C   UNL A   1      37.575  33.151  37.305  1.00  0.00     0.029 A 
ATOM     47  N   UNL A   1      39.324  34.414  37.901  1.00  0.00    -0.354 N 
ATOM     48  C   UNL A   1      42.004  36.053  34.935  1.00  0.00     0.074 A 
ATOM     49  C   UNL A   1      41.596  35.673  33.600  1.00  0.00     0.031 C 
ATOM     50  C   UNL A   1      37.595  33.212  38.648  1.00  0.00     0.029 A 
ATOM     51  C   UNL A   1      38.756  33.989  39.079  1.00  0.00     0.049 A 
ATOM     52  H   UNL A   1      40.100  35.020  37.864  1.00  0.00     0.167 HD
ATOM     53  C   UNL A   1      43.078  36.829  35.208  1.00  0.00     0.034 A 
ATOM     54  C   UNL A   1      39.147  34.180  40.355  1.00  0.00     0.034 A 
ATOM     55  C   UNL A   1      43.478  37.213  36.534  1.00  0.00     0.049 A 
ATOM     56  C   UNL A   1      40.371  35.017  40.635  1.00  0.00     0.074 A 
ATOM     57  C   UNL A   1      44.527  38.030  36.912  1.00  0.00     0.029 A 
ATOM     58  N   UNL A   1      42.858  36.790  37.700  1.00  0.00    -0.354 N 
ATOM     59  N   UNL A   1      41.164  35.632  39.791  1.00  0.00    -0.248 NA
ATOM     60  C   UNL A   1      40.736  35.210  42.047  1.00  0.00     0.031 C 
ATOM     61  C   UNL A   1      44.568  38.069  38.310  1.00  0.00     0.029 A 
ATOM     62  C   UNL A   1      43.513  37.316  38.800  1.00  0.00     0.049 A 
ATOM     63  H   UNL A   1      42.069  36.203  37.740  1.00  0.00     0.167 HD
ATOM     64  C   UNL A   1      42.093  36.318  40.567  1.00  0.00     0.074 A 
ATOM     65  C   UNL A   1      41.755  36.055  41.951  1.00  0.00     0.031 C 
ATOM     66  C   UNL A   1      43.138  37.087  40.172  1.00  0.00     0.034 A 
BRANCH  53  67
ATOM     67  C   UNL A   1      43.897  37.321  34.043  1.00  0.00     0.023 A 
ATOM     68  C   UNL A   1      44.904  36.499  33.495  1.00  0.00     0.012 A 
ATOM     69  C   UNL A   1      43.637  38.577  33.462  1.00  0.00     0.148 A 
ATOM     70  C   UNL A   1      45.663  36.935  32.409  1.00  0.00     0.002 A 
ATOM     71  C   UNL A   1      44.364  38.984  32.351  1.00  0.00     0.091 A 
ATOM     72  F   UNL A   1      42.692  39.352  34.013  1.00  0.00    -0.205 F 
ATOM     73  C   UNL A   1      45.386  38.172  31.831  1.00  0.00     0.022 A 
BRANCH  71  74
ATOM     74  S   UNL A   1      44.030  40.522  31.485  1.00  0.00     0.127 S 
ATOM     75  O   UNL A   1      45.070  40.513  30.457  1.00  0.00    -0.237 OA
ATOM     76  O   UNL A   1      42.674  40.301  30.983  1.00  0.00    -0.237 OA
ATOM     77  O   UNL A   1      44.148  41.579  32.479  1.00  0.00    -0.744 OA
ENDBRANCH  71  74
ENDBRANCH  53  67
BRANCH  54  78
ATOM     78  C   UNL A   1      38.365  33.584  41.474  1.00  0.00     0.023 A 
ATOM     79  C   UNL A   1      37.274  34.289  42.021  1.00  0.00     0.012 A 
ATOM     80  C   UNL A   1      38.694  32.318  41.997  1.00  0.00     0.148 A 
ATOM     81  C   UNL A   1      36.547  33.759  43.088  1.00  0.00     0.002 A 
ATOM     82  C   UNL A   1      37.930  31.770  43.019  1.00  0.00     0.091 A 
ATOM     83  F   UNL A   1      39.746  31.671  41.474  1.00  0.00    -0.205 F 
ATOM     84  C   UNL A   1      36.868  32.497  43.580  1.00  0.00     0.022 A 
BRANCH  82  85
ATOM     85  S   UNL A   1      38.190  30.102  43.632  1.00  0.00     0.127 S 
ATOM     86  O   UNL A   1      37.035  29.923  44.508  1.00  0.00    -0.237 OA
ATOM     87  O   UNL A   1      38.154  29.323  42.395  1.00  0.00    -0.237 OA
ATOM     88  O   UNL A   1      39.486  30.124  44.296  1.00  0.00    -0.744 OA
ENDBRANCH  82  85
ENDBRANCH  54  78
BRANCH  66  89
ATOM     89  C   UNL A   1      43.968  37.753  41.241  1.00  0.00     0.023 A 
ATOM     90  C   UNL A   1      45.120  37.115  41.744  1.00  0.00     0.012 A 
ATOM     91  C   UNL A   1      43.643  39.049  41.692  1.00  0.00     0.148 A 
ATOM     92  C   UNL A   1      45.915  37.743  42.704  1.00  0.00     0.002 A 
ATOM     93  C   UNL A   1      44.470  39.688  42.608  1.00  0.00     0.091 A 
ATOM     94  F   UNL A   1      42.536  39.633  41.213  1.00  0.00    -0.205 F 
ATOM     95  C   UNL A   1      45.597  39.032  43.125  1.00  0.00     0.022 A 
BRANCH  93  96
ATOM     96  S   UNL A   1      44.197  41.384  43.133  1.00  0.00     0.127 S 
ATOM     97  O   UNL A   1      45.348  41.615  44.005  1.00  0.00    -0.237 OA
ATOM     98  O   UNL A   1      44.238  42.112  41.864  1.00  0.00    -0.237 OA
ATOM     99  O   UNL A   1      42.901  41.399  43.797  1.00  0.00    -0.744 OA
ENDBRANCH  93  96
ENDBRANCH  66  89
ENDBRANCH  40  41
ENDBRANCH  33  35
ENDBRANCH  32  33
ENDBRANCH  31  32
ENDBRANCH  30  31
ENDBRANCH  29  30
ENDBRANCH  28  29
ENDBRANCH  27  28
ENDBRANCH  26  27
ENDBRANCH  25  26
ENDBRANCH   1  25
TORSDOF 29
ENDMDL
