MODEL 1
REMARK VINA RESULT:      -9.5      0.000      0.000
REMARK SMILES O=C(OCCOCCOCCOCCOC(=O)c1ccccc1OCC[S@@](=O)c1cccc(F)c1)c1ccc(-c2c3nc(c(-c4cccc(S(=O)(=O)[O-])c4F)c4ccc([nH]4)c(-c4cccc(S(=O)(=O)[O-])c4F)c4nc(c(-c5cccc(S(=O)(=O)[O-])c5F)c5ccc2[nH]5)C=C4)C=C3)cc1
REMARK SMILES IDX 10 1 9 2 8 3 7 4 6 5 5 6 4 7 3 8 2 9 1 10 36 11 37 12 98 13
REMARK SMILES IDX 38 14 97 15 39 16 40 17 41 18 91 19 42 20 96 21 90 22 92 23
REMARK SMILES IDX 43 24 95 25 89 26 88 27 44 29 76 30 56 31 75 32 57 33 60 34
REMARK SMILES IDX 74 35 93 36 58 37 59 38 73 40 94 41 61 42 45 43 46 44 54 45
REMARK SMILES IDX 47 46 49 47 55 48 48 49 50 50 51 51 52 52 53 53 77 54 78 55
REMARK SMILES IDX 86 56 79 57 81 58 87 59 80 60 82 61 83 62 84 63 85 64 62 65
REMARK SMILES IDX 63 66 71 67 64 68 66 69 72 70 65 71 67 72 68 73 69 74 70 75
REMARK SMILES IDX 11 76 12 77 13 78 14 79 15 80 16 81 17 82 18 83 19 84 23 85
REMARK SMILES IDX 20 86 22 87 21 88 24 89 25 90 26 91 27 92 28 93 29 94 30 95
REMARK SMILES IDX 35 96 31 97 33 98 32 99 34 100
REMARK H PARENT 92 28 60 39
REMARK Flexibility Score: inf
ROOT
ATOM      1  C   UNL A   1      32.395  17.555  23.783  1.00  0.00     0.188 C 
ENDROOT
BRANCH   1   2
ATOM      2  O   UNL A   1      33.150  16.419  24.217  1.00  0.00    -0.377 OA
BRANCH   2   3
ATOM      3  C   UNL A   1      34.525  16.690  24.508  1.00  0.00     0.188 C 
BRANCH   3   4
ATOM      4  C   UNL A   1      34.994  18.148  24.430  1.00  0.00     0.188 C 
BRANCH   4   5
ATOM      5  O   UNL A   1      36.296  18.335  24.981  1.00  0.00    -0.376 OA
BRANCH   5   6
ATOM      6  C   UNL A   1      36.847  19.632  24.813  1.00  0.00     0.202 C 
BRANCH   6   7
ATOM      7  C   UNL A   1      38.341  19.703  25.137  1.00  0.00     0.261 C 
BRANCH   7   8
ATOM      8  O   UNL A   1      38.638  20.883  25.905  1.00  0.00    -0.460 OA
BRANCH   8   9
ATOM      9  C   UNL A   1      39.773  21.327  26.484  1.00  0.00     0.338 C 
ATOM     10  O   UNL A   1      40.650  20.492  26.706  1.00  0.00    -0.246 OA
BRANCH   9  11
ATOM     11  C   UNL A   1      40.054  22.747  26.891  1.00  0.00     0.060 A 
ATOM     12  C   UNL A   1      39.333  23.886  26.515  1.00  0.00     0.016 A 
ATOM     13  C   UNL A   1      41.112  22.925  27.806  1.00  0.00     0.016 A 
ATOM     14  C   UNL A   1      39.685  25.157  26.979  1.00  0.00     0.010 A 
ATOM     15  C   UNL A   1      41.463  24.189  28.286  1.00  0.00     0.010 A 
ATOM     16  C   UNL A   1      40.770  25.317  27.839  1.00  0.00    -0.014 A 
BRANCH  16  17
ATOM     17  C   UNL A   1      41.296  26.671  28.096  1.00  0.00     0.031 A 
ATOM     18  C   UNL A   1      42.622  27.025  27.489  1.00  0.00     0.074 A 
ATOM     19  C   UNL A   1      40.592  27.566  28.811  1.00  0.00     0.049 A 
ATOM     20  N   UNL A   1      43.296  28.140  27.558  1.00  0.00    -0.248 NA
ATOM     21  C   UNL A   1      43.270  25.978  26.678  1.00  0.00     0.031 C 
ATOM     22  C   UNL A   1      39.271  27.331  29.394  1.00  0.00     0.029 A 
ATOM     23  N   UNL A   1      40.897  28.854  29.170  1.00  0.00    -0.354 N 
ATOM     24  C   UNL A   1      44.454  27.922  26.822  1.00  0.00     0.074 A 
ATOM     25  C   UNL A   1      44.395  26.572  26.313  1.00  0.00     0.031 C 
ATOM     26  C   UNL A   1      38.887  28.436  30.058  1.00  0.00     0.029 A 
ATOM     27  C   UNL A   1      39.943  29.441  29.968  1.00  0.00     0.049 A 
ATOM     28  H   UNL A   1      41.719  29.313  28.884  1.00  0.00     0.167 HD
ATOM     29  C   UNL A   1      45.476  28.776  26.587  1.00  0.00     0.034 A 
ATOM     30  C   UNL A   1      39.943  30.650  30.566  1.00  0.00     0.034 A 
ATOM     31  C   UNL A   1      45.530  30.109  27.114  1.00  0.00     0.049 A 
ATOM     32  C   UNL A   1      41.120  31.565  30.331  1.00  0.00     0.074 A 
ATOM     33  C   UNL A   1      46.525  31.056  26.969  1.00  0.00     0.029 A 
ATOM     34  N   UNL A   1      44.542  30.676  27.908  1.00  0.00    -0.354 N 
ATOM     35  N   UNL A   1      42.175  31.377  29.573  1.00  0.00    -0.248 NA
ATOM     36  C   UNL A   1      41.100  32.867  31.015  1.00  0.00     0.031 C 
ATOM     37  C   UNL A   1      46.147  32.191  27.695  1.00  0.00     0.029 A 
ATOM     38  C   UNL A   1      44.907  31.958  28.271  1.00  0.00     0.049 A 
ATOM     39  H   UNL A   1      43.705  30.230  28.172  1.00  0.00     0.167 HD
ATOM     40  C   UNL A   1      42.928  32.542  29.666  1.00  0.00     0.074 A 
ATOM     41  C   UNL A   1      42.196  33.439  30.538  1.00  0.00     0.031 C 
ATOM     42  C   UNL A   1      44.125  32.841  29.101  1.00  0.00     0.034 A 
BRANCH  29  43
ATOM     43  C   UNL A   1      46.607  28.267  25.737  1.00  0.00     0.023 A 
ATOM     44  C   UNL A   1      46.460  28.216  24.335  1.00  0.00     0.012 A 
ATOM     45  C   UNL A   1      47.801  27.808  26.325  1.00  0.00     0.148 A 
ATOM     46  C   UNL A   1      47.468  27.679  23.535  1.00  0.00     0.002 A 
ATOM     47  C   UNL A   1      48.815  27.307  25.518  1.00  0.00     0.091 A 
ATOM     48  F   UNL A   1      47.907  27.835  27.661  1.00  0.00    -0.205 F 
ATOM     49  C   UNL A   1      48.647  27.231  24.126  1.00  0.00     0.022 A 
BRANCH  47  50
ATOM     50  S   UNL A   1      50.388  26.746  26.179  1.00  0.00     0.127 S 
ATOM     51  O   UNL A   1      49.961  25.986  27.353  1.00  0.00    -0.237 OA
ATOM     52  O   UNL A   1      50.909  25.931  25.081  1.00  0.00    -0.237 OA
ATOM     53  O   UNL A   1      51.158  27.950  26.459  1.00  0.00    -0.744 OA
ENDBRANCH  47  50
ENDBRANCH  29  43
BRANCH  30  54
ATOM     54  C   UNL A   1      38.790  31.071  31.414  1.00  0.00     0.023 A 
ATOM     55  C   UNL A   1      38.723  30.655  32.758  1.00  0.00     0.012 A 
ATOM     56  C   UNL A   1      37.767  31.897  30.906  1.00  0.00     0.148 A 
ATOM     57  C   UNL A   1      37.650  31.032  33.570  1.00  0.00     0.002 A 
ATOM     58  C   UNL A   1      36.731  32.314  31.734  1.00  0.00     0.091 A 
ATOM     59  F   UNL A   1      37.830  32.264  29.617  1.00  0.00    -0.205 F 
ATOM     60  C   UNL A   1      36.661  31.869  33.062  1.00  0.00     0.022 A 
BRANCH  58  61
ATOM     61  S   UNL A   1      35.485  33.492  31.196  1.00  0.00     0.127 S 
ATOM     62  O   UNL A   1      35.537  34.491  32.259  1.00  0.00    -0.237 OA
ATOM     63  O   UNL A   1      36.019  33.934  29.907  1.00  0.00    -0.237 OA
ATOM     64  O   UNL A   1      34.246  32.733  31.097  1.00  0.00    -0.744 OA
ENDBRANCH  58  61
ENDBRANCH  30  54
BRANCH  42  65
ATOM     65  C   UNL A   1      44.712  34.196  29.388  1.00  0.00     0.023 A 
ATOM     66  C   UNL A   1      45.571  34.363  30.492  1.00  0.00     0.012 A 
ATOM     67  C   UNL A   1      44.498  35.272  28.504  1.00  0.00     0.148 A 
ATOM     68  C   UNL A   1      46.192  35.589  30.724  1.00  0.00     0.002 A 
ATOM     69  C   UNL A   1      45.160  36.475  28.714  1.00  0.00     0.091 A 
ATOM     70  F   UNL A   1      43.662  35.095  27.471  1.00  0.00    -0.205 F 
ATOM     71  C   UNL A   1      45.999  36.638  29.828  1.00  0.00     0.022 A 
BRANCH  69  72
ATOM     72  S   UNL A   1      45.050  37.840  27.553  1.00  0.00     0.127 S 
ATOM     73  O   UNL A   1      46.093  37.496  26.589  1.00  0.00    -0.237 OA
ATOM     74  O   UNL A   1      43.683  37.711  27.047  1.00  0.00    -0.237 OA
ATOM     75  O   UNL A   1      45.290  39.047  28.334  1.00  0.00    -0.744 OA
ENDBRANCH  69  72
ENDBRANCH  42  65
ENDBRANCH  16  17
ENDBRANCH   9  11
ENDBRANCH   8   9
ENDBRANCH   7   8
ENDBRANCH   6   7
ENDBRANCH   5   6
ENDBRANCH   4   5
ENDBRANCH   3   4
ENDBRANCH   2   3
ENDBRANCH   1   2
BRANCH   1  76
ATOM     76  C   UNL A   1      32.306  17.694  22.262  1.00  0.00     0.188 C 
BRANCH  76  77
ATOM     77  O   UNL A   1      32.390  19.026  21.763  1.00  0.00    -0.376 OA
BRANCH  77  78
ATOM     78  C   UNL A   1      32.252  20.089  22.704  1.00  0.00     0.202 C 
BRANCH  78  79
ATOM     79  C   UNL A   1      31.593  21.366  22.173  1.00  0.00     0.261 C 
BRANCH  79  80
ATOM     80  O   UNL A   1      32.063  22.531  22.880  1.00  0.00    -0.460 OA
BRANCH  80  81
ATOM     81  C   UNL A   1      33.162  23.129  22.378  1.00  0.00     0.342 C 
ATOM     82  O   UNL A   1      33.372  23.428  21.209  1.00  0.00    -0.246 OA
BRANCH  81  83
ATOM     83  C   UNL A   1      34.072  23.536  23.463  1.00  0.00     0.102 A 
ATOM     84  C   UNL A   1      34.611  22.499  24.247  1.00  0.00     0.019 A 
ATOM     85  C   UNL A   1      34.203  24.862  23.886  1.00  0.00     0.133 A 
ATOM     86  C   UNL A   1      35.223  22.776  25.469  1.00  0.00     0.001 A 
ATOM     87  C   UNL A   1      34.736  25.117  25.156  1.00  0.00     0.047 A 
ATOM     88  C   UNL A   1      35.246  24.082  25.943  1.00  0.00     0.004 A 
BRANCH  85  89
ATOM     89  O   UNL A   1      33.755  25.972  23.227  1.00  0.00    -0.492 OA
BRANCH  89  90
ATOM     90  C   UNL A   1      32.630  26.635  23.817  1.00  0.00     0.243 C 
BRANCH  90  91
ATOM     91  C   UNL A   1      32.847  28.128  24.040  1.00  0.00     0.152 C 
BRANCH  91  92
ATOM     92  S   UNL A   1      31.961  28.765  25.495  1.00  0.00     0.056 S 
ATOM     93  O   UNL A   1      31.573  27.581  26.334  1.00  0.00    -0.254 OA
BRANCH  92  94
ATOM     94  C   UNL A   1      33.243  29.577  26.456  1.00  0.00     0.042 A 
ATOM     95  C   UNL A   1      34.454  28.958  26.786  1.00  0.00     0.018 A 
ATOM     96  C   UNL A   1      32.968  30.854  26.960  1.00  0.00     0.057 A 
ATOM     97  C   UNL A   1      35.406  29.630  27.559  1.00  0.00     0.004 A 
ATOM     98  C   UNL A   1      33.914  31.504  27.743  1.00  0.00     0.124 A 
ATOM     99  C   UNL A   1      35.134  30.910  28.037  1.00  0.00     0.039 A 
ATOM    100  F   UNL A   1      33.652  32.731  28.215  1.00  0.00    -0.207 F 
ENDBRANCH  92  94
ENDBRANCH  91  92
ENDBRANCH  90  91
ENDBRANCH  89  90
ENDBRANCH  85  89
ENDBRANCH  81  83
ENDBRANCH  80  81
ENDBRANCH  79  80
ENDBRANCH  78  79
ENDBRANCH  77  78
ENDBRANCH  76  77
ENDBRANCH   1  76
TORSDOF 28
ENDMDL
MODEL 2
REMARK VINA RESULT:      -9.5      2.059      2.545
REMARK SMILES O=C(OCCOCCOCCOCCOC(=O)c1ccccc1OCC[S@@](=O)c1cccc(F)c1)c1ccc(-c2c3nc(c(-c4cccc(S(=O)(=O)[O-])c4F)c4ccc([nH]4)c(-c4cccc(S(=O)(=O)[O-])c4F)c4nc(c(-c5cccc(S(=O)(=O)[O-])c5F)c5ccc2[nH]5)C=C4)C=C3)cc1
REMARK SMILES IDX 10 1 9 2 8 3 7 4 6 5 5 6 4 7 3 8 2 9 1 10 36 11 37 12 98 13
REMARK SMILES IDX 38 14 97 15 39 16 40 17 41 18 91 19 42 20 96 21 90 22 92 23
REMARK SMILES IDX 43 24 95 25 89 26 88 27 44 29 76 30 56 31 75 32 57 33 60 34
REMARK SMILES IDX 74 35 93 36 58 37 59 38 73 40 94 41 61 42 45 43 46 44 54 45
REMARK SMILES IDX 47 46 49 47 55 48 48 49 50 50 51 51 52 52 53 53 77 54 78 55
REMARK SMILES IDX 86 56 79 57 81 58 87 59 80 60 82 61 83 62 84 63 85 64 62 65
REMARK SMILES IDX 63 66 71 67 64 68 66 69 72 70 65 71 67 72 68 73 69 74 70 75
REMARK SMILES IDX 11 76 12 77 13 78 14 79 15 80 16 81 17 82 18 83 19 84 23 85
REMARK SMILES IDX 20 86 22 87 21 88 24 89 25 90 26 91 27 92 28 93 29 94 30 95
REMARK SMILES IDX 35 96 31 97 33 98 32 99 34 100
REMARK H PARENT 92 28 60 39
REMARK Flexibility Score: inf
ROOT
ATOM      1  C   UNL A   1      32.461  18.470  24.168  1.00  0.00     0.188 C 
ENDROOT
BRANCH   1   2
ATOM      2  O   UNL A   1      33.017  17.223  24.599  1.00  0.00    -0.377 OA
BRANCH   2   3
ATOM      3  C   UNL A   1      34.447  17.200  24.673  1.00  0.00     0.188 C 
BRANCH   3   4
ATOM      4  C   UNL A   1      35.181  18.546  24.667  1.00  0.00     0.188 C 
BRANCH   4   5
ATOM      5  O   UNL A   1      36.552  18.424  25.035  1.00  0.00    -0.376 OA
BRANCH   5   6
ATOM      6  C   UNL A   1      37.343  19.585  24.831  1.00  0.00     0.202 C 
BRANCH   6   7
ATOM      7  C   UNL A   1      38.750  19.474  25.423  1.00  0.00     0.261 C 
BRANCH   7   8
ATOM      8  O   UNL A   1      39.249  20.771  25.794  1.00  0.00    -0.460 OA
BRANCH   8   9
ATOM      9  C   UNL A   1      40.091  21.176  26.768  1.00  0.00     0.338 C 
ATOM     10  O   UNL A   1      40.617  20.297  27.451  1.00  0.00    -0.246 OA
BRANCH   9  11
ATOM     11  C   UNL A   1      40.434  22.603  27.097  1.00  0.00     0.060 A 
ATOM     12  C   UNL A   1      39.815  23.752  26.592  1.00  0.00     0.016 A 
ATOM     13  C   UNL A   1      41.434  22.783  28.075  1.00  0.00     0.016 A 
ATOM     14  C   UNL A   1      40.214  25.030  26.992  1.00  0.00     0.010 A 
ATOM     15  C   UNL A   1      41.830  24.056  28.492  1.00  0.00     0.010 A 
ATOM     16  C   UNL A   1      41.244  25.187  27.919  1.00  0.00    -0.014 A 
BRANCH  16  17
ATOM     17  C   UNL A   1      41.836  26.524  28.121  1.00  0.00     0.031 A 
ATOM     18  C   UNL A   1      43.191  26.777  27.528  1.00  0.00     0.074 A 
ATOM     19  C   UNL A   1      41.167  27.488  28.777  1.00  0.00     0.049 A 
ATOM     20  N   UNL A   1      43.922  27.857  27.558  1.00  0.00    -0.248 NA
ATOM     21  C   UNL A   1      43.798  25.659  26.783  1.00  0.00     0.031 C 
ATOM     22  C   UNL A   1      39.825  27.352  29.342  1.00  0.00     0.029 A 
ATOM     23  N   UNL A   1      41.533  28.774  29.080  1.00  0.00    -0.354 N 
ATOM     24  C   UNL A   1      45.080  27.543  26.859  1.00  0.00     0.074 A 
ATOM     25  C   UNL A   1      44.960  26.174  26.415  1.00  0.00     0.031 C 
ATOM     26  C   UNL A   1      39.487  28.506  29.942  1.00  0.00     0.029 A 
ATOM     27  C   UNL A   1      40.597  29.449  29.827  1.00  0.00     0.049 A 
ATOM     28  H   UNL A   1      42.384  29.175  28.791  1.00  0.00     0.167 HD
ATOM     29  C   UNL A   1      46.151  28.330  26.605  1.00  0.00     0.034 A 
ATOM     30  C   UNL A   1      40.649  30.684  30.366  1.00  0.00     0.034 A 
ATOM     31  C   UNL A   1      46.266  29.682  27.069  1.00  0.00     0.049 A 
ATOM     32  C   UNL A   1      41.877  31.524  30.114  1.00  0.00     0.074 A 
ATOM     33  C   UNL A   1      47.312  30.568  26.900  1.00  0.00     0.029 A 
ATOM     34  N   UNL A   1      45.294  30.339  27.812  1.00  0.00    -0.354 N 
ATOM     35  N   UNL A   1      42.935  31.245  29.389  1.00  0.00    -0.248 NA
ATOM     36  C   UNL A   1      41.913  32.857  30.734  1.00  0.00     0.031 C 
ATOM     37  C   UNL A   1      46.982  31.756  27.563  1.00  0.00     0.029 A 
ATOM     38  C   UNL A   1      45.720  31.617  28.122  1.00  0.00     0.049 A 
ATOM     39  H   UNL A   1      44.430  29.951  28.079  1.00  0.00     0.167 HD
ATOM     40  C   UNL A   1      43.748  32.371  29.443  1.00  0.00     0.074 A 
ATOM     41  C   UNL A   1      43.048  33.348  30.254  1.00  0.00     0.031 C 
ATOM     42  C   UNL A   1      44.970  32.579  28.890  1.00  0.00     0.034 A 
BRANCH  29  43
ATOM     43  C   UNL A   1      47.270  27.721  25.807  1.00  0.00     0.023 A 
ATOM     44  C   UNL A   1      48.273  26.978  26.464  1.00  0.00     0.012 A 
ATOM     45  C   UNL A   1      47.349  27.909  24.414  1.00  0.00     0.148 A 
ATOM     46  C   UNL A   1      49.358  26.466  25.752  1.00  0.00     0.002 A 
ATOM     47  C   UNL A   1      48.414  27.366  23.707  1.00  0.00     0.091 A 
ATOM     48  F   UNL A   1      46.403  28.647  23.816  1.00  0.00    -0.205 F 
ATOM     49  C   UNL A   1      49.425  26.655  24.374  1.00  0.00     0.022 A 
BRANCH  47  50
ATOM     50  S   UNL A   1      48.568  27.518  21.924  1.00  0.00     0.127 S 
ATOM     51  O   UNL A   1      49.765  28.349  21.800  1.00  0.00    -0.237 OA
ATOM     52  O   UNL A   1      48.747  26.125  21.512  1.00  0.00    -0.237 OA
ATOM     53  O   UNL A   1      47.330  28.132  21.465  1.00  0.00    -0.744 OA
ENDBRANCH  47  50
ENDBRANCH  29  43
BRANCH  30  54
ATOM     54  C   UNL A   1      39.504  31.206  31.168  1.00  0.00     0.023 A 
ATOM     55  C   UNL A   1      38.328  31.626  30.515  1.00  0.00     0.012 A 
ATOM     56  C   UNL A   1      39.562  31.273  32.574  1.00  0.00     0.148 A 
ATOM     57  C   UNL A   1      37.245  32.124  31.243  1.00  0.00     0.002 A 
ATOM     58  C   UNL A   1      38.460  31.718  33.298  1.00  0.00     0.091 A 
ATOM     59  F   UNL A   1      40.697  30.895  33.181  1.00  0.00    -0.205 F 
ATOM     60  C   UNL A   1      37.306  32.159  32.633  1.00  0.00     0.022 A 
BRANCH  58  61
ATOM     61  S   UNL A   1      38.409  31.678  35.094  1.00  0.00     0.127 S 
ATOM     62  O   UNL A   1      39.489  32.597  35.446  1.00  0.00    -0.237 OA
ATOM     63  O   UNL A   1      37.061  32.175  35.372  1.00  0.00    -0.237 OA
ATOM     64  O   UNL A   1      38.617  30.284  35.460  1.00  0.00    -0.744 OA
ENDBRANCH  58  61
ENDBRANCH  30  54
BRANCH  42  65
ATOM     65  C   UNL A   1      45.622  33.915  29.125  1.00  0.00     0.023 A 
ATOM     66  C   UNL A   1      46.291  34.158  30.340  1.00  0.00     0.012 A 
ATOM     67  C   UNL A   1      45.664  34.881  28.101  1.00  0.00     0.148 A 
ATOM     68  C   UNL A   1      46.975  35.355  30.541  1.00  0.00     0.002 A 
ATOM     69  C   UNL A   1      46.389  36.051  28.291  1.00  0.00     0.091 A 
ATOM     70  F   UNL A   1      45.005  34.634  26.961  1.00  0.00    -0.205 F 
ATOM     71  C   UNL A   1      47.036  36.294  29.513  1.00  0.00     0.022 A 
BRANCH  69  72
ATOM     72  S   UNL A   1      46.608  37.262  26.983  1.00  0.00     0.127 S 
ATOM     73  O   UNL A   1      45.274  37.856  26.902  1.00  0.00    -0.237 OA
ATOM     74  O   UNL A   1      47.636  38.142  27.540  1.00  0.00    -0.237 OA
ATOM     75  O   UNL A   1      47.032  36.509  25.810  1.00  0.00    -0.744 OA
ENDBRANCH  69  72
ENDBRANCH  42  65
ENDBRANCH  16  17
ENDBRANCH   9  11
ENDBRANCH   8   9
ENDBRANCH   7   8
ENDBRANCH   6   7
ENDBRANCH   5   6
ENDBRANCH   4   5
ENDBRANCH   3   4
ENDBRANCH   2   3
ENDBRANCH   1   2
BRANCH   1  76
ATOM     76  C   UNL A   1      32.167  18.530  22.667  1.00  0.00     0.188 C 
BRANCH  76  77
ATOM     77  O   UNL A   1      32.027  19.838  22.123  1.00  0.00    -0.376 OA
BRANCH  77  78
ATOM     78  C   UNL A   1      32.234  20.942  23.004  1.00  0.00     0.202 C 
BRANCH  78  79
ATOM     79  C   UNL A   1      32.874  22.184  22.376  1.00  0.00     0.261 C 
BRANCH  79  80
ATOM     80  O   UNL A   1      32.107  23.370  22.664  1.00  0.00    -0.460 OA
BRANCH  80  81
ATOM     81  C   UNL A   1      32.812  24.503  22.853  1.00  0.00     0.342 C 
ATOM     82  O   UNL A   1      33.594  25.026  22.069  1.00  0.00    -0.246 OA
BRANCH  81  83
ATOM     83  C   UNL A   1      32.412  25.159  24.112  1.00  0.00     0.102 A 
ATOM     84  C   UNL A   1      33.233  24.915  25.229  1.00  0.00     0.019 A 
ATOM     85  C   UNL A   1      31.166  25.766  24.288  1.00  0.00     0.133 A 
ATOM     86  C   UNL A   1      32.791  25.221  26.515  1.00  0.00     0.001 A 
ATOM     87  C   UNL A   1      30.698  25.982  25.590  1.00  0.00     0.047 A 
ATOM     88  C   UNL A   1      31.504  25.714  26.699  1.00  0.00     0.004 A 
BRANCH  85  89
ATOM     89  O   UNL A   1      30.272  26.085  23.305  1.00  0.00    -0.492 OA
BRANCH  89  90
ATOM     90  C   UNL A   1      29.517  27.286  23.516  1.00  0.00     0.243 C 
BRANCH  90  91
ATOM     91  C   UNL A   1      29.676  28.312  22.400  1.00  0.00     0.152 C 
BRANCH  91  92
ATOM     92  S   UNL A   1      30.376  29.888  22.978  1.00  0.00     0.056 S 
ATOM     93  O   UNL A   1      29.400  30.476  23.958  1.00  0.00    -0.254 OA
BRANCH  92  94
ATOM     94  C   UNL A   1      31.768  29.391  23.997  1.00  0.00     0.042 A 
ATOM     95  C   UNL A   1      32.911  28.774  23.476  1.00  0.00     0.018 A 
ATOM     96  C   UNL A   1      31.654  29.559  25.382  1.00  0.00     0.057 A 
ATOM     97  C   UNL A   1      33.955  28.385  24.321  1.00  0.00     0.004 A 
ATOM     98  C   UNL A   1      32.689  29.151  26.214  1.00  0.00     0.124 A 
ATOM     99  C   UNL A   1      33.843  28.576  25.696  1.00  0.00     0.039 A 
ATOM    100  F   UNL A   1      32.581  29.323  27.539  1.00  0.00    -0.207 F 
ENDBRANCH  92  94
ENDBRANCH  91  92
ENDBRANCH  90  91
ENDBRANCH  89  90
ENDBRANCH  85  89
ENDBRANCH  81  83
ENDBRANCH  80  81
ENDBRANCH  79  80
ENDBRANCH  78  79
ENDBRANCH  77  78
ENDBRANCH  76  77
ENDBRANCH   1  76
TORSDOF 28
ENDMDL
MODEL 3
REMARK VINA RESULT:      -9.3      2.858      4.341
REMARK SMILES O=C(OCCOCCOCCOCCOC(=O)c1ccccc1OCC[S@@](=O)c1cccc(F)c1)c1ccc(-c2c3nc(c(-c4cccc(S(=O)(=O)[O-])c4F)c4ccc([nH]4)c(-c4cccc(S(=O)(=O)[O-])c4F)c4nc(c(-c5cccc(S(=O)(=O)[O-])c5F)c5ccc2[nH]5)C=C4)C=C3)cc1
REMARK SMILES IDX 10 1 9 2 8 3 7 4 6 5 5 6 4 7 3 8 2 9 1 10 36 11 37 12 98 13
REMARK SMILES IDX 38 14 97 15 39 16 40 17 41 18 91 19 42 20 96 21 90 22 92 23
REMARK SMILES IDX 43 24 95 25 89 26 88 27 44 29 76 30 56 31 75 32 57 33 60 34
REMARK SMILES IDX 74 35 93 36 58 37 59 38 73 40 94 41 61 42 45 43 46 44 54 45
REMARK SMILES IDX 47 46 49 47 55 48 48 49 50 50 51 51 52 52 53 53 77 54 78 55
REMARK SMILES IDX 86 56 79 57 81 58 87 59 80 60 82 61 83 62 84 63 85 64 62 65
REMARK SMILES IDX 63 66 71 67 64 68 66 69 72 70 65 71 67 72 68 73 69 74 70 75
REMARK SMILES IDX 11 76 12 77 13 78 14 79 15 80 16 81 17 82 18 83 19 84 23 85
REMARK SMILES IDX 20 86 22 87 21 88 24 89 25 90 26 91 27 92 28 93 29 94 30 95
REMARK SMILES IDX 35 96 31 97 33 98 32 99 34 100
REMARK H PARENT 92 28 60 39
REMARK Flexibility Score: inf
ROOT
ATOM      1  C   UNL A   1      40.472  19.974  26.359  1.00  0.00     0.188 C 
ENDROOT
BRANCH   1   2
ATOM      2  O   UNL A   1      41.417  19.220  25.591  1.00  0.00    -0.377 OA
BRANCH   2   3
ATOM      3  C   UNL A   1      42.785  19.425  25.959  1.00  0.00     0.188 C 
BRANCH   3   4
ATOM      4  C   UNL A   1      43.864  18.976  24.966  1.00  0.00     0.188 C 
BRANCH   4   5
ATOM      5  O   UNL A   1      44.309  20.037  24.124  1.00  0.00    -0.376 OA
BRANCH   5   6
ATOM      6  C   UNL A   1      44.889  21.144  24.795  1.00  0.00     0.202 C 
BRANCH   6   7
ATOM      7  C   UNL A   1      44.885  22.429  23.965  1.00  0.00     0.261 C 
BRANCH   7   8
ATOM      8  O   UNL A   1      43.648  23.142  24.138  1.00  0.00    -0.460 OA
BRANCH   8   9
ATOM      9  C   UNL A   1      42.990  23.565  25.238  1.00  0.00     0.338 C 
ATOM     10  O   UNL A   1      42.097  22.835  25.670  1.00  0.00    -0.246 OA
BRANCH   9  11
ATOM     11  C   UNL A   1      43.243  24.852  25.973  1.00  0.00     0.060 A 
ATOM     12  C   UNL A   1      43.739  24.991  27.274  1.00  0.00     0.016 A 
ATOM     13  C   UNL A   1      43.025  26.034  25.235  1.00  0.00     0.016 A 
ATOM     14  C   UNL A   1      43.951  26.251  27.843  1.00  0.00     0.010 A 
ATOM     15  C   UNL A   1      43.246  27.297  25.789  1.00  0.00     0.010 A 
ATOM     16  C   UNL A   1      43.675  27.406  27.114  1.00  0.00    -0.014 A 
BRANCH  16  17
ATOM     17  C   UNL A   1      43.637  28.708  27.810  1.00  0.00     0.031 A 
ATOM     18  C   UNL A   1      44.893  29.530  27.809  1.00  0.00     0.074 A 
ATOM     19  C   UNL A   1      42.507  29.155  28.385  1.00  0.00     0.049 A 
ATOM     20  N   UNL A   1      45.120  30.700  28.339  1.00  0.00    -0.248 NA
ATOM     21  C   UNL A   1      46.049  28.957  27.095  1.00  0.00     0.031 C 
ATOM     22  C   UNL A   1      41.225  28.451  28.392  1.00  0.00     0.029 A 
ATOM     23  N   UNL A   1      42.262  30.311  29.080  1.00  0.00    -0.354 N 
ATOM     24  C   UNL A   1      46.445  30.993  28.044  1.00  0.00     0.074 A 
ATOM     25  C   UNL A   1      46.975  29.881  27.289  1.00  0.00     0.031 C 
ATOM     26  C   UNL A   1      40.331  29.183  29.078  1.00  0.00     0.029 A 
ATOM     27  C   UNL A   1      40.984  30.390  29.579  1.00  0.00     0.049 A 
ATOM     28  H   UNL A   1      42.937  31.015  29.210  1.00  0.00     0.167 HD
ATOM     29  C   UNL A   1      47.158  32.095  28.371  1.00  0.00     0.034 A 
ATOM     30  C   UNL A   1      40.421  31.330  30.366  1.00  0.00     0.034 A 
ATOM     31  C   UNL A   1      46.623  33.183  29.137  1.00  0.00     0.049 A 
ATOM     32  C   UNL A   1      41.252  32.525  30.762  1.00  0.00     0.074 A 
ATOM     33  C   UNL A   1      47.255  34.338  29.555  1.00  0.00     0.029 A 
ATOM     34  N   UNL A   1      45.321  33.237  29.616  1.00  0.00    -0.354 N 
ATOM     35  N   UNL A   1      42.482  32.828  30.416  1.00  0.00    -0.248 NA
ATOM     36  C   UNL A   1      40.616  33.520  31.638  1.00  0.00     0.031 C 
ATOM     37  C   UNL A   1      46.338  35.082  30.307  1.00  0.00     0.029 A 
ATOM     38  C   UNL A   1      45.131  34.401  30.336  1.00  0.00     0.049 A 
ATOM     39  H   UNL A   1      44.635  32.547  29.464  1.00  0.00     0.167 HD
ATOM     40  C   UNL A   1      42.757  34.055  31.006  1.00  0.00     0.074 A 
ATOM     41  C   UNL A   1      41.556  34.452  31.715  1.00  0.00     0.031 C 
ATOM     42  C   UNL A   1      43.902  34.784  30.985  1.00  0.00     0.034 A 
BRANCH  29  43
ATOM     43  C   UNL A   1      48.586  32.145  27.905  1.00  0.00     0.023 A 
ATOM     44  C   UNL A   1      48.898  32.761  26.674  1.00  0.00     0.012 A 
ATOM     45  C   UNL A   1      49.614  31.556  28.664  1.00  0.00     0.148 A 
ATOM     46  C   UNL A   1      50.206  32.754  26.190  1.00  0.00     0.002 A 
ATOM     47  C   UNL A   1      50.920  31.584  28.191  1.00  0.00     0.091 A 
ATOM     48  F   UNL A   1      49.290  30.947  29.813  1.00  0.00    -0.205 F 
ATOM     49  C   UNL A   1      51.217  32.171  26.950  1.00  0.00     0.022 A 
BRANCH  47  50
ATOM     50  S   UNL A   1      52.299  30.900  29.116  1.00  0.00     0.127 S 
ATOM     51  O   UNL A   1      53.316  30.766  28.074  1.00  0.00    -0.237 OA
ATOM     52  O   UNL A   1      52.564  31.953  30.096  1.00  0.00    -0.237 OA
ATOM     53  O   UNL A   1      51.818  29.648  29.684  1.00  0.00    -0.744 OA
ENDBRANCH  47  50
ENDBRANCH  29  43
BRANCH  30  54
ATOM     54  C   UNL A   1      39.001  31.193  30.806  1.00  0.00     0.023 A 
ATOM     55  C   UNL A   1      38.691  30.407  31.933  1.00  0.00     0.012 A 
ATOM     56  C   UNL A   1      37.956  31.851  30.127  1.00  0.00     0.148 A 
ATOM     57  C   UNL A   1      37.369  30.260  32.359  1.00  0.00     0.002 A 
ATOM     58  C   UNL A   1      36.648  31.745  30.589  1.00  0.00     0.091 A 
ATOM     59  F   UNL A   1      38.261  32.575  29.040  1.00  0.00    -0.205 F 
ATOM     60  C   UNL A   1      36.350  30.936  31.696  1.00  0.00     0.022 A 
BRANCH  58  61
ATOM     61  S   UNL A   1      35.294  32.682  29.869  1.00  0.00     0.127 S 
ATOM     62  O   UNL A   1      34.254  32.535  30.882  1.00  0.00    -0.237 OA
ATOM     63  O   UNL A   1      35.872  34.024  29.767  1.00  0.00    -0.237 OA
ATOM     64  O   UNL A   1      35.023  32.053  28.584  1.00  0.00    -0.744 OA
ENDBRANCH  58  61
ENDBRANCH  30  54
BRANCH  42  65
ATOM     65  C   UNL A   1      43.909  36.091  31.731  1.00  0.00     0.023 A 
ATOM     66  C   UNL A   1      44.104  36.095  33.125  1.00  0.00     0.012 A 
ATOM     67  C   UNL A   1      43.833  37.313  31.035  1.00  0.00     0.148 A 
ATOM     68  C   UNL A   1      44.202  37.299  33.821  1.00  0.00     0.002 A 
ATOM     69  C   UNL A   1      43.980  38.508  31.728  1.00  0.00     0.091 A 
ATOM     70  F   UNL A   1      43.628  37.284  29.711  1.00  0.00    -0.205 F 
ATOM     71  C   UNL A   1      44.154  38.503  33.122  1.00  0.00     0.022 A 
BRANCH  69  72
ATOM     72  S   UNL A   1      44.037  40.096  30.892  1.00  0.00     0.127 S 
ATOM     73  O   UNL A   1      44.356  41.002  31.995  1.00  0.00    -0.237 OA
ATOM     74  O   UNL A   1      45.120  39.903  29.927  1.00  0.00    -0.237 OA
ATOM     75  O   UNL A   1      42.722  40.278  30.291  1.00  0.00    -0.744 OA
ENDBRANCH  69  72
ENDBRANCH  42  65
ENDBRANCH  16  17
ENDBRANCH   9  11
ENDBRANCH   8   9
ENDBRANCH   7   8
ENDBRANCH   6   7
ENDBRANCH   5   6
ENDBRANCH   4   5
ENDBRANCH   3   4
ENDBRANCH   2   3
ENDBRANCH   1   2
BRANCH   1  76
ATOM     76  C   UNL A   1      39.179  20.295  25.606  1.00  0.00     0.188 C 
BRANCH  76  77
ATOM     77  O   UNL A   1      38.725  21.641  25.715  1.00  0.00    -0.376 OA
BRANCH  77  78
ATOM     78  C   UNL A   1      37.631  22.033  24.886  1.00  0.00     0.202 C 
BRANCH  78  79
ATOM     79  C   UNL A   1      36.939  23.344  25.276  1.00  0.00     0.261 C 
BRANCH  79  80
ATOM     80  O   UNL A   1      35.505  23.210  25.234  1.00  0.00    -0.460 OA
BRANCH  80  81
ATOM     81  C   UNL A   1      34.876  23.848  24.227  1.00  0.00     0.342 C 
ATOM     82  O   UNL A   1      35.234  23.915  23.058  1.00  0.00    -0.246 OA
BRANCH  81  83
ATOM     83  C   UNL A   1      33.569  24.363  24.674  1.00  0.00     0.102 A 
ATOM     84  C   UNL A   1      33.373  24.439  26.065  1.00  0.00     0.019 A 
ATOM     85  C   UNL A   1      32.480  24.518  23.811  1.00  0.00     0.133 A 
ATOM     86  C   UNL A   1      32.094  24.612  26.594  1.00  0.00     0.001 A 
ATOM     87  C   UNL A   1      31.193  24.597  24.357  1.00  0.00     0.047 A 
ATOM     88  C   UNL A   1      30.998  24.646  25.739  1.00  0.00     0.004 A 
BRANCH  85  89
ATOM     89  O   UNL A   1      32.516  24.491  22.446  1.00  0.00    -0.492 OA
BRANCH  89  90
ATOM     90  C   UNL A   1      32.025  25.666  21.787  1.00  0.00     0.243 C 
BRANCH  90  91
ATOM     91  C   UNL A   1      32.822  26.925  22.107  1.00  0.00     0.152 C 
BRANCH  91  92
ATOM     92  S   UNL A   1      31.819  28.223  22.893  1.00  0.00     0.056 S 
ATOM     93  O   UNL A   1      30.410  27.707  22.975  1.00  0.00    -0.254 OA
BRANCH  92  94
ATOM     94  C   UNL A   1      32.380  28.225  24.598  1.00  0.00     0.042 A 
ATOM     95  C   UNL A   1      33.727  28.093  24.956  1.00  0.00     0.018 A 
ATOM     96  C   UNL A   1      31.408  28.276  25.604  1.00  0.00     0.057 A 
ATOM     97  C   UNL A   1      34.104  28.076  26.303  1.00  0.00     0.004 A 
ATOM     98  C   UNL A   1      31.793  28.239  26.938  1.00  0.00     0.124 A 
ATOM     99  C   UNL A   1      33.132  28.151  27.297  1.00  0.00     0.039 A 
ATOM    100  F   UNL A   1      30.860  28.299  27.898  1.00  0.00    -0.207 F 
ENDBRANCH  92  94
ENDBRANCH  91  92
ENDBRANCH  90  91
ENDBRANCH  89  90
ENDBRANCH  85  89
ENDBRANCH  81  83
ENDBRANCH  80  81
ENDBRANCH  79  80
ENDBRANCH  78  79
ENDBRANCH  77  78
ENDBRANCH  76  77
ENDBRANCH   1  76
TORSDOF 28
ENDMDL
