MODEL 1
REMARK VINA RESULT:      -9.8      0.000      0.000
REMARK SMILES O=C(OCCOCCOCCOCCOC(=O)[C@H]1CC=CC[C@@H]1C(=O)N[C@@H]1CCCN(c2ccccc2F)C1=O)c1ccc(-c2c3nc(c(-c4cccc(S(=O)(=O)[O-])c4F)c4ccc([nH]4)c(-c4cccc(S(=O)(=O)[O-])c4F)c4nc(c(-c5cccc(S(=O)(=O)[O-])c5F)c5ccc2[nH]5)C=C4)C=C3)cc1
REMARK SMILES IDX 9 1 8 2 7 3 6 4 5 5 4 6 3 7 2 8 1 9 41 10 42 11 103 12 43 13
REMARK SMILES IDX 102 14 44 15 45 16 46 17 96 18 47 19 101 20 95 21 97 22
REMARK SMILES IDX 48 23 100 24 94 25 93 26 49 28 81 29 61 30 80 31 62 32 65 33
REMARK SMILES IDX 79 34 98 35 63 36 64 37 78 39 99 40 66 41 50 42 51 43 59 44
REMARK SMILES IDX 52 45 54 46 60 47 53 48 55 49 56 50 57 51 58 52 82 53 83 54
REMARK SMILES IDX 91 55 84 56 86 57 92 58 85 59 87 60 88 61 89 62 90 63 67 64
REMARK SMILES IDX 68 65 76 66 69 67 71 68 77 69 70 70 72 71 73 72 74 73 75 74
REMARK SMILES IDX 10 75 11 76 12 77 13 78 14 79 15 80 16 81 17 82 18 83 19 84
REMARK SMILES IDX 23 85 20 86 22 87 21 88 24 89 25 90 26 91 27 93 28 94 39 95
REMARK SMILES IDX 29 96 31 97 40 98 30 99 32 100 33 101 37 102 34 103 36 104
REMARK SMILES IDX 38 105 35 106
REMARK H PARENT 97 27 65 38 26 92
REMARK Flexibility Score: inf
ROOT
ATOM      1  O   UNL A   1      39.936  21.205  26.966  1.00  0.00    -0.377 OA
ENDROOT
BRANCH   1   2
ATOM      2  C   UNL A   1      40.850  20.125  26.906  1.00  0.00     0.188 C 
BRANCH   2   3
ATOM      3  C   UNL A   1      42.308  20.542  27.054  1.00  0.00     0.188 C 
BRANCH   3   4
ATOM      4  O   UNL A   1      42.789  21.160  25.862  1.00  0.00    -0.376 OA
BRANCH   4   5
ATOM      5  C   UNL A   1      43.091  22.551  25.902  1.00  0.00     0.202 C 
BRANCH   5   6
ATOM      6  C   UNL A   1      43.709  23.106  24.626  1.00  0.00     0.261 C 
BRANCH   6   7
ATOM      7  O   UNL A   1      44.293  24.404  24.779  1.00  0.00    -0.460 OA
BRANCH   7   8
ATOM      8  C   UNL A   1      45.171  24.857  25.705  1.00  0.00     0.338 C 
ATOM      9  O   UNL A   1      46.218  24.221  25.836  1.00  0.00    -0.246 OA
BRANCH   8  10
ATOM     10  C   UNL A   1      44.964  26.034  26.615  1.00  0.00     0.060 A 
ATOM     11  C   UNL A   1      45.950  26.756  27.295  1.00  0.00     0.016 A 
ATOM     12  C   UNL A   1      43.637  26.486  26.728  1.00  0.00     0.016 A 
ATOM     13  C   UNL A   1      45.654  27.880  28.052  1.00  0.00     0.010 A 
ATOM     14  C   UNL A   1      43.315  27.579  27.531  1.00  0.00     0.010 A 
ATOM     15  C   UNL A   1      44.330  28.251  28.219  1.00  0.00    -0.014 A 
BRANCH  15  16
ATOM     16  C   UNL A   1      44.007  29.115  29.359  1.00  0.00     0.031 A 
ATOM     17  C   UNL A   1      43.866  28.429  30.682  1.00  0.00     0.074 A 
ATOM     18  C   UNL A   1      43.946  30.447  29.218  1.00  0.00     0.049 A 
ATOM     19  N   UNL A   1      43.368  28.878  31.796  1.00  0.00    -0.248 NA
ATOM     20  C   UNL A   1      44.354  27.036  30.760  1.00  0.00     0.031 C 
ATOM     21  C   UNL A   1      44.253  31.186  27.992  1.00  0.00     0.029 A 
ATOM     22  N   UNL A   1      43.593  31.414  30.117  1.00  0.00    -0.354 N 
ATOM     23  C   UNL A   1      43.410  27.805  32.676  1.00  0.00     0.074 A 
ATOM     24  C   UNL A   1      44.016  26.692  31.991  1.00  0.00     0.031 C 
ATOM     25  C   UNL A   1      44.036  32.495  28.207  1.00  0.00     0.029 A 
ATOM     26  C   UNL A   1      43.499  32.664  29.552  1.00  0.00     0.049 A 
ATOM     27  H   UNL A   1      43.424  31.235  31.070  1.00  0.00     0.167 HD
ATOM     28  C   UNL A   1      42.955  27.769  33.946  1.00  0.00     0.034 A 
ATOM     29  C   UNL A   1      42.963  33.787  30.062  1.00  0.00     0.034 A 
ATOM     30  C   UNL A   1      42.376  28.916  34.579  1.00  0.00     0.049 A 
ATOM     31  C   UNL A   1      42.388  33.700  31.454  1.00  0.00     0.074 A 
ATOM     32  C   UNL A   1      41.816  29.022  35.835  1.00  0.00     0.029 A 
ATOM     33  N   UNL A   1      42.293  30.169  33.986  1.00  0.00    -0.354 N 
ATOM     34  N   UNL A   1      42.374  32.677  32.279  1.00  0.00    -0.248 NA
ATOM     35  C   UNL A   1      41.761  34.913  31.990  1.00  0.00     0.031 C 
ATOM     36  C   UNL A   1      41.372  30.338  35.991  1.00  0.00     0.029 A 
ATOM     37  C   UNL A   1      41.693  31.061  34.849  1.00  0.00     0.049 A 
ATOM     38  H   UNL A   1      42.615  30.388  33.082  1.00  0.00     0.167 HD
ATOM     39  C   UNL A   1      41.763  33.128  33.441  1.00  0.00     0.074 A 
ATOM     40  C   UNL A   1      41.450  34.528  33.220  1.00  0.00     0.031 C 
ATOM     41  C   UNL A   1      41.459  32.457  34.581  1.00  0.00     0.034 A 
BRANCH  28  42
ATOM     42  C   UNL A   1      43.029  26.466  34.689  1.00  0.00     0.023 A 
ATOM     43  C   UNL A   1      41.889  25.647  34.805  1.00  0.00     0.012 A 
ATOM     44  C   UNL A   1      44.250  26.035  35.244  1.00  0.00     0.148 A 
ATOM     45  C   UNL A   1      41.962  24.421  35.469  1.00  0.00     0.002 A 
ATOM     46  C   UNL A   1      44.327  24.794  35.863  1.00  0.00     0.091 A 
ATOM     47  F   UNL A   1      45.313  26.849  35.152  1.00  0.00    -0.205 F 
ATOM     48  C   UNL A   1      43.182  23.991  35.984  1.00  0.00     0.022 A 
BRANCH  46  49
ATOM     49  S   UNL A   1      45.866  24.121  36.498  1.00  0.00     0.127 S 
ATOM     50  O   UNL A   1      46.702  24.106  35.295  1.00  0.00    -0.237 OA
ATOM     51  O   UNL A   1      46.247  25.131  37.488  1.00  0.00    -0.237 OA
ATOM     52  O   UNL A   1      45.548  22.813  37.038  1.00  0.00    -0.744 OA
ENDBRANCH  46  49
ENDBRANCH  28  42
BRANCH  29  53
ATOM     53  C   UNL A   1      42.913  35.048  29.265  1.00  0.00     0.023 A 
ATOM     54  C   UNL A   1      41.771  35.335  28.492  1.00  0.00     0.012 A 
ATOM     55  C   UNL A   1      43.980  35.971  29.269  1.00  0.00     0.148 A 
ATOM     56  C   UNL A   1      41.708  36.493  27.713  1.00  0.00     0.002 A 
ATOM     57  C   UNL A   1      43.885  37.152  28.540  1.00  0.00     0.091 A 
ATOM     58  F   UNL A   1      45.072  35.679  29.990  1.00  0.00    -0.205 F 
ATOM     59  C   UNL A   1      42.758  37.405  27.745  1.00  0.00     0.022 A 
BRANCH  57  60
ATOM     60  S   UNL A   1      45.134  38.442  28.627  1.00  0.00     0.127 S 
ATOM     61  O   UNL A   1      46.109  37.982  27.638  1.00  0.00    -0.237 OA
ATOM     62  O   UNL A   1      44.371  39.628  28.228  1.00  0.00    -0.237 OA
ATOM     63  O   UNL A   1      45.588  38.459  30.006  1.00  0.00    -0.744 OA
ENDBRANCH  57  60
ENDBRANCH  29  53
BRANCH  41  64
ATOM     64  C   UNL A   1      40.796  33.242  35.677  1.00  0.00     0.023 A 
ATOM     65  C   UNL A   1      39.392  33.272  35.766  1.00  0.00     0.012 A 
ATOM     66  C   UNL A   1      41.575  33.862  36.671  1.00  0.00     0.148 A 
ATOM     67  C   UNL A   1      38.770  33.944  36.815  1.00  0.00     0.002 A 
ATOM     68  C   UNL A   1      40.950  34.472  37.747  1.00  0.00     0.091 A 
ATOM     69  F   UNL A   1      42.911  33.830  36.552  1.00  0.00    -0.205 F 
ATOM     70  C   UNL A   1      39.548  34.529  37.812  1.00  0.00     0.022 A 
BRANCH  68  71
ATOM     71  S   UNL A   1      41.873  35.134  39.136  1.00  0.00     0.127 S 
ATOM     72  O   UNL A   1      42.608  36.231  38.508  1.00  0.00    -0.237 OA
ATOM     73  O   UNL A   1      40.805  35.556  40.044  1.00  0.00    -0.237 OA
ATOM     74  O   UNL A   1      42.690  34.038  39.635  1.00  0.00    -0.744 OA
ENDBRANCH  68  71
ENDBRANCH  41  64
ENDBRANCH  15  16
ENDBRANCH   8  10
ENDBRANCH   7   8
ENDBRANCH   6   7
ENDBRANCH   5   6
ENDBRANCH   4   5
ENDBRANCH   3   4
ENDBRANCH   2   3
ENDBRANCH   1   2
BRANCH   1  75
ATOM     75  C   UNL A   1      39.238  21.486  25.763  1.00  0.00     0.188 C 
BRANCH  75  76
ATOM     76  C   UNL A   1      37.941  22.338  25.808  1.00  0.00     0.188 C 
BRANCH  76  77
ATOM     77  O   UNL A   1      36.944  21.881  24.920  1.00  0.00    -0.376 OA
BRANCH  77  78
ATOM     78  C   UNL A   1      36.342  20.633  25.232  1.00  0.00     0.202 C 
BRANCH  78  79
ATOM     79  C   UNL A   1      34.857  20.430  24.864  1.00  0.00     0.261 C 
BRANCH  79  80
ATOM     80  O   UNL A   1      33.881  20.822  25.874  1.00  0.00    -0.463 OA
BRANCH  80  81
ATOM     81  C   UNL A   1      32.632  21.141  25.469  1.00  0.00     0.310 C 
ATOM     82  O   UNL A   1      31.872  20.296  25.012  1.00  0.00    -0.252 OA
BRANCH  81  83
ATOM     83  C   UNL A   1      32.334  22.669  25.464  1.00  0.00     0.115 C 
ATOM     84  C   UNL A   1      33.503  23.353  24.728  1.00  0.00     0.043 C 
ATOM     85  C   UNL A   1      31.047  23.410  25.056  1.00  0.00     0.097 C 
ATOM     86  C   UNL A   1      33.312  23.352  23.246  1.00  0.00    -0.030 C 
ATOM     87  C   UNL A   1      30.847  23.566  23.511  1.00  0.00     0.041 C 
ATOM     88  C   UNL A   1      32.097  23.447  22.694  1.00  0.00    -0.030 C 
BRANCH  85  89
ATOM     89  C   UNL A   1      30.874  24.806  25.677  1.00  0.00     0.224 C 
ATOM     90  O   UNL A   1      30.733  24.889  26.908  1.00  0.00    -0.275 OA
ATOM     91  N   UNL A   1      30.870  26.004  25.075  1.00  0.00    -0.344 N 
ATOM     92  H   UNL A   1      30.377  26.617  25.667  1.00  0.00     0.164 HD
BRANCH  91  93
ATOM     93  C   UNL A   1      31.295  26.792  23.902  1.00  0.00     0.172 C 
ATOM     94  C   UNL A   1      32.722  27.231  23.543  1.00  0.00     0.037 C 
ATOM     95  C   UNL A   1      30.196  27.828  23.611  1.00  0.00     0.249 C 
ATOM     96  C   UNL A   1      32.982  28.739  23.502  1.00  0.00     0.025 C 
ATOM     97  N   UNL A   1      30.593  29.158  23.639  1.00  0.00    -0.308 N 
ATOM     98  O   UNL A   1      29.065  27.433  23.319  1.00  0.00    -0.272 OA
ATOM     99  C   UNL A   1      31.887  29.537  24.173  1.00  0.00     0.126 C 
BRANCH  97 100
ATOM    100  C   UNL A   1      29.759  30.146  23.057  1.00  0.00     0.080 A 
ATOM    101  C   UNL A   1      29.341  29.987  21.730  1.00  0.00     0.029 A 
ATOM    102  C   UNL A   1      29.252  31.213  23.807  1.00  0.00     0.146 A 
ATOM    103  C   UNL A   1      28.390  30.855  21.187  1.00  0.00     0.002 A 
ATOM    104  C   UNL A   1      28.323  32.093  23.260  1.00  0.00     0.041 A 
ATOM    105  F   UNL A   1      29.693  31.441  25.054  1.00  0.00    -0.205 F 
ATOM    106  C   UNL A   1      27.879  31.903  21.953  1.00  0.00     0.003 A 
ENDBRANCH  97 100
ENDBRANCH  91  93
ENDBRANCH  85  89
ENDBRANCH  81  83
ENDBRANCH  80  81
ENDBRANCH  79  80
ENDBRANCH  78  79
ENDBRANCH  77  78
ENDBRANCH  76  77
ENDBRANCH  75  76
ENDBRANCH   1  75
TORSDOF 26
ENDMDL
MODEL 2
REMARK VINA RESULT:      -9.7      7.067     12.954
REMARK SMILES O=C(OCCOCCOCCOCCOC(=O)[C@H]1CC=CC[C@@H]1C(=O)N[C@@H]1CCCN(c2ccccc2F)C1=O)c1ccc(-c2c3nc(c(-c4cccc(S(=O)(=O)[O-])c4F)c4ccc([nH]4)c(-c4cccc(S(=O)(=O)[O-])c4F)c4nc(c(-c5cccc(S(=O)(=O)[O-])c5F)c5ccc2[nH]5)C=C4)C=C3)cc1
REMARK SMILES IDX 9 1 8 2 7 3 6 4 5 5 4 6 3 7 2 8 1 9 41 10 42 11 103 12 43 13
REMARK SMILES IDX 102 14 44 15 45 16 46 17 96 18 47 19 101 20 95 21 97 22
REMARK SMILES IDX 48 23 100 24 94 25 93 26 49 28 81 29 61 30 80 31 62 32 65 33
REMARK SMILES IDX 79 34 98 35 63 36 64 37 78 39 99 40 66 41 50 42 51 43 59 44
REMARK SMILES IDX 52 45 54 46 60 47 53 48 55 49 56 50 57 51 58 52 82 53 83 54
REMARK SMILES IDX 91 55 84 56 86 57 92 58 85 59 87 60 88 61 89 62 90 63 67 64
REMARK SMILES IDX 68 65 76 66 69 67 71 68 77 69 70 70 72 71 73 72 74 73 75 74
REMARK SMILES IDX 10 75 11 76 12 77 13 78 14 79 15 80 16 81 17 82 18 83 19 84
REMARK SMILES IDX 23 85 20 86 22 87 21 88 24 89 25 90 26 91 27 93 28 94 39 95
REMARK SMILES IDX 29 96 31 97 40 98 30 99 32 100 33 101 37 102 34 103 36 104
REMARK SMILES IDX 38 105 35 106
REMARK H PARENT 97 27 65 38 26 92
REMARK Flexibility Score: inf
ROOT
ATOM      1  O   UNL A   1      38.253  29.349  29.165  1.00  0.00    -0.377 OA
ENDROOT
BRANCH   1   2
ATOM      2  C   UNL A   1      38.736  28.278  29.956  1.00  0.00     0.188 C 
BRANCH   2   3
ATOM      3  C   UNL A   1      39.318  27.126  29.144  1.00  0.00     0.188 C 
BRANCH   3   4
ATOM      4  O   UNL A   1      40.400  27.567  28.328  1.00  0.00    -0.376 OA
BRANCH   4   5
ATOM      5  C   UNL A   1      40.707  26.817  27.158  1.00  0.00     0.202 C 
BRANCH   5   6
ATOM      6  C   UNL A   1      40.569  25.309  27.312  1.00  0.00     0.261 C 
BRANCH   6   7
ATOM      7  O   UNL A   1      41.810  24.631  27.535  1.00  0.00    -0.460 OA
BRANCH   7   8
ATOM      8  C   UNL A   1      42.738  24.205  26.646  1.00  0.00     0.338 C 
ATOM      9  O   UNL A   1      42.360  23.403  25.790  1.00  0.00    -0.246 OA
BRANCH   8  10
ATOM     10  C   UNL A   1      44.190  24.586  26.637  1.00  0.00     0.060 A 
ATOM     11  C   UNL A   1      45.285  23.728  26.484  1.00  0.00     0.016 A 
ATOM     12  C   UNL A   1      44.455  25.964  26.723  1.00  0.00     0.016 A 
ATOM     13  C   UNL A   1      46.588  24.198  26.413  1.00  0.00     0.010 A 
ATOM     14  C   UNL A   1      45.762  26.448  26.712  1.00  0.00     0.010 A 
ATOM     15  C   UNL A   1      46.828  25.551  26.590  1.00  0.00    -0.014 A 
BRANCH  15  16
ATOM     16  C   UNL A   1      48.184  25.954  26.975  1.00  0.00     0.031 A 
ATOM     17  C   UNL A   1      49.058  26.456  25.868  1.00  0.00     0.074 A 
ATOM     18  C   UNL A   1      48.562  25.957  28.262  1.00  0.00     0.049 A 
ATOM     19  N   UNL A   1      50.342  26.657  25.857  1.00  0.00    -0.248 NA
ATOM     20  C   UNL A   1      48.387  26.776  24.590  1.00  0.00     0.031 C 
ATOM     21  C   UNL A   1      47.697  25.652  29.402  1.00  0.00     0.029 A 
ATOM     22  N   UNL A   1      49.781  26.219  28.822  1.00  0.00    -0.354 N 
ATOM     23  C   UNL A   1      50.642  27.047  24.558  1.00  0.00     0.074 A 
ATOM     24  C   UNL A   1      49.409  27.097  23.814  1.00  0.00     0.031 C 
ATOM     25  C   UNL A   1      48.426  25.706  30.529  1.00  0.00     0.029 A 
ATOM     26  C   UNL A   1      49.816  25.966  30.173  1.00  0.00     0.049 A 
ATOM     27  H   UNL A   1      50.553  26.555  28.312  1.00  0.00     0.167 HD
ATOM     28  C   UNL A   1      51.859  27.318  24.044  1.00  0.00     0.034 A 
ATOM     29  C   UNL A   1      50.879  25.885  30.993  1.00  0.00     0.034 A 
ATOM     30  C   UNL A   1      53.049  27.267  24.840  1.00  0.00     0.049 A 
ATOM     31  C   UNL A   1      52.237  26.114  30.377  1.00  0.00     0.074 A 
ATOM     32  C   UNL A   1      54.359  27.456  24.453  1.00  0.00     0.029 A 
ATOM     33  N   UNL A   1      53.058  27.009  26.205  1.00  0.00    -0.354 N 
ATOM     34  N   UNL A   1      52.540  26.432  29.139  1.00  0.00    -0.248 NA
ATOM     35  C   UNL A   1      53.399  25.977  31.263  1.00  0.00     0.031 C 
ATOM     36  C   UNL A   1      55.163  27.287  25.583  1.00  0.00     0.029 A 
ATOM     37  C   UNL A   1      54.351  27.035  26.682  1.00  0.00     0.049 A 
ATOM     38  H   UNL A   1      52.258  26.833  26.751  1.00  0.00     0.167 HD
ATOM     39  C   UNL A   1      53.921  26.562  29.101  1.00  0.00     0.074 A 
ATOM     40  C   UNL A   1      54.391  26.316  30.452  1.00  0.00     0.031 C 
ATOM     41  C   UNL A   1      54.742  26.832  28.054  1.00  0.00     0.034 A 
BRANCH  28  42
ATOM     42  C   UNL A   1      51.956  27.642  22.581  1.00  0.00     0.023 A 
ATOM     43  C   UNL A   1      52.032  26.608  21.627  1.00  0.00     0.012 A 
ATOM     44  C   UNL A   1      51.932  28.982  22.148  1.00  0.00     0.148 A 
ATOM     45  C   UNL A   1      52.091  26.905  20.264  1.00  0.00     0.002 A 
ATOM     46  C   UNL A   1      51.945  29.269  20.790  1.00  0.00     0.091 A 
ATOM     47  F   UNL A   1      51.896  29.950  23.077  1.00  0.00    -0.205 F 
ATOM     48  C   UNL A   1      52.034  28.232  19.847  1.00  0.00     0.022 A 
BRANCH  46  49
ATOM     49  S   UNL A   1      51.807  30.942  20.151  1.00  0.00     0.127 S 
ATOM     50  O   UNL A   1      52.271  30.772  18.772  1.00  0.00    -0.237 OA
ATOM     51  O   UNL A   1      50.370  31.193  20.281  1.00  0.00    -0.237 OA
ATOM     52  O   UNL A   1      52.659  31.769  20.985  1.00  0.00    -0.744 OA
ENDBRANCH  46  49
ENDBRANCH  28  42
BRANCH  29  53
ATOM     53  C   UNL A   1      50.713  25.550  32.438  1.00  0.00     0.023 A 
ATOM     54  C   UNL A   1      50.437  26.576  33.361  1.00  0.00     0.012 A 
ATOM     55  C   UNL A   1      50.817  24.223  32.908  1.00  0.00     0.148 A 
ATOM     56  C   UNL A   1      50.305  26.297  34.724  1.00  0.00     0.002 A 
ATOM     57  C   UNL A   1      50.624  23.943  34.257  1.00  0.00     0.091 A 
ATOM     58  F   UNL A   1      51.102  23.256  32.026  1.00  0.00    -0.205 F 
ATOM     59  C   UNL A   1      50.389  24.982  35.169  1.00  0.00     0.022 A 
BRANCH  57  60
ATOM     60  S   UNL A   1      50.583  22.264  34.897  1.00  0.00     0.127 S 
ATOM     61  O   UNL A   1      49.327  21.762  34.340  1.00  0.00    -0.237 OA
ATOM     62  O   UNL A   1      51.791  21.685  34.302  1.00  0.00    -0.237 OA
ATOM     63  O   UNL A   1      50.631  22.392  36.343  1.00  0.00    -0.744 OA
ENDBRANCH  57  60
ENDBRANCH  29  53
BRANCH  41  64
ATOM     64  C   UNL A   1      56.213  26.916  28.345  1.00  0.00     0.023 A 
ATOM     65  C   UNL A   1      56.777  28.140  28.749  1.00  0.00     0.012 A 
ATOM     66  C   UNL A   1      57.006  25.755  28.311  1.00  0.00     0.148 A 
ATOM     67  C   UNL A   1      58.127  28.213  29.082  1.00  0.00     0.002 A 
ATOM     68  C   UNL A   1      58.332  25.822  28.707  1.00  0.00     0.091 A 
ATOM     69  F   UNL A   1      56.445  24.605  27.907  1.00  0.00    -0.205 F 
ATOM     70  C   UNL A   1      58.900  27.054  29.076  1.00  0.00     0.022 A 
BRANCH  68  71
ATOM     71  S   UNL A   1      59.360  24.359  28.853  1.00  0.00     0.127 S 
ATOM     72  O   UNL A   1      60.240  24.723  29.962  1.00  0.00    -0.237 OA
ATOM     73  O   UNL A   1      58.377  23.321  29.170  1.00  0.00    -0.237 OA
ATOM     74  O   UNL A   1      60.013  24.196  27.563  1.00  0.00    -0.744 OA
ENDBRANCH  68  71
ENDBRANCH  41  64
ENDBRANCH  15  16
ENDBRANCH   8  10
ENDBRANCH   7   8
ENDBRANCH   6   7
ENDBRANCH   5   6
ENDBRANCH   4   5
ENDBRANCH   3   4
ENDBRANCH   2   3
ENDBRANCH   1   2
BRANCH   1  75
ATOM     75  C   UNL A   1      36.933  29.780  29.457  1.00  0.00     0.188 C 
BRANCH  75  76
ATOM     76  C   UNL A   1      36.236  30.806  28.524  1.00  0.00     0.188 C 
BRANCH  76  77
ATOM     77  O   UNL A   1      34.946  30.403  28.118  1.00  0.00    -0.376 OA
BRANCH  77  78
ATOM     78  C   UNL A   1      34.880  29.310  27.213  1.00  0.00     0.202 C 
BRANCH  78  79
ATOM     79  C   UNL A   1      33.558  28.518  27.126  1.00  0.00     0.261 C 
BRANCH  79  80
ATOM     80  O   UNL A   1      33.553  27.364  26.235  1.00  0.00    -0.463 OA
BRANCH  80  81
ATOM     81  C   UNL A   1      32.374  26.754  25.982  1.00  0.00     0.310 C 
ATOM     82  O   UNL A   1      31.651  26.358  26.887  1.00  0.00    -0.252 OA
BRANCH  81  83
ATOM     83  C   UNL A   1      32.127  26.446  24.476  1.00  0.00     0.115 C 
ATOM     84  C   UNL A   1      30.994  27.380  24.006  1.00  0.00     0.043 C 
ATOM     85  C   UNL A   1      33.141  26.348  23.322  1.00  0.00     0.097 C 
ATOM     86  C   UNL A   1      31.505  28.726  23.605  1.00  0.00    -0.030 C 
ATOM     87  C   UNL A   1      33.621  27.728  22.758  1.00  0.00     0.041 C 
ATOM     88  C   UNL A   1      32.707  28.881  23.037  1.00  0.00    -0.030 C 
BRANCH  85  89
ATOM     89  C   UNL A   1      32.683  25.504  22.120  1.00  0.00     0.224 C 
ATOM     90  O   UNL A   1      32.428  26.088  21.054  1.00  0.00    -0.275 OA
ATOM     91  N   UNL A   1      32.526  24.175  22.031  1.00  0.00    -0.344 N 
ATOM     92  H   UNL A   1      31.889  24.014  21.299  1.00  0.00     0.164 HD
BRANCH  91  93
ATOM     93  C   UNL A   1      32.907  22.854  22.566  1.00  0.00     0.172 C 
ATOM     94  C   UNL A   1      31.994  21.835  23.264  1.00  0.00     0.037 C 
ATOM     95  C   UNL A   1      34.324  22.977  23.152  1.00  0.00     0.249 C 
ATOM     96  C   UNL A   1      32.330  21.503  24.720  1.00  0.00     0.025 C 
ATOM     97  N   UNL A   1      34.453  22.664  24.498  1.00  0.00    -0.308 N 
ATOM     98  O   UNL A   1      35.256  23.281  22.403  1.00  0.00    -0.272 OA
ATOM     99  C   UNL A   1      33.283  22.500  25.339  1.00  0.00     0.126 C 
BRANCH  97 100
ATOM    100  C   UNL A   1      35.741  22.415  25.035  1.00  0.00     0.080 A 
ATOM    101  C   UNL A   1      36.298  21.136  24.901  1.00  0.00     0.029 A 
ATOM    102  C   UNL A   1      36.516  23.439  25.590  1.00  0.00     0.146 A 
ATOM    103  C   UNL A   1      37.626  20.908  25.272  1.00  0.00     0.002 A 
ATOM    104  C   UNL A   1      37.831  23.208  25.982  1.00  0.00     0.041 A 
ATOM    105  F   UNL A   1      35.988  24.654  25.807  1.00  0.00    -0.205 F 
ATOM    106  C   UNL A   1      38.392  21.944  25.807  1.00  0.00     0.003 A 
ENDBRANCH  97 100
ENDBRANCH  91  93
ENDBRANCH  85  89
ENDBRANCH  81  83
ENDBRANCH  80  81
ENDBRANCH  79  80
ENDBRANCH  78  79
ENDBRANCH  77  78
ENDBRANCH  76  77
ENDBRANCH  75  76
ENDBRANCH   1  75
TORSDOF 26
ENDMDL
MODEL 3
REMARK VINA RESULT:      -9.2      6.151     11.346
REMARK SMILES O=C(OCCOCCOCCOCCOC(=O)[C@H]1CC=CC[C@@H]1C(=O)N[C@@H]1CCCN(c2ccccc2F)C1=O)c1ccc(-c2c3nc(c(-c4cccc(S(=O)(=O)[O-])c4F)c4ccc([nH]4)c(-c4cccc(S(=O)(=O)[O-])c4F)c4nc(c(-c5cccc(S(=O)(=O)[O-])c5F)c5ccc2[nH]5)C=C4)C=C3)cc1
REMARK SMILES IDX 9 1 8 2 7 3 6 4 5 5 4 6 3 7 2 8 1 9 41 10 42 11 103 12 43 13
REMARK SMILES IDX 102 14 44 15 45 16 46 17 96 18 47 19 101 20 95 21 97 22
REMARK SMILES IDX 48 23 100 24 94 25 93 26 49 28 81 29 61 30 80 31 62 32 65 33
REMARK SMILES IDX 79 34 98 35 63 36 64 37 78 39 99 40 66 41 50 42 51 43 59 44
REMARK SMILES IDX 52 45 54 46 60 47 53 48 55 49 56 50 57 51 58 52 82 53 83 54
REMARK SMILES IDX 91 55 84 56 86 57 92 58 85 59 87 60 88 61 89 62 90 63 67 64
REMARK SMILES IDX 68 65 76 66 69 67 71 68 77 69 70 70 72 71 73 72 74 73 75 74
REMARK SMILES IDX 10 75 11 76 12 77 13 78 14 79 15 80 16 81 17 82 18 83 19 84
REMARK SMILES IDX 23 85 20 86 22 87 21 88 24 89 25 90 26 91 27 93 28 94 39 95
REMARK SMILES IDX 29 96 31 97 40 98 30 99 32 100 33 101 37 102 34 103 36 104
REMARK SMILES IDX 38 105 35 106
REMARK H PARENT 97 27 65 38 26 92
REMARK Flexibility Score: inf
ROOT
ATOM      1  O   UNL A   1      38.210  29.396  29.151  1.00  0.00    -0.377 OA
ENDROOT
BRANCH   1   2
ATOM      2  C   UNL A   1      38.594  28.403  30.085  1.00  0.00     0.188 C 
BRANCH   2   3
ATOM      3  C   UNL A   1      39.216  27.165  29.448  1.00  0.00     0.188 C 
BRANCH   3   4
ATOM      4  O   UNL A   1      40.334  27.513  28.635  1.00  0.00    -0.376 OA
BRANCH   4   5
ATOM      5  C   UNL A   1      40.375  27.016  27.301  1.00  0.00     0.202 C 
BRANCH   5   6
ATOM      6  C   UNL A   1      39.897  25.579  27.141  1.00  0.00     0.261 C 
BRANCH   6   7
ATOM      7  O   UNL A   1      40.809  24.601  27.651  1.00  0.00    -0.460 OA
BRANCH   7   8
ATOM      8  C   UNL A   1      41.946  24.108  27.105  1.00  0.00     0.338 C 
ATOM      9  O   UNL A   1      41.816  23.317  26.169  1.00  0.00    -0.246 OA
BRANCH   8  10
ATOM     10  C   UNL A   1      43.345  24.403  27.565  1.00  0.00     0.060 A 
ATOM     11  C   UNL A   1      44.330  23.474  27.915  1.00  0.00     0.016 A 
ATOM     12  C   UNL A   1      43.706  25.762  27.572  1.00  0.00     0.016 A 
ATOM     13  C   UNL A   1      45.620  23.856  28.253  1.00  0.00     0.010 A 
ATOM     14  C   UNL A   1      44.980  26.167  27.966  1.00  0.00     0.010 A 
ATOM     15  C   UNL A   1      45.923  25.205  28.339  1.00  0.00    -0.014 A 
BRANCH  15  16
ATOM     16  C   UNL A   1      47.100  25.586  29.127  1.00  0.00     0.031 A 
ATOM     17  C   UNL A   1      48.348  25.865  28.350  1.00  0.00     0.074 A 
ATOM     18  C   UNL A   1      47.011  25.764  30.453  1.00  0.00     0.049 A 
ATOM     19  N   UNL A   1      49.572  25.990  28.770  1.00  0.00    -0.248 NA
ATOM     20  C   UNL A   1      48.195  26.023  26.888  1.00  0.00     0.031 C 
ATOM     21  C   UNL A   1      45.780  25.684  31.241  1.00  0.00     0.029 A 
ATOM     22  N   UNL A   1      47.983  26.040  31.373  1.00  0.00    -0.354 N 
ATOM     23  C   UNL A   1      50.338  26.161  27.625  1.00  0.00     0.074 A 
ATOM     24  C   UNL A   1      49.448  26.165  26.492  1.00  0.00     0.031 C 
ATOM     25  C   UNL A   1      46.079  25.869  32.538  1.00  0.00     0.029 A 
ATOM     26  C   UNL A   1      47.526  25.994  32.669  1.00  0.00     0.049 A 
ATOM     27  H   UNL A   1      48.915  26.251  31.133  1.00  0.00     0.167 HD
ATOM     28  C   UNL A   1      51.680  26.283  27.547  1.00  0.00     0.034 A 
ATOM     29  C   UNL A   1      48.228  25.981  33.816  1.00  0.00     0.034 A 
ATOM     30  C   UNL A   1      52.511  26.288  28.714  1.00  0.00     0.049 A 
ATOM     31  C   UNL A   1      49.731  26.037  33.699  1.00  0.00     0.074 A 
ATOM     32  C   UNL A   1      53.887  26.342  28.796  1.00  0.00     0.029 A 
ATOM     33  N   UNL A   1      52.024  26.240  30.013  1.00  0.00    -0.354 N 
ATOM     34  N   UNL A   1      50.472  26.146  32.620  1.00  0.00    -0.248 NA
ATOM     35  C   UNL A   1      50.496  25.973  34.949  1.00  0.00     0.031 C 
ATOM     36  C   UNL A   1      54.231  26.304  30.150  1.00  0.00     0.029 A 
ATOM     37  C   UNL A   1      53.069  26.267  30.911  1.00  0.00     0.049 A 
ATOM     38  H   UNL A   1      51.071  26.194  30.257  1.00  0.00     0.167 HD
ATOM     39  C   UNL A   1      51.788  26.192  33.058  1.00  0.00     0.074 A 
ATOM     40  C   UNL A   1      51.737  26.129  34.508  1.00  0.00     0.031 C 
ATOM     41  C   UNL A   1      52.942  26.254  32.346  1.00  0.00     0.034 A 
BRANCH  28  42
ATOM     42  C   UNL A   1      52.306  26.374  26.186  1.00  0.00     0.023 A 
ATOM     43  C   UNL A   1      52.834  25.224  25.566  1.00  0.00     0.012 A 
ATOM     44  C   UNL A   1      52.337  27.604  25.501  1.00  0.00     0.148 A 
ATOM     45  C   UNL A   1      53.389  25.300  24.288  1.00  0.00     0.002 A 
ATOM     46  C   UNL A   1      52.849  27.664  24.211  1.00  0.00     0.091 A 
ATOM     47  F   UNL A   1      51.862  28.692  26.125  1.00  0.00    -0.205 F 
ATOM     48  C   UNL A   1      53.384  26.515  23.608  1.00  0.00     0.022 A 
BRANCH  46  49
ATOM     49  S   UNL A   1      52.826  29.166  23.227  1.00  0.00     0.127 S 
ATOM     50  O   UNL A   1      53.393  28.699  21.960  1.00  0.00    -0.237 OA
ATOM     51  O   UNL A   1      51.394  29.467  23.176  1.00  0.00    -0.237 OA
ATOM     52  O   UNL A   1      53.638  30.134  23.940  1.00  0.00    -0.744 OA
ENDBRANCH  46  49
ENDBRANCH  28  42
BRANCH  29  53
ATOM     53  C   UNL A   1      47.542  25.879  35.137  1.00  0.00     0.023 A 
ATOM     54  C   UNL A   1      47.132  27.052  35.799  1.00  0.00     0.012 A 
ATOM     55  C   UNL A   1      47.281  24.631  35.744  1.00  0.00     0.148 A 
ATOM     56  C   UNL A   1      46.513  26.990  37.050  1.00  0.00     0.002 A 
ATOM     57  C   UNL A   1      46.610  24.573  36.961  1.00  0.00     0.091 A 
ATOM     58  F   UNL A   1      47.694  23.521  35.118  1.00  0.00    -0.205 F 
ATOM     59  C   UNL A   1      46.244  25.752  37.625  1.00  0.00     0.022 A 
BRANCH  57  60
ATOM     60  S   UNL A   1      46.106  23.019  37.710  1.00  0.00     0.127 S 
ATOM     61  O   UNL A   1      45.376  23.480  38.891  1.00  0.00    -0.237 OA
ATOM     62  O   UNL A   1      45.265  22.436  36.661  1.00  0.00    -0.237 OA
ATOM     63  O   UNL A   1      47.334  22.287  37.967  1.00  0.00    -0.744 OA
ENDBRANCH  57  60
ENDBRANCH  29  53
BRANCH  41  64
ATOM     64  C   UNL A   1      54.224  26.300  33.128  1.00  0.00     0.023 A 
ATOM     65  C   UNL A   1      54.905  25.104  33.424  1.00  0.00     0.012 A 
ATOM     66  C   UNL A   1      54.794  27.538  33.475  1.00  0.00     0.148 A 
ATOM     67  C   UNL A   1      56.126  25.142  34.092  1.00  0.00     0.002 A 
ATOM     68  C   UNL A   1      56.040  27.569  34.081  1.00  0.00     0.091 A 
ATOM     69  F   UNL A   1      54.114  28.659  33.194  1.00  0.00    -0.205 F 
ATOM     70  C   UNL A   1      56.700  26.372  34.406  1.00  0.00     0.022 A 
BRANCH  68  71
ATOM     71  S   UNL A   1      56.906  29.108  34.401  1.00  0.00     0.127 S 
ATOM     72  O   UNL A   1      57.362  29.476  33.061  1.00  0.00    -0.237 OA
ATOM     73  O   UNL A   1      55.842  29.957  34.938  1.00  0.00    -0.237 OA
ATOM     74  O   UNL A   1      57.959  28.785  35.353  1.00  0.00    -0.744 OA
ENDBRANCH  68  71
ENDBRANCH  41  64
ENDBRANCH  15  16
ENDBRANCH   8  10
ENDBRANCH   7   8
ENDBRANCH   6   7
ENDBRANCH   5   6
ENDBRANCH   4   5
ENDBRANCH   3   4
ENDBRANCH   2   3
ENDBRANCH   1   2
BRANCH   1  75
ATOM     75  C   UNL A   1      36.884  29.884  29.286  1.00  0.00     0.188 C 
BRANCH  75  76
ATOM     76  C   UNL A   1      36.267  30.750  28.155  1.00  0.00     0.188 C 
BRANCH  76  77
ATOM     77  O   UNL A   1      34.918  30.435  27.886  1.00  0.00    -0.376 OA
BRANCH  77  78
ATOM     78  C   UNL A   1      34.679  29.226  27.181  1.00  0.00     0.202 C 
BRANCH  78  79
ATOM     79  C   UNL A   1      33.214  28.795  26.953  1.00  0.00     0.261 C 
BRANCH  79  80
ATOM     80  O   UNL A   1      33.011  27.584  26.170  1.00  0.00    -0.463 OA
BRANCH  80  81
ATOM     81  C   UNL A   1      31.750  27.122  26.016  1.00  0.00     0.310 C 
ATOM     82  O   UNL A   1      30.999  26.980  26.973  1.00  0.00    -0.252 OA
BRANCH  81  83
ATOM     83  C   UNL A   1      31.423  26.626  24.577  1.00  0.00     0.115 C 
ATOM     84  C   UNL A   1      29.973  27.054  24.272  1.00  0.00     0.043 C 
ATOM     85  C   UNL A   1      32.231  26.804  23.278  1.00  0.00     0.097 C 
ATOM     86  C   UNL A   1      29.897  28.457  23.762  1.00  0.00    -0.030 C 
ATOM     87  C   UNL A   1      32.089  28.214  22.612  1.00  0.00     0.041 C 
ATOM     88  C   UNL A   1      30.867  28.984  23.006  1.00  0.00    -0.030 C 
BRANCH  85  89
ATOM     89  C   UNL A   1      31.948  25.759  22.186  1.00  0.00     0.224 C 
ATOM     90  O   UNL A   1      31.836  26.150  21.012  1.00  0.00    -0.275 OA
ATOM     91  N   UNL A   1      31.816  24.430  22.301  1.00  0.00    -0.344 N 
ATOM     92  H   UNL A   1      31.286  24.129  21.529  1.00  0.00     0.164 HD
BRANCH  91  93
ATOM     93  C   UNL A   1      32.132  23.228  23.097  1.00  0.00     0.172 C 
ATOM     94  C   UNL A   1      31.322  22.648  24.267  1.00  0.00     0.037 C 
ATOM     95  C   UNL A   1      33.660  23.161  23.259  1.00  0.00     0.249 C 
ATOM     96  C   UNL A   1      32.020  22.614  25.629  1.00  0.00     0.025 C 
ATOM     97  N   UNL A   1      34.133  23.166  24.563  1.00  0.00    -0.308 N 
ATOM     98  O   UNL A   1      34.363  23.051  22.251  1.00  0.00    -0.272 OA
ATOM     99  C   UNL A   1      33.255  23.486  25.673  1.00  0.00     0.126 C 
BRANCH  97 100
ATOM    100  C   UNL A   1      35.468  22.766  24.822  1.00  0.00     0.080 A 
ATOM    101  C   UNL A   1      36.418  23.741  25.153  1.00  0.00     0.029 A 
ATOM    102  C   UNL A   1      35.835  21.416  24.867  1.00  0.00     0.146 A 
ATOM    103  C   UNL A   1      37.695  23.360  25.573  1.00  0.00     0.002 A 
ATOM    104  C   UNL A   1      37.114  21.036  25.261  1.00  0.00     0.041 A 
ATOM    105  F   UNL A   1      34.975  20.462  24.477  1.00  0.00    -0.205 F 
ATOM    106  C   UNL A   1      38.041  22.009  25.631  1.00  0.00     0.003 A 
ENDBRANCH  97 100
ENDBRANCH  91  93
ENDBRANCH  85  89
ENDBRANCH  81  83
ENDBRANCH  80  81
ENDBRANCH  79  80
ENDBRANCH  78  79
ENDBRANCH  77  78
ENDBRANCH  76  77
ENDBRANCH  75  76
ENDBRANCH   1  75
TORSDOF 26
ENDMDL
