MODEL 1
REMARK VINA RESULT:      -9.1      0.000      0.000
REMARK SMILES O=C(OCCOCCOCCOCCOC(=O)c1ccc(-c2c3nc(c(-c4cccc(S(=O)(=O)[O-])c4F)c4ccc([nH]4)c(-c4cccc(S(=O)(=O)[O-])c4F)c4nc(c(-c5cccc(S(=O)(=O)[O-])c5F)c5ccc2[nH]5)C=C4)C=C3)cc1)c1ccc(N[C@H]2OC[C@@H](O)[C@@H](O)[C@H]2O)cc1
REMARK SMILES IDX 9 1 8 2 7 3 6 4 5 5 4 6 3 7 2 8 1 9 81 10 82 11 96 12 83 13
REMARK SMILES IDX 95 14 84 15 85 16 86 18 87 19 93 20 88 21 91 22 89 23 94 24
REMARK SMILES IDX 92 26 90 28 10 30 11 31 12 32 13 33 14 34 15 35 16 36 17 37
REMARK SMILES IDX 18 38 19 39 80 40 20 41 79 42 21 43 22 44 23 45 73 46 24 47
REMARK SMILES IDX 78 48 72 49 74 50 25 51 77 52 71 53 70 54 26 56 58 57 38 58
REMARK SMILES IDX 57 59 39 60 42 61 56 62 75 63 40 64 41 65 55 67 76 68 43 69
REMARK SMILES IDX 27 70 28 71 36 72 29 73 31 74 37 75 30 76 32 77 33 78 34 79
REMARK SMILES IDX 35 80 59 81 60 82 68 83 61 84 63 85 69 86 62 87 64 88 65 89
REMARK SMILES IDX 66 90 67 91 44 92 45 93 53 94 46 95 48 96 54 97 47 98 49 99
REMARK SMILES IDX 50 100 51 101 52 102
REMARK H PARENT 85 17 94 25 92 27 90 29 74 55 42 66
REMARK Flexibility Score: inf
ROOT
ATOM      1  O   UNL A   1      41.208  19.668  27.166  1.00  0.00    -0.377 OA
ENDROOT
BRANCH   1   2
ATOM      2  C   UNL A   1      40.755  20.862  26.527  1.00  0.00     0.188 C 
BRANCH   2   3
ATOM      3  C   UNL A   1      39.466  20.729  25.711  1.00  0.00     0.188 C 
BRANCH   3   4
ATOM      4  O   UNL A   1      38.731  21.948  25.772  1.00  0.00    -0.376 OA
BRANCH   4   5
ATOM      5  C   UNL A   1      37.536  22.049  25.016  1.00  0.00     0.202 C 
BRANCH   5   6
ATOM      6  C   UNL A   1      36.279  22.458  25.781  1.00  0.00     0.261 C 
BRANCH   6   7
ATOM      7  O   UNL A   1      35.604  23.624  25.272  1.00  0.00    -0.460 OA
BRANCH   7   8
ATOM      8  C   UNL A   1      34.326  23.752  24.847  1.00  0.00     0.338 C 
ATOM      9  O   UNL A   1      33.641  22.754  24.637  1.00  0.00    -0.246 OA
BRANCH   8  10
ATOM     10  C   UNL A   1      33.693  25.078  24.654  1.00  0.00     0.060 A 
ATOM     11  C   UNL A   1      33.615  25.690  23.417  1.00  0.00     0.018 A 
ATOM     12  C   UNL A   1      32.977  25.652  25.708  1.00  0.00     0.018 A 
ATOM     13  C   UNL A   1      32.981  26.912  23.253  1.00  0.00     0.026 A 
ATOM     14  C   UNL A   1      32.274  26.858  25.524  1.00  0.00     0.026 A 
ATOM     15  C   UNL A   1      32.294  27.530  24.297  1.00  0.00     0.036 A 
BRANCH  15  16
ATOM     16  N   UNL A   1      31.581  28.705  24.102  1.00  0.00    -0.358 N 
ATOM     17  H   UNL A   1      31.852  29.527  24.571  1.00  0.00     0.163 HD
BRANCH  16  18
ATOM     18  C   UNL A   1      30.435  28.724  23.206  1.00  0.00     0.244 C 
ATOM     19  O   UNL A   1      29.308  28.199  23.921  1.00  0.00    -0.353 OA
ATOM     20  C   UNL A   1      30.074  30.155  22.777  1.00  0.00     0.195 C 
ATOM     21  C   UNL A   1      28.189  27.958  23.061  1.00  0.00     0.197 C 
ATOM     22  C   UNL A   1      28.839  30.070  21.859  1.00  0.00     0.178 C 
ATOM     23  C   UNL A   1      27.680  29.287  22.508  1.00  0.00     0.171 C 
BRANCH  20  24
ATOM     24  O   UNL A   1      29.771  30.958  23.941  1.00  0.00    -0.386 OA
ATOM     25  H   UNL A   1      30.011  30.469  24.744  1.00  0.00     0.211 HD
ENDBRANCH  20  24
BRANCH  22  26
ATOM     26  O   UNL A   1      28.403  31.383  21.503  1.00  0.00    -0.387 OA
ATOM     27  H   UNL A   1      27.876  31.756  22.228  1.00  0.00     0.211 HD
ENDBRANCH  22  26
BRANCH  23  28
ATOM     28  O   UNL A   1      27.112  30.057  23.581  1.00  0.00    -0.388 OA
ATOM     29  H   UNL A   1      27.701  30.024  24.350  1.00  0.00     0.211 HD
ENDBRANCH  23  28
ENDBRANCH  16  18
ENDBRANCH  15  16
ENDBRANCH   8  10
ENDBRANCH   7   8
ENDBRANCH   6   7
ENDBRANCH   5   6
ENDBRANCH   4   5
ENDBRANCH   3   4
ENDBRANCH   2   3
ENDBRANCH   1   2
BRANCH   1  30
ATOM     30  C   UNL A   1      42.423  19.109  26.675  1.00  0.00     0.188 C 
BRANCH  30  31
ATOM     31  C   UNL A   1      43.080  19.782  25.448  1.00  0.00     0.188 C 
BRANCH  31  32
ATOM     32  O   UNL A   1      44.296  20.446  25.742  1.00  0.00    -0.376 OA
BRANCH  32  33
ATOM     33  C   UNL A   1      45.068  20.937  24.654  1.00  0.00     0.202 C 
BRANCH  33  34
ATOM     34  C   UNL A   1      45.140  22.438  24.299  1.00  0.00     0.261 C 
BRANCH  34  35
ATOM     35  O   UNL A   1      44.610  23.373  25.243  1.00  0.00    -0.460 OA
BRANCH  35  36
ATOM     36  C   UNL A   1      43.291  23.689  25.171  1.00  0.00     0.338 C 
ATOM     37  O   UNL A   1      42.451  23.147  24.501  1.00  0.00    -0.246 OA
BRANCH  36  38
ATOM     38  C   UNL A   1      43.027  24.648  26.282  1.00  0.00     0.060 A 
ATOM     39  C   UNL A   1      42.086  24.284  27.258  1.00  0.00     0.016 A 
ATOM     40  C   UNL A   1      43.790  25.810  26.443  1.00  0.00     0.016 A 
ATOM     41  C   UNL A   1      41.897  25.087  28.387  1.00  0.00     0.010 A 
ATOM     42  C   UNL A   1      43.581  26.627  27.559  1.00  0.00     0.010 A 
ATOM     43  C   UNL A   1      42.614  26.283  28.522  1.00  0.00    -0.014 A 
BRANCH  43  44
ATOM     44  C   UNL A   1      42.165  27.299  29.505  1.00  0.00     0.031 A 
ATOM     45  C   UNL A   1      42.866  27.320  30.837  1.00  0.00     0.074 A 
ATOM     46  C   UNL A   1      41.164  28.161  29.257  1.00  0.00     0.049 A 
ATOM     47  N   UNL A   1      42.639  28.062  31.886  1.00  0.00    -0.248 NA
ATOM     48  C   UNL A   1      43.974  26.362  31.003  1.00  0.00     0.031 C 
ATOM     49  C   UNL A   1      40.405  28.248  28.012  1.00  0.00     0.029 A 
ATOM     50  N   UNL A   1      40.590  29.113  30.067  1.00  0.00    -0.354 N 
ATOM     51  C   UNL A   1      43.549  27.639  32.847  1.00  0.00     0.074 A 
ATOM     52  C   UNL A   1      44.328  26.572  32.260  1.00  0.00     0.031 C 
ATOM     53  C   UNL A   1      39.438  29.173  28.155  1.00  0.00     0.029 A 
ATOM     54  C   UNL A   1      39.492  29.725  29.509  1.00  0.00     0.049 A 
ATOM     55  H   UNL A   1      40.935  29.336  30.962  1.00  0.00     0.167 HD
ATOM     56  C   UNL A   1      43.729  28.098  34.106  1.00  0.00     0.034 A 
ATOM     57  C   UNL A   1      38.615  30.601  30.043  1.00  0.00     0.034 A 
ATOM     58  C   UNL A   1      42.958  29.157  34.692  1.00  0.00     0.049 A 
ATOM     59  C   UNL A   1      38.815  31.078  31.462  1.00  0.00     0.074 A 
ATOM     60  C   UNL A   1      43.098  29.729  35.942  1.00  0.00     0.029 A 
ATOM     61  N   UNL A   1      41.884  29.783  34.080  1.00  0.00    -0.354 N 
ATOM     62  N   UNL A   1      39.761  30.766  32.314  1.00  0.00    -0.248 NA
ATOM     63  C   UNL A   1      37.843  32.052  31.984  1.00  0.00     0.031 C 
ATOM     64  C   UNL A   1      42.083  30.677  36.102  1.00  0.00     0.029 A 
ATOM     65  C   UNL A   1      41.339  30.724  34.934  1.00  0.00     0.049 A 
ATOM     66  H   UNL A   1      41.559  29.587  33.171  1.00  0.00     0.167 HD
ATOM     67  C   UNL A   1      39.521  31.528  33.455  1.00  0.00     0.074 A 
ATOM     68  C   UNL A   1      38.347  32.331  33.179  1.00  0.00     0.031 C 
ATOM     69  C   UNL A   1      40.202  31.555  34.627  1.00  0.00     0.034 A 
BRANCH  56  70
ATOM     70  C   UNL A   1      44.805  27.448  34.931  1.00  0.00     0.023 A 
ATOM     71  C   UNL A   1      46.111  27.981  34.929  1.00  0.00     0.012 A 
ATOM     72  C   UNL A   1      44.517  26.323  35.726  1.00  0.00     0.148 A 
ATOM     73  C   UNL A   1      47.123  27.380  35.677  1.00  0.00     0.002 A 
ATOM     74  C   UNL A   1      45.518  25.761  36.507  1.00  0.00     0.091 A 
ATOM     75  F   UNL A   1      43.277  25.815  35.689  1.00  0.00    -0.205 F 
ATOM     76  C   UNL A   1      46.823  26.278  36.474  1.00  0.00     0.022 A 
BRANCH  74  77
ATOM     77  S   UNL A   1      45.212  24.390  37.627  1.00  0.00     0.127 S 
ATOM     78  O   UNL A   1      45.241  23.251  36.713  1.00  0.00    -0.237 OA
ATOM     79  O   UNL A   1      46.357  24.476  38.534  1.00  0.00    -0.237 OA
ATOM     80  O   UNL A   1      43.923  24.661  38.249  1.00  0.00    -0.744 OA
ENDBRANCH  74  77
ENDBRANCH  56  70
BRANCH  57  81
ATOM     81  C   UNL A   1      37.464  31.096  29.233  1.00  0.00     0.023 A 
ATOM     82  C   UNL A   1      37.329  32.473  28.974  1.00  0.00     0.012 A 
ATOM     83  C   UNL A   1      36.504  30.204  28.716  1.00  0.00     0.148 A 
ATOM     84  C   UNL A   1      36.244  32.956  28.238  1.00  0.00     0.002 A 
ATOM     85  C   UNL A   1      35.459  30.685  27.937  1.00  0.00     0.091 A 
ATOM     86  F   UNL A   1      36.639  28.899  28.991  1.00  0.00    -0.205 F 
ATOM     87  C   UNL A   1      35.317  32.063  27.711  1.00  0.00     0.022 A 
BRANCH  85  88
ATOM     88  S   UNL A   1      34.291  29.599  27.109  1.00  0.00     0.127 S 
ATOM     89  O   UNL A   1      33.814  28.774  28.216  1.00  0.00    -0.237 OA
ATOM     90  O   UNL A   1      33.314  30.557  26.588  1.00  0.00    -0.237 OA
ATOM     91  O   UNL A   1      35.057  28.903  26.086  1.00  0.00    -0.744 OA
ENDBRANCH  85  88
ENDBRANCH  57  81
BRANCH  69  92
ATOM     92  C   UNL A   1      39.743  32.513  35.697  1.00  0.00     0.023 A 
ATOM     93  C   UNL A   1      38.787  32.105  36.648  1.00  0.00     0.012 A 
ATOM     94  C   UNL A   1      40.341  33.784  35.819  1.00  0.00     0.148 A 
ATOM     95  C   UNL A   1      38.415  32.957  37.688  1.00  0.00     0.002 A 
ATOM     96  C   UNL A   1      40.004  34.606  36.887  1.00  0.00     0.091 A 
ATOM     97  F   UNL A   1      41.239  34.159  34.896  1.00  0.00    -0.205 F 
ATOM     98  C   UNL A   1      39.032  34.199  37.816  1.00  0.00     0.022 A 
BRANCH  96  99
ATOM     99  S   UNL A   1      40.818  36.179  37.190  1.00  0.00     0.127 S 
ATOM    100  O   UNL A   1      41.321  36.514  35.858  1.00  0.00    -0.237 OA
ATOM    101  O   UNL A   1      39.711  37.016  37.653  1.00  0.00    -0.237 OA
ATOM    102  O   UNL A   1      41.841  35.917  38.194  1.00  0.00    -0.744 OA
ENDBRANCH  96  99
ENDBRANCH  69  92
ENDBRANCH  43  44
ENDBRANCH  36  38
ENDBRANCH  35  36
ENDBRANCH  34  35
ENDBRANCH  33  34
ENDBRANCH  32  33
ENDBRANCH  31  32
ENDBRANCH  30  31
ENDBRANCH   1  30
TORSDOF 28
ENDMDL
MODEL 2
REMARK VINA RESULT:      -8.8      4.969      6.683
REMARK SMILES O=C(OCCOCCOCCOCCOC(=O)c1ccc(-c2c3nc(c(-c4cccc(S(=O)(=O)[O-])c4F)c4ccc([nH]4)c(-c4cccc(S(=O)(=O)[O-])c4F)c4nc(c(-c5cccc(S(=O)(=O)[O-])c5F)c5ccc2[nH]5)C=C4)C=C3)cc1)c1ccc(N[C@H]2OC[C@@H](O)[C@@H](O)[C@H]2O)cc1
REMARK SMILES IDX 9 1 8 2 7 3 6 4 5 5 4 6 3 7 2 8 1 9 81 10 82 11 96 12 83 13
REMARK SMILES IDX 95 14 84 15 85 16 86 18 87 19 93 20 88 21 91 22 89 23 94 24
REMARK SMILES IDX 92 26 90 28 10 30 11 31 12 32 13 33 14 34 15 35 16 36 17 37
REMARK SMILES IDX 18 38 19 39 80 40 20 41 79 42 21 43 22 44 23 45 73 46 24 47
REMARK SMILES IDX 78 48 72 49 74 50 25 51 77 52 71 53 70 54 26 56 58 57 38 58
REMARK SMILES IDX 57 59 39 60 42 61 56 62 75 63 40 64 41 65 55 67 76 68 43 69
REMARK SMILES IDX 27 70 28 71 36 72 29 73 31 74 37 75 30 76 32 77 33 78 34 79
REMARK SMILES IDX 35 80 59 81 60 82 68 83 61 84 63 85 69 86 62 87 64 88 65 89
REMARK SMILES IDX 66 90 67 91 44 92 45 93 53 94 46 95 48 96 54 97 47 98 49 99
REMARK SMILES IDX 50 100 51 101 52 102
REMARK H PARENT 85 17 94 25 92 27 90 29 74 55 42 66
REMARK Flexibility Score: inf
ROOT
ATOM      1  O   UNL A   1      43.006  21.684  26.383  1.00  0.00    -0.377 OA
ENDROOT
BRANCH   1   2
ATOM      2  C   UNL A   1      42.068  21.024  27.234  1.00  0.00     0.188 C 
BRANCH   2   3
ATOM      3  C   UNL A   1      41.330  21.922  28.231  1.00  0.00     0.188 C 
BRANCH   3   4
ATOM      4  O   UNL A   1      40.440  22.787  27.531  1.00  0.00    -0.376 OA
BRANCH   4   5
ATOM      5  C   UNL A   1      40.585  24.187  27.712  1.00  0.00     0.202 C 
BRANCH   5   6
ATOM      6  C   UNL A   1      39.639  25.077  26.909  1.00  0.00     0.261 C 
BRANCH   6   7
ATOM      7  O   UNL A   1      39.260  26.307  27.556  1.00  0.00    -0.460 OA
BRANCH   7   8
ATOM      8  C   UNL A   1      39.944  27.473  27.637  1.00  0.00     0.338 C 
ATOM      9  O   UNL A   1      40.639  27.849  26.697  1.00  0.00    -0.246 OA
BRANCH   8  10
ATOM     10  C   UNL A   1      39.856  28.351  28.828  1.00  0.00     0.060 A 
ATOM     11  C   UNL A   1      40.569  29.530  28.935  1.00  0.00     0.018 A 
ATOM     12  C   UNL A   1      38.882  28.092  29.796  1.00  0.00     0.018 A 
ATOM     13  C   UNL A   1      40.439  30.357  30.039  1.00  0.00     0.026 A 
ATOM     14  C   UNL A   1      38.701  28.969  30.883  1.00  0.00     0.026 A 
ATOM     15  C   UNL A   1      39.505  30.103  31.042  1.00  0.00     0.036 A 
BRANCH  15  16
ATOM     16  N   UNL A   1      39.313  30.984  32.097  1.00  0.00    -0.358 N 
ATOM     17  H   UNL A   1      39.852  30.894  32.916  1.00  0.00     0.163 HD
BRANCH  16  18
ATOM     18  C   UNL A   1      38.318  32.041  31.994  1.00  0.00     0.244 C 
ATOM     19  O   UNL A   1      37.559  31.816  30.799  1.00  0.00    -0.353 OA
ATOM     20  C   UNL A   1      37.331  32.007  33.173  1.00  0.00     0.195 C 
ATOM     21  C   UNL A   1      36.710  32.925  30.483  1.00  0.00     0.197 C 
ATOM     22  C   UNL A   1      36.308  33.139  32.957  1.00  0.00     0.178 C 
ATOM     23  C   UNL A   1      35.644  33.072  31.567  1.00  0.00     0.171 C 
BRANCH  20  24
ATOM     24  O   UNL A   1      36.655  30.729  33.214  1.00  0.00    -0.386 OA
ATOM     25  H   UNL A   1      37.022  30.191  33.932  1.00  0.00     0.211 HD
ENDBRANCH  20  24
BRANCH  22  26
ATOM     26  O   UNL A   1      35.310  33.097  33.978  1.00  0.00    -0.387 OA
ATOM     27  H   UNL A   1      35.619  33.591  34.754  1.00  0.00     0.211 HD
ENDBRANCH  22  26
BRANCH  23  28
ATOM     28  O   UNL A   1      34.752  31.947  31.506  1.00  0.00    -0.388 OA
ATOM     29  H   UNL A   1      33.836  32.258  31.562  1.00  0.00     0.211 HD
ENDBRANCH  23  28
ENDBRANCH  16  18
ENDBRANCH  15  16
ENDBRANCH   8  10
ENDBRANCH   7   8
ENDBRANCH   6   7
ENDBRANCH   5   6
ENDBRANCH   4   5
ENDBRANCH   3   4
ENDBRANCH   2   3
ENDBRANCH   1   2
BRANCH   1  30
ATOM     30  C   UNL A   1      43.523  22.925  26.854  1.00  0.00     0.188 C 
BRANCH  30  31
ATOM     31  C   UNL A   1      44.984  22.949  27.360  1.00  0.00     0.188 C 
BRANCH  31  32
ATOM     32  O   UNL A   1      45.795  23.920  26.723  1.00  0.00    -0.376 OA
BRANCH  32  33
ATOM     33  C   UNL A   1      46.478  23.543  25.535  1.00  0.00     0.202 C 
BRANCH  33  34
ATOM     34  C   UNL A   1      46.796  24.549  24.407  1.00  0.00     0.261 C 
BRANCH  34  35
ATOM     35  O   UNL A   1      47.666  25.643  24.714  1.00  0.00    -0.460 OA
BRANCH  35  36
ATOM     36  C   UNL A   1      47.228  26.905  24.472  1.00  0.00     0.338 C 
ATOM     37  O   UNL A   1      47.107  27.439  23.400  1.00  0.00    -0.246 OA
BRANCH  36  38
ATOM     38  C   UNL A   1      46.666  27.409  25.759  1.00  0.00     0.060 A 
ATOM     39  C   UNL A   1      45.270  27.458  25.893  1.00  0.00     0.016 A 
ATOM     40  C   UNL A   1      47.487  27.686  26.858  1.00  0.00     0.016 A 
ATOM     41  C   UNL A   1      44.694  27.797  27.121  1.00  0.00     0.010 A 
ATOM     42  C   UNL A   1      46.910  28.053  28.078  1.00  0.00     0.010 A 
ATOM     43  C   UNL A   1      45.511  28.136  28.208  1.00  0.00    -0.014 A 
BRANCH  43  44
ATOM     44  C   UNL A   1      44.924  28.837  29.376  1.00  0.00     0.031 A 
ATOM     45  C   UNL A   1      44.721  28.029  30.628  1.00  0.00     0.074 A 
ATOM     46  C   UNL A   1      44.557  30.131  29.341  1.00  0.00     0.049 A 
ATOM     47  N   UNL A   1      44.184  28.376  31.766  1.00  0.00    -0.248 NA
ATOM     48  C   UNL A   1      45.187  26.631  30.583  1.00  0.00     0.031 C 
ATOM     49  C   UNL A   1      44.700  31.025  28.195  1.00  0.00     0.029 A 
ATOM     50  N   UNL A   1      43.953  30.908  30.301  1.00  0.00    -0.354 N 
ATOM     51  C   UNL A   1      44.214  27.234  32.557  1.00  0.00     0.074 A 
ATOM     52  C   UNL A   1      44.817  26.182  31.770  1.00  0.00     0.031 C 
ATOM     53  C   UNL A   1      44.159  32.218  28.504  1.00  0.00     0.029 A 
ATOM     54  C   UNL A   1      43.609  32.164  29.859  1.00  0.00     0.049 A 
ATOM     55  H   UNL A   1      43.782  30.594  31.219  1.00  0.00     0.167 HD
ATOM     56  C   UNL A   1      43.785  27.071  33.830  1.00  0.00     0.034 A 
ATOM     57  C   UNL A   1      42.903  33.140  30.466  1.00  0.00     0.034 A 
ATOM     58  C   UNL A   1      43.187  28.113  34.614  1.00  0.00     0.049 A 
ATOM     59  C   UNL A   1      42.405  32.928  31.877  1.00  0.00     0.074 A 
ATOM     60  C   UNL A   1      42.767  28.063  35.930  1.00  0.00     0.029 A 
ATOM     61  N   UNL A   1      42.897  29.385  34.147  1.00  0.00    -0.354 N 
ATOM     62  N   UNL A   1      42.558  31.888  32.660  1.00  0.00    -0.248 NA
ATOM     63  C   UNL A   1      41.661  34.036  32.498  1.00  0.00     0.031 C 
ATOM     64  C   UNL A   1      42.187  29.294  36.248  1.00  0.00     0.029 A 
ATOM     65  C   UNL A   1      42.286  30.125  35.143  1.00  0.00     0.049 A 
ATOM     66  H   UNL A   1      43.097  29.713  33.240  1.00  0.00     0.167 HD
ATOM     67  C   UNL A   1      41.965  32.228  33.873  1.00  0.00     0.074 A 
ATOM     68  C   UNL A   1      41.463  33.578  33.727  1.00  0.00     0.031 C 
ATOM     69  C   UNL A   1      41.839  31.487  35.002  1.00  0.00     0.034 A 
BRANCH  56  70
ATOM     70  C   UNL A   1      43.951  25.710  34.445  1.00  0.00     0.023 A 
ATOM     71  C   UNL A   1      42.888  24.784  34.402  1.00  0.00     0.012 A 
ATOM     72  C   UNL A   1      45.168  25.339  35.048  1.00  0.00     0.148 A 
ATOM     73  C   UNL A   1      43.022  23.523  34.982  1.00  0.00     0.002 A 
ATOM     74  C   UNL A   1      45.310  24.064  35.578  1.00  0.00     0.091 A 
ATOM     75  F   UNL A   1      46.154  26.245  35.106  1.00  0.00    -0.205 F 
ATOM     76  C   UNL A   1      44.236  23.161  35.560  1.00  0.00     0.022 A 
BRANCH  74  77
ATOM     77  S   UNL A   1      46.859  23.475  36.272  1.00  0.00     0.127 S 
ATOM     78  O   UNL A   1      47.041  24.385  37.401  1.00  0.00    -0.237 OA
ATOM     79  O   UNL A   1      46.524  22.100  36.643  1.00  0.00    -0.237 OA
ATOM     80  O   UNL A   1      47.846  23.594  35.207  1.00  0.00    -0.744 OA
ENDBRANCH  74  77
ENDBRANCH  56  70
BRANCH  57  81
ATOM     81  C   UNL A   1      42.624  34.419  29.750  1.00  0.00     0.023 A 
ATOM     82  C   UNL A   1      41.423  34.575  29.033  1.00  0.00     0.012 A 
ATOM     83  C   UNL A   1      43.547  35.484  29.780  1.00  0.00     0.148 A 
ATOM     84  C   UNL A   1      41.157  35.756  28.336  1.00  0.00     0.002 A 
ATOM     85  C   UNL A   1      43.251  36.677  29.133  1.00  0.00     0.091 A 
ATOM     86  F   UNL A   1      44.694  35.309  30.451  1.00  0.00    -0.205 F 
ATOM     87  C   UNL A   1      42.064  36.810  28.395  1.00  0.00     0.022 A 
BRANCH  85  88
ATOM     88  S   UNL A   1      44.298  38.131  29.260  1.00  0.00     0.127 S 
ATOM     89  O   UNL A   1      43.888  38.683  30.548  1.00  0.00    -0.237 OA
ATOM     90  O   UNL A   1      45.636  37.537  29.240  1.00  0.00    -0.237 OA
ATOM     91  O   UNL A   1      43.984  38.946  28.095  1.00  0.00    -0.744 OA
ENDBRANCH  85  88
ENDBRANCH  57  81
BRANCH  69  92
ATOM     92  C   UNL A   1      41.177  32.120  36.200  1.00  0.00     0.023 A 
ATOM     93  C   UNL A   1      41.899  33.009  37.020  1.00  0.00     0.012 A 
ATOM     94  C   UNL A   1      39.804  31.911  36.448  1.00  0.00     0.148 A 
ATOM     95  C   UNL A   1      41.273  33.659  38.083  1.00  0.00     0.002 A 
ATOM     96  C   UNL A   1      39.176  32.602  37.476  1.00  0.00     0.091 A 
ATOM     97  F   UNL A   1      39.138  31.051  35.664  1.00  0.00    -0.205 F 
ATOM     98  C   UNL A   1      39.911  33.467  38.303  1.00  0.00     0.022 A 
BRANCH  96  99
ATOM     99  S   UNL A   1      37.406  32.496  37.769  1.00  0.00     0.127 S 
ATOM    100  O   UNL A   1      37.251  33.327  38.962  1.00  0.00    -0.237 OA
ATOM    101  O   UNL A   1      36.855  33.077  36.545  1.00  0.00    -0.237 OA
ATOM    102  O   UNL A   1      37.112  31.081  37.954  1.00  0.00    -0.744 OA
ENDBRANCH  96  99
ENDBRANCH  69  92
ENDBRANCH  43  44
ENDBRANCH  36  38
ENDBRANCH  35  36
ENDBRANCH  34  35
ENDBRANCH  33  34
ENDBRANCH  32  33
ENDBRANCH  31  32
ENDBRANCH  30  31
ENDBRANCH   1  30
TORSDOF 28
ENDMDL
MODEL 3
REMARK VINA RESULT:      -8.6      5.707     12.765
REMARK SMILES O=C(OCCOCCOCCOCCOC(=O)c1ccc(-c2c3nc(c(-c4cccc(S(=O)(=O)[O-])c4F)c4ccc([nH]4)c(-c4cccc(S(=O)(=O)[O-])c4F)c4nc(c(-c5cccc(S(=O)(=O)[O-])c5F)c5ccc2[nH]5)C=C4)C=C3)cc1)c1ccc(N[C@H]2OC[C@@H](O)[C@@H](O)[C@H]2O)cc1
REMARK SMILES IDX 9 1 8 2 7 3 6 4 5 5 4 6 3 7 2 8 1 9 81 10 82 11 96 12 83 13
REMARK SMILES IDX 95 14 84 15 85 16 86 18 87 19 93 20 88 21 91 22 89 23 94 24
REMARK SMILES IDX 92 26 90 28 10 30 11 31 12 32 13 33 14 34 15 35 16 36 17 37
REMARK SMILES IDX 18 38 19 39 80 40 20 41 79 42 21 43 22 44 23 45 73 46 24 47
REMARK SMILES IDX 78 48 72 49 74 50 25 51 77 52 71 53 70 54 26 56 58 57 38 58
REMARK SMILES IDX 57 59 39 60 42 61 56 62 75 63 40 64 41 65 55 67 76 68 43 69
REMARK SMILES IDX 27 70 28 71 36 72 29 73 31 74 37 75 30 76 32 77 33 78 34 79
REMARK SMILES IDX 35 80 59 81 60 82 68 83 61 84 63 85 69 86 62 87 64 88 65 89
REMARK SMILES IDX 66 90 67 91 44 92 45 93 53 94 46 95 48 96 54 97 47 98 49 99
REMARK SMILES IDX 50 100 51 101 52 102
REMARK H PARENT 85 17 94 25 92 27 90 29 74 55 42 66
REMARK Flexibility Score: inf
ROOT
ATOM      1  O   UNL A   1      42.206  35.654  31.912  1.00  0.00    -0.377 OA
ENDROOT
BRANCH   1   2
ATOM      2  C   UNL A   1      41.517  34.782  32.810  1.00  0.00     0.188 C 
BRANCH   2   3
ATOM      3  C   UNL A   1      42.084  34.712  34.231  1.00  0.00     0.188 C 
BRANCH   3   4
ATOM      4  O   UNL A   1      41.367  33.739  34.986  1.00  0.00    -0.376 OA
BRANCH   4   5
ATOM      5  C   UNL A   1      41.898  32.426  35.063  1.00  0.00     0.202 C 
BRANCH   5   6
ATOM      6  C   UNL A   1      41.384  31.550  36.203  1.00  0.00     0.261 C 
BRANCH   6   7
ATOM      7  O   UNL A   1      40.061  31.872  36.673  1.00  0.00    -0.460 OA
BRANCH   7   8
ATOM      8  C   UNL A   1      38.864  31.442  36.212  1.00  0.00     0.338 C 
ATOM      9  O   UNL A   1      38.611  30.240  36.175  1.00  0.00    -0.246 OA
BRANCH   8  10
ATOM     10  C   UNL A   1      37.809  32.385  35.772  1.00  0.00     0.060 A 
ATOM     11  C   UNL A   1      37.150  32.252  34.565  1.00  0.00     0.018 A 
ATOM     12  C   UNL A   1      37.318  33.330  36.678  1.00  0.00     0.018 A 
ATOM     13  C   UNL A   1      36.136  33.122  34.193  1.00  0.00     0.026 A 
ATOM     14  C   UNL A   1      36.242  34.168  36.327  1.00  0.00     0.026 A 
ATOM     15  C   UNL A   1      35.654  34.101  35.060  1.00  0.00     0.036 A 
BRANCH  15  16
ATOM     16  N   UNL A   1      34.576  34.906  34.718  1.00  0.00    -0.358 N 
ATOM     17  H   UNL A   1      33.816  34.998  35.337  1.00  0.00     0.163 HD
BRANCH  16  18
ATOM     18  C   UNL A   1      34.568  35.614  33.447  1.00  0.00     0.244 C 
ATOM     19  O   UNL A   1      33.769  34.858  32.527  1.00  0.00    -0.353 OA
ATOM     20  C   UNL A   1      33.920  37.003  33.576  1.00  0.00     0.195 C 
ATOM     21  C   UNL A   1      33.886  35.345  31.186  1.00  0.00     0.197 C 
ATOM     22  C   UNL A   1      33.934  37.655  32.180  1.00  0.00     0.178 C 
ATOM     23  C   UNL A   1      33.297  36.752  31.105  1.00  0.00     0.171 C 
BRANCH  20  24
ATOM     24  O   UNL A   1      32.559  36.871  34.048  1.00  0.00    -0.386 OA
ATOM     25  H   UNL A   1      32.069  36.276  33.460  1.00  0.00     0.211 HD
ENDBRANCH  20  24
BRANCH  22  26
ATOM     26  O   UNL A   1      33.260  38.914  32.222  1.00  0.00    -0.387 OA
ATOM     27  H   UNL A   1      33.907  39.631  32.122  1.00  0.00     0.211 HD
ENDBRANCH  22  26
BRANCH  23  28
ATOM     28  O   UNL A   1      31.876  36.681  31.307  1.00  0.00    -0.388 OA
ATOM     29  H   UNL A   1      31.680  36.746  32.254  1.00  0.00     0.211 HD
ENDBRANCH  23  28
ENDBRANCH  16  18
ENDBRANCH  15  16
ENDBRANCH   8  10
ENDBRANCH   7   8
ENDBRANCH   6   7
ENDBRANCH   5   6
ENDBRANCH   4   5
ENDBRANCH   3   4
ENDBRANCH   2   3
ENDBRANCH   1   2
BRANCH   1  30
ATOM     30  C   UNL A   1      42.698  35.066  30.713  1.00  0.00     0.188 C 
BRANCH  30  31
ATOM     31  C   UNL A   1      43.194  36.015  29.597  1.00  0.00     0.188 C 
BRANCH  31  32
ATOM     32  O   UNL A   1      43.516  37.316  30.054  1.00  0.00    -0.376 OA
BRANCH  32  33
ATOM     33  C   UNL A   1      44.270  38.158  29.192  1.00  0.00     0.202 C 
BRANCH  33  34
ATOM     34  C   UNL A   1      45.807  38.067  29.078  1.00  0.00     0.261 C 
BRANCH  34  35
ATOM     35  O   UNL A   1      46.492  37.188  29.976  1.00  0.00    -0.460 OA
BRANCH  35  36
ATOM     36  C   UNL A   1      47.407  36.326  29.465  1.00  0.00     0.338 C 
ATOM     37  O   UNL A   1      48.605  36.439  29.492  1.00  0.00    -0.246 OA
BRANCH  36  38
ATOM     38  C   UNL A   1      46.662  35.083  29.109  1.00  0.00     0.060 A 
ATOM     39  C   UNL A   1      46.545  34.083  30.086  1.00  0.00     0.016 A 
ATOM     40  C   UNL A   1      45.971  34.966  27.898  1.00  0.00     0.016 A 
ATOM     41  C   UNL A   1      45.749  32.958  29.849  1.00  0.00     0.010 A 
ATOM     42  C   UNL A   1      45.196  33.828  27.651  1.00  0.00     0.010 A 
ATOM     43  C   UNL A   1      45.104  32.806  28.614  1.00  0.00    -0.014 A 
BRANCH  43  44
ATOM     44  C   UNL A   1      44.571  31.478  28.224  1.00  0.00     0.031 A 
ATOM     45  C   UNL A   1      43.237  31.080  28.797  1.00  0.00     0.074 A 
ATOM     46  C   UNL A   1      45.237  30.633  27.417  1.00  0.00     0.049 A 
ATOM     47  N   UNL A   1      42.573  29.965  28.664  1.00  0.00    -0.248 NA
ATOM     48  C   UNL A   1      42.567  32.085  29.642  1.00  0.00     0.031 C 
ATOM     49  C   UNL A   1      46.533  30.895  26.795  1.00  0.00     0.029 A 
ATOM     50  N   UNL A   1      44.919  29.359  27.009  1.00  0.00    -0.354 N 
ATOM     51  C   UNL A   1      41.427  30.119  29.435  1.00  0.00     0.074 A 
ATOM     52  C   UNL A   1      41.487  31.432  30.036  1.00  0.00     0.031 C 
ATOM     53  C   UNL A   1      46.919  29.798  26.118  1.00  0.00     0.029 A 
ATOM     54  C   UNL A   1      45.912  28.749  26.279  1.00  0.00     0.049 A 
ATOM     55  H   UNL A   1      44.061  28.925  27.219  1.00  0.00     0.167 HD
ATOM     56  C   UNL A   1      40.408  29.250  29.623  1.00  0.00     0.034 A 
ATOM     57  C   UNL A   1      46.009  27.481  25.826  1.00  0.00     0.034 A 
ATOM     58  C   UNL A   1      40.344  27.946  29.028  1.00  0.00     0.049 A 
ATOM     59  C   UNL A   1      44.874  26.516  26.074  1.00  0.00     0.074 A 
ATOM     60  C   UNL A   1      39.330  27.011  29.115  1.00  0.00     0.029 A 
ATOM     61  N   UNL A   1      41.348  27.381  28.258  1.00  0.00    -0.354 N 
ATOM     62  N   UNL A   1      43.736  26.719  26.692  1.00  0.00    -0.248 NA
ATOM     63  C   UNL A   1      45.024  25.155  25.535  1.00  0.00     0.031 C 
ATOM     64  C   UNL A   1      39.737  25.863  28.429  1.00  0.00     0.029 A 
ATOM     65  C   UNL A   1      40.986  26.101  27.878  1.00  0.00     0.049 A 
ATOM     66  H   UNL A   1      42.193  27.825  28.016  1.00  0.00     0.167 HD
ATOM     67  C   UNL A   1      43.021  25.528  26.586  1.00  0.00     0.074 A 
ATOM     68  C   UNL A   1      43.849  24.612  25.829  1.00  0.00     0.031 C 
ATOM     69  C   UNL A   1      41.797  25.218  27.079  1.00  0.00     0.034 A 
BRANCH  56  70
ATOM     70  C   UNL A   1      39.281  29.690  30.516  1.00  0.00     0.023 A 
ATOM     71  C   UNL A   1      39.213  29.226  31.845  1.00  0.00     0.012 A 
ATOM     72  C   UNL A   1      38.301  30.584  30.043  1.00  0.00     0.148 A 
ATOM     73  C   UNL A   1      38.166  29.614  32.679  1.00  0.00     0.002 A 
ATOM     74  C   UNL A   1      37.289  31.005  30.896  1.00  0.00     0.091 A 
ATOM     75  F   UNL A   1      38.367  30.988  28.767  1.00  0.00    -0.205 F 
ATOM     76  C   UNL A   1      37.211  30.511  32.208  1.00  0.00     0.022 A 
BRANCH  74  77
ATOM     77  S   UNL A   1      36.060  32.220  30.407  1.00  0.00     0.127 S 
ATOM     78  O   UNL A   1      34.896  31.789  31.179  1.00  0.00    -0.237 OA
ATOM     79  O   UNL A   1      36.667  33.470  30.863  1.00  0.00    -0.237 OA
ATOM     80  O   UNL A   1      35.930  32.100  28.961  1.00  0.00    -0.744 OA
ENDBRANCH  74  77
ENDBRANCH  56  70
BRANCH  57  81
ATOM     81  C   UNL A   1      47.226  27.044  25.081  1.00  0.00     0.023 A 
ATOM     82  C   UNL A   1      48.109  26.115  25.663  1.00  0.00     0.012 A 
ATOM     83  C   UNL A   1      47.508  27.545  23.794  1.00  0.00     0.148 A 
ATOM     84  C   UNL A   1      49.265  25.713  24.990  1.00  0.00     0.002 A 
ATOM     85  C   UNL A   1      48.630  27.098  23.107  1.00  0.00     0.091 A 
ATOM     86  F   UNL A   1      46.666  28.444  23.266  1.00  0.00    -0.205 F 
ATOM     87  C   UNL A   1      49.519  26.195  23.709  1.00  0.00     0.022 A 
BRANCH  85  88
ATOM     88  S   UNL A   1      48.970  27.563  21.405  1.00  0.00     0.127 S 
ATOM     89  O   UNL A   1      49.108  29.013  21.514  1.00  0.00    -0.237 OA
ATOM     90  O   UNL A   1      50.216  26.842  21.144  1.00  0.00    -0.237 OA
ATOM     91  O   UNL A   1      47.829  27.093  20.632  1.00  0.00    -0.744 OA
ENDBRANCH  85  88
ENDBRANCH  57  81
BRANCH  69  92
ATOM     92  C   UNL A   1      41.235  23.850  26.783  1.00  0.00     0.023 A 
ATOM     93  C   UNL A   1      41.955  22.696  27.148  1.00  0.00     0.012 A 
ATOM     94  C   UNL A   1      39.942  23.714  26.236  1.00  0.00     0.148 A 
ATOM     95  C   UNL A   1      41.408  21.428  26.950  1.00  0.00     0.002 A 
ATOM     96  C   UNL A   1      39.384  22.451  26.090  1.00  0.00     0.091 A 
ATOM     97  F   UNL A   1      39.279  24.825  25.882  1.00  0.00    -0.205 F 
ATOM     98  C   UNL A   1      40.120  21.305  26.434  1.00  0.00     0.022 A 
BRANCH  96  99
ATOM     99  S   UNL A   1      37.695  22.201  25.530  1.00  0.00     0.127 S 
ATOM    100  O   UNL A   1      36.927  22.727  26.657  1.00  0.00    -0.237 OA
ATOM    101  O   UNL A   1      37.646  23.024  24.321  1.00  0.00    -0.237 OA
ATOM    102  O   UNL A   1      37.555  20.771  25.294  1.00  0.00    -0.744 OA
ENDBRANCH  96  99
ENDBRANCH  69  92
ENDBRANCH  43  44
ENDBRANCH  36  38
ENDBRANCH  35  36
ENDBRANCH  34  35
ENDBRANCH  33  34
ENDBRANCH  32  33
ENDBRANCH  31  32
ENDBRANCH  30  31
ENDBRANCH   1  30
TORSDOF 28
ENDMDL
