MODEL 1
REMARK VINA RESULT:      -8.1      0.000      0.000
REMARK SMILES C[NH2+][C@]1(C(=O)OCCOCCOCCOCCOC(=O)c2ccc(-c3c4nc(c(-c5cccc(S(=O)(=O)[O-])c5F)c5ccc([nH]5)c(-c5cccc(S(=O)(=O)[O-])c5F)c5nc(c(-c6cccc(S(=O)(=O)[O-])c6F)c6ccc3[nH]6)C=C5)C=C4)cc2)CCC[C@@H](Sc2nccn2C)C1
REMARK SMILES IDX 13 1 12 2 11 3 10 4 9 5 8 6 7 7 6 8 4 9 5 10 3 11 84 12
REMARK SMILES IDX 95 13 85 14 87 15 86 16 2 17 1 18 88 21 89 22 90 23 93 24
REMARK SMILES IDX 91 25 92 26 94 27 14 28 15 29 16 30 17 31 18 32 19 33 20 34
REMARK SMILES IDX 21 35 22 36 83 37 23 38 82 39 24 40 25 41 26 42 76 43 27 44
REMARK SMILES IDX 81 45 75 46 77 47 28 48 80 49 74 50 73 51 29 53 61 54 41 55
REMARK SMILES IDX 60 56 42 57 45 58 59 59 78 60 43 61 44 62 58 64 79 65 46 66
REMARK SMILES IDX 30 67 31 68 39 69 32 70 34 71 40 72 33 73 35 74 36 75 37 76
REMARK SMILES IDX 38 77 62 78 63 79 71 80 64 81 66 82 72 83 65 84 67 85 68 86
REMARK SMILES IDX 69 87 70 88 47 89 48 90 56 91 49 92 51 93 57 94 50 95 52 96
REMARK SMILES IDX 53 97 54 98 55 99
REMARK H PARENT 2 19 2 20 77 52 45 63
REMARK Flexibility Score: inf
ROOT
ATOM      1  C   UNL A   1      36.632  32.820  32.197  1.00  0.00     0.188 C 
ENDROOT
BRANCH   1   2
ATOM      2  O   UNL A   1      37.916  33.377  31.962  1.00  0.00    -0.377 OA
BRANCH   2   3
ATOM      3  C   UNL A   1      38.183  33.842  30.658  1.00  0.00     0.188 C 
BRANCH   3   4
ATOM      4  C   UNL A   1      39.631  34.274  30.386  1.00  0.00     0.188 C 
BRANCH   4   5
ATOM      5  O   UNL A   1      39.984  34.923  29.176  1.00  0.00    -0.376 OA
BRANCH   5   6
ATOM      6  C   UNL A   1      41.273  35.497  29.009  1.00  0.00     0.202 C 
BRANCH   6   7
ATOM      7  C   UNL A   1      41.753  36.057  27.655  1.00  0.00     0.261 C 
BRANCH   7   8
ATOM      8  O   UNL A   1      42.937  36.879  27.643  1.00  0.00    -0.459 OA
BRANCH   8   9
ATOM      9  C   UNL A   1      42.748  38.203  27.867  1.00  0.00     0.368 C 
ATOM     10  O   UNL A   1      41.681  38.691  28.241  1.00  0.00    -0.245 OA
BRANCH   9  11
ATOM     11  C   UNL A   1      43.991  39.097  27.530  1.00  0.00     0.195 C 
ATOM     12  C   UNL A   1      45.245  38.451  26.878  1.00  0.00     0.081 C 
ATOM     13  C   UNL A   1      43.397  40.078  26.497  1.00  0.00     0.096 C 
ATOM     14  C   UNL A   1      46.277  39.485  26.415  1.00  0.00     0.008 C 
ATOM     15  C   UNL A   1      44.396  41.107  25.973  1.00  0.00     0.061 C 
ATOM     16  C   UNL A   1      45.675  40.468  25.423  1.00  0.00     0.015 C 
BRANCH  11  17
ATOM     17  N   UNL A   1      44.370  39.878  28.759  1.00  0.00    -0.335 N 
ATOM     18  C   UNL A   1      44.627  39.067  29.946  1.00  0.00     0.331 C 
ATOM     19  H   UNL A   1      45.215  40.409  28.549  1.00  0.00     0.347 HD
ATOM     20  H   UNL A   1      43.568  40.468  28.982  1.00  0.00     0.347 HD
ENDBRANCH  11  17
BRANCH  15  21
ATOM     21  S   UNL A   1      43.608  42.219  24.744  1.00  0.00    -0.084 SA
BRANCH  21  22
ATOM     22  C   UNL A   1      44.752  43.522  24.673  1.00  0.00     0.167 A 
ATOM     23  N   UNL A   1      45.126  44.251  25.699  1.00  0.00    -0.231 NA
ATOM     24  N   UNL A   1      45.339  43.946  23.514  1.00  0.00    -0.329 N 
ATOM     25  C   UNL A   1      45.962  45.208  25.181  1.00  0.00     0.132 A 
ATOM     26  C   UNL A   1      46.109  45.035  23.825  1.00  0.00     0.108 A 
ATOM     27  C   UNL A   1      45.196  43.411  22.185  1.00  0.00     0.152 C 
ENDBRANCH  21  22
ENDBRANCH  15  21
ENDBRANCH   9  11
ENDBRANCH   8   9
ENDBRANCH   7   8
ENDBRANCH   6   7
ENDBRANCH   5   6
ENDBRANCH   4   5
ENDBRANCH   3   4
ENDBRANCH   2   3
ENDBRANCH   1   2
BRANCH   1  28
ATOM     28  C   UNL A   1      35.408  33.710  31.912  1.00  0.00     0.188 C 
BRANCH  28  29
ATOM     29  O   UNL A   1      34.468  33.133  31.012  1.00  0.00    -0.376 OA
BRANCH  29  30
ATOM     30  C   UNL A   1      34.300  33.689  29.717  1.00  0.00     0.202 C 
BRANCH  30  31
ATOM     31  C   UNL A   1      35.452  33.580  28.702  1.00  0.00     0.261 C 
BRANCH  31  32
ATOM     32  O   UNL A   1      35.268  32.683  27.599  1.00  0.00    -0.460 OA
BRANCH  32  33
ATOM     33  C   UNL A   1      34.792  31.446  27.846  1.00  0.00     0.338 C 
ATOM     34  O   UNL A   1      33.656  31.044  27.657  1.00  0.00    -0.246 OA
BRANCH  33  35
ATOM     35  C   UNL A   1      35.948  30.585  28.178  1.00  0.00     0.060 A 
ATOM     36  C   UNL A   1      35.900  29.808  29.343  1.00  0.00     0.016 A 
ATOM     37  C   UNL A   1      37.059  30.524  27.333  1.00  0.00     0.016 A 
ATOM     38  C   UNL A   1      36.977  28.995  29.687  1.00  0.00     0.010 A 
ATOM     39  C   UNL A   1      38.152  29.734  27.694  1.00  0.00     0.010 A 
ATOM     40  C   UNL A   1      38.129  28.997  28.891  1.00  0.00    -0.014 A 
BRANCH  40  41
ATOM     41  C   UNL A   1      39.382  28.419  29.430  1.00  0.00     0.031 A 
ATOM     42  C   UNL A   1      39.995  29.071  30.639  1.00  0.00     0.074 A 
ATOM     43  C   UNL A   1      39.956  27.339  28.873  1.00  0.00     0.049 A 
ATOM     44  N   UNL A   1      41.103  28.781  31.266  1.00  0.00    -0.248 NA
ATOM     45  C   UNL A   1      39.256  30.209  31.216  1.00  0.00     0.031 C 
ATOM     46  C   UNL A   1      39.444  26.609  27.715  1.00  0.00     0.029 A 
ATOM     47  N   UNL A   1      41.117  26.685  29.200  1.00  0.00    -0.354 N 
ATOM     48  C   UNL A   1      41.211  29.715  32.290  1.00  0.00     0.074 A 
ATOM     49  C   UNL A   1      40.063  30.588  32.193  1.00  0.00     0.031 C 
ATOM     50  C   UNL A   1      40.308  25.627  27.405  1.00  0.00     0.029 A 
ATOM     51  C   UNL A   1      41.445  25.679  28.323  1.00  0.00     0.049 A 
ATOM     52  H   UNL A   1      41.663  26.913  29.986  1.00  0.00     0.167 HD
ATOM     53  C   UNL A   1      42.174  29.829  33.233  1.00  0.00     0.034 A 
ATOM     54  C   UNL A   1      42.552  24.911  28.253  1.00  0.00     0.034 A 
ATOM     55  C   UNL A   1      43.310  28.955  33.329  1.00  0.00     0.049 A 
ATOM     56  C   UNL A   1      43.632  25.084  29.291  1.00  0.00     0.074 A 
ATOM     57  C   UNL A   1      44.325  28.964  34.269  1.00  0.00     0.029 A 
ATOM     58  N   UNL A   1      43.593  27.927  32.442  1.00  0.00    -0.354 N 
ATOM     59  N   UNL A   1      43.675  25.905  30.313  1.00  0.00    -0.248 NA
ATOM     60  C   UNL A   1      44.805  24.204  29.184  1.00  0.00     0.031 C 
ATOM     61  C   UNL A   1      45.243  27.967  33.925  1.00  0.00     0.029 A 
ATOM     62  C   UNL A   1      44.775  27.306  32.801  1.00  0.00     0.049 A 
ATOM     63  H   UNL A   1      43.036  27.678  31.670  1.00  0.00     0.167 HD
ATOM     64  C   UNL A   1      44.854  25.612  30.993  1.00  0.00     0.074 A 
ATOM     65  C   UNL A   1      45.488  24.527  30.274  1.00  0.00     0.031 C 
ATOM     66  C   UNL A   1      45.369  26.194  32.105  1.00  0.00     0.034 A 
BRANCH  53  67
ATOM     67  C   UNL A   1      42.035  30.940  34.240  1.00  0.00     0.023 A 
ATOM     68  C   UNL A   1      41.405  30.696  35.477  1.00  0.00     0.012 A 
ATOM     69  C   UNL A   1      42.566  32.218  33.975  1.00  0.00     0.148 A 
ATOM     70  C   UNL A   1      41.275  31.714  36.421  1.00  0.00     0.002 A 
ATOM     71  C   UNL A   1      42.477  33.213  34.939  1.00  0.00     0.091 A 
ATOM     72  F   UNL A   1      43.139  32.436  32.783  1.00  0.00    -0.205 F 
ATOM     73  C   UNL A   1      41.819  32.968  36.156  1.00  0.00     0.022 A 
BRANCH  71  74
ATOM     74  S   UNL A   1      43.217  34.836  34.728  1.00  0.00     0.127 S 
ATOM     75  O   UNL A   1      42.705  35.223  33.413  1.00  0.00    -0.237 OA
ATOM     76  O   UNL A   1      42.645  35.580  35.850  1.00  0.00    -0.237 OA
ATOM     77  O   UNL A   1      44.657  34.635  34.799  1.00  0.00    -0.744 OA
ENDBRANCH  71  74
ENDBRANCH  53  67
BRANCH  54  78
ATOM     78  C   UNL A   1      42.694  23.901  27.166  1.00  0.00     0.023 A 
ATOM     79  C   UNL A   1      43.411  24.225  25.999  1.00  0.00     0.012 A 
ATOM     80  C   UNL A   1      42.125  22.619  27.288  1.00  0.00     0.148 A 
ATOM     81  C   UNL A   1      43.527  23.303  24.957  1.00  0.00     0.002 A 
ATOM     82  C   UNL A   1      42.293  21.685  26.273  1.00  0.00     0.091 A 
ATOM     83  F   UNL A   1      41.434  22.334  28.401  1.00  0.00    -0.205 F 
ATOM     84  C   UNL A   1      42.977  22.032  25.097  1.00  0.00     0.022 A 
BRANCH  82  85
ATOM     85  S   UNL A   1      41.725  19.987  26.418  1.00  0.00     0.127 S 
ATOM     86  O   UNL A   1      40.284  20.136  26.236  1.00  0.00    -0.237 OA
ATOM     87  O   UNL A   1      42.425  19.341  25.307  1.00  0.00    -0.237 OA
ATOM     88  O   UNL A   1      42.149  19.537  27.736  1.00  0.00    -0.744 OA
ENDBRANCH  82  85
ENDBRANCH  54  78
BRANCH  66  89
ATOM     89  C   UNL A   1      46.660  25.640  32.654  1.00  0.00     0.023 A 
ATOM     90  C   UNL A   1      47.896  26.147  32.207  1.00  0.00     0.012 A 
ATOM     91  C   UNL A   1      46.640  24.669  33.676  1.00  0.00     0.148 A 
ATOM     92  C   UNL A   1      49.093  25.668  32.740  1.00  0.00     0.002 A 
ATOM     93  C   UNL A   1      47.834  24.238  34.242  1.00  0.00     0.091 A 
ATOM     94  F   UNL A   1      45.454  24.190  34.078  1.00  0.00    -0.205 F 
ATOM     95  C   UNL A   1      49.061  24.725  33.765  1.00  0.00     0.022 A 
BRANCH  93  96
ATOM     96  S   UNL A   1      47.886  23.103  35.632  1.00  0.00     0.127 S 
ATOM     97  O   UNL A   1      49.302  22.735  35.663  1.00  0.00    -0.237 OA
ATOM     98  O   UNL A   1      47.454  23.953  36.741  1.00  0.00    -0.237 OA
ATOM     99  O   UNL A   1      46.969  22.020  35.305  1.00  0.00    -0.744 OA
ENDBRANCH  93  96
ENDBRANCH  66  89
ENDBRANCH  40  41
ENDBRANCH  33  35
ENDBRANCH  32  33
ENDBRANCH  31  32
ENDBRANCH  30  31
ENDBRANCH  29  30
ENDBRANCH  28  29
ENDBRANCH   1  28
TORSDOF 26
ENDMDL
MODEL 2
REMARK VINA RESULT:      -7.8      1.707      2.197
REMARK SMILES C[NH2+][C@]1(C(=O)OCCOCCOCCOCCOC(=O)c2ccc(-c3c4nc(c(-c5cccc(S(=O)(=O)[O-])c5F)c5ccc([nH]5)c(-c5cccc(S(=O)(=O)[O-])c5F)c5nc(c(-c6cccc(S(=O)(=O)[O-])c6F)c6ccc3[nH]6)C=C5)C=C4)cc2)CCC[C@@H](Sc2nccn2C)C1
REMARK SMILES IDX 13 1 12 2 11 3 10 4 9 5 8 6 7 7 6 8 4 9 5 10 3 11 84 12
REMARK SMILES IDX 95 13 85 14 87 15 86 16 2 17 1 18 88 21 89 22 90 23 93 24
REMARK SMILES IDX 91 25 92 26 94 27 14 28 15 29 16 30 17 31 18 32 19 33 20 34
REMARK SMILES IDX 21 35 22 36 83 37 23 38 82 39 24 40 25 41 26 42 76 43 27 44
REMARK SMILES IDX 81 45 75 46 77 47 28 48 80 49 74 50 73 51 29 53 61 54 41 55
REMARK SMILES IDX 60 56 42 57 45 58 59 59 78 60 43 61 44 62 58 64 79 65 46 66
REMARK SMILES IDX 30 67 31 68 39 69 32 70 34 71 40 72 33 73 35 74 36 75 37 76
REMARK SMILES IDX 38 77 62 78 63 79 71 80 64 81 66 82 72 83 65 84 67 85 68 86
REMARK SMILES IDX 69 87 70 88 47 89 48 90 56 91 49 92 51 93 57 94 50 95 52 96
REMARK SMILES IDX 53 97 54 98 55 99
REMARK H PARENT 2 19 2 20 77 52 45 63
REMARK Flexibility Score: inf
ROOT
ATOM      1  C   UNL A   1      36.493  32.646  32.520  1.00  0.00     0.188 C 
ENDROOT
BRANCH   1   2
ATOM      2  O   UNL A   1      37.760  33.267  32.380  1.00  0.00    -0.377 OA
BRANCH   2   3
ATOM      3  C   UNL A   1      38.105  33.735  31.095  1.00  0.00     0.188 C 
BRANCH   3   4
ATOM      4  C   UNL A   1      39.570  34.156  30.908  1.00  0.00     0.188 C 
BRANCH   4   5
ATOM      5  O   UNL A   1      40.092  34.430  29.618  1.00  0.00    -0.376 OA
BRANCH   5   6
ATOM      6  C   UNL A   1      41.145  35.367  29.445  1.00  0.00     0.202 C 
BRANCH   6   7
ATOM      7  C   UNL A   1      42.306  35.125  28.460  1.00  0.00     0.261 C 
BRANCH   7   8
ATOM      8  O   UNL A   1      43.100  36.258  28.057  1.00  0.00    -0.459 OA
BRANCH   8   9
ATOM      9  C   UNL A   1      44.116  36.001  27.197  1.00  0.00     0.368 C 
ATOM     10  O   UNL A   1      44.208  34.970  26.530  1.00  0.00    -0.245 OA
BRANCH   9  11
ATOM     11  C   UNL A   1      45.234  37.100  27.175  1.00  0.00     0.195 C 
ATOM     12  C   UNL A   1      46.382  37.004  26.132  1.00  0.00     0.081 C 
ATOM     13  C   UNL A   1      44.419  38.367  26.837  1.00  0.00     0.096 C 
ATOM     14  C   UNL A   1      47.263  38.257  26.097  1.00  0.00     0.008 C 
ATOM     15  C   UNL A   1      45.257  39.639  26.752  1.00  0.00     0.061 C 
ATOM     16  C   UNL A   1      46.447  39.505  25.796  1.00  0.00     0.015 C 
BRANCH  11  17
ATOM     17  N   UNL A   1      45.787  37.252  28.566  1.00  0.00    -0.335 N 
ATOM     18  C   UNL A   1      46.808  36.272  28.931  1.00  0.00     0.331 C 
ATOM     19  H   UNL A   1      46.199  38.182  28.644  1.00  0.00     0.347 HD
ATOM     20  H   UNL A   1      45.005  37.103  29.203  1.00  0.00     0.347 HD
ENDBRANCH  11  17
BRANCH  15  21
ATOM     21  S   UNL A   1      44.211  41.088  26.335  1.00  0.00    -0.084 SA
BRANCH  21  22
ATOM     22  C   UNL A   1      44.539  42.148  27.668  1.00  0.00     0.167 A 
ATOM     23  N   UNL A   1      45.275  43.234  27.602  1.00  0.00    -0.231 NA
ATOM     24  N   UNL A   1      44.094  41.918  28.940  1.00  0.00    -0.329 N 
ATOM     25  C   UNL A   1      45.340  43.709  28.887  1.00  0.00     0.132 A 
ATOM     26  C   UNL A   1      44.611  42.908  29.734  1.00  0.00     0.108 A 
ATOM     27  C   UNL A   1      43.262  40.847  29.422  1.00  0.00     0.152 C 
ENDBRANCH  21  22
ENDBRANCH  15  21
ENDBRANCH   9  11
ENDBRANCH   8   9
ENDBRANCH   7   8
ENDBRANCH   6   7
ENDBRANCH   5   6
ENDBRANCH   4   5
ENDBRANCH   3   4
ENDBRANCH   2   3
ENDBRANCH   1   2
BRANCH   1  28
ATOM     28  C   UNL A   1      35.251  33.467  32.126  1.00  0.00     0.188 C 
BRANCH  28  29
ATOM     29  O   UNL A   1      34.491  32.897  31.066  1.00  0.00    -0.376 OA
BRANCH  29  30
ATOM     30  C   UNL A   1      34.386  33.580  29.827  1.00  0.00     0.202 C 
BRANCH  30  31
ATOM     31  C   UNL A   1      35.558  33.505  28.832  1.00  0.00     0.261 C 
BRANCH  31  32
ATOM     32  O   UNL A   1      35.344  32.758  27.626  1.00  0.00    -0.460 OA
BRANCH  32  33
ATOM     33  C   UNL A   1      34.866  31.502  27.723  1.00  0.00     0.338 C 
ATOM     34  O   UNL A   1      33.758  31.110  27.395  1.00  0.00    -0.246 OA
BRANCH  33  35
ATOM     35  C   UNL A   1      35.999  30.623  28.088  1.00  0.00     0.060 A 
ATOM     36  C   UNL A   1      35.925  29.882  29.275  1.00  0.00     0.016 A 
ATOM     37  C   UNL A   1      37.113  30.511  27.252  1.00  0.00     0.016 A 
ATOM     38  C   UNL A   1      36.981  29.055  29.650  1.00  0.00     0.010 A 
ATOM     39  C   UNL A   1      38.185  29.706  27.644  1.00  0.00     0.010 A 
ATOM     40  C   UNL A   1      38.137  29.006  28.862  1.00  0.00    -0.014 A 
BRANCH  40  41
ATOM     41  C   UNL A   1      39.372  28.415  29.426  1.00  0.00     0.031 A 
ATOM     42  C   UNL A   1      39.960  29.051  30.655  1.00  0.00     0.074 A 
ATOM     43  C   UNL A   1      39.952  27.334  28.874  1.00  0.00     0.049 A 
ATOM     44  N   UNL A   1      41.051  28.748  31.306  1.00  0.00    -0.248 NA
ATOM     45  C   UNL A   1      39.216  30.190  31.223  1.00  0.00     0.031 C 
ATOM     46  C   UNL A   1      39.463  26.618  27.698  1.00  0.00     0.029 A 
ATOM     47  N   UNL A   1      41.100  26.669  29.223  1.00  0.00    -0.354 N 
ATOM     48  C   UNL A   1      41.141  29.673  32.340  1.00  0.00     0.074 A 
ATOM     49  C   UNL A   1      40.001  30.555  32.223  1.00  0.00     0.031 C 
ATOM     50  C   UNL A   1      40.327  25.632  27.400  1.00  0.00     0.029 A 
ATOM     51  C   UNL A   1      41.442  25.668  28.346  1.00  0.00     0.049 A 
ATOM     52  H   UNL A   1      41.628  26.887  30.024  1.00  0.00     0.167 HD
ATOM     53  C   UNL A   1      42.081  29.772  33.308  1.00  0.00     0.034 A 
ATOM     54  C   UNL A   1      42.544  24.893  28.297  1.00  0.00     0.034 A 
ATOM     55  C   UNL A   1      43.209  28.889  33.423  1.00  0.00     0.049 A 
ATOM     56  C   UNL A   1      43.601  25.050  29.362  1.00  0.00     0.074 A 
ATOM     57  C   UNL A   1      44.200  28.883  34.387  1.00  0.00     0.029 A 
ATOM     58  N   UNL A   1      43.505  27.867  32.535  1.00  0.00    -0.354 N 
ATOM     59  N   UNL A   1      43.624  25.862  30.391  1.00  0.00    -0.248 NA
ATOM     60  C   UNL A   1      44.770  24.161  29.275  1.00  0.00     0.031 C 
ATOM     61  C   UNL A   1      45.120  27.882  34.057  1.00  0.00     0.029 A 
ATOM     62  C   UNL A   1      44.674  27.233  32.917  1.00  0.00     0.049 A 
ATOM     63  H   UNL A   1      42.965  27.628  31.748  1.00  0.00     0.167 HD
ATOM     64  C   UNL A   1      44.784  25.555  31.096  1.00  0.00     0.074 A 
ATOM     65  C   UNL A   1      45.428  24.471  30.384  1.00  0.00     0.031 C 
ATOM     66  C   UNL A   1      45.277  26.123  32.226  1.00  0.00     0.034 A 
BRANCH  53  67
ATOM     67  C   UNL A   1      41.926  30.876  34.319  1.00  0.00     0.023 A 
ATOM     68  C   UNL A   1      41.265  30.626  35.539  1.00  0.00     0.012 A 
ATOM     69  C   UNL A   1      42.472  32.152  34.078  1.00  0.00     0.148 A 
ATOM     70  C   UNL A   1      41.119  31.637  36.488  1.00  0.00     0.002 A 
ATOM     71  C   UNL A   1      42.367  33.139  35.049  1.00  0.00     0.091 A 
ATOM     72  F   UNL A   1      43.075  32.376  32.902  1.00  0.00    -0.205 F 
ATOM     73  C   UNL A   1      41.678  32.889  36.247  1.00  0.00     0.022 A 
BRANCH  71  74
ATOM     74  S   UNL A   1      43.122  34.759  34.869  1.00  0.00     0.127 S 
ATOM     75  O   UNL A   1      42.562  35.474  36.015  1.00  0.00    -0.237 OA
ATOM     76  O   UNL A   1      44.547  34.445  34.981  1.00  0.00    -0.237 OA
ATOM     77  O   UNL A   1      42.708  35.255  33.565  1.00  0.00    -0.744 OA
ENDBRANCH  71  74
ENDBRANCH  53  67
BRANCH  54  78
ATOM     78  C   UNL A   1      42.706  23.891  27.205  1.00  0.00     0.023 A 
ATOM     79  C   UNL A   1      43.495  24.201  26.081  1.00  0.00     0.012 A 
ATOM     80  C   UNL A   1      42.084  22.630  27.280  1.00  0.00     0.148 A 
ATOM     81  C   UNL A   1      43.631  23.287  25.034  1.00  0.00     0.002 A 
ATOM     82  C   UNL A   1      42.270  21.702  26.262  1.00  0.00     0.091 A 
ATOM     83  F   UNL A   1      41.325  22.359  28.351  1.00  0.00    -0.205 F 
ATOM     84  C   UNL A   1      43.027  22.036  25.128  1.00  0.00     0.022 A 
BRANCH  82  85
ATOM     85  S   UNL A   1      41.632  20.026  26.354  1.00  0.00     0.127 S 
ATOM     86  O   UNL A   1      40.206  20.234  26.122  1.00  0.00    -0.237 OA
ATOM     87  O   UNL A   1      42.348  19.373  25.257  1.00  0.00    -0.237 OA
ATOM     88  O   UNL A   1      41.989  19.537  27.678  1.00  0.00    -0.744 OA
ENDBRANCH  82  85
ENDBRANCH  54  78
BRANCH  66  89
ATOM     89  C   UNL A   1      46.550  25.556  32.801  1.00  0.00     0.023 A 
ATOM     90  C   UNL A   1      46.498  24.613  33.846  1.00  0.00     0.012 A 
ATOM     91  C   UNL A   1      47.799  25.903  32.244  1.00  0.00     0.148 A 
ATOM     92  C   UNL A   1      47.671  24.053  34.355  1.00  0.00     0.002 A 
ATOM     93  C   UNL A   1      48.957  25.299  32.718  1.00  0.00     0.091 A 
ATOM     94  F   UNL A   1      47.828  26.811  31.259  1.00  0.00    -0.205 F 
ATOM     95  C   UNL A   1      48.897  24.386  33.783  1.00  0.00     0.022 A 
BRANCH  93  96
ATOM     96  S   UNL A   1      50.567  25.589  31.977  1.00  0.00     0.127 S 
ATOM     97  O   UNL A   1      51.451  24.871  32.895  1.00  0.00    -0.237 OA
ATOM     98  O   UNL A   1      50.418  24.966  30.662  1.00  0.00    -0.237 OA
ATOM     99  O   UNL A   1      50.744  27.035  31.947  1.00  0.00    -0.744 OA
ENDBRANCH  93  96
ENDBRANCH  66  89
ENDBRANCH  40  41
ENDBRANCH  33  35
ENDBRANCH  32  33
ENDBRANCH  31  32
ENDBRANCH  30  31
ENDBRANCH  29  30
ENDBRANCH  28  29
ENDBRANCH   1  28
TORSDOF 26
ENDMDL
MODEL 3
REMARK VINA RESULT:      -7.4      3.345      3.881
REMARK SMILES C[NH2+][C@]1(C(=O)OCCOCCOCCOCCOC(=O)c2ccc(-c3c4nc(c(-c5cccc(S(=O)(=O)[O-])c5F)c5ccc([nH]5)c(-c5cccc(S(=O)(=O)[O-])c5F)c5nc(c(-c6cccc(S(=O)(=O)[O-])c6F)c6ccc3[nH]6)C=C5)C=C4)cc2)CCC[C@@H](Sc2nccn2C)C1
REMARK SMILES IDX 13 1 12 2 11 3 10 4 9 5 8 6 7 7 6 8 4 9 5 10 3 11 84 12
REMARK SMILES IDX 95 13 85 14 87 15 86 16 2 17 1 18 88 21 89 22 90 23 93 24
REMARK SMILES IDX 91 25 92 26 94 27 14 28 15 29 16 30 17 31 18 32 19 33 20 34
REMARK SMILES IDX 21 35 22 36 83 37 23 38 82 39 24 40 25 41 26 42 76 43 27 44
REMARK SMILES IDX 81 45 75 46 77 47 28 48 80 49 74 50 73 51 29 53 61 54 41 55
REMARK SMILES IDX 60 56 42 57 45 58 59 59 78 60 43 61 44 62 58 64 79 65 46 66
REMARK SMILES IDX 30 67 31 68 39 69 32 70 34 71 40 72 33 73 35 74 36 75 37 76
REMARK SMILES IDX 38 77 62 78 63 79 71 80 64 81 66 82 72 83 65 84 67 85 68 86
REMARK SMILES IDX 69 87 70 88 47 89 48 90 56 91 49 92 51 93 57 94 50 95 52 96
REMARK SMILES IDX 53 97 54 98 55 99
REMARK H PARENT 2 19 2 20 77 52 45 63
REMARK Flexibility Score: inf
ROOT
ATOM      1  C   UNL A   1      36.360  32.822  32.442  1.00  0.00     0.188 C 
ENDROOT
BRANCH   1   2
ATOM      2  O   UNL A   1      37.725  33.206  32.483  1.00  0.00    -0.377 OA
BRANCH   2   3
ATOM      3  C   UNL A   1      38.238  33.867  31.348  1.00  0.00     0.188 C 
BRANCH   3   4
ATOM      4  C   UNL A   1      39.746  33.708  31.106  1.00  0.00     0.188 C 
BRANCH   4   5
ATOM      5  O   UNL A   1      40.651  34.750  31.434  1.00  0.00    -0.376 OA
BRANCH   5   6
ATOM      6  C   UNL A   1      42.028  34.648  31.097  1.00  0.00     0.202 C 
BRANCH   6   7
ATOM      7  C   UNL A   1      42.609  35.288  29.821  1.00  0.00     0.261 C 
BRANCH   7   8
ATOM      8  O   UNL A   1      44.022  35.143  29.574  1.00  0.00    -0.459 OA
BRANCH   8   9
ATOM      9  C   UNL A   1      44.460  33.882  29.334  1.00  0.00     0.368 C 
ATOM     10  O   UNL A   1      44.596  33.024  30.207  1.00  0.00    -0.245 OA
BRANCH   9  11
ATOM     11  C   UNL A   1      44.868  33.615  27.844  1.00  0.00     0.195 C 
ATOM     12  C   UNL A   1      43.819  33.816  26.715  1.00  0.00     0.081 C 
ATOM     13  C   UNL A   1      45.974  34.671  27.631  1.00  0.00     0.096 C 
ATOM     14  C   UNL A   1      44.430  33.728  25.312  1.00  0.00     0.008 C 
ATOM     15  C   UNL A   1      46.588  34.651  26.233  1.00  0.00     0.061 C 
ATOM     16  C   UNL A   1      45.540  34.750  25.121  1.00  0.00     0.015 C 
BRANCH  11  17
ATOM     17  N   UNL A   1      45.495  32.251  27.754  1.00  0.00    -0.335 N 
ATOM     18  C   UNL A   1      44.563  31.165  27.457  1.00  0.00     0.331 C 
ATOM     19  H   UNL A   1      46.200  32.274  27.017  1.00  0.00     0.347 HD
ATOM     20  H   UNL A   1      45.883  32.052  28.676  1.00  0.00     0.347 HD
ENDBRANCH  11  17
BRANCH  15  21
ATOM     21  S   UNL A   1      47.880  35.944  26.066  1.00  0.00    -0.084 SA
BRANCH  21  22
ATOM     22  C   UNL A   1      49.029  35.443  27.265  1.00  0.00     0.167 A 
ATOM     23  N   UNL A   1      49.150  35.974  28.460  1.00  0.00    -0.231 NA
ATOM     24  N   UNL A   1      49.962  34.467  27.052  1.00  0.00    -0.329 N 
ATOM     25  C   UNL A   1      50.224  35.343  29.033  1.00  0.00     0.132 A 
ATOM     26  C   UNL A   1      50.743  34.401  28.176  1.00  0.00     0.108 A 
ATOM     27  C   UNL A   1      50.156  33.648  25.884  1.00  0.00     0.152 C 
ENDBRANCH  21  22
ENDBRANCH  15  21
ENDBRANCH   9  11
ENDBRANCH   8   9
ENDBRANCH   7   8
ENDBRANCH   6   7
ENDBRANCH   5   6
ENDBRANCH   4   5
ENDBRANCH   3   4
ENDBRANCH   2   3
ENDBRANCH   1   2
BRANCH   1  28
ATOM     28  C   UNL A   1      35.339  33.873  31.969  1.00  0.00     0.188 C 
BRANCH  28  29
ATOM     29  O   UNL A   1      34.585  33.477  30.829  1.00  0.00    -0.376 OA
BRANCH  29  30
ATOM     30  C   UNL A   1      34.777  34.145  29.591  1.00  0.00     0.202 C 
BRANCH  30  31
ATOM     31  C   UNL A   1      35.825  33.600  28.605  1.00  0.00     0.261 C 
BRANCH  31  32
ATOM     32  O   UNL A   1      35.364  32.690  27.597  1.00  0.00    -0.460 OA
BRANCH  32  33
ATOM     33  C   UNL A   1      34.852  31.505  27.986  1.00  0.00     0.338 C 
ATOM     34  O   UNL A   1      33.690  31.144  27.901  1.00  0.00    -0.246 OA
BRANCH  33  35
ATOM     35  C   UNL A   1      35.988  30.622  28.327  1.00  0.00     0.060 A 
ATOM     36  C   UNL A   1      35.972  29.944  29.553  1.00  0.00     0.016 A 
ATOM     37  C   UNL A   1      37.047  30.443  27.433  1.00  0.00     0.016 A 
ATOM     38  C   UNL A   1      37.033  29.113  29.907  1.00  0.00     0.010 A 
ATOM     39  C   UNL A   1      38.125  29.635  27.802  1.00  0.00     0.010 A 
ATOM     40  C   UNL A   1      38.138  28.999  29.055  1.00  0.00    -0.014 A 
BRANCH  40  41
ATOM     41  C   UNL A   1      39.394  28.410  29.574  1.00  0.00     0.031 A 
ATOM     42  C   UNL A   1      40.013  29.034  30.794  1.00  0.00     0.074 A 
ATOM     43  C   UNL A   1      39.966  27.342  28.991  1.00  0.00     0.049 A 
ATOM     44  N   UNL A   1      41.125  28.731  31.409  1.00  0.00    -0.248 NA
ATOM     45  C   UNL A   1      39.276  30.158  31.401  1.00  0.00     0.031 C 
ATOM     46  C   UNL A   1      39.448  26.639  27.819  1.00  0.00     0.029 A 
ATOM     47  N   UNL A   1      41.129  26.682  29.296  1.00  0.00    -0.354 N 
ATOM     48  C   UNL A   1      41.237  29.642  32.453  1.00  0.00     0.074 A 
ATOM     49  C   UNL A   1      40.088  30.516  32.382  1.00  0.00     0.031 C 
ATOM     50  C   UNL A   1      40.311  25.665  27.482  1.00  0.00     0.029 A 
ATOM     51  C   UNL A   1      41.452  25.696  28.395  1.00  0.00     0.049 A 
ATOM     52  H   UNL A   1      41.678  26.893  30.085  1.00  0.00     0.167 HD
ATOM     53  C   UNL A   1      42.205  29.735  33.394  1.00  0.00     0.034 A 
ATOM     54  C   UNL A   1      42.559  24.931  28.303  1.00  0.00     0.034 A 
ATOM     55  C   UNL A   1      43.342  28.860  33.464  1.00  0.00     0.049 A 
ATOM     56  C   UNL A   1      43.645  25.081  29.339  1.00  0.00     0.074 A 
ATOM     57  C   UNL A   1      44.362  28.849  34.399  1.00  0.00     0.029 A 
ATOM     58  N   UNL A   1      43.620  27.853  32.553  1.00  0.00    -0.354 N 
ATOM     59  N   UNL A   1      43.693  25.879  30.379  1.00  0.00    -0.248 NA
ATOM     60  C   UNL A   1      44.818  24.204  29.205  1.00  0.00     0.031 C 
ATOM     61  C   UNL A   1      45.279  27.860  34.028  1.00  0.00     0.029 A 
ATOM     62  C   UNL A   1      44.805  27.224  32.892  1.00  0.00     0.049 A 
ATOM     63  H   UNL A   1      43.060  27.621  31.779  1.00  0.00     0.167 HD
ATOM     64  C   UNL A   1      44.875  25.571  31.045  1.00  0.00     0.074 A 
ATOM     65  C   UNL A   1      45.506  24.503  30.299  1.00  0.00     0.031 C 
ATOM     66  C   UNL A   1      45.396  26.128  32.167  1.00  0.00     0.034 A 
BRANCH  53  67
ATOM     67  C   UNL A   1      42.071  30.823  34.426  1.00  0.00     0.023 A 
ATOM     68  C   UNL A   1      41.439  30.554  35.657  1.00  0.00     0.012 A 
ATOM     69  C   UNL A   1      42.608  32.104  34.191  1.00  0.00     0.148 A 
ATOM     70  C   UNL A   1      41.313  31.550  36.624  1.00  0.00     0.002 A 
ATOM     71  C   UNL A   1      42.523  33.077  35.178  1.00  0.00     0.091 A 
ATOM     72  F   UNL A   1      43.183  32.347  33.005  1.00  0.00    -0.205 F 
ATOM     73  C   UNL A   1      41.864  32.807  36.389  1.00  0.00     0.022 A 
BRANCH  71  74
ATOM     74  S   UNL A   1      43.271  34.701  35.005  1.00  0.00     0.127 S 
ATOM     75  O   UNL A   1      42.213  35.440  34.316  1.00  0.00    -0.237 OA
ATOM     76  O   UNL A   1      43.480  35.090  36.399  1.00  0.00    -0.237 OA
ATOM     77  O   UNL A   1      44.491  34.503  34.237  1.00  0.00    -0.744 OA
ENDBRANCH  71  74
ENDBRANCH  53  67
BRANCH  54  78
ATOM     78  C   UNL A   1      42.697  23.945  27.192  1.00  0.00     0.023 A 
ATOM     79  C   UNL A   1      43.414  24.294  26.032  1.00  0.00     0.012 A 
ATOM     80  C   UNL A   1      42.122  22.663  27.285  1.00  0.00     0.148 A 
ATOM     81  C   UNL A   1      43.525  23.395  24.969  1.00  0.00     0.002 A 
ATOM     82  C   UNL A   1      42.285  21.752  26.248  1.00  0.00     0.091 A 
ATOM     83  F   UNL A   1      41.431  22.356  28.392  1.00  0.00    -0.205 F 
ATOM     84  C   UNL A   1      42.970  22.123  25.080  1.00  0.00     0.022 A 
BRANCH  82  85
ATOM     85  S   UNL A   1      41.710  20.054  26.355  1.00  0.00     0.127 S 
ATOM     86  O   UNL A   1      42.397  19.433  25.226  1.00  0.00    -0.237 OA
ATOM     87  O   UNL A   1      42.203  19.654  27.674  1.00  0.00    -0.237 OA
ATOM     88  O   UNL A   1      40.260  20.118  26.251  1.00  0.00    -0.744 OA
ENDBRANCH  82  85
ENDBRANCH  54  78
BRANCH  66  89
ATOM     89  C   UNL A   1      46.690  25.563  32.697  1.00  0.00     0.023 A 
ATOM     90  C   UNL A   1      46.680  24.660  33.778  1.00  0.00     0.012 A 
ATOM     91  C   UNL A   1      47.912  25.871  32.064  1.00  0.00     0.148 A 
ATOM     92  C   UNL A   1      47.870  24.102  34.246  1.00  0.00     0.002 A 
ATOM     93  C   UNL A   1      49.086  25.268  32.500  1.00  0.00     0.091 A 
ATOM     94  F   UNL A   1      47.902  26.742  31.046  1.00  0.00    -0.205 F 
ATOM     95  C   UNL A   1      49.069  24.395  33.600  1.00  0.00     0.022 A 
BRANCH  93  96
ATOM     96  S   UNL A   1      50.659  25.507  31.667  1.00  0.00     0.127 S 
ATOM     97  O   UNL A   1      50.870  26.944  31.836  1.00  0.00    -0.237 OA
ATOM     98  O   UNL A   1      51.557  24.662  32.455  1.00  0.00    -0.237 OA
ATOM     99  O   UNL A   1      50.460  25.064  30.293  1.00  0.00    -0.744 OA
ENDBRANCH  93  96
ENDBRANCH  66  89
ENDBRANCH  40  41
ENDBRANCH  33  35
ENDBRANCH  32  33
ENDBRANCH  31  32
ENDBRANCH  30  31
ENDBRANCH  29  30
ENDBRANCH  28  29
ENDBRANCH   1  28
TORSDOF 26
ENDMDL
