MODEL 1
REMARK VINA RESULT:     -10.1      0.000      0.000
REMARK SMILES Cc1cccc(OC2(C(=O)OCCOCCOCCOCCOC(=O)c3ccc(-c4c5nc(c(-c6cccc(S(=O)(=O)[O-])c6F)c6ccc([nH]6)c(-c6cccc(S(=O)(=O)[O-])c6F)c6nc(c(-c7cccc(S(=O)(=O)[O-])c7F)c7ccc4[nH]7)C=C6)C=C5)cc3)CCN(C(=O)c3cnc[nH]c3=O)CC2)c1
REMARK SMILES IDX 18 1 17 2 16 3 15 4 14 5 13 6 12 7 11 8 9 9 10 10 8 11 89 12
REMARK SMILES IDX 102 13 90 14 101 15 91 16 92 17 93 18 7 19 6 20 1 21 2 22
REMARK SMILES IDX 3 23 103 24 4 25 5 26 94 27 95 28 99 29 96 30 98 31 100 32
REMARK SMILES IDX 97 33 19 35 20 36 21 37 22 38 23 39 24 40 25 41 26 42 27 43
REMARK SMILES IDX 88 44 28 45 87 46 29 47 30 48 31 49 81 50 32 51 86 52 80 53
REMARK SMILES IDX 82 54 33 55 85 56 79 57 78 58 34 60 66 61 46 62 65 63 47 64
REMARK SMILES IDX 50 65 64 66 83 67 48 68 49 69 63 71 84 72 51 73 35 74 36 75
REMARK SMILES IDX 44 76 37 77 39 78 45 79 38 80 40 81 41 82 42 83 43 84 67 85
REMARK SMILES IDX 68 86 76 87 69 88 71 89 77 90 70 91 72 92 73 93 74 94 75 95
REMARK SMILES IDX 52 96 53 97 61 98 54 99 56 100 62 101 55 102 57 103 58 104
REMARK SMILES IDX 59 105 60 106
REMARK H PARENT 98 34 82 59 50 70
REMARK Flexibility Score: inf
ROOT
ATOM      1  C   UNL A   1      44.920  28.350  27.965  1.00  0.00     0.188 C 
ENDROOT
BRANCH   1   2
ATOM      2  O   UNL A   1      44.912  27.196  27.096  1.00  0.00    -0.377 OA
BRANCH   2   3
ATOM      3  C   UNL A   1      44.705  25.877  27.663  1.00  0.00     0.188 C 
BRANCH   3   4
ATOM      4  C   UNL A   1      43.268  25.352  27.526  1.00  0.00     0.188 C 
BRANCH   4   5
ATOM      5  O   UNL A   1      42.313  25.169  26.272  1.00  0.00    -0.376 OA
BRANCH   5   6
ATOM      6  C   UNL A   1      40.551  25.206  26.155  1.00  0.00     0.202 C 
BRANCH   6   7
ATOM      7  C   UNL A   1      39.073  24.290  26.878  1.00  0.00     0.261 C 
BRANCH   7   8
ATOM      8  O   UNL A   1      37.345  24.019  26.238  1.00  0.00    -0.460 OA
BRANCH   8   9
ATOM      9  C   UNL A   1      36.055  23.219  25.983  1.00  0.00     0.350 C 
ATOM     10  O   UNL A   1      36.086  22.030  26.343  1.00  0.00    -0.247 OA
BRANCH   9  11
ATOM     11  C   UNL A   1      34.495  23.702  25.127  1.00  0.00     0.209 C 
ATOM     12  C   UNL A   1      33.062  23.404  25.743  1.00  0.00     0.082 C 
ATOM     13  C   UNL A   1      34.516  25.207  24.571  1.00  0.00     0.082 C 
ATOM     14  C   UNL A   1      31.815  24.193  25.352  1.00  0.00     0.124 C 
ATOM     15  C   UNL A   1      33.147  25.778  24.089  1.00  0.00     0.124 C 
ATOM     16  N   UNL A   1      32.082  25.579  25.065  1.00  0.00    -0.338 N 
ATOM     17  C   UNL A   1      31.190  26.515  25.572  1.00  0.00     0.261 C 
ATOM     18  O   UNL A   1      30.635  26.410  26.668  1.00  0.00    -0.269 OA
BRANCH  11  19
ATOM     19  O   UNL A   1      34.506  23.042  23.773  1.00  0.00    -0.475 OA
BRANCH  19  20
ATOM     20  C   UNL A   1      33.681  21.980  23.560  1.00  0.00     0.121 A 
ATOM     21  C   UNL A   1      33.345  18.408  24.767  1.00  0.00     0.044 C 
ATOM     22  C   UNL A   1      33.024  19.692  24.060  1.00  0.00    -0.047 A 
ATOM     23  C   UNL A   1      32.056  19.771  23.062  1.00  0.00     0.003 A 
ATOM     24  C   UNL A   1      33.728  20.852  24.382  1.00  0.00     0.050 A 
ATOM     25  C   UNL A   1      31.872  20.966  22.356  1.00  0.00     0.004 A 
ATOM     26  C   UNL A   1      32.707  22.061  22.582  1.00  0.00     0.046 A 
ENDBRANCH  19  20
ENDBRANCH  11  19
BRANCH  17  27
ATOM     27  C   UNL A   1      30.727  27.594  24.676  1.00  0.00     0.123 A 
ATOM     28  C   UNL A   1      31.113  28.864  24.868  1.00  0.00     0.132 A 
ATOM     29  C   UNL A   1      29.587  27.380  23.760  1.00  0.00     0.263 A 
ATOM     30  N   UNL A   1      30.617  29.959  24.191  1.00  0.00    -0.246 NA
ATOM     31  N   UNL A   1      29.118  28.504  23.136  1.00  0.00    -0.312 N 
ATOM     32  O   UNL A   1      29.059  26.289  23.573  1.00  0.00    -0.269 OA
ATOM     33  C   UNL A   1      29.648  29.737  23.371  1.00  0.00     0.199 A 
ATOM     34  H   UNL A   1      28.372  28.419  22.498  1.00  0.00     0.171 HD
ENDBRANCH  17  27
ENDBRANCH   9  11
ENDBRANCH   8   9
ENDBRANCH   7   8
ENDBRANCH   6   7
ENDBRANCH   5   6
ENDBRANCH   4   5
ENDBRANCH   3   4
ENDBRANCH   2   3
ENDBRANCH   1   2
BRANCH   1  35
ATOM     35  C   UNL A   1      45.418  29.661  27.298  1.00  0.00     0.188 C 
BRANCH  35  36
ATOM     36  O   UNL A   1      44.983  30.863  27.887  1.00  0.00    -0.376 OA
BRANCH  36  37
ATOM     37  C   UNL A   1      45.312  31.962  27.065  1.00  0.00     0.202 C 
BRANCH  37  38
ATOM     38  C   UNL A   1      45.180  33.436  27.576  1.00  0.00     0.261 C 
BRANCH  38  39
ATOM     39  O   UNL A   1      44.091  34.467  27.369  1.00  0.00    -0.460 OA
BRANCH  39  40
ATOM     40  C   UNL A   1      43.276  35.504  27.081  1.00  0.00     0.338 C 
ATOM     41  O   UNL A   1      42.714  35.523  26.004  1.00  0.00    -0.246 OA
BRANCH  40  42
ATOM     42  C   UNL A   1      43.066  36.682  27.985  1.00  0.00     0.060 A 
ATOM     43  C   UNL A   1      41.938  37.476  27.908  1.00  0.00     0.016 A 
ATOM     44  C   UNL A   1      43.863  36.958  29.081  1.00  0.00     0.016 A 
ATOM     45  C   UNL A   1      41.895  38.706  28.614  1.00  0.00     0.010 A 
ATOM     46  C   UNL A   1      43.956  38.296  29.541  1.00  0.00     0.010 A 
ATOM     47  C   UNL A   1      43.072  39.298  29.111  1.00  0.00    -0.014 A 
BRANCH  47  48
ATOM     48  C   UNL A   1      43.581  40.985  29.075  1.00  0.00     0.031 A 
ATOM     49  C   UNL A   1      44.301  40.807  27.467  1.00  0.00     0.074 A 
ATOM     50  C   UNL A   1      43.821  42.185  30.236  1.00  0.00     0.049 A 
ATOM     51  N   UNL A   1      45.581  40.951  27.217  1.00  0.00    -0.248 NA
ATOM     52  C   UNL A   1      43.697  40.205  26.258  1.00  0.00     0.031 C 
ATOM     53  C   UNL A   1      44.661  43.658  30.351  1.00  0.00     0.029 A 
ATOM     54  N   UNL A   1      43.782  42.292  31.797  1.00  0.00    -0.354 N 
ATOM     55  C   UNL A   1      45.794  41.029  25.882  1.00  0.00     0.074 A 
ATOM     56  C   UNL A   1      44.690  40.279  25.355  1.00  0.00     0.031 C 
ATOM     57  C   UNL A   1      44.855  44.216  31.544  1.00  0.00     0.029 A 
ATOM     58  C   UNL A   1      44.694  43.159  32.431  1.00  0.00     0.049 A 
ATOM     59  H   UNL A   1      43.135  41.767  32.322  1.00  0.00     0.167 HD
ATOM     60  C   UNL A   1      46.715  41.897  25.358  1.00  0.00     0.034 A 
ATOM     61  C   UNL A   1      45.705  42.807  33.283  1.00  0.00     0.034 A 
ATOM     62  C   UNL A   1      47.287  42.853  26.384  1.00  0.00     0.049 A 
ATOM     63  C   UNL A   1      47.105  43.048  32.592  1.00  0.00     0.074 A 
ATOM     64  C   UNL A   1      47.055  44.206  26.612  1.00  0.00     0.029 A 
ATOM     65  N   UNL A   1      48.036  42.442  27.509  1.00  0.00    -0.354 N 
ATOM     66  N   UNL A   1      47.282  43.348  31.315  1.00  0.00    -0.248 NA
ATOM     67  C   UNL A   1      48.386  43.066  33.283  1.00  0.00     0.031 C 
ATOM     68  C   UNL A   1      47.580  44.580  27.890  1.00  0.00     0.029 A 
ATOM     69  C   UNL A   1      48.194  43.477  28.469  1.00  0.00     0.049 A 
ATOM     70  H   UNL A   1      48.407  41.537  27.617  1.00  0.00     0.167 HD
ATOM     71  C   UNL A   1      48.612  43.381  30.956  1.00  0.00     0.074 A 
ATOM     72  C   UNL A   1      49.243  43.355  32.279  1.00  0.00     0.031 C 
ATOM     73  C   UNL A   1      49.108  43.361  29.650  1.00  0.00     0.034 A 
BRANCH  60  74
ATOM     74  C   UNL A   1      46.690  42.145  23.836  1.00  0.00     0.023 A 
ATOM     75  C   UNL A   1      47.300  41.223  22.964  1.00  0.00     0.012 A 
ATOM     76  C   UNL A   1      46.144  43.301  23.211  1.00  0.00     0.148 A 
ATOM     77  C   UNL A   1      47.498  41.495  21.598  1.00  0.00     0.002 A 
ATOM     78  C   UNL A   1      46.426  43.620  21.875  1.00  0.00     0.091 A 
ATOM     79  F   UNL A   1      45.277  44.065  23.892  1.00  0.00    -0.205 F 
ATOM     80  C   UNL A   1      47.112  42.717  21.064  1.00  0.00     0.022 A 
BRANCH  78  81
ATOM     81  S   UNL A   1      46.054  45.239  21.165  1.00  0.00     0.127 S 
ATOM     82  O   UNL A   1      46.640  46.159  22.142  1.00  0.00    -0.237 OA
ATOM     83  O   UNL A   1      46.753  45.195  19.883  1.00  0.00    -0.237 OA
ATOM     84  O   UNL A   1      44.598  45.312  21.090  1.00  0.00    -0.744 OA
ENDBRANCH  78  81
ENDBRANCH  60  74
BRANCH  61  85
ATOM     85  C   UNL A   1      45.231  41.762  34.266  1.00  0.00     0.023 A 
ATOM     86  C   UNL A   1      45.927  40.516  34.189  1.00  0.00     0.012 A 
ATOM     87  C   UNL A   1      44.554  42.051  35.460  1.00  0.00     0.148 A 
ATOM     88  C   UNL A   1      46.149  39.728  35.321  1.00  0.00     0.002 A 
ATOM     89  C   UNL A   1      44.791  41.262  36.596  1.00  0.00     0.091 A 
ATOM     90  F   UNL A   1      43.814  43.168  35.520  1.00  0.00    -0.205 F 
ATOM     91  C   UNL A   1      45.617  40.127  36.537  1.00  0.00     0.022 A 
BRANCH  89  92
ATOM     92  S   UNL A   1      44.237  41.791  38.229  1.00  0.00     0.127 S 
ATOM     93  O   UNL A   1      44.705  40.686  39.062  1.00  0.00    -0.237 OA
ATOM     94  O   UNL A   1      44.948  43.053  38.431  1.00  0.00    -0.237 OA
ATOM     95  O   UNL A   1      42.792  41.931  38.096  1.00  0.00    -0.744 OA
ENDBRANCH  89  92
ENDBRANCH  61  85
BRANCH  73  96
ATOM     96  C   UNL A   1      50.608  43.269  29.302  1.00  0.00     0.023 A 
ATOM     97  C   UNL A   1      51.458  44.390  29.319  1.00  0.00     0.012 A 
ATOM     98  C   UNL A   1      51.247  42.015  29.061  1.00  0.00     0.148 A 
ATOM     99  C   UNL A   1      52.827  44.301  29.041  1.00  0.00     0.002 A 
ATOM    100  C   UNL A   1      52.631  41.915  28.920  1.00  0.00     0.091 A 
ATOM    101  F   UNL A   1      50.520  40.899  28.922  1.00  0.00    -0.205 F 
ATOM    102  C   UNL A   1      53.421  43.061  28.871  1.00  0.00     0.022 A 
BRANCH 100 103
ATOM    103  S   UNL A   1      53.468  40.321  28.966  1.00  0.00     0.127 S 
ATOM    104  O   UNL A   1      53.398  39.899  27.570  1.00  0.00    -0.237 OA
ATOM    105  O   UNL A   1      54.810  40.687  29.425  1.00  0.00    -0.237 OA
ATOM    106  O   UNL A   1      52.712  39.522  29.921  1.00  0.00    -0.744 OA
ENDBRANCH 100 103
ENDBRANCH  73  96
ENDBRANCH  47  48
ENDBRANCH  40  42
ENDBRANCH  39  40
ENDBRANCH  38  39
ENDBRANCH  37  38
ENDBRANCH  36  37
ENDBRANCH  35  36
ENDBRANCH   1  35
TORSDOF 26
ENDMDL
MODEL 2
REMARK VINA RESULT:     -10.0     13.265     19.761
REMARK SMILES Cc1cccc(OC2(C(=O)OCCOCCOCCOCCOC(=O)c3ccc(-c4c5nc(c(-c6cccc(S(=O)(=O)[O-])c6F)c6ccc([nH]6)c(-c6cccc(S(=O)(=O)[O-])c6F)c6nc(c(-c7cccc(S(=O)(=O)[O-])c7F)c7ccc4[nH]7)C=C6)C=C5)cc3)CCN(C(=O)c3cnc[nH]c3=O)CC2)c1
REMARK SMILES IDX 18 1 17 2 16 3 15 4 14 5 13 6 12 7 11 8 9 9 10 10 8 11 89 12
REMARK SMILES IDX 102 13 90 14 101 15 91 16 92 17 93 18 7 19 6 20 1 21 2 22
REMARK SMILES IDX 3 23 103 24 4 25 5 26 94 27 95 28 99 29 96 30 98 31 100 32
REMARK SMILES IDX 97 33 19 35 20 36 21 37 22 38 23 39 24 40 25 41 26 42 27 43
REMARK SMILES IDX 88 44 28 45 87 46 29 47 30 48 31 49 81 50 32 51 86 52 80 53
REMARK SMILES IDX 82 54 33 55 85 56 79 57 78 58 34 60 66 61 46 62 65 63 47 64
REMARK SMILES IDX 50 65 64 66 83 67 48 68 49 69 63 71 84 72 51 73 35 74 36 75
REMARK SMILES IDX 44 76 37 77 39 78 45 79 38 80 40 81 41 82 42 83 43 84 67 85
REMARK SMILES IDX 68 86 76 87 69 88 71 89 77 90 70 91 72 92 73 93 74 94 75 95
REMARK SMILES IDX 52 96 53 97 61 98 54 99 56 100 62 101 55 102 57 103 58 104
REMARK SMILES IDX 59 105 60 106
REMARK H PARENT 98 34 82 59 50 70
REMARK Flexibility Score: inf
ROOT
ATOM      1  C   UNL A   1      50.790  29.481  39.247  1.00  0.00     0.188 C 
ENDROOT
BRANCH   1   2
ATOM      2  O   UNL A   1      50.429  29.492  40.646  1.00  0.00    -0.377 OA
BRANCH   2   3
ATOM      3  C   UNL A   1      51.177  28.675  41.582  1.00  0.00     0.188 C 
BRANCH   3   4
ATOM      4  C   UNL A   1      51.996  27.555  40.925  1.00  0.00     0.188 C 
BRANCH   4   5
ATOM      5  O   UNL A   1      51.619  26.083  40.470  1.00  0.00    -0.376 OA
BRANCH   5   6
ATOM      6  C   UNL A   1      52.642  24.672  40.182  1.00  0.00     0.202 C 
BRANCH   6   7
ATOM      7  C   UNL A   1      52.439  22.855  39.727  1.00  0.00     0.261 C 
BRANCH   7   8
ATOM      8  O   UNL A   1      50.941  21.750  39.660  1.00  0.00    -0.460 OA
BRANCH   8   9
ATOM      9  C   UNL A   1      50.143  20.495  39.266  1.00  0.00     0.350 C 
ATOM     10  O   UNL A   1      50.801  19.598  38.713  1.00  0.00    -0.247 OA
BRANCH   9  11
ATOM     11  C   UNL A   1      48.337  20.139  39.378  1.00  0.00     0.209 C 
ATOM     12  C   UNL A   1      47.573  19.277  38.284  1.00  0.00     0.082 C 
ATOM     13  C   UNL A   1      47.874  19.654  40.836  1.00  0.00     0.082 C 
ATOM     14  C   UNL A   1      46.259  18.556  38.574  1.00  0.00     0.124 C 
ATOM     15  C   UNL A   1      46.432  19.070  40.937  1.00  0.00     0.124 C 
ATOM     16  N   UNL A   1      46.164  18.059  39.922  1.00  0.00    -0.338 N 
ATOM     17  C   UNL A   1      45.645  16.782  40.092  1.00  0.00     0.261 C 
ATOM     18  O   UNL A   1      45.849  15.849  39.312  1.00  0.00    -0.269 OA
BRANCH  11  19
ATOM     19  O   UNL A   1      47.623  21.465  39.428  1.00  0.00    -0.475 OA
BRANCH  19  20
ATOM     20  C   UNL A   1      47.318  22.085  38.255  1.00  0.00     0.121 A 
ATOM     21  C   UNL A   1      49.144  23.302  35.171  1.00  0.00     0.044 C 
ATOM     22  C   UNL A   1      48.013  22.965  36.096  1.00  0.00    -0.047 A 
ATOM     23  C   UNL A   1      46.718  23.437  35.892  1.00  0.00     0.003 A 
ATOM     24  C   UNL A   1      48.251  22.174  37.220  1.00  0.00     0.050 A 
ATOM     25  C   UNL A   1      45.722  23.187  36.844  1.00  0.00     0.004 A 
ATOM     26  C   UNL A   1      46.029  22.539  38.041  1.00  0.00     0.046 A 
ENDBRANCH  19  20
ENDBRANCH  11  19
BRANCH  17  27
ATOM     27  C   UNL A   1      44.639  16.574  41.153  1.00  0.00     0.123 A 
ATOM     28  C   UNL A   1      44.985  16.060  42.343  1.00  0.00     0.132 A 
ATOM     29  C   UNL A   1      43.194  16.608  40.843  1.00  0.00     0.263 A 
ATOM     30  N   UNL A   1      44.104  15.682  43.335  1.00  0.00    -0.246 NA
ATOM     31  N   UNL A   1      42.367  16.197  41.853  1.00  0.00    -0.312 N 
ATOM     32  O   UNL A   1      42.739  16.949  39.755  1.00  0.00    -0.269 OA
ATOM     33  C   UNL A   1      42.850  15.758  43.049  1.00  0.00     0.199 A 
ATOM     34  H   UNL A   1      41.393  16.219  41.710  1.00  0.00     0.171 HD
ENDBRANCH  17  27
ENDBRANCH   9  11
ENDBRANCH   8   9
ENDBRANCH   7   8
ENDBRANCH   6   7
ENDBRANCH   5   6
ENDBRANCH   4   5
ENDBRANCH   3   4
ENDBRANCH   2   3
ENDBRANCH   1   2
BRANCH   1  35
ATOM     35  C   UNL A   1      49.659  29.014  38.290  1.00  0.00     0.188 C 
BRANCH  35  36
ATOM     36  O   UNL A   1      49.885  27.806  37.603  1.00  0.00    -0.376 OA
BRANCH  36  37
ATOM     37  C   UNL A   1      51.199  27.768  37.091  1.00  0.00     0.202 C 
BRANCH  37  38
ATOM     38  C   UNL A   1      51.908  26.413  36.754  1.00  0.00     0.261 C 
BRANCH  38  39
ATOM     39  O   UNL A   1      52.080  25.681  35.440  1.00  0.00    -0.460 OA
BRANCH  39  40
ATOM     40  C   UNL A   1      52.437  25.111  34.269  1.00  0.00     0.338 C 
ATOM     41  O   UNL A   1      53.151  24.128  34.293  1.00  0.00    -0.246 OA
BRANCH  40  42
ATOM     42  C   UNL A   1      52.063  25.654  32.923  1.00  0.00     0.060 A 
ATOM     43  C   UNL A   1      52.192  26.993  32.609  1.00  0.00     0.016 A 
ATOM     44  C   UNL A   1      51.750  24.858  31.836  1.00  0.00     0.016 A 
ATOM     45  C   UNL A   1      51.608  27.494  31.416  1.00  0.00     0.010 A 
ATOM     46  C   UNL A   1      50.920  25.387  30.815  1.00  0.00     0.010 A 
ATOM     47  C   UNL A   1      50.629  26.758  30.723  1.00  0.00    -0.014 A 
BRANCH  47  48
ATOM     48  C   UNL A   1      49.121  27.304  29.991  1.00  0.00     0.031 A 
ATOM     49  C   UNL A   1      48.146  26.523  31.245  1.00  0.00     0.074 A 
ATOM     50  C   UNL A   1      48.668  27.860  28.464  1.00  0.00     0.049 A 
ATOM     51  N   UNL A   1      47.303  25.544  31.014  1.00  0.00    -0.248 NA
ATOM     52  C   UNL A   1      48.311  26.604  32.713  1.00  0.00     0.031 C 
ATOM     53  C   UNL A   1      47.231  28.023  27.572  1.00  0.00     0.029 A 
ATOM     54  N   UNL A   1      49.346  28.043  27.064  1.00  0.00    -0.354 N 
ATOM     55  C   UNL A   1      46.512  25.339  32.094  1.00  0.00     0.074 A 
ATOM     56  C   UNL A   1      47.351  25.783  33.171  1.00  0.00     0.031 C 
ATOM     57  C   UNL A   1      47.289  28.251  26.262  1.00  0.00     0.029 A 
ATOM     58  C   UNL A   1      48.565  27.828  25.912  1.00  0.00     0.049 A 
ATOM     59  H   UNL A   1      50.294  28.300  26.992  1.00  0.00     0.167 HD
ATOM     60  C   UNL A   1      45.181  25.053  31.957  1.00  0.00     0.034 A 
ATOM     61  C   UNL A   1      48.738  26.848  24.973  1.00  0.00     0.034 A 
ATOM     62  C   UNL A   1      44.683  25.190  30.532  1.00  0.00     0.049 A 
ATOM     63  C   UNL A   1      47.558  25.801  25.058  1.00  0.00     0.074 A 
ATOM     64  C   UNL A   1      43.905  26.167  29.919  1.00  0.00     0.029 A 
ATOM     65  N   UNL A   1      45.155  24.406  29.457  1.00  0.00    -0.354 N 
ATOM     66  N   UNL A   1      46.648  25.756  26.018  1.00  0.00    -0.248 NA
ATOM     67  C   UNL A   1      47.251  24.803  24.044  1.00  0.00     0.031 C 
ATOM     68  C   UNL A   1      43.979  26.024  28.497  1.00  0.00     0.029 A 
ATOM     69  C   UNL A   1      44.769  24.924  28.191  1.00  0.00     0.049 A 
ATOM     70  H   UNL A   1      45.694  23.590  29.571  1.00  0.00     0.167 HD
ATOM     71  C   UNL A   1      45.811  24.667  25.908  1.00  0.00     0.074 A 
ATOM     72  C   UNL A   1      46.150  24.211  24.556  1.00  0.00     0.031 C 
ATOM     73  C   UNL A   1      44.970  24.176  26.909  1.00  0.00     0.034 A 
BRANCH  60  74
ATOM     74  C   UNL A   1      44.291  25.130  33.215  1.00  0.00     0.023 A 
ATOM     75  C   UNL A   1      43.780  23.949  33.787  1.00  0.00     0.012 A 
ATOM     76  C   UNL A   1      43.865  26.337  33.835  1.00  0.00     0.148 A 
ATOM     77  C   UNL A   1      42.800  23.962  34.794  1.00  0.00     0.002 A 
ATOM     78  C   UNL A   1      42.818  26.358  34.767  1.00  0.00     0.091 A 
ATOM     79  F   UNL A   1      44.531  27.473  33.581  1.00  0.00    -0.205 F 
ATOM     80  C   UNL A   1      42.276  25.166  35.246  1.00  0.00     0.022 A 
BRANCH  78  81
ATOM     81  S   UNL A   1      42.021  27.891  35.297  1.00  0.00     0.127 S 
ATOM     82  O   UNL A   1      41.944  27.724  36.750  1.00  0.00    -0.237 OA
ATOM     83  O   UNL A   1      42.967  28.913  34.857  1.00  0.00    -0.237 OA
ATOM     84  O   UNL A   1      40.719  27.906  34.638  1.00  0.00    -0.744 OA
ENDBRANCH  78  81
ENDBRANCH  60  74
BRANCH  61  85
ATOM     85  C   UNL A   1      50.202  26.693  24.631  1.00  0.00     0.023 A 
ATOM     86  C   UNL A   1      50.693  27.640  23.680  1.00  0.00     0.012 A 
ATOM     87  C   UNL A   1      51.142  26.060  25.458  1.00  0.00     0.148 A 
ATOM     88  C   UNL A   1      52.006  28.114  23.727  1.00  0.00     0.002 A 
ATOM     89  C   UNL A   1      52.456  26.549  25.509  1.00  0.00     0.091 A 
ATOM     90  F   UNL A   1      50.716  25.097  26.288  1.00  0.00    -0.205 F 
ATOM     91  C   UNL A   1      52.876  27.600  24.676  1.00  0.00     0.022 A 
BRANCH  89  92
ATOM     92  S   UNL A   1      53.599  26.015  26.797  1.00  0.00     0.127 S 
ATOM     93  O   UNL A   1      52.767  26.145  27.991  1.00  0.00    -0.237 OA
ATOM     94  O   UNL A   1      53.912  24.637  26.417  1.00  0.00    -0.237 OA
ATOM     95  O   UNL A   1      54.723  26.936  26.692  1.00  0.00    -0.744 OA
ENDBRANCH  89  92
ENDBRANCH  61  85
BRANCH  73  96
ATOM     96  C   UNL A   1      44.148  22.877  26.780  1.00  0.00     0.023 A 
ATOM     97  C   UNL A   1      42.795  22.798  27.153  1.00  0.00     0.012 A 
ATOM     98  C   UNL A   1      44.685  21.709  26.159  1.00  0.00     0.148 A 
ATOM     99  C   UNL A   1      42.038  21.630  27.001  1.00  0.00     0.002 A 
ATOM    100  C   UNL A   1      43.890  20.596  25.886  1.00  0.00     0.091 A 
ATOM    101  F   UNL A   1      45.988  21.637  25.858  1.00  0.00    -0.205 F 
ATOM    102  C   UNL A   1      42.575  20.537  26.340  1.00  0.00     0.022 A 
BRANCH 100 103
ATOM    103  S   UNL A   1      44.463  19.274  24.804  1.00  0.00     0.127 S 
ATOM    104  O   UNL A   1      43.415  18.270  24.967  1.00  0.00    -0.237 OA
ATOM    105  O   UNL A   1      44.478  19.930  23.494  1.00  0.00    -0.237 OA
ATOM    106  O   UNL A   1      45.783  18.918  25.304  1.00  0.00    -0.744 OA
ENDBRANCH 100 103
ENDBRANCH  73  96
ENDBRANCH  47  48
ENDBRANCH  40  42
ENDBRANCH  39  40
ENDBRANCH  38  39
ENDBRANCH  37  38
ENDBRANCH  36  37
ENDBRANCH  35  36
ENDBRANCH   1  35
TORSDOF 26
ENDMDL
MODEL 3
REMARK VINA RESULT:      -9.9      2.628      3.134
REMARK SMILES Cc1cccc(OC2(C(=O)OCCOCCOCCOCCOC(=O)c3ccc(-c4c5nc(c(-c6cccc(S(=O)(=O)[O-])c6F)c6ccc([nH]6)c(-c6cccc(S(=O)(=O)[O-])c6F)c6nc(c(-c7cccc(S(=O)(=O)[O-])c7F)c7ccc4[nH]7)C=C6)C=C5)cc3)CCN(C(=O)c3cnc[nH]c3=O)CC2)c1
REMARK SMILES IDX 18 1 17 2 16 3 15 4 14 5 13 6 12 7 11 8 9 9 10 10 8 11 89 12
REMARK SMILES IDX 102 13 90 14 101 15 91 16 92 17 93 18 7 19 6 20 1 21 2 22
REMARK SMILES IDX 3 23 103 24 4 25 5 26 94 27 95 28 99 29 96 30 98 31 100 32
REMARK SMILES IDX 97 33 19 35 20 36 21 37 22 38 23 39 24 40 25 41 26 42 27 43
REMARK SMILES IDX 88 44 28 45 87 46 29 47 30 48 31 49 81 50 32 51 86 52 80 53
REMARK SMILES IDX 82 54 33 55 85 56 79 57 78 58 34 60 66 61 46 62 65 63 47 64
REMARK SMILES IDX 50 65 64 66 83 67 48 68 49 69 63 71 84 72 51 73 35 74 36 75
REMARK SMILES IDX 44 76 37 77 39 78 45 79 38 80 40 81 41 82 42 83 43 84 67 85
REMARK SMILES IDX 68 86 76 87 69 88 71 89 77 90 70 91 72 92 73 93 74 94 75 95
REMARK SMILES IDX 52 96 53 97 61 98 54 99 56 100 62 101 55 102 57 103 58 104
REMARK SMILES IDX 59 105 60 106
REMARK H PARENT 98 34 82 59 50 70
REMARK Flexibility Score: inf
ROOT
ATOM      1  C   UNL A   1      45.134  27.698  27.886  1.00  0.00     0.188 C 
ENDROOT
BRANCH   1   2
ATOM      2  O   UNL A   1      45.344  26.382  27.327  1.00  0.00    -0.377 OA
BRANCH   2   3
ATOM      3  C   UNL A   1      44.715  25.234  27.949  1.00  0.00     0.188 C 
BRANCH   3   4
ATOM      4  C   UNL A   1      43.317  24.908  27.401  1.00  0.00     0.188 C 
BRANCH   4   5
ATOM      5  O   UNL A   1      42.034  25.806  27.151  1.00  0.00    -0.376 OA
BRANCH   5   6
ATOM      6  C   UNL A   1      40.438  25.380  26.523  1.00  0.00     0.202 C 
BRANCH   6   7
ATOM      7  C   UNL A   1      38.841  24.604  27.151  1.00  0.00     0.261 C 
BRANCH   7   8
ATOM      8  O   UNL A   1      37.218  24.248  26.309  1.00  0.00    -0.460 OA
BRANCH   8   9
ATOM      9  C   UNL A   1      35.996  23.395  25.927  1.00  0.00     0.350 C 
ATOM     10  O   UNL A   1      36.094  22.182  26.179  1.00  0.00    -0.247 OA
BRANCH   9  11
ATOM     11  C   UNL A   1      34.440  23.854  25.050  1.00  0.00     0.209 C 
ATOM     12  C   UNL A   1      33.004  23.570  25.665  1.00  0.00     0.082 C 
ATOM     13  C   UNL A   1      34.463  25.345  24.455  1.00  0.00     0.082 C 
ATOM     14  C   UNL A   1      31.758  24.347  25.246  1.00  0.00     0.124 C 
ATOM     15  C   UNL A   1      33.095  25.902  23.952  1.00  0.00     0.124 C 
ATOM     16  N   UNL A   1      32.026  25.726  24.926  1.00  0.00    -0.338 N 
ATOM     17  C   UNL A   1      31.130  26.673  25.404  1.00  0.00     0.261 C 
ATOM     18  O   UNL A   1      30.569  26.595  26.499  1.00  0.00    -0.269 OA
BRANCH  11  19
ATOM     19  O   UNL A   1      34.459  23.160  23.713  1.00  0.00    -0.475 OA
BRANCH  19  20
ATOM     20  C   UNL A   1      33.669  22.066  23.536  1.00  0.00     0.121 A 
ATOM     21  C   UNL A   1      33.489  18.506  24.810  1.00  0.00     0.044 C 
ATOM     22  C   UNL A   1      33.107  19.765  24.089  1.00  0.00    -0.047 A 
ATOM     23  C   UNL A   1      32.114  19.792  23.112  1.00  0.00     0.003 A 
ATOM     24  C   UNL A   1      33.775  20.955  24.376  1.00  0.00     0.050 A 
ATOM     25  C   UNL A   1      31.872  20.967  22.390  1.00  0.00     0.004 A 
ATOM     26  C   UNL A   1      32.672  22.095  22.579  1.00  0.00     0.046 A 
ENDBRANCH  19  20
ENDBRANCH  11  19
BRANCH  17  27
ATOM     27  C   UNL A   1      30.671  27.729  24.478  1.00  0.00     0.123 A 
ATOM     28  C   UNL A   1      29.917  27.430  23.409  1.00  0.00     0.132 A 
ATOM     29  C   UNL A   1      31.282  29.074  24.501  1.00  0.00     0.263 A 
ATOM     30  N   UNL A   1      29.571  28.311  22.405  1.00  0.00    -0.246 NA
ATOM     31  N   UNL A   1      30.926  29.898  23.467  1.00  0.00    -0.312 N 
ATOM     32  O   UNL A   1      32.078  29.446  25.357  1.00  0.00    -0.269 OA
ATOM     33  C   UNL A   1      30.090  29.489  22.472  1.00  0.00     0.199 A 
ATOM     34  H   UNL A   1      31.286  30.813  23.442  1.00  0.00     0.171 HD
ENDBRANCH  17  27
ENDBRANCH   9  11
ENDBRANCH   8   9
ENDBRANCH   7   8
ENDBRANCH   6   7
ENDBRANCH   5   6
ENDBRANCH   4   5
ENDBRANCH   3   4
ENDBRANCH   2   3
ENDBRANCH   1   2
BRANCH   1  35
ATOM     35  C   UNL A   1      45.912  28.837  27.172  1.00  0.00     0.188 C 
BRANCH  35  36
ATOM     36  O   UNL A   1      45.444  30.146  27.396  1.00  0.00    -0.376 OA
BRANCH  36  37
ATOM     37  C   UNL A   1      45.832  30.996  26.338  1.00  0.00     0.202 C 
BRANCH  37  38
ATOM     38  C   UNL A   1      45.884  32.551  26.515  1.00  0.00     0.261 C 
BRANCH  38  39
ATOM     39  O   UNL A   1      44.796  33.599  26.422  1.00  0.00    -0.460 OA
BRANCH  39  40
ATOM     40  C   UNL A   1      43.988  34.671  26.280  1.00  0.00     0.338 C 
ATOM     41  O   UNL A   1      43.709  35.048  25.159  1.00  0.00    -0.246 OA
BRANCH  40  42
ATOM     42  C   UNL A   1      43.458  35.480  27.426  1.00  0.00     0.060 A 
ATOM     43  C   UNL A   1      42.224  36.098  27.381  1.00  0.00     0.016 A 
ATOM     44  C   UNL A   1      44.050  35.518  28.675  1.00  0.00     0.016 A 
ATOM     45  C   UNL A   1      41.871  37.039  28.384  1.00  0.00     0.010 A 
ATOM     46  C   UNL A   1      43.842  36.653  29.499  1.00  0.00     0.010 A 
ATOM     47  C   UNL A   1      42.851  37.608  29.220  1.00  0.00    -0.014 A 
BRANCH  47  48
ATOM     48  C   UNL A   1      43.047  39.280  29.743  1.00  0.00     0.031 A 
ATOM     49  C   UNL A   1      43.601  39.790  28.141  1.00  0.00     0.074 A 
ATOM     50  C   UNL A   1      43.200  40.055  31.233  1.00  0.00     0.049 A 
ATOM     51  N   UNL A   1      44.800  40.267  27.897  1.00  0.00    -0.248 NA
ATOM     52  C   UNL A   1      42.981  39.509  26.827  1.00  0.00     0.031 C 
ATOM     53  C   UNL A   1      43.774  41.546  31.810  1.00  0.00     0.029 A 
ATOM     54  N   UNL A   1      43.318  39.633  32.736  1.00  0.00    -0.354 N 
ATOM     55  C   UNL A   1      44.844  40.820  26.662  1.00  0.00     0.074 A 
ATOM     56  C   UNL A   1      43.837  40.076  25.960  1.00  0.00     0.031 C 
ATOM     57  C   UNL A   1      43.999  41.710  33.111  1.00  0.00     0.029 A 
ATOM     58  C   UNL A   1      44.128  40.410  33.587  1.00  0.00     0.049 A 
ATOM     59  H   UNL A   1      42.838  38.844  33.078  1.00  0.00     0.167 HD
ATOM     60  C   UNL A   1      45.532  41.980  26.427  1.00  0.00     0.034 A 
ATOM     61  C   UNL A   1      45.274  40.013  34.219  1.00  0.00     0.034 A 
ATOM     62  C   UNL A   1      46.038  42.643  27.692  1.00  0.00     0.049 A 
ATOM     63  C   UNL A   1      46.523  40.748  33.590  1.00  0.00     0.074 A 
ATOM     64  C   UNL A   1      45.598  43.768  28.382  1.00  0.00     0.029 A 
ATOM     65  N   UNL A   1      46.969  42.048  28.571  1.00  0.00    -0.354 N 
ATOM     66  N   UNL A   1      46.500  41.480  32.487  1.00  0.00    -0.248 NA
ATOM     67  C   UNL A   1      47.850  40.800  34.185  1.00  0.00     0.031 C 
ATOM     68  C   UNL A   1      46.188  43.801  29.685  1.00  0.00     0.029 A 
ATOM     69  C   UNL A   1      47.048  42.719  29.821  1.00  0.00     0.049 A 
ATOM     70  H   UNL A   1      47.504  41.254  28.344  1.00  0.00     0.167 HD
ATOM     71  C   UNL A   1      47.755  41.900  32.101  1.00  0.00     0.074 A 
ATOM     72  C   UNL A   1      48.524  41.571  33.304  1.00  0.00     0.031 C 
ATOM     73  C   UNL A   1      48.096  42.412  30.846  1.00  0.00     0.034 A 
BRANCH  60  74
ATOM     74  C   UNL A   1      45.292  42.704  25.086  1.00  0.00     0.023 A 
ATOM     75  C   UNL A   1      44.186  43.563  24.940  1.00  0.00     0.012 A 
ATOM     76  C   UNL A   1      46.078  42.524  23.914  1.00  0.00     0.148 A 
ATOM     77  C   UNL A   1      43.793  44.081  23.693  1.00  0.00     0.002 A 
ATOM     78  C   UNL A   1      45.636  42.954  22.655  1.00  0.00     0.091 A 
ATOM     79  F   UNL A   1      47.307  41.998  24.025  1.00  0.00    -0.205 F 
ATOM     80  C   UNL A   1      44.483  43.731  22.541  1.00  0.00     0.022 A 
BRANCH  78  81
ATOM     81  S   UNL A   1      46.426  42.430  21.117  1.00  0.00     0.127 S 
ATOM     82  O   UNL A   1      46.403  40.969  21.229  1.00  0.00    -0.237 OA
ATOM     83  O   UNL A   1      45.530  42.970  20.097  1.00  0.00    -0.237 OA
ATOM     84  O   UNL A   1      47.768  43.001  21.149  1.00  0.00    -0.744 OA
ENDBRANCH  78  81
ENDBRANCH  60  74
BRANCH  61  85
ATOM     85  C   UNL A   1      45.107  38.629  34.803  1.00  0.00     0.023 A 
ATOM     86  C   UNL A   1      44.632  38.608  36.151  1.00  0.00     0.012 A 
ATOM     87  C   UNL A   1      44.934  37.466  34.038  1.00  0.00     0.148 A 
ATOM     88  C   UNL A   1      43.808  37.583  36.623  1.00  0.00     0.002 A 
ATOM     89  C   UNL A   1      44.096  36.446  34.513  1.00  0.00     0.091 A 
ATOM     90  F   UNL A   1      45.459  37.430  32.805  1.00  0.00    -0.205 F 
ATOM     91  C   UNL A   1      43.502  36.522  35.784  1.00  0.00     0.022 A 
BRANCH  89  92
ATOM     92  S   UNL A   1      43.558  35.105  33.434  1.00  0.00     0.127 S 
ATOM     93  O   UNL A   1      44.834  34.487  33.086  1.00  0.00    -0.237 OA
ATOM     94  O   UNL A   1      42.704  34.296  34.306  1.00  0.00    -0.237 OA
ATOM     95  O   UNL A   1      42.847  35.772  32.351  1.00  0.00    -0.744 OA
ENDBRANCH  89  92
ENDBRANCH  61  85
BRANCH  73  96
ATOM     96  C   UNL A   1      49.540  42.748  30.420  1.00  0.00     0.023 A 
ATOM     97  C   UNL A   1      50.232  42.006  29.446  1.00  0.00     0.012 A 
ATOM     98  C   UNL A   1      50.214  43.909  30.904  1.00  0.00     0.148 A 
ATOM     99  C   UNL A   1      51.528  42.333  29.031  1.00  0.00     0.002 A 
ATOM    100  C   UNL A   1      51.447  44.306  30.388  1.00  0.00     0.091 A 
ATOM    101  F   UNL A   1      49.692  44.629  31.905  1.00  0.00    -0.205 F 
ATOM    102  C   UNL A   1      52.126  43.499  29.479  1.00  0.00     0.022 A 
BRANCH 100 103
ATOM    103  S   UNL A   1      52.132  45.936  30.737  1.00  0.00     0.127 S 
ATOM    104  O   UNL A   1      53.555  45.644  30.884  1.00  0.00    -0.237 OA
ATOM    105  O   UNL A   1      51.785  46.684  29.526  1.00  0.00    -0.237 OA
ATOM    106  O   UNL A   1      51.438  46.391  31.934  1.00  0.00    -0.744 OA
ENDBRANCH 100 103
ENDBRANCH  73  96
ENDBRANCH  47  48
ENDBRANCH  40  42
ENDBRANCH  39  40
ENDBRANCH  38  39
ENDBRANCH  37  38
ENDBRANCH  36  37
ENDBRANCH  35  36
ENDBRANCH   1  35
TORSDOF 26
ENDMDL
