MODEL 1
REMARK VINA RESULT:      -8.3      0.000      0.000
REMARK SMILES CCN(CC)C(=O)C[C@](C)(C(=O)OCCOCCOCCOCCOC(=O)c1ccc(-c2c3nc(c(-c4cccc(S(=O)(=O)[O-])c4F)c4ccc([nH]4)c(-c4cccc(S(=O)(=O)[O-])c4F)c4nc(c(-c5cccc(S(=O)(=O)[O-])c5F)c5ccc2[nH]5)C=C4)C=C3)cc1)c1ccccc1
REMARK SMILES IDX 19 1 18 2 17 3 16 4 15 5 14 6 13 7 11 8 12 9 9 10 10 11 8 12
REMARK SMILES IDX 6 13 3 14 7 15 2 16 1 17 4 18 5 19 91 20 92 21 96 22 93 23
REMARK SMILES IDX 95 24 94 25 20 26 21 27 22 28 23 29 24 30 25 31 26 32 27 33
REMARK SMILES IDX 28 34 29 35 90 36 30 37 89 38 31 39 32 40 33 41 83 42 34 43
REMARK SMILES IDX 88 44 82 45 84 46 35 47 87 48 81 49 80 50 36 52 68 53 48 54
REMARK SMILES IDX 67 55 49 56 52 57 66 58 85 59 50 60 51 61 65 63 86 64 53 65
REMARK SMILES IDX 37 66 38 67 46 68 39 69 41 70 47 71 40 72 42 73 43 74 44 75
REMARK SMILES IDX 45 76 69 77 70 78 78 79 71 80 73 81 79 82 72 83 74 84 75 85
REMARK SMILES IDX 76 86 77 87 54 88 55 89 63 90 56 91 58 92 64 93 57 94 59 95
REMARK SMILES IDX 60 96 61 97 62 98
REMARK H PARENT 84 51 52 62
REMARK Flexibility Score: inf
ROOT
ATOM      1  O   UNL A   1      34.688  31.404  27.420  1.00  0.00    -0.377 OA
ENDROOT
BRANCH   1   2
ATOM      2  C   UNL A   1      33.565  30.550  27.531  1.00  0.00     0.188 C 
BRANCH   2   3
ATOM      3  C   UNL A   1      32.333  30.879  26.685  1.00  0.00     0.188 C 
BRANCH   3   4
ATOM      4  O   UNL A   1      32.308  30.174  25.450  1.00  0.00    -0.376 OA
BRANCH   4   5
ATOM      5  C   UNL A   1      32.769  28.837  25.424  1.00  0.00     0.202 C 
BRANCH   5   6
ATOM      6  C   UNL A   1      33.748  28.461  24.300  1.00  0.00     0.261 C 
BRANCH   6   7
ATOM      7  O   UNL A   1      33.977  27.059  24.052  1.00  0.00    -0.463 OA
BRANCH   7   8
ATOM      8  C   UNL A   1      33.393  26.513  22.956  1.00  0.00     0.316 C 
ATOM      9  O   UNL A   1      33.852  26.730  21.843  1.00  0.00    -0.251 OA
BRANCH   8  10
ATOM     10  C   UNL A   1      32.119  25.650  23.264  1.00  0.00     0.099 C 
ATOM     11  C   UNL A   1      31.919  24.503  22.221  1.00  0.00     0.029 C 
BRANCH  10  12
ATOM     12  C   UNL A   1      32.301  24.914  24.621  1.00  0.00     0.123 C 
BRANCH  12  13
ATOM     13  C   UNL A   1      32.261  23.406  24.570  1.00  0.00     0.224 C 
ATOM     14  N   UNL A   1      33.428  22.652  24.608  1.00  0.00    -0.343 N 
ATOM     15  O   UNL A   1      31.148  22.867  24.560  1.00  0.00    -0.275 OA
BRANCH  14  16
ATOM     16  C   UNL A   1      33.245  21.236  24.970  1.00  0.00     0.116 C 
ATOM     17  C   UNL A   1      34.524  20.399  25.008  1.00  0.00     0.027 C 
ENDBRANCH  14  16
BRANCH  14  18
ATOM     18  C   UNL A   1      34.774  22.953  24.072  1.00  0.00     0.116 C 
ATOM     19  C   UNL A   1      35.682  24.027  24.642  1.00  0.00     0.027 C 
ENDBRANCH  14  18
ENDBRANCH  12  13
ENDBRANCH  10  12
BRANCH  10  20
ATOM     20  C   UNL A   1      30.809  26.521  23.274  1.00  0.00    -0.030 A 
ATOM     21  C   UNL A   1      30.713  27.783  22.652  1.00  0.00     0.005 A 
ATOM     22  C   UNL A   1      29.637  26.066  23.917  1.00  0.00     0.005 A 
ATOM     23  C   UNL A   1      29.516  28.508  22.608  1.00  0.00     0.000 A 
ATOM     24  C   UNL A   1      28.440  26.795  23.884  1.00  0.00     0.000 A 
ATOM     25  C   UNL A   1      28.376  28.012  23.219  1.00  0.00     0.000 A 
ENDBRANCH  10  20
ENDBRANCH   8  10
ENDBRANCH   7   8
ENDBRANCH   6   7
ENDBRANCH   5   6
ENDBRANCH   4   5
ENDBRANCH   3   4
ENDBRANCH   2   3
ENDBRANCH   1   2
BRANCH   1  26
ATOM     26  C   UNL A   1      34.578  32.648  28.091  1.00  0.00     0.188 C 
BRANCH  26  27
ATOM     27  C   UNL A   1      34.831  32.553  29.610  1.00  0.00     0.188 C 
BRANCH  27  28
ATOM     28  O   UNL A   1      34.006  33.217  30.564  1.00  0.00    -0.376 OA
BRANCH  28  29
ATOM     29  C   UNL A   1      34.548  34.189  31.440  1.00  0.00     0.202 C 
BRANCH  29  30
ATOM     30  C   UNL A   1      35.900  33.902  32.117  1.00  0.00     0.261 C 
BRANCH  30  31
ATOM     31  O   UNL A   1      37.080  34.294  31.404  1.00  0.00    -0.460 OA
BRANCH  31  32
ATOM     32  C   UNL A   1      38.146  34.643  32.162  1.00  0.00     0.338 C 
ATOM     33  O   UNL A   1      38.151  34.904  33.354  1.00  0.00    -0.246 OA
BRANCH  32  34
ATOM     34  C   UNL A   1      39.372  34.516  31.340  1.00  0.00     0.060 A 
ATOM     35  C   UNL A   1      40.602  34.307  31.980  1.00  0.00     0.016 A 
ATOM     36  C   UNL A   1      39.309  34.612  29.949  1.00  0.00     0.016 A 
ATOM     37  C   UNL A   1      41.778  34.216  31.235  1.00  0.00     0.010 A 
ATOM     38  C   UNL A   1      40.491  34.565  29.205  1.00  0.00     0.010 A 
ATOM     39  C   UNL A   1      41.730  34.403  29.849  1.00  0.00    -0.014 A 
BRANCH  39  40
ATOM     40  C   UNL A   1      42.976  34.702  29.106  1.00  0.00     0.031 A 
ATOM     41  C   UNL A   1      43.932  33.564  28.871  1.00  0.00     0.074 A 
ATOM     42  C   UNL A   1      43.272  35.942  28.683  1.00  0.00     0.049 A 
ATOM     43  N   UNL A   1      45.128  33.580  28.348  1.00  0.00    -0.248 NA
ATOM     44  C   UNL A   1      43.475  32.228  29.293  1.00  0.00     0.031 C 
ATOM     45  C   UNL A   1      42.416  37.116  28.833  1.00  0.00     0.029 A 
ATOM     46  N   UNL A   1      44.404  36.423  28.072  1.00  0.00    -0.354 N 
ATOM     47  C   UNL A   1      45.581  32.268  28.411  1.00  0.00     0.074 A 
ATOM     48  C   UNL A   1      44.534  31.481  29.022  1.00  0.00     0.031 C 
ATOM     49  C   UNL A   1      43.071  38.194  28.366  1.00  0.00     0.029 A 
ATOM     50  C   UNL A   1      44.403  37.789  27.915  1.00  0.00     0.049 A 
ATOM     51  H   UNL A   1      45.143  35.846  27.775  1.00  0.00     0.167 HD
ATOM     52  C   UNL A   1      46.763  31.760  27.992  1.00  0.00     0.034 A 
ATOM     53  C   UNL A   1      45.380  38.615  27.490  1.00  0.00     0.034 A 
ATOM     54  C   UNL A   1      47.799  32.543  27.380  1.00  0.00     0.049 A 
ATOM     55  C   UNL A   1      46.707  38.030  27.066  1.00  0.00     0.074 A 
ATOM     56  C   UNL A   1      49.018  32.117  26.885  1.00  0.00     0.029 A 
ATOM     57  N   UNL A   1      47.743  33.914  27.193  1.00  0.00    -0.354 N 
ATOM     58  N   UNL A   1      47.081  36.774  27.027  1.00  0.00    -0.248 NA
ATOM     59  C   UNL A   1      47.735  38.975  26.603  1.00  0.00     0.031 C 
ATOM     60  C   UNL A   1      49.713  33.239  26.424  1.00  0.00     0.029 A 
ATOM     61  C   UNL A   1      48.912  34.357  26.601  1.00  0.00     0.049 A 
ATOM     62  H   UNL A   1      46.984  34.489  27.443  1.00  0.00     0.167 HD
ATOM     63  C   UNL A   1      48.369  36.774  26.498  1.00  0.00     0.074 A 
ATOM     64  C   UNL A   1      48.704  38.155  26.219  1.00  0.00     0.031 C 
ATOM     65  C   UNL A   1      49.203  35.729  26.273  1.00  0.00     0.034 A 
BRANCH  52  66
ATOM     66  C   UNL A   1      46.990  30.285  28.177  1.00  0.00     0.023 A 
ATOM     67  C   UNL A   1      47.573  29.810  29.370  1.00  0.00     0.012 A 
ATOM     68  C   UNL A   1      46.590  29.367  27.187  1.00  0.00     0.148 A 
ATOM     69  C   UNL A   1      47.782  28.445  29.561  1.00  0.00     0.002 A 
ATOM     70  C   UNL A   1      46.761  28.006  27.404  1.00  0.00     0.091 A 
ATOM     71  F   UNL A   1      46.065  29.843  26.049  1.00  0.00    -0.205 F 
ATOM     72  C   UNL A   1      47.367  27.545  28.584  1.00  0.00     0.022 A 
BRANCH  70  73
ATOM     73  S   UNL A   1      46.191  26.762  26.240  1.00  0.00     0.127 S 
ATOM     74  O   UNL A   1      44.747  26.789  26.464  1.00  0.00    -0.237 OA
ATOM     75  O   UNL A   1      46.621  27.322  24.959  1.00  0.00    -0.237 OA
ATOM     76  O   UNL A   1      46.859  25.524  26.617  1.00  0.00    -0.744 OA
ENDBRANCH  70  73
ENDBRANCH  52  66
BRANCH  53  77
ATOM     77  C   UNL A   1      45.143  40.086  27.424  1.00  0.00     0.023 A 
ATOM     78  C   UNL A   1      44.625  40.654  26.244  1.00  0.00     0.012 A 
ATOM     79  C   UNL A   1      45.423  40.922  28.522  1.00  0.00     0.148 A 
ATOM     80  C   UNL A   1      44.419  42.031  26.147  1.00  0.00     0.002 A 
ATOM     81  C   UNL A   1      45.160  42.285  28.440  1.00  0.00     0.091 A 
ATOM     82  F   UNL A   1      45.933  40.368  29.631  1.00  0.00    -0.205 F 
ATOM     83  C   UNL A   1      44.677  42.844  27.246  1.00  0.00     0.022 A 
BRANCH  81  84
ATOM     84  S   UNL A   1      45.332  43.388  29.847  1.00  0.00     0.127 S 
ATOM     85  O   UNL A   1      46.761  43.295  30.130  1.00  0.00    -0.237 OA
ATOM     86  O   UNL A   1      44.896  44.665  29.280  1.00  0.00    -0.237 OA
ATOM     87  O   UNL A   1      44.446  42.858  30.874  1.00  0.00    -0.744 OA
ENDBRANCH  81  84
ENDBRANCH  53  77
BRANCH  65  88
ATOM     88  C   UNL A   1      50.545  36.015  25.650  1.00  0.00     0.023 A 
ATOM     89  C   UNL A   1      50.680  36.038  24.249  1.00  0.00     0.012 A 
ATOM     90  C   UNL A   1      51.646  36.366  26.458  1.00  0.00     0.148 A 
ATOM     91  C   UNL A   1      51.897  36.382  23.660  1.00  0.00     0.002 A 
ATOM     92  C   UNL A   1      52.840  36.756  25.865  1.00  0.00     0.091 A 
ATOM     93  F   UNL A   1      51.499  36.323  27.790  1.00  0.00    -0.205 F 
ATOM     94  C   UNL A   1      52.970  36.753  24.467  1.00  0.00     0.022 A 
BRANCH  92  95
ATOM     95  S   UNL A   1      54.243  37.346  26.819  1.00  0.00     0.127 S 
ATOM     96  O   UNL A   1      53.585  37.898  28.004  1.00  0.00    -0.237 OA
ATOM     97  O   UNL A   1      54.995  36.114  27.058  1.00  0.00    -0.237 OA
ATOM     98  O   UNL A   1      54.925  38.317  25.975  1.00  0.00    -0.744 OA
ENDBRANCH  92  95
ENDBRANCH  65  88
ENDBRANCH  39  40
ENDBRANCH  32  34
ENDBRANCH  31  32
ENDBRANCH  30  31
ENDBRANCH  29  30
ENDBRANCH  28  29
ENDBRANCH  27  28
ENDBRANCH  26  27
ENDBRANCH   1  26
TORSDOF 28
ENDMDL
MODEL 2
REMARK VINA RESULT:      -8.2      1.526      2.973
REMARK SMILES CCN(CC)C(=O)C[C@](C)(C(=O)OCCOCCOCCOCCOC(=O)c1ccc(-c2c3nc(c(-c4cccc(S(=O)(=O)[O-])c4F)c4ccc([nH]4)c(-c4cccc(S(=O)(=O)[O-])c4F)c4nc(c(-c5cccc(S(=O)(=O)[O-])c5F)c5ccc2[nH]5)C=C4)C=C3)cc1)c1ccccc1
REMARK SMILES IDX 19 1 18 2 17 3 16 4 15 5 14 6 13 7 11 8 12 9 9 10 10 11 8 12
REMARK SMILES IDX 6 13 3 14 7 15 2 16 1 17 4 18 5 19 91 20 92 21 96 22 93 23
REMARK SMILES IDX 95 24 94 25 20 26 21 27 22 28 23 29 24 30 25 31 26 32 27 33
REMARK SMILES IDX 28 34 29 35 90 36 30 37 89 38 31 39 32 40 33 41 83 42 34 43
REMARK SMILES IDX 88 44 82 45 84 46 35 47 87 48 81 49 80 50 36 52 68 53 48 54
REMARK SMILES IDX 67 55 49 56 52 57 66 58 85 59 50 60 51 61 65 63 86 64 53 65
REMARK SMILES IDX 37 66 38 67 46 68 39 69 41 70 47 71 40 72 42 73 43 74 44 75
REMARK SMILES IDX 45 76 69 77 70 78 78 79 71 80 73 81 79 82 72 83 74 84 75 85
REMARK SMILES IDX 76 86 77 87 54 88 55 89 63 90 56 91 58 92 64 93 57 94 59 95
REMARK SMILES IDX 60 96 61 97 62 98
REMARK H PARENT 84 51 52 62
REMARK Flexibility Score: inf
ROOT
ATOM      1  O   UNL A   1      34.124  30.924  27.402  1.00  0.00    -0.377 OA
ENDROOT
BRANCH   1   2
ATOM      2  C   UNL A   1      32.807  30.407  27.373  1.00  0.00     0.188 C 
BRANCH   2   3
ATOM      3  C   UNL A   1      32.064  30.423  26.035  1.00  0.00     0.188 C 
BRANCH   3   4
ATOM      4  O   UNL A   1      32.180  29.195  25.326  1.00  0.00    -0.376 OA
BRANCH   4   5
ATOM      5  C   UNL A   1      32.133  27.984  26.056  1.00  0.00     0.202 C 
BRANCH   5   6
ATOM      6  C   UNL A   1      33.177  26.915  25.696  1.00  0.00     0.261 C 
BRANCH   6   7
ATOM      7  O   UNL A   1      32.813  25.532  25.885  1.00  0.00    -0.463 OA
BRANCH   7   8
ATOM      8  C   UNL A   1      32.766  24.740  24.785  1.00  0.00     0.316 C 
ATOM      9  O   UNL A   1      33.643  24.817  23.935  1.00  0.00    -0.251 OA
BRANCH   8  10
ATOM     10  C   UNL A   1      31.515  23.795  24.721  1.00  0.00     0.099 C 
ATOM     11  C   UNL A   1      30.727  23.770  26.071  1.00  0.00     0.029 C 
BRANCH  10  12
ATOM     12  C   UNL A   1      30.495  24.346  23.686  1.00  0.00     0.123 C 
BRANCH  12  13
ATOM     13  C   UNL A   1      30.053  25.776  23.884  1.00  0.00     0.224 C 
ATOM     14  N   UNL A   1      30.440  26.779  23.004  1.00  0.00    -0.343 N 
ATOM     15  O   UNL A   1      29.280  26.007  24.822  1.00  0.00    -0.275 OA
BRANCH  14  16
ATOM     16  C   UNL A   1      29.627  28.006  23.058  1.00  0.00     0.116 C 
ATOM     17  C   UNL A   1      30.215  29.215  22.330  1.00  0.00     0.027 C 
ENDBRANCH  14  16
BRANCH  14  18
ATOM     18  C   UNL A   1      31.692  26.937  22.231  1.00  0.00     0.116 C 
ATOM     19  C   UNL A   1      32.083  26.036  21.074  1.00  0.00     0.027 C 
ENDBRANCH  14  18
ENDBRANCH  12  13
ENDBRANCH  10  12
BRANCH  10  20
ATOM     20  C   UNL A   1      31.916  22.314  24.374  1.00  0.00    -0.030 A 
ATOM     21  C   UNL A   1      32.239  21.350  25.351  1.00  0.00     0.005 A 
ATOM     22  C   UNL A   1      31.964  21.868  23.035  1.00  0.00     0.005 A 
ATOM     23  C   UNL A   1      32.520  20.017  25.025  1.00  0.00     0.000 A 
ATOM     24  C   UNL A   1      32.257  20.537  22.705  1.00  0.00     0.000 A 
ATOM     25  C   UNL A   1      32.523  19.608  23.700  1.00  0.00     0.000 A 
ENDBRANCH  10  20
ENDBRANCH   8  10
ENDBRANCH   7   8
ENDBRANCH   6   7
ENDBRANCH   5   6
ENDBRANCH   4   5
ENDBRANCH   3   4
ENDBRANCH   2   3
ENDBRANCH   1   2
BRANCH   1  26
ATOM     26  C   UNL A   1      34.271  32.186  28.031  1.00  0.00     0.188 C 
BRANCH  26  27
ATOM     27  C   UNL A   1      35.065  32.128  29.351  1.00  0.00     0.188 C 
BRANCH  27  28
ATOM     28  O   UNL A   1      34.542  32.625  30.581  1.00  0.00    -0.376 OA
BRANCH  28  29
ATOM     29  C   UNL A   1      35.195  33.671  31.277  1.00  0.00     0.202 C 
BRANCH  29  30
ATOM     30  C   UNL A   1      36.630  33.440  31.781  1.00  0.00     0.261 C 
BRANCH  30  31
ATOM     31  O   UNL A   1      37.625  34.383  31.362  1.00  0.00    -0.460 OA
BRANCH  31  32
ATOM     32  C   UNL A   1      38.660  34.575  32.213  1.00  0.00     0.338 C 
ATOM     33  O   UNL A   1      38.609  34.682  33.427  1.00  0.00    -0.246 OA
BRANCH  32  34
ATOM     34  C   UNL A   1      39.925  34.486  31.445  1.00  0.00     0.060 A 
ATOM     35  C   UNL A   1      41.134  34.337  32.140  1.00  0.00     0.016 A 
ATOM     36  C   UNL A   1      39.918  34.561  30.051  1.00  0.00     0.016 A 
ATOM     37  C   UNL A   1      42.343  34.283  31.446  1.00  0.00     0.010 A 
ATOM     38  C   UNL A   1      41.132  34.552  29.358  1.00  0.00     0.010 A 
ATOM     39  C   UNL A   1      42.348  34.449  30.057  1.00  0.00    -0.014 A 
BRANCH  39  40
ATOM     40  C   UNL A   1      43.611  34.788  29.363  1.00  0.00     0.031 A 
ATOM     41  C   UNL A   1      44.464  33.646  28.879  1.00  0.00     0.074 A 
ATOM     42  C   UNL A   1      44.012  36.059  29.195  1.00  0.00     0.049 A 
ATOM     43  N   UNL A   1      45.654  33.669  28.344  1.00  0.00    -0.248 NA
ATOM     44  C   UNL A   1      43.895  32.295  29.030  1.00  0.00     0.031 C 
ATOM     45  C   UNL A   1      43.262  37.245  29.600  1.00  0.00     0.029 A 
ATOM     46  N   UNL A   1      45.178  36.558  28.669  1.00  0.00    -0.354 N 
ATOM     47  C   UNL A   1      45.992  32.338  28.128  1.00  0.00     0.074 A 
ATOM     48  C   UNL A   1      44.883  31.533  28.589  1.00  0.00     0.031 C 
ATOM     49  C   UNL A   1      44.006  38.336  29.348  1.00  0.00     0.029 A 
ATOM     50  C   UNL A   1      45.296  37.922  28.795  1.00  0.00     0.049 A 
ATOM     51  H   UNL A   1      45.864  35.995  28.245  1.00  0.00     0.167 HD
ATOM     52  C   UNL A   1      47.123  31.830  27.588  1.00  0.00     0.034 A 
ATOM     53  C   UNL A   1      46.339  38.733  28.525  1.00  0.00     0.034 A 
ATOM     54  C   UNL A   1      48.220  32.631  27.124  1.00  0.00     0.049 A 
ATOM     55  C   UNL A   1      47.607  38.138  27.961  1.00  0.00     0.074 A 
ATOM     56  C   UNL A   1      49.395  32.215  26.526  1.00  0.00     0.029 A 
ATOM     57  N   UNL A   1      48.283  34.011  27.222  1.00  0.00    -0.354 N 
ATOM     58  N   UNL A   1      47.871  36.890  27.658  1.00  0.00    -0.248 NA
ATOM     59  C   UNL A   1      48.712  39.068  27.677  1.00  0.00     0.031 C 
ATOM     60  C   UNL A   1      50.183  33.345  26.288  1.00  0.00     0.029 A 
ATOM     61  C   UNL A   1      49.483  34.466  26.707  1.00  0.00     0.049 A 
ATOM     62  H   UNL A   1      47.578  34.584  27.602  1.00  0.00     0.167 HD
ATOM     63  C   UNL A   1      49.151  36.890  27.111  1.00  0.00     0.074 A 
ATOM     64  C   UNL A   1      49.605  38.265  27.113  1.00  0.00     0.031 C 
ATOM     65  C   UNL A   1      49.890  35.847  26.659  1.00  0.00     0.034 A 
BRANCH  52  66
ATOM     66  C   UNL A   1      47.221  30.333  27.462  1.00  0.00     0.023 A 
ATOM     67  C   UNL A   1      47.868  29.588  28.469  1.00  0.00     0.012 A 
ATOM     68  C   UNL A   1      46.640  29.665  26.369  1.00  0.00     0.148 A 
ATOM     69  C   UNL A   1      47.961  28.200  28.373  1.00  0.00     0.002 A 
ATOM     70  C   UNL A   1      46.697  28.278  26.303  1.00  0.00     0.091 A 
ATOM     71  F   UNL A   1      46.055  30.396  25.409  1.00  0.00    -0.205 F 
ATOM     72  C   UNL A   1      47.367  27.547  27.298  1.00  0.00     0.022 A 
BRANCH  70  73
ATOM     73  S   UNL A   1      45.898  27.338  24.998  1.00  0.00     0.127 S 
ATOM     74  O   UNL A   1      44.508  27.772  25.131  1.00  0.00    -0.237 OA
ATOM     75  O   UNL A   1      46.580  27.834  23.802  1.00  0.00    -0.237 OA
ATOM     76  O   UNL A   1      46.148  25.936  25.303  1.00  0.00    -0.744 OA
ENDBRANCH  70  73
ENDBRANCH  52  66
BRANCH  53  77
ATOM     77  C   UNL A   1      46.230  40.201  28.765  1.00  0.00     0.023 A 
ATOM     78  C   UNL A   1      46.550  40.722  30.034  1.00  0.00     0.012 A 
ATOM     79  C   UNL A   1      45.819  41.081  27.746  1.00  0.00     0.148 A 
ATOM     80  C   UNL A   1      46.431  42.089  30.293  1.00  0.00     0.002 A 
ATOM     81  C   UNL A   1      45.759  42.448  27.993  1.00  0.00     0.091 A 
ATOM     82  F   UNL A   1      45.500  40.566  26.550  1.00  0.00    -0.205 F 
ATOM     83  C   UNL A   1      46.045  42.951  29.272  1.00  0.00     0.022 A 
BRANCH  81  84
ATOM     84  S   UNL A   1      45.405  43.648  26.704  1.00  0.00     0.127 S 
ATOM     85  O   UNL A   1      44.266  43.036  26.028  1.00  0.00    -0.237 OA
ATOM     86  O   UNL A   1      45.090  44.844  27.487  1.00  0.00    -0.237 OA
ATOM     87  O   UNL A   1      46.627  43.754  25.918  1.00  0.00    -0.744 OA
ENDBRANCH  81  84
ENDBRANCH  53  77
BRANCH  65  88
ATOM     88  C   UNL A   1      51.249  36.140  26.078  1.00  0.00     0.023 A 
ATOM     89  C   UNL A   1      51.369  36.534  24.731  1.00  0.00     0.012 A 
ATOM     90  C   UNL A   1      52.394  36.129  26.901  1.00  0.00     0.148 A 
ATOM     91  C   UNL A   1      52.611  36.887  24.204  1.00  0.00     0.002 A 
ATOM     92  C   UNL A   1      53.619  36.530  26.382  1.00  0.00     0.091 A 
ATOM     93  F   UNL A   1      52.260  35.737  28.175  1.00  0.00    -0.205 F 
ATOM     94  C   UNL A   1      53.731  36.899  25.032  1.00  0.00     0.022 A 
BRANCH  92  95
ATOM     95  S   UNL A   1      55.095  36.672  27.397  1.00  0.00     0.127 S 
ATOM     96  O   UNL A   1      54.805  35.729  28.477  1.00  0.00    -0.237 OA
ATOM     97  O   UNL A   1      56.147  36.240  26.476  1.00  0.00    -0.237 OA
ATOM     98  O   UNL A   1      55.177  38.071  27.796  1.00  0.00    -0.744 OA
ENDBRANCH  92  95
ENDBRANCH  65  88
ENDBRANCH  39  40
ENDBRANCH  32  34
ENDBRANCH  31  32
ENDBRANCH  30  31
ENDBRANCH  29  30
ENDBRANCH  28  29
ENDBRANCH  27  28
ENDBRANCH  26  27
ENDBRANCH   1  26
TORSDOF 28
ENDMDL
MODEL 3
REMARK VINA RESULT:      -8.2      3.537      9.413
REMARK SMILES CCN(CC)C(=O)C[C@](C)(C(=O)OCCOCCOCCOCCOC(=O)c1ccc(-c2c3nc(c(-c4cccc(S(=O)(=O)[O-])c4F)c4ccc([nH]4)c(-c4cccc(S(=O)(=O)[O-])c4F)c4nc(c(-c5cccc(S(=O)(=O)[O-])c5F)c5ccc2[nH]5)C=C4)C=C3)cc1)c1ccccc1
REMARK SMILES IDX 19 1 18 2 17 3 16 4 15 5 14 6 13 7 11 8 12 9 9 10 10 11 8 12
REMARK SMILES IDX 6 13 3 14 7 15 2 16 1 17 4 18 5 19 91 20 92 21 96 22 93 23
REMARK SMILES IDX 95 24 94 25 20 26 21 27 22 28 23 29 24 30 25 31 26 32 27 33
REMARK SMILES IDX 28 34 29 35 90 36 30 37 89 38 31 39 32 40 33 41 83 42 34 43
REMARK SMILES IDX 88 44 82 45 84 46 35 47 87 48 81 49 80 50 36 52 68 53 48 54
REMARK SMILES IDX 67 55 49 56 52 57 66 58 85 59 50 60 51 61 65 63 86 64 53 65
REMARK SMILES IDX 37 66 38 67 46 68 39 69 41 70 47 71 40 72 42 73 43 74 44 75
REMARK SMILES IDX 45 76 69 77 70 78 78 79 71 80 73 81 79 82 72 83 74 84 75 85
REMARK SMILES IDX 76 86 77 87 54 88 55 89 63 90 56 91 58 92 64 93 57 94 59 95
REMARK SMILES IDX 60 96 61 97 62 98
REMARK H PARENT 84 51 52 62
REMARK Flexibility Score: inf
ROOT
ATOM      1  O   UNL A   1      42.485  21.128  26.539  1.00  0.00    -0.377 OA
ENDROOT
BRANCH   1   2
ATOM      2  C   UNL A   1      41.366  21.859  26.074  1.00  0.00     0.188 C 
BRANCH   2   3
ATOM      3  C   UNL A   1      39.986  21.208  26.200  1.00  0.00     0.188 C 
BRANCH   3   4
ATOM      4  O   UNL A   1      38.926  22.094  25.864  1.00  0.00    -0.376 OA
BRANCH   4   5
ATOM      5  C   UNL A   1      37.789  21.572  25.203  1.00  0.00     0.202 C 
BRANCH   5   6
ATOM      6  C   UNL A   1      36.417  22.067  25.686  1.00  0.00     0.261 C 
BRANCH   6   7
ATOM      7  O   UNL A   1      35.609  22.815  24.753  1.00  0.00    -0.463 OA
BRANCH   7   8
ATOM      8  C   UNL A   1      34.548  23.499  25.251  1.00  0.00     0.316 C 
ATOM      9  O   UNL A   1      34.475  23.732  26.450  1.00  0.00    -0.251 OA
BRANCH   8  10
ATOM     10  C   UNL A   1      33.476  23.902  24.177  1.00  0.00     0.099 C 
ATOM     11  C   UNL A   1      33.562  23.009  22.897  1.00  0.00     0.029 C 
BRANCH  10  12
ATOM     12  C   UNL A   1      32.051  23.642  24.738  1.00  0.00     0.123 C 
BRANCH  12  13
ATOM     13  C   UNL A   1      30.928  24.412  24.085  1.00  0.00     0.224 C 
ATOM     14  N   UNL A   1      30.455  25.599  24.631  1.00  0.00    -0.343 N 
ATOM     15  O   UNL A   1      30.490  23.978  23.012  1.00  0.00    -0.275 OA
BRANCH  14  16
ATOM     16  C   UNL A   1      29.679  26.445  23.708  1.00  0.00     0.116 C 
ATOM     17  C   UNL A   1      28.182  26.535  24.003  1.00  0.00     0.027 C 
ENDBRANCH  14  16
BRANCH  14  18
ATOM     18  C   UNL A   1      30.352  26.023  26.045  1.00  0.00     0.116 C 
ATOM     19  C   UNL A   1      31.266  27.056  26.679  1.00  0.00     0.027 C 
ENDBRANCH  14  18
ENDBRANCH  12  13
ENDBRANCH  10  12
BRANCH  10  20
ATOM     20  C   UNL A   1      33.633  25.400  23.726  1.00  0.00    -0.030 A 
ATOM     21  C   UNL A   1      33.493  25.826  22.390  1.00  0.00     0.005 A 
ATOM     22  C   UNL A   1      33.922  26.416  24.664  1.00  0.00     0.005 A 
ATOM     23  C   UNL A   1      33.562  27.175  22.021  1.00  0.00     0.000 A 
ATOM     24  C   UNL A   1      34.003  27.767  24.296  1.00  0.00     0.000 A 
ATOM     25  C   UNL A   1      33.811  28.149  22.976  1.00  0.00     0.000 A 
ENDBRANCH  10  20
ENDBRANCH   8  10
ENDBRANCH   7   8
ENDBRANCH   6   7
ENDBRANCH   5   6
ENDBRANCH   4   5
ENDBRANCH   3   4
ENDBRANCH   2   3
ENDBRANCH   1   2
BRANCH   1  26
ATOM     26  C   UNL A   1      43.268  20.505  25.535  1.00  0.00     0.188 C 
BRANCH  26  27
ATOM     27  C   UNL A   1      44.459  21.363  25.062  1.00  0.00     0.188 C 
BRANCH  27  28
ATOM     28  O   UNL A   1      45.505  21.771  25.941  1.00  0.00    -0.376 OA
BRANCH  28  29
ATOM     29  C   UNL A   1      45.430  23.003  26.634  1.00  0.00     0.202 C 
BRANCH  29  30
ATOM     30  C   UNL A   1      44.304  23.988  26.273  1.00  0.00     0.261 C 
BRANCH  30  31
ATOM     31  O   UNL A   1      44.525  24.842  25.144  1.00  0.00    -0.460 OA
BRANCH  31  32
ATOM     32  C   UNL A   1      45.579  25.686  25.232  1.00  0.00     0.338 C 
ATOM     33  O   UNL A   1      46.640  25.609  24.634  1.00  0.00    -0.246 OA
BRANCH  32  34
ATOM     34  C   UNL A   1      45.192  26.838  26.079  1.00  0.00     0.060 A 
ATOM     35  C   UNL A   1      44.127  27.656  25.671  1.00  0.00     0.016 A 
ATOM     36  C   UNL A   1      45.880  27.117  27.261  1.00  0.00     0.016 A 
ATOM     37  C   UNL A   1      43.760  28.766  26.431  1.00  0.00     0.010 A 
ATOM     38  C   UNL A   1      45.542  28.254  28.000  1.00  0.00     0.010 A 
ATOM     39  C   UNL A   1      44.505  29.100  27.566  1.00  0.00    -0.014 A 
BRANCH  39  40
ATOM     40  C   UNL A   1      44.391  30.457  28.146  1.00  0.00     0.031 A 
ATOM     41  C   UNL A   1      45.438  31.467  27.761  1.00  0.00     0.074 A 
ATOM     42  C   UNL A   1      43.416  30.781  29.013  1.00  0.00     0.049 A 
ATOM     43  N   UNL A   1      45.626  32.679  28.207  1.00  0.00    -0.248 NA
ATOM     44  C   UNL A   1      46.410  31.042  26.738  1.00  0.00     0.031 C 
ATOM     45  C   UNL A   1      42.336  29.897  29.442  1.00  0.00     0.029 A 
ATOM     46  N   UNL A   1      43.205  31.941  29.717  1.00  0.00    -0.354 N 
ATOM     47  C   UNL A   1      46.756  33.149  27.549  1.00  0.00     0.074 A 
ATOM     48  C   UNL A   1      47.212  32.094  26.672  1.00  0.00     0.031 C 
ATOM     49  C   UNL A   1      41.599  30.531  30.372  1.00  0.00     0.029 A 
ATOM     50  C   UNL A   1      42.176  31.852  30.624  1.00  0.00     0.049 A 
ATOM     51  H   UNL A   1      43.740  32.757  29.586  1.00  0.00     0.167 HD
ATOM     52  C   UNL A   1      47.358  34.355  27.658  1.00  0.00     0.034 A 
ATOM     53  C   UNL A   1      41.773  32.725  31.569  1.00  0.00     0.034 A 
ATOM     54  C   UNL A   1      46.900  35.404  28.523  1.00  0.00     0.049 A 
ATOM     55  C   UNL A   1      42.487  34.049  31.701  1.00  0.00     0.074 A 
ATOM     56  C   UNL A   1      47.417  36.677  28.679  1.00  0.00     0.029 A 
ATOM     57  N   UNL A   1      45.825  35.296  29.391  1.00  0.00    -0.354 N 
ATOM     58  N   UNL A   1      43.485  34.525  30.995  1.00  0.00    -0.248 NA
ATOM     59  C   UNL A   1      42.002  34.968  32.743  1.00  0.00     0.031 C 
ATOM     60  C   UNL A   1      46.670  37.330  29.665  1.00  0.00     0.029 A 
ATOM     61  C   UNL A   1      45.669  36.474  30.097  1.00  0.00     0.049 A 
ATOM     62  H   UNL A   1      45.257  34.498  29.490  1.00  0.00     0.167 HD
ATOM     63  C   UNL A   1      43.719  35.809  31.477  1.00  0.00     0.074 A 
ATOM     64  C   UNL A   1      42.750  36.042  32.528  1.00  0.00     0.031 C 
ATOM     65  C   UNL A   1      44.657  36.710  31.095  1.00  0.00     0.034 A 
BRANCH  52  66
ATOM     66  C   UNL A   1      48.576  34.603  26.809  1.00  0.00     0.023 A 
ATOM     67  C   UNL A   1      48.430  35.165  25.524  1.00  0.00     0.012 A 
ATOM     68  C   UNL A   1      49.863  34.315  27.298  1.00  0.00     0.148 A 
ATOM     69  C   UNL A   1      49.547  35.409  24.727  1.00  0.00     0.002 A 
ATOM     70  C   UNL A   1      50.975  34.602  26.516  1.00  0.00     0.091 A 
ATOM     71  F   UNL A   1      49.976  33.753  28.511  1.00  0.00    -0.205 F 
ATOM     72  C   UNL A   1      50.818  35.138  25.227  1.00  0.00     0.022 A 
BRANCH  70  73
ATOM     73  S   UNL A   1      52.656  34.360  27.099  1.00  0.00     0.127 S 
ATOM     74  O   UNL A   1      52.537  34.733  28.507  1.00  0.00    -0.237 OA
ATOM     75  O   UNL A   1      52.860  32.930  26.861  1.00  0.00    -0.237 OA
ATOM     76  O   UNL A   1      53.492  35.236  26.289  1.00  0.00    -0.744 OA
ENDBRANCH  70  73
ENDBRANCH  52  66
BRANCH  53  77
ATOM     77  C   UNL A   1      40.625  32.389  32.460  1.00  0.00     0.023 A 
ATOM     78  C   UNL A   1      39.319  32.751  32.075  1.00  0.00     0.012 A 
ATOM     79  C   UNL A   1      40.818  31.712  33.679  1.00  0.00     0.148 A 
ATOM     80  C   UNL A   1      38.230  32.472  32.902  1.00  0.00     0.002 A 
ATOM     81  C   UNL A   1      39.723  31.385  34.471  1.00  0.00     0.091 A 
ATOM     82  F   UNL A   1      42.069  31.393  34.038  1.00  0.00    -0.205 F 
ATOM     83  C   UNL A   1      38.430  31.782  34.094  1.00  0.00     0.022 A 
BRANCH  81  84
ATOM     84  S   UNL A   1      39.869  30.380  35.953  1.00  0.00     0.127 S 
ATOM     85  O   UNL A   1      40.679  31.233  36.816  1.00  0.00    -0.237 OA
ATOM     86  O   UNL A   1      38.469  30.242  36.359  1.00  0.00    -0.237 OA
ATOM     87  O   UNL A   1      40.492  29.136  35.525  1.00  0.00    -0.744 OA
ENDBRANCH  81  84
ENDBRANCH  53  77
BRANCH  65  88
ATOM     88  C   UNL A   1      44.663  38.057  31.771  1.00  0.00     0.023 A 
ATOM     89  C   UNL A   1      45.461  38.268  32.911  1.00  0.00     0.012 A 
ATOM     90  C   UNL A   1      43.957  39.140  31.208  1.00  0.00     0.148 A 
ATOM     91  C   UNL A   1      45.539  39.532  33.497  1.00  0.00     0.002 A 
ATOM     92  C   UNL A   1      44.079  40.406  31.767  1.00  0.00     0.091 A 
ATOM     93  F   UNL A   1      43.192  38.913  30.132  1.00  0.00    -0.205 F 
ATOM     94  C   UNL A   1      44.859  40.601  32.918  1.00  0.00     0.022 A 
BRANCH  92  95
ATOM     95  S   UNL A   1      43.322  41.860  31.033  1.00  0.00     0.127 S 
ATOM     96  O   UNL A   1      43.869  41.827  29.676  1.00  0.00    -0.237 OA
ATOM     97  O   UNL A   1      41.895  41.546  31.123  1.00  0.00    -0.237 OA
ATOM     98  O   UNL A   1      43.745  42.991  31.847  1.00  0.00    -0.744 OA
ENDBRANCH  92  95
ENDBRANCH  65  88
ENDBRANCH  39  40
ENDBRANCH  32  34
ENDBRANCH  31  32
ENDBRANCH  30  31
ENDBRANCH  29  30
ENDBRANCH  28  29
ENDBRANCH  27  28
ENDBRANCH  26  27
ENDBRANCH   1  26
TORSDOF 28
ENDMDL
