MODEL 1
REMARK VINA RESULT:     -10.3      0.000      0.000
REMARK SMILES Cc1ccc(-c2cnnc(-n3nc(C)c4c3NC(=O)C[C@@H]4c3ccc(C(=O)OCCOCCOCCOCCOC(=O)c4ccc(-c5c6nc(c(-c7cccc(S(=O)(=O)[O-])c7F)c7ccc([nH]7)c(-c7cccc(S(=O)(=O)[O-])c7F)c7nc(c(-c8cccc(S(=O)(=O)[O-])c8F)c8ccc5[nH]8)C=C7)C=C6)cc4)cc3)n2)cc1
REMARK SMILES IDX 34 1 33 2 32 3 31 4 30 5 29 6 28 7 26 8 27 9 25 10 22 11
REMARK SMILES IDX 23 12 107 13 24 14 106 15 21 16 11 17 12 18 16 19 13 20
REMARK SMILES IDX 15 21 17 22 14 23 18 24 20 26 19 27 10 28 6 29 7 30 108 31
REMARK SMILES IDX 8 32 9 33 5 34 1 35 2 36 3 37 110 38 4 39 109 40 35 41 36 42
REMARK SMILES IDX 37 43 38 44 39 45 40 46 41 47 42 48 43 49 44 50 105 51 45 52
REMARK SMILES IDX 104 53 46 54 47 55 48 56 98 57 49 58 103 59 97 60 99 61
REMARK SMILES IDX 50 62 102 63 96 64 95 65 51 67 83 68 63 69 82 70 64 71 67 72
REMARK SMILES IDX 81 73 100 74 65 75 66 76 80 78 101 79 68 80 52 81 53 82
REMARK SMILES IDX 61 83 54 84 56 85 62 86 55 87 57 88 58 89 59 90 60 91 84 92
REMARK SMILES IDX 85 93 93 94 86 95 88 96 94 97 87 98 89 99 90 100 91 101
REMARK SMILES IDX 92 102 69 103 70 104 78 105 71 106 73 107 79 108 72 109
REMARK SMILES IDX 74 110 75 111 76 112 77 113
REMARK H PARENT 17 25 99 66 67 77
REMARK Flexibility Score: inf
ROOT
ATOM      1  O   UNL A   1      35.332  29.335  27.247  1.00  0.00    -0.377 OA
ENDROOT
BRANCH   1   2
ATOM      2  C   UNL A   1      33.985  28.885  27.239  1.00  0.00     0.188 C 
BRANCH   2   3
ATOM      3  C   UNL A   1      33.274  28.481  25.900  1.00  0.00     0.188 C 
BRANCH   3   4
ATOM      4  O   UNL A   1      34.012  27.903  24.618  1.00  0.00    -0.376 OA
BRANCH   4   5
ATOM      5  C   UNL A   1      33.556  26.783  23.419  1.00  0.00     0.202 C 
BRANCH   5   6
ATOM      6  C   UNL A   1      34.003  25.053  22.909  1.00  0.00     0.261 C 
BRANCH   6   7
ATOM      7  O   UNL A   1      34.169  23.501  23.896  1.00  0.00    -0.460 OA
BRANCH   7   8
ATOM      8  C   UNL A   1      35.172  22.431  24.523  1.00  0.00     0.338 C 
ATOM      9  O   UNL A   1      34.768  21.298  24.806  1.00  0.00    -0.246 OA
BRANCH   8  10
ATOM     10  C   UNL A   1      36.744  22.640  25.071  1.00  0.00     0.060 A 
ATOM     11  C   UNL A   1      39.283  22.719  26.568  1.00  0.00    -0.040 A 
ATOM     12  C   UNL A   1      38.884  21.618  25.759  1.00  0.00     0.005 A 
ATOM     13  C   UNL A   1      38.508  23.844  26.424  1.00  0.00     0.005 A 
ATOM     14  C   UNL A   1      37.633  21.568  25.052  1.00  0.00     0.016 A 
ATOM     15  C   UNL A   1      37.351  23.808  25.612  1.00  0.00     0.016 A 
BRANCH  11  16
ATOM     16  C   UNL A   1      40.538  22.672  27.424  1.00  0.00     0.064 C 
ATOM     17  N   UNL A   1      42.794  25.334  28.459  1.00  0.00    -0.180 N 
ATOM     18  N   UNL A   1      41.675  26.064  28.692  1.00  0.00    -0.168 NA
ATOM     19  C   UNL A   1      42.468  24.342  27.548  1.00  0.00     0.143 A 
ATOM     20  C   UNL A   1      40.665  25.243  28.367  1.00  0.00     0.066 A 
ATOM     21  C   UNL A   1      41.137  24.020  27.801  1.00  0.00     0.026 A 
ATOM     22  N   UNL A   1      43.138  23.747  26.496  1.00  0.00    -0.310 N 
ATOM     23  C   UNL A   1      39.299  25.780  28.555  1.00  0.00     0.069 C 
ATOM     24  C   UNL A   1      42.510  22.616  25.891  1.00  0.00     0.226 C 
ATOM     25  H   UNL A   1      44.006  24.087  26.179  1.00  0.00     0.171 HD
ATOM     26  C   UNL A   1      41.627  21.795  26.786  1.00  0.00     0.113 C 
ATOM     27  O   UNL A   1      42.855  22.331  24.738  1.00  0.00    -0.275 OA
BRANCH  17  28
ATOM     28  C   UNL A   1      43.905  25.392  29.374  1.00  0.00     0.272 A 
ATOM     29  C   UNL A   1      44.920  25.161  31.424  1.00  0.00     0.095 A 
ATOM     30  C   UNL A   1      45.952  25.984  31.000  1.00  0.00     0.164 A 
ATOM     31  N   UNL A   1      43.835  24.885  30.631  1.00  0.00    -0.208 NA
ATOM     32  N   UNL A   1      45.971  26.475  29.758  1.00  0.00    -0.153 NA
ATOM     33  N   UNL A   1      44.956  26.136  28.927  1.00  0.00    -0.109 NA
BRANCH  29  34
ATOM     34  C   UNL A   1      45.038  24.463  32.716  1.00  0.00     0.002 A 
ATOM     35  C   UNL A   1      45.430  22.246  36.427  1.00  0.00     0.044 C 
ATOM     36  C   UNL A   1      45.316  22.982  35.123  1.00  0.00    -0.051 A 
ATOM     37  C   UNL A   1      46.207  24.016  34.819  1.00  0.00     0.004 A 
ATOM     38  C   UNL A   1      44.310  22.669  34.207  1.00  0.00     0.004 A 
ATOM     39  C   UNL A   1      46.071  24.745  33.629  1.00  0.00     0.011 A 
ATOM     40  C   UNL A   1      44.172  23.402  33.022  1.00  0.00     0.011 A 
ENDBRANCH  29  34
ENDBRANCH  17  28
ENDBRANCH  11  16
ENDBRANCH   8  10
ENDBRANCH   7   8
ENDBRANCH   6   7
ENDBRANCH   5   6
ENDBRANCH   4   5
ENDBRANCH   3   4
ENDBRANCH   2   3
ENDBRANCH   1   2
BRANCH   1  41
ATOM     41  C   UNL A   1      35.664  29.992  28.456  1.00  0.00     0.188 C 
BRANCH  41  42
ATOM     42  C   UNL A   1      36.755  31.046  28.275  1.00  0.00     0.188 C 
BRANCH  42  43
ATOM     43  O   UNL A   1      36.325  32.351  28.591  1.00  0.00    -0.376 OA
BRANCH  43  44
ATOM     44  C   UNL A   1      35.779  32.694  29.839  1.00  0.00     0.202 C 
BRANCH  44  45
ATOM     45  C   UNL A   1      36.897  32.611  30.866  1.00  0.00     0.261 C 
BRANCH  45  46
ATOM     46  O   UNL A   1      36.418  31.971  32.078  1.00  0.00    -0.460 OA
BRANCH  46  47
ATOM     47  C   UNL A   1      36.844  30.683  32.274  1.00  0.00     0.338 C 
ATOM     48  O   UNL A   1      36.201  29.700  31.943  1.00  0.00    -0.246 OA
BRANCH  47  49
ATOM     49  C   UNL A   1      38.086  30.691  33.129  1.00  0.00     0.060 A 
ATOM     50  C   UNL A   1      38.366  31.773  33.952  1.00  0.00     0.016 A 
ATOM     51  C   UNL A   1      39.121  29.781  32.875  1.00  0.00     0.016 A 
ATOM     52  C   UNL A   1      39.705  32.030  34.301  1.00  0.00     0.010 A 
ATOM     53  C   UNL A   1      40.462  30.164  33.055  1.00  0.00     0.010 A 
ATOM     54  C   UNL A   1      40.787  31.409  33.618  1.00  0.00    -0.014 A 
BRANCH  54  55
ATOM     55  C   UNL A   1      42.370  31.938  33.552  1.00  0.00     0.031 A 
ATOM     56  C   UNL A   1      42.114  32.549  31.890  1.00  0.00     0.074 A 
ATOM     57  C   UNL A   1      43.775  31.628  34.451  1.00  0.00     0.049 A 
ATOM     58  N   UNL A   1      42.916  32.368  30.868  1.00  0.00    -0.248 NA
ATOM     59  C   UNL A   1      40.838  33.072  31.332  1.00  0.00     0.031 C 
ATOM     60  C   UNL A   1      45.396  32.036  34.371  1.00  0.00     0.029 A 
ATOM     61  N   UNL A   1      44.208  30.595  35.519  1.00  0.00    -0.354 N 
ATOM     62  C   UNL A   1      42.603  33.255  29.899  1.00  0.00     0.074 A 
ATOM     63  C   UNL A   1      41.185  33.378  30.072  1.00  0.00     0.031 C 
ATOM     64  C   UNL A   1      46.248  31.357  35.136  1.00  0.00     0.029 A 
ATOM     65  C   UNL A   1      45.558  30.177  35.458  1.00  0.00     0.049 A 
ATOM     66  H   UNL A   1      43.583  30.251  36.198  1.00  0.00     0.167 HD
ATOM     67  C   UNL A   1      43.603  33.996  29.326  1.00  0.00     0.034 A 
ATOM     68  C   UNL A   1      46.052  28.960  35.052  1.00  0.00     0.034 A 
ATOM     69  C   UNL A   1      44.989  33.627  29.848  1.00  0.00     0.049 A 
ATOM     70  C   UNL A   1      46.860  29.130  33.709  1.00  0.00     0.074 A 
ATOM     71  C   UNL A   1      45.911  34.314  30.637  1.00  0.00     0.029 A 
ATOM     72  N   UNL A   1      45.491  32.302  29.822  1.00  0.00    -0.354 N 
ATOM     73  N   UNL A   1      46.773  30.182  32.919  1.00  0.00    -0.248 NA
ATOM     74  C   UNL A   1      47.870  28.208  33.210  1.00  0.00     0.031 C 
ATOM     75  C   UNL A   1      46.885  33.396  31.155  1.00  0.00     0.029 A 
ATOM     76  C   UNL A   1      46.621  32.124  30.660  1.00  0.00     0.049 A 
ATOM     77  H   UNL A   1      45.099  31.582  29.278  1.00  0.00     0.167 HD
ATOM     78  C   UNL A   1      47.519  30.049  31.778  1.00  0.00     0.074 A 
ATOM     79  C   UNL A   1      48.289  28.842  32.093  1.00  0.00     0.031 C 
ATOM     80  C   UNL A   1      47.427  30.869  30.661  1.00  0.00     0.034 A 
BRANCH  67  81
ATOM     81  C   UNL A   1      43.252  35.343  28.650  1.00  0.00     0.023 A 
ATOM     82  C   UNL A   1      42.791  35.332  27.317  1.00  0.00     0.012 A 
ATOM     83  C   UNL A   1      43.387  36.640  29.224  1.00  0.00     0.148 A 
ATOM     84  C   UNL A   1      42.588  36.508  26.572  1.00  0.00     0.002 A 
ATOM     85  C   UNL A   1      43.239  37.813  28.471  1.00  0.00     0.091 A 
ATOM     86  F   UNL A   1      43.561  36.770  30.541  1.00  0.00    -0.205 F 
ATOM     87  C   UNL A   1      42.844  37.748  27.136  1.00  0.00     0.022 A 
BRANCH  85  88
ATOM     88  S   UNL A   1      43.563  39.459  29.146  1.00  0.00     0.127 S 
ATOM     89  O   UNL A   1      44.169  39.153  30.444  1.00  0.00    -0.237 OA
ATOM     90  O   UNL A   1      44.490  40.022  28.166  1.00  0.00    -0.237 OA
ATOM     91  O   UNL A   1      42.270  40.126  29.240  1.00  0.00    -0.744 OA
ENDBRANCH  85  88
ENDBRANCH  67  81
BRANCH  68  92
ATOM     92  C   UNL A   1      45.284  27.747  35.527  1.00  0.00     0.023 A 
ATOM     93  C   UNL A   1      45.830  27.031  36.625  1.00  0.00     0.012 A 
ATOM     94  C   UNL A   1      43.939  27.500  35.198  1.00  0.00     0.148 A 
ATOM     95  C   UNL A   1      45.037  26.222  37.448  1.00  0.00     0.002 A 
ATOM     96  C   UNL A   1      43.125  26.801  36.099  1.00  0.00     0.091 A 
ATOM     97  F   UNL A   1      43.435  28.091  34.107  1.00  0.00    -0.205 F 
ATOM     98  C   UNL A   1      43.670  26.156  37.218  1.00  0.00     0.022 A 
BRANCH  96  99
ATOM     99  S   UNL A   1      41.324  26.957  36.082  1.00  0.00     0.127 S 
ATOM    100  O   UNL A   1      40.950  26.177  37.259  1.00  0.00    -0.237 OA
ATOM    101  O   UNL A   1      41.145  28.402  36.217  1.00  0.00    -0.237 OA
ATOM    102  O   UNL A   1      40.908  26.410  34.798  1.00  0.00    -0.744 OA
ENDBRANCH  96  99
ENDBRANCH  68  92
BRANCH  80 103
ATOM    103  C   UNL A   1      48.176  30.581  29.362  1.00  0.00     0.023 A 
ATOM    104  C   UNL A   1      49.569  30.731  29.254  1.00  0.00     0.012 A 
ATOM    105  C   UNL A   1      47.512  30.006  28.243  1.00  0.00     0.148 A 
ATOM    106  C   UNL A   1      50.258  30.419  28.079  1.00  0.00     0.002 A 
ATOM    107  C   UNL A   1      48.223  29.561  27.136  1.00  0.00     0.091 A 
ATOM    108  F   UNL A   1      46.175  29.914  28.221  1.00  0.00    -0.205 F 
ATOM    109  C   UNL A   1      49.591  29.807  27.030  1.00  0.00     0.022 A 
BRANCH 107 110
ATOM    110  S   UNL A   1      47.455  28.510  25.895  1.00  0.00     0.127 S 
ATOM    111  O   UNL A   1      48.586  28.195  25.026  1.00  0.00    -0.237 OA
ATOM    112  O   UNL A   1      46.972  27.387  26.702  1.00  0.00    -0.237 OA
ATOM    113  O   UNL A   1      46.397  29.317  25.302  1.00  0.00    -0.744 OA
ENDBRANCH 107 110
ENDBRANCH  80 103
ENDBRANCH  54  55
ENDBRANCH  47  49
ENDBRANCH  46  47
ENDBRANCH  45  46
ENDBRANCH  44  45
ENDBRANCH  43  44
ENDBRANCH  42  43
ENDBRANCH  41  42
ENDBRANCH   1  41
TORSDOF 26
ENDMDL
MODEL 2
REMARK VINA RESULT:      -9.7      3.463      6.196
REMARK SMILES Cc1ccc(-c2cnnc(-n3nc(C)c4c3NC(=O)C[C@@H]4c3ccc(C(=O)OCCOCCOCCOCCOC(=O)c4ccc(-c5c6nc(c(-c7cccc(S(=O)(=O)[O-])c7F)c7ccc([nH]7)c(-c7cccc(S(=O)(=O)[O-])c7F)c7nc(c(-c8cccc(S(=O)(=O)[O-])c8F)c8ccc5[nH]8)C=C7)C=C6)cc4)cc3)n2)cc1
REMARK SMILES IDX 34 1 33 2 32 3 31 4 30 5 29 6 28 7 26 8 27 9 25 10 22 11
REMARK SMILES IDX 23 12 107 13 24 14 106 15 21 16 11 17 12 18 16 19 13 20
REMARK SMILES IDX 15 21 17 22 14 23 18 24 20 26 19 27 10 28 6 29 7 30 108 31
REMARK SMILES IDX 8 32 9 33 5 34 1 35 2 36 3 37 110 38 4 39 109 40 35 41 36 42
REMARK SMILES IDX 37 43 38 44 39 45 40 46 41 47 42 48 43 49 44 50 105 51 45 52
REMARK SMILES IDX 104 53 46 54 47 55 48 56 98 57 49 58 103 59 97 60 99 61
REMARK SMILES IDX 50 62 102 63 96 64 95 65 51 67 83 68 63 69 82 70 64 71 67 72
REMARK SMILES IDX 81 73 100 74 65 75 66 76 80 78 101 79 68 80 52 81 53 82
REMARK SMILES IDX 61 83 54 84 56 85 62 86 55 87 57 88 58 89 59 90 60 91 84 92
REMARK SMILES IDX 85 93 93 94 86 95 88 96 94 97 87 98 89 99 90 100 91 101
REMARK SMILES IDX 92 102 69 103 70 104 78 105 71 106 73 107 79 108 72 109
REMARK SMILES IDX 74 110 75 111 76 112 77 113
REMARK H PARENT 17 25 99 66 67 77
REMARK Flexibility Score: inf
ROOT
ATOM      1  O   UNL A   1      34.659  27.887  26.167  1.00  0.00    -0.377 OA
ENDROOT
BRANCH   1   2
ATOM      2  C   UNL A   1      33.580  26.990  25.946  1.00  0.00     0.188 C 
BRANCH   2   3
ATOM      3  C   UNL A   1      33.835  25.528  25.436  1.00  0.00     0.188 C 
BRANCH   3   4
ATOM      4  O   UNL A   1      35.265  24.853  25.291  1.00  0.00    -0.376 OA
BRANCH   4   5
ATOM      5  C   UNL A   1      35.840  23.524  24.393  1.00  0.00     0.202 C 
BRANCH   5   6
ATOM      6  C   UNL A   1      36.941  22.052  24.662  1.00  0.00     0.261 C 
BRANCH   6   7
ATOM      7  O   UNL A   1      38.114  21.647  26.030  1.00  0.00    -0.460 OA
BRANCH   7   8
ATOM      8  C   UNL A   1      39.629  21.679  26.529  1.00  0.00     0.338 C 
ATOM      9  O   UNL A   1      40.294  20.638  26.546  1.00  0.00    -0.246 OA
BRANCH   8  10
ATOM     10  C   UNL A   1      40.484  22.927  27.255  1.00  0.00     0.060 A 
ATOM     11  C   UNL A   1      42.133  25.278  27.920  1.00  0.00    -0.040 A 
ATOM     12  C   UNL A   1      40.740  25.352  27.640  1.00  0.00     0.005 A 
ATOM     13  C   UNL A   1      42.616  24.002  28.084  1.00  0.00     0.005 A 
ATOM     14  C   UNL A   1      39.942  24.210  27.288  1.00  0.00     0.016 A 
ATOM     15  C   UNL A   1      41.770  22.891  27.862  1.00  0.00     0.016 A 
BRANCH  11  16
ATOM     16  C   UNL A   1      42.976  26.524  28.135  1.00  0.00     0.064 C 
ATOM     17  N   UNL A   1      46.511  27.125  27.509  1.00  0.00    -0.180 N 
ATOM     18  N   UNL A   1      46.321  26.461  26.343  1.00  0.00    -0.168 NA
ATOM     19  C   UNL A   1      45.510  26.733  28.385  1.00  0.00     0.143 A 
ATOM     20  C   UNL A   1      45.021  26.128  26.353  1.00  0.00     0.066 A 
ATOM     21  C   UNL A   1      44.397  26.469  27.591  1.00  0.00     0.026 A 
ATOM     22  N   UNL A   1      45.463  26.506  29.747  1.00  0.00    -0.310 N 
ATOM     23  C   UNL A   1      44.521  25.405  25.163  1.00  0.00     0.069 C 
ATOM     24  C   UNL A   1      44.172  26.275  30.315  1.00  0.00     0.226 C 
ATOM     25  H   UNL A   1      46.278  26.503  30.298  1.00  0.00     0.171 HD
ATOM     26  C   UNL A   1      43.017  26.933  29.617  1.00  0.00     0.113 C 
ATOM     27  O   UNL A   1      44.133  25.681  31.399  1.00  0.00    -0.275 OA
BRANCH  17  28
ATOM     28  C   UNL A   1      47.339  28.303  27.550  1.00  0.00     0.272 A 
ATOM     29  C   UNL A   1      47.860  30.453  28.176  1.00  0.00     0.095 A 
ATOM     30  C   UNL A   1      48.784  30.524  27.146  1.00  0.00     0.164 A 
ATOM     31  N   UNL A   1      47.070  29.349  28.372  1.00  0.00    -0.208 NA
ATOM     32  N   UNL A   1      49.004  29.474  26.349  1.00  0.00    -0.153 NA
ATOM     33  N   UNL A   1      48.301  28.340  26.587  1.00  0.00    -0.109 NA
BRANCH  29  34
ATOM     34  C   UNL A   1      47.799  31.542  29.167  1.00  0.00     0.002 A 
ATOM     35  C   UNL A   1      47.784  34.688  32.157  1.00  0.00     0.044 C 
ATOM     36  C   UNL A   1      47.831  33.594  31.130  1.00  0.00    -0.051 A 
ATOM     37  C   UNL A   1      47.966  33.907  29.774  1.00  0.00     0.004 A 
ATOM     38  C   UNL A   1      47.715  32.254  31.504  1.00  0.00     0.004 A 
ATOM     39  C   UNL A   1      47.953  32.894  28.805  1.00  0.00     0.011 A 
ATOM     40  C   UNL A   1      47.696  31.243  30.534  1.00  0.00     0.011 A 
ENDBRANCH  29  34
ENDBRANCH  17  28
ENDBRANCH  11  16
ENDBRANCH   8  10
ENDBRANCH   7   8
ENDBRANCH   6   7
ENDBRANCH   5   6
ENDBRANCH   4   5
ENDBRANCH   3   4
ENDBRANCH   2   3
ENDBRANCH   1   2
BRANCH   1  41
ATOM     41  C   UNL A   1      34.218  29.124  26.697  1.00  0.00     0.188 C 
BRANCH  41  42
ATOM     42  C   UNL A   1      35.167  29.684  27.756  1.00  0.00     0.188 C 
BRANCH  42  43
ATOM     43  O   UNL A   1      35.153  31.092  27.825  1.00  0.00    -0.376 OA
BRANCH  43  44
ATOM     44  C   UNL A   1      34.132  31.815  28.462  1.00  0.00     0.202 C 
BRANCH  44  45
ATOM     45  C   UNL A   1      34.790  32.749  29.465  1.00  0.00     0.261 C 
BRANCH  45  46
ATOM     46  O   UNL A   1      34.459  32.341  30.819  1.00  0.00    -0.460 OA
BRANCH  46  47
ATOM     47  C   UNL A   1      35.451  31.681  31.496  1.00  0.00     0.338 C 
ATOM     48  O   UNL A   1      35.685  30.491  31.362  1.00  0.00    -0.246 OA
BRANCH  47  49
ATOM     49  C   UNL A   1      36.029  32.590  32.551  1.00  0.00     0.060 A 
ATOM     50  C   UNL A   1      35.960  33.969  32.406  1.00  0.00     0.016 A 
ATOM     51  C   UNL A   1      36.912  32.080  33.513  1.00  0.00     0.016 A 
ATOM     52  C   UNL A   1      36.923  34.767  33.051  1.00  0.00     0.010 A 
ATOM     53  C   UNL A   1      37.983  32.863  33.979  1.00  0.00     0.010 A 
ATOM     54  C   UNL A   1      38.112  34.208  33.597  1.00  0.00    -0.014 A 
BRANCH  54  55
ATOM     55  C   UNL A   1      39.536  35.013  33.937  1.00  0.00     0.031 A 
ATOM     56  C   UNL A   1      40.292  34.333  32.464  1.00  0.00     0.074 A 
ATOM     57  C   UNL A   1      40.187  35.767  35.309  1.00  0.00     0.049 A 
ATOM     58  N   UNL A   1      41.486  33.796  32.386  1.00  0.00    -0.248 NA
ATOM     59  C   UNL A   1      39.592  33.984  31.198  1.00  0.00     0.031 C 
ATOM     60  C   UNL A   1      41.635  36.486  35.743  1.00  0.00     0.029 A 
ATOM     61  N   UNL A   1      39.844  35.822  36.818  1.00  0.00    -0.354 N 
ATOM     62  C   UNL A   1      41.857  33.734  31.089  1.00  0.00     0.074 A 
ATOM     63  C   UNL A   1      40.596  33.514  30.440  1.00  0.00     0.031 C 
ATOM     64  C   UNL A   1      41.848  36.728  37.034  1.00  0.00     0.029 A 
ATOM     65  C   UNL A   1      40.950  35.878  37.698  1.00  0.00     0.049 A 
ATOM     66  H   UNL A   1      38.915  35.817  37.144  1.00  0.00     0.167 HD
ATOM     67  C   UNL A   1      43.093  34.201  30.728  1.00  0.00     0.034 A 
ATOM     68  C   UNL A   1      41.425  34.892  38.529  1.00  0.00     0.034 A 
ATOM     69  C   UNL A   1      43.923  34.669  31.919  1.00  0.00     0.049 A 
ATOM     70  C   UNL A   1      42.839  34.407  38.034  1.00  0.00     0.074 A 
ATOM     71  C   UNL A   1      44.357  35.931  32.325  1.00  0.00     0.029 A 
ATOM     72  N   UNL A   1      44.187  33.846  33.042  1.00  0.00    -0.354 N 
ATOM     73  N   UNL A   1      43.325  34.643  36.831  1.00  0.00    -0.248 NA
ATOM     74  C   UNL A   1      43.832  33.725  38.853  1.00  0.00     0.031 C 
ATOM     75  C   UNL A   1      44.775  35.881  33.697  1.00  0.00     0.029 A 
ATOM     76  C   UNL A   1      44.657  34.576  34.163  1.00  0.00     0.049 A 
ATOM     77  H   UNL A   1      44.059  32.871  33.044  1.00  0.00     0.167 HD
ATOM     78  C   UNL A   1      44.542  34.048  36.626  1.00  0.00     0.074 A 
ATOM     79  C   UNL A   1      44.861  33.603  37.986  1.00  0.00     0.031 C 
ATOM     80  C   UNL A   1      45.169  33.910  35.395  1.00  0.00     0.034 A 
BRANCH  67  81
ATOM     81  C   UNL A   1      43.335  34.642  29.264  1.00  0.00     0.023 A 
ATOM     82  C   UNL A   1      42.807  35.877  28.833  1.00  0.00     0.012 A 
ATOM     83  C   UNL A   1      44.013  33.899  28.256  1.00  0.00     0.148 A 
ATOM     84  C   UNL A   1      42.846  36.295  27.490  1.00  0.00     0.002 A 
ATOM     85  C   UNL A   1      44.007  34.284  26.907  1.00  0.00     0.091 A 
ATOM     86  F   UNL A   1      44.770  32.853  28.595  1.00  0.00    -0.205 F 
ATOM     87  C   UNL A   1      43.416  35.485  26.520  1.00  0.00     0.022 A 
BRANCH  85  88
ATOM     88  S   UNL A   1      44.728  33.270  25.595  1.00  0.00     0.127 S 
ATOM     89  O   UNL A   1      43.856  32.093  25.593  1.00  0.00    -0.237 OA
ATOM     90  O   UNL A   1      44.584  34.129  24.422  1.00  0.00    -0.237 OA
ATOM     91  O   UNL A   1      46.100  32.988  26.000  1.00  0.00    -0.744 OA
ENDBRANCH  85  88
ENDBRANCH  67  81
BRANCH  68  92
ATOM     92  C   UNL A   1      40.374  34.092  39.266  1.00  0.00     0.023 A 
ATOM     93  C   UNL A   1      39.928  34.609  40.512  1.00  0.00     0.012 A 
ATOM     94  C   UNL A   1      39.584  33.099  38.659  1.00  0.00     0.148 A 
ATOM     95  C   UNL A   1      38.684  34.265  41.052  1.00  0.00     0.002 A 
ATOM     96  C   UNL A   1      38.286  32.862  39.133  1.00  0.00     0.091 A 
ATOM     97  F   UNL A   1      40.037  32.528  37.534  1.00  0.00    -0.205 F 
ATOM     98  C   UNL A   1      37.837  33.436  40.330  1.00  0.00     0.022 A 
BRANCH  96  99
ATOM     99  S   UNL A   1      37.014  32.100  38.100  1.00  0.00     0.127 S 
ATOM    100  O   UNL A   1      36.037  31.678  39.101  1.00  0.00    -0.237 OA
ATOM    101  O   UNL A   1      36.592  33.223  37.263  1.00  0.00    -0.237 OA
ATOM    102  O   UNL A   1      37.695  31.031  37.385  1.00  0.00    -0.744 OA
ENDBRANCH  96  99
ENDBRANCH  68  92
BRANCH  80 103
ATOM    103  C   UNL A   1      46.453  33.106  35.209  1.00  0.00     0.023 A 
ATOM    104  C   UNL A   1      47.721  33.649  35.480  1.00  0.00     0.012 A 
ATOM    105  C   UNL A   1      46.413  31.720  34.891  1.00  0.00     0.148 A 
ATOM    106  C   UNL A   1      48.891  32.895  35.356  1.00  0.00     0.002 A 
ATOM    107  C   UNL A   1      47.564  30.943  34.915  1.00  0.00     0.091 A 
ATOM    108  F   UNL A   1      45.261  31.141  34.525  1.00  0.00    -0.205 F 
ATOM    109  C   UNL A   1      48.812  31.535  35.102  1.00  0.00     0.022 A 
BRANCH 107 110
ATOM    110  S   UNL A   1      47.478  29.146  34.883  1.00  0.00     0.127 S 
ATOM    111  O   UNL A   1      48.891  28.778  34.839  1.00  0.00    -0.237 OA
ATOM    112  O   UNL A   1      46.808  28.850  36.152  1.00  0.00    -0.237 OA
ATOM    113  O   UNL A   1      46.692  28.815  33.702  1.00  0.00    -0.744 OA
ENDBRANCH 107 110
ENDBRANCH  80 103
ENDBRANCH  54  55
ENDBRANCH  47  49
ENDBRANCH  46  47
ENDBRANCH  45  46
ENDBRANCH  44  45
ENDBRANCH  43  44
ENDBRANCH  42  43
ENDBRANCH  41  42
ENDBRANCH   1  41
TORSDOF 26
ENDMDL
MODEL 3
REMARK VINA RESULT:      -8.9      5.594     12.486
REMARK SMILES Cc1ccc(-c2cnnc(-n3nc(C)c4c3NC(=O)C[C@@H]4c3ccc(C(=O)OCCOCCOCCOCCOC(=O)c4ccc(-c5c6nc(c(-c7cccc(S(=O)(=O)[O-])c7F)c7ccc([nH]7)c(-c7cccc(S(=O)(=O)[O-])c7F)c7nc(c(-c8cccc(S(=O)(=O)[O-])c8F)c8ccc5[nH]8)C=C7)C=C6)cc4)cc3)n2)cc1
REMARK SMILES IDX 34 1 33 2 32 3 31 4 30 5 29 6 28 7 26 8 27 9 25 10 22 11
REMARK SMILES IDX 23 12 107 13 24 14 106 15 21 16 11 17 12 18 16 19 13 20
REMARK SMILES IDX 15 21 17 22 14 23 18 24 20 26 19 27 10 28 6 29 7 30 108 31
REMARK SMILES IDX 8 32 9 33 5 34 1 35 2 36 3 37 110 38 4 39 109 40 35 41 36 42
REMARK SMILES IDX 37 43 38 44 39 45 40 46 41 47 42 48 43 49 44 50 105 51 45 52
REMARK SMILES IDX 104 53 46 54 47 55 48 56 98 57 49 58 103 59 97 60 99 61
REMARK SMILES IDX 50 62 102 63 96 64 95 65 51 67 83 68 63 69 82 70 64 71 67 72
REMARK SMILES IDX 81 73 100 74 65 75 66 76 80 78 101 79 68 80 52 81 53 82
REMARK SMILES IDX 61 83 54 84 56 85 62 86 55 87 57 88 58 89 59 90 60 91 84 92
REMARK SMILES IDX 85 93 93 94 86 95 88 96 94 97 87 98 89 99 90 100 91 101
REMARK SMILES IDX 92 102 69 103 70 104 78 105 71 106 73 107 79 108 72 109
REMARK SMILES IDX 74 110 75 111 76 112 77 113
REMARK H PARENT 17 25 99 66 67 77
REMARK Flexibility Score: inf
ROOT
ATOM      1  O   UNL A   1      46.159  25.022  25.627  1.00  0.00    -0.377 OA
ENDROOT
BRANCH   1   2
ATOM      2  C   UNL A   1      45.107  25.926  25.929  1.00  0.00     0.188 C 
BRANCH   2   3
ATOM      3  C   UNL A   1      43.605  25.498  25.785  1.00  0.00     0.188 C 
BRANCH   3   4
ATOM      4  O   UNL A   1      42.714  24.901  26.956  1.00  0.00    -0.376 OA
BRANCH   4   5
ATOM      5  C   UNL A   1      41.044  24.947  27.288  1.00  0.00     0.202 C 
BRANCH   5   6
ATOM      6  C   UNL A   1      39.614  23.761  27.330  1.00  0.00     0.261 C 
BRANCH   6   7
ATOM      7  O   UNL A   1      38.990  22.567  26.068  1.00  0.00    -0.460 OA
BRANCH   7   8
ATOM      8  C   UNL A   1      37.809  21.579  25.648  1.00  0.00     0.338 C 
ATOM      9  O   UNL A   1      38.073  20.466  25.181  1.00  0.00    -0.246 OA
BRANCH   8  10
ATOM     10  C   UNL A   1      36.160  21.874  25.552  1.00  0.00     0.060 A 
ATOM     11  C   UNL A   1      33.433  22.784  24.899  1.00  0.00    -0.040 A 
ATOM     12  C   UNL A   1      34.060  21.673  24.269  1.00  0.00     0.005 A 
ATOM     13  C   UNL A   1      34.100  23.268  25.998  1.00  0.00     0.005 A 
ATOM     14  C   UNL A   1      35.400  21.246  24.568  1.00  0.00     0.016 A 
ATOM     15  C   UNL A   1      35.361  22.738  26.352  1.00  0.00     0.016 A 
BRANCH  11  16
ATOM     16  C   UNL A   1      32.077  23.301  24.448  1.00  0.00     0.064 C 
ATOM     17  N   UNL A   1      30.715  26.677  24.447  1.00  0.00    -0.180 N 
ATOM     18  N   UNL A   1      31.930  27.066  23.986  1.00  0.00    -0.168 NA
ATOM     19  C   UNL A   1      30.880  25.463  25.096  1.00  0.00     0.143 A 
ATOM     20  C   UNL A   1      32.637  25.929  23.900  1.00  0.00     0.066 A 
ATOM     21  C   UNL A   1      31.915  24.815  24.428  1.00  0.00     0.026 A 
ATOM     22  N   UNL A   1      30.311  24.892  26.219  1.00  0.00    -0.310 N 
ATOM     23  C   UNL A   1      34.019  26.054  23.388  1.00  0.00     0.069 C 
ATOM     24  C   UNL A   1      30.629  23.522  26.473  1.00  0.00     0.226 C 
ATOM     25  H   UNL A   1      29.718  25.403  26.814  1.00  0.00     0.171 HD
ATOM     26  C   UNL A   1      30.932  22.681  25.267  1.00  0.00     0.113 C 
ATOM     27  O   UNL A   1      30.487  23.118  27.633  1.00  0.00    -0.275 OA
BRANCH  17  28
ATOM     28  C   UNL A   1      29.512  27.260  23.911  1.00  0.00     0.272 A 
ATOM     29  C   UNL A   1      28.224  28.983  23.099  1.00  0.00     0.095 A 
ATOM     30  C   UNL A   1      27.081  28.241  23.352  1.00  0.00     0.164 A 
ATOM     31  N   UNL A   1      29.476  28.527  23.425  1.00  0.00    -0.208 NA
ATOM     32  N   UNL A   1      27.164  27.003  23.849  1.00  0.00    -0.153 NA
ATOM     33  N   UNL A   1      28.398  26.497  24.087  1.00  0.00    -0.109 NA
BRANCH  29  34
ATOM     34  C   UNL A   1      28.113  30.249  22.353  1.00  0.00     0.002 A 
ATOM     35  C   UNL A   1      27.605  33.926  20.103  1.00  0.00     0.044 C 
ATOM     36  C   UNL A   1      27.738  32.649  20.881  1.00  0.00    -0.051 A 
ATOM     37  C   UNL A   1      27.860  32.682  22.274  1.00  0.00     0.004 A 
ATOM     38  C   UNL A   1      27.769  31.413  20.231  1.00  0.00     0.004 A 
ATOM     39  C   UNL A   1      28.042  31.497  23.000  1.00  0.00     0.011 A 
ATOM     40  C   UNL A   1      27.957  30.230  20.958  1.00  0.00     0.011 A 
ENDBRANCH  29  34
ENDBRANCH  17  28
ENDBRANCH  11  16
ENDBRANCH   8  10
ENDBRANCH   7   8
ENDBRANCH   6   7
ENDBRANCH   5   6
ENDBRANCH   4   5
ENDBRANCH   3   4
ENDBRANCH   2   3
ENDBRANCH   1   2
BRANCH   1  41
ATOM     41  C   UNL A   1      46.740  24.475  26.796  1.00  0.00     0.188 C 
BRANCH  41  42
ATOM     42  C   UNL A   1      46.669  25.425  27.991  1.00  0.00     0.188 C 
BRANCH  42  43
ATOM     43  O   UNL A   1      45.888  24.925  29.053  1.00  0.00    -0.376 OA
BRANCH  43  44
ATOM     44  C   UNL A   1      44.659  25.489  29.428  1.00  0.00     0.202 C 
BRANCH  44  45
ATOM     45  C   UNL A   1      44.377  25.062  30.860  1.00  0.00     0.261 C 
BRANCH  45  46
ATOM     46  O   UNL A   1      45.590  25.142  31.654  1.00  0.00    -0.460 OA
BRANCH  46  47
ATOM     47  C   UNL A   1      45.512  25.928  32.774  1.00  0.00     0.338 C 
ATOM     48  O   UNL A   1      45.717  25.517  33.904  1.00  0.00    -0.246 OA
BRANCH  47  49
ATOM     49  C   UNL A   1      44.937  27.272  32.404  1.00  0.00     0.060 A 
ATOM     50  C   UNL A   1      45.775  28.335  32.098  1.00  0.00     0.016 A 
ATOM     51  C   UNL A   1      43.591  27.560  32.672  1.00  0.00     0.016 A 
ATOM     52  C   UNL A   1      45.304  29.648  32.291  1.00  0.00     0.010 A 
ATOM     53  C   UNL A   1      43.207  28.857  33.057  1.00  0.00     0.010 A 
ATOM     54  C   UNL A   1      44.130  29.915  33.049  1.00  0.00    -0.014 A 
BRANCH  54  55
ATOM     55  C   UNL A   1      43.711  31.359  33.776  1.00  0.00     0.031 A 
ATOM     56  C   UNL A   1      44.130  30.691  35.383  1.00  0.00     0.074 A 
ATOM     57  C   UNL A   1      42.821  32.724  33.305  1.00  0.00     0.049 A 
ATOM     58  N   UNL A   1      43.409  30.792  36.473  1.00  0.00    -0.248 NA
ATOM     59  C   UNL A   1      45.175  29.670  35.665  1.00  0.00     0.031 C 
ATOM     60  C   UNL A   1      42.279  34.139  34.015  1.00  0.00     0.029 A 
ATOM     61  N   UNL A   1      41.874  33.087  32.135  1.00  0.00    -0.354 N 
ATOM     62  C   UNL A   1      44.184  30.505  37.542  1.00  0.00     0.074 A 
ATOM     63  C   UNL A   1      45.072  29.520  36.995  1.00  0.00     0.031 C 
ATOM     64  C   UNL A   1      41.360  34.850  33.364  1.00  0.00     0.029 A 
ATOM     65  C   UNL A   1      40.793  33.938  32.460  1.00  0.00     0.049 A 
ATOM     66  H   UNL A   1      42.016  32.746  31.222  1.00  0.00     0.167 HD
ATOM     67  C   UNL A   1      44.184  31.359  38.612  1.00  0.00     0.034 A 
ATOM     68  C   UNL A   1      39.459  33.618  32.554  1.00  0.00     0.034 A 
ATOM     69  C   UNL A   1      43.204  32.517  38.449  1.00  0.00     0.049 A 
ATOM     70  C   UNL A   1      38.983  33.734  34.052  1.00  0.00     0.074 A 
ATOM     71  C   UNL A   1      43.389  33.887  38.269  1.00  0.00     0.029 A 
ATOM     72  N   UNL A   1      41.828  32.325  38.171  1.00  0.00    -0.354 N 
ATOM     73  N   UNL A   1      39.798  33.776  35.088  1.00  0.00    -0.248 NA
ATOM     74  C   UNL A   1      37.605  33.907  34.488  1.00  0.00     0.031 C 
ATOM     75  C   UNL A   1      42.172  34.482  37.794  1.00  0.00     0.029 A 
ATOM     76  C   UNL A   1      41.187  33.504  37.713  1.00  0.00     0.049 A 
ATOM     77  H   UNL A   1      41.366  31.464  38.285  1.00  0.00     0.167 HD
ATOM     78  C   UNL A   1      39.131  33.800  36.284  1.00  0.00     0.074 A 
ATOM     79  C   UNL A   1      37.755  34.019  35.826  1.00  0.00     0.031 C 
ATOM     80  C   UNL A   1      39.710  33.592  37.529  1.00  0.00     0.034 A 
BRANCH  67  81
ATOM     81  C   UNL A   1      45.402  31.371  39.568  1.00  0.00     0.023 A 
ATOM     82  C   UNL A   1      45.311  30.673  40.790  1.00  0.00     0.012 A 
ATOM     83  C   UNL A   1      46.630  32.065  39.368  1.00  0.00     0.148 A 
ATOM     84  C   UNL A   1      46.304  30.746  41.785  1.00  0.00     0.002 A 
ATOM     85  C   UNL A   1      47.597  32.186  40.375  1.00  0.00     0.091 A 
ATOM     86  F   UNL A   1      46.937  32.540  38.158  1.00  0.00    -0.205 F 
ATOM     87  C   UNL A   1      47.432  31.529  41.593  1.00  0.00     0.022 A 
BRANCH  85  88
ATOM     88  S   UNL A   1      49.085  33.196  40.190  1.00  0.00     0.127 S 
ATOM     89  O   UNL A   1      49.994  32.290  39.483  1.00  0.00    -0.237 OA
ATOM     90  O   UNL A   1      48.604  34.317  39.384  1.00  0.00    -0.237 OA
ATOM     91  O   UNL A   1      49.521  33.537  41.539  1.00  0.00    -0.744 OA
ENDBRANCH  85  88
ENDBRANCH  67  81
BRANCH  68  92
ATOM     92  C   UNL A   1      38.927  32.698  31.479  1.00  0.00     0.023 A 
ATOM     93  C   UNL A   1      39.100  31.303  31.683  1.00  0.00     0.012 A 
ATOM     94  C   UNL A   1      37.996  33.098  30.503  1.00  0.00     0.148 A 
ATOM     95  C   UNL A   1      38.281  30.357  31.055  1.00  0.00     0.002 A 
ATOM     96  C   UNL A   1      37.093  32.161  29.984  1.00  0.00     0.091 A 
ATOM     97  F   UNL A   1      37.890  34.405  30.226  1.00  0.00    -0.205 F 
ATOM     98  C   UNL A   1      37.237  30.792  30.251  1.00  0.00     0.022 A 
BRANCH  96  99
ATOM     99  S   UNL A   1      35.524  32.654  29.235  1.00  0.00     0.127 S 
ATOM    100  O   UNL A   1      34.585  32.400  30.325  1.00  0.00    -0.237 OA
ATOM    101  O   UNL A   1      35.761  34.067  28.942  1.00  0.00    -0.237 OA
ATOM    102  O   UNL A   1      35.380  31.805  28.061  1.00  0.00    -0.744 OA
ENDBRANCH  96  99
ENDBRANCH  68  92
BRANCH  80 103
ATOM    103  C   UNL A   1      38.891  33.482  38.812  1.00  0.00     0.023 A 
ATOM    104  C   UNL A   1      39.038  34.393  39.872  1.00  0.00     0.012 A 
ATOM    105  C   UNL A   1      37.836  32.536  38.932  1.00  0.00     0.148 A 
ATOM    106  C   UNL A   1      38.252  34.320  41.025  1.00  0.00     0.002 A 
ATOM    107  C   UNL A   1      36.964  32.564  40.013  1.00  0.00     0.091 A 
ATOM    108  F   UNL A   1      37.683  31.570  38.016  1.00  0.00    -0.205 F 
ATOM    109  C   UNL A   1      37.196  33.425  41.085  1.00  0.00     0.022 A 
BRANCH 107 110
ATOM    110  S   UNL A   1      35.425  31.633  39.996  1.00  0.00     0.127 S 
ATOM    111  O   UNL A   1      35.119  31.531  41.421  1.00  0.00    -0.237 OA
ATOM    112  O   UNL A   1      34.538  32.522  39.242  1.00  0.00    -0.237 OA
ATOM    113  O   UNL A   1      35.735  30.382  39.316  1.00  0.00    -0.744 OA
ENDBRANCH 107 110
ENDBRANCH  80 103
ENDBRANCH  54  55
ENDBRANCH  47  49
ENDBRANCH  46  47
ENDBRANCH  45  46
ENDBRANCH  44  45
ENDBRANCH  43  44
ENDBRANCH  42  43
ENDBRANCH  41  42
ENDBRANCH   1  41
TORSDOF 26
ENDMDL
