MODEL 1
REMARK VINA RESULT:      -9.4      0.000      0.000
REMARK SMILES CC(=O)N1CC2(CC[NH+](C(=O)COCc3ccccc3)CC2)C[C@H]1C(=O)OCCOCCOCCOCCOC(=O)c1ccc(-c2c3nc(c(-c4cccc(S(=O)(=O)[O-])c4F)c4ccc([nH]4)c(-c4cccc(S(=O)(=O)[O-])c4F)c4nc(c(-c5cccc(S(=O)(=O)[O-])c5F)c5ccc2[nH]5)C=C4)C=C3)cc1
REMARK SMILES IDX 32 1 31 2 30 3 29 4 28 5 27 6 25 7 26 8 24 9 4 10 5 11 6 12
REMARK SMILES IDX 23 13 7 14 22 15 8 16 21 17 9 18 2 20 1 21 3 22 10 23 11 24
REMARK SMILES IDX 12 25 13 26 14 27 15 28 16 29 20 30 17 31 19 32 18 33 33 34
REMARK SMILES IDX 34 35 35 36 36 37 37 38 38 39 39 40 40 41 41 42 42 43 43 44
REMARK SMILES IDX 104 45 44 46 103 47 45 48 46 49 47 50 97 51 48 52 102 53
REMARK SMILES IDX 96 54 98 55 49 56 101 57 95 58 94 59 50 61 82 62 62 63 81 64
REMARK SMILES IDX 63 65 66 66 80 67 99 68 64 69 65 70 79 72 100 73 67 74 51 75
REMARK SMILES IDX 52 76 60 77 53 78 55 79 61 80 54 81 56 82 57 83 58 84 59 85
REMARK SMILES IDX 83 86 84 87 92 88 85 89 87 90 93 91 86 92 88 93 89 94 90 95
REMARK SMILES IDX 91 96 68 97 69 98 77 99 70 100 72 101 78 102 71 103 73 104
REMARK SMILES IDX 74 105 75 106 76 107
REMARK H PARENT 9 19 98 60 66 71
REMARK Flexibility Score: inf
ROOT
ATOM      1  C   UNL A   1      36.482  33.202  28.365  1.00  0.00     0.188 C 
ENDROOT
BRANCH   1   2
ATOM      2  C   UNL A   1      36.530  31.662  28.319  1.00  0.00     0.188 C 
BRANCH   2   3
ATOM      3  O   UNL A   1      35.350  30.880  28.479  1.00  0.00    -0.376 OA
BRANCH   3   4
ATOM      4  C   UNL A   1      34.612  30.428  27.354  1.00  0.00     0.202 C 
BRANCH   4   5
ATOM      5  C   UNL A   1      33.117  30.765  27.197  1.00  0.00     0.261 C 
BRANCH   5   6
ATOM      6  O   UNL A   1      32.436  30.163  26.083  1.00  0.00    -0.462 OA
BRANCH   6   7
ATOM      7  C   UNL A   1      31.795  28.994  26.327  1.00  0.00     0.328 C 
ATOM      8  O   UNL A   1      32.105  28.214  27.223  1.00  0.00    -0.250 OA
BRANCH   7   9
ATOM      9  C   UNL A   1      30.704  28.653  25.282  1.00  0.00     0.195 C 
ATOM     10  N   UNL A   1      30.701  29.148  23.898  1.00  0.00    -0.329 N 
ATOM     11  C   UNL A   1      31.605  28.374  23.081  1.00  0.00     0.128 C 
ATOM     12  C   UNL A   1      31.574  26.974  23.718  1.00  0.00     0.001 C 
ATOM     13  C   UNL A   1      30.788  27.148  25.048  1.00  0.00     0.046 C 
ATOM     14  C   UNL A   1      33.015  26.472  23.960  1.00  0.00     0.071 C 
ATOM     15  C   UNL A   1      30.790  25.992  22.814  1.00  0.00     0.071 C 
ATOM     16  C   UNL A   1      33.712  26.110  22.646  1.00  0.00     0.270 C 
ATOM     17  C   UNL A   1      31.560  25.635  21.551  1.00  0.00     0.270 C 
ATOM     18  N   UNL A   1      32.874  25.152  21.923  1.00  0.00    -0.270 N 
ATOM     19  H   UNL A   1      32.812  24.197  22.152  1.00  0.00     0.356 HD
BRANCH  10  20
ATOM     20  C   UNL A   1      29.802  30.089  23.444  1.00  0.00     0.220 C 
ATOM     21  C   UNL A   1      29.657  31.359  24.256  1.00  0.00     0.114 C 
ATOM     22  O   UNL A   1      29.164  29.939  22.403  1.00  0.00    -0.275 OA
ENDBRANCH  10  20
BRANCH  18  23
ATOM     23  C   UNL A   1      33.156  23.798  21.790  1.00  0.00     0.337 C 
ATOM     24  O   UNL A   1      33.657  23.336  20.761  1.00  0.00    -0.228 OA
BRANCH  23  25
ATOM     25  C   UNL A   1      32.797  22.891  22.967  1.00  0.00     0.305 C 
BRANCH  25  26
ATOM     26  O   UNL A   1      33.853  22.626  23.872  1.00  0.00    -0.363 OA
BRANCH  26  27
ATOM     27  C   UNL A   1      33.504  21.794  24.984  1.00  0.00     0.196 C 
BRANCH  27  28
ATOM     28  C   UNL A   1      33.600  20.328  24.649  1.00  0.00    -0.022 A 
ATOM     29  C   UNL A   1      32.477  19.613  24.213  1.00  0.00     0.006 A 
ATOM     30  C   UNL A   1      34.817  19.656  24.822  1.00  0.00     0.006 A 
ATOM     31  C   UNL A   1      32.562  18.238  23.999  1.00  0.00     0.000 A 
ATOM     32  C   UNL A   1      34.896  18.280  24.625  1.00  0.00     0.000 A 
ATOM     33  C   UNL A   1      33.767  17.570  24.219  1.00  0.00     0.000 A 
ENDBRANCH  27  28
ENDBRANCH  26  27
ENDBRANCH  25  26
ENDBRANCH  23  25
ENDBRANCH  18  23
ENDBRANCH   7   9
ENDBRANCH   6   7
ENDBRANCH   5   6
ENDBRANCH   4   5
ENDBRANCH   3   4
ENDBRANCH   2   3
ENDBRANCH   1   2
BRANCH   1  34
ATOM     34  O   UNL A   1      35.210  33.772  28.140  1.00  0.00    -0.377 OA
BRANCH  34  35
ATOM     35  C   UNL A   1      34.395  33.990  29.276  1.00  0.00     0.188 C 
BRANCH  35  36
ATOM     36  C   UNL A   1      35.083  34.027  30.653  1.00  0.00     0.188 C 
BRANCH  36  37
ATOM     37  O   UNL A   1      34.261  33.595  31.732  1.00  0.00    -0.376 OA
BRANCH  37  38
ATOM     38  C   UNL A   1      34.796  32.704  32.698  1.00  0.00     0.202 C 
BRANCH  38  39
ATOM     39  C   UNL A   1      35.684  31.551  32.201  1.00  0.00     0.261 C 
BRANCH  39  40
ATOM     40  O   UNL A   1      36.956  31.397  32.845  1.00  0.00    -0.460 OA
BRANCH  40  41
ATOM     41  C   UNL A   1      37.645  30.259  32.618  1.00  0.00     0.338 C 
ATOM     42  O   UNL A   1      37.260  29.118  32.816  1.00  0.00    -0.246 OA
BRANCH  41  43
ATOM     43  C   UNL A   1      38.878  30.620  31.889  1.00  0.00     0.060 A 
ATOM     44  C   UNL A   1      40.025  30.948  32.624  1.00  0.00     0.016 A 
ATOM     45  C   UNL A   1      38.911  30.607  30.492  1.00  0.00     0.016 A 
ATOM     46  C   UNL A   1      41.202  31.298  31.962  1.00  0.00     0.010 A 
ATOM     47  C   UNL A   1      40.083  30.984  29.831  1.00  0.00     0.010 A 
ATOM     48  C   UNL A   1      41.221  31.364  30.564  1.00  0.00    -0.014 A 
BRANCH  48  49
ATOM     49  C   UNL A   1      42.352  32.036  29.879  1.00  0.00     0.031 A 
ATOM     50  C   UNL A   1      43.582  31.219  29.585  1.00  0.00     0.074 A 
ATOM     51  C   UNL A   1      42.292  33.330  29.520  1.00  0.00     0.049 A 
ATOM     52  N   UNL A   1      44.714  31.590  29.048  1.00  0.00    -0.248 NA
ATOM     53  C   UNL A   1      43.526  29.791  29.947  1.00  0.00     0.031 C 
ATOM     54  C   UNL A   1      41.152  34.219  29.734  1.00  0.00     0.029 A 
ATOM     55  N   UNL A   1      43.234  34.128  28.918  1.00  0.00    -0.354 N 
ATOM     56  C   UNL A   1      45.511  30.451  29.027  1.00  0.00     0.074 A 
ATOM     57  C   UNL A   1      44.742  29.380  29.619  1.00  0.00     0.031 C 
ATOM     58  C   UNL A   1      41.474  35.452  29.304  1.00  0.00     0.029 A 
ATOM     59  C   UNL A   1      42.851  35.445  28.811  1.00  0.00     0.049 A 
ATOM     60  H   UNL A   1      44.101  33.791  28.595  1.00  0.00     0.167 HD
ATOM     61  C   UNL A   1      46.766  30.304  28.545  1.00  0.00     0.034 A 
ATOM     62  C   UNL A   1      43.547  36.523  28.393  1.00  0.00     0.034 A 
ATOM     63  C   UNL A   1      47.528  31.368  27.952  1.00  0.00     0.049 A 
ATOM     64  C   UNL A   1      44.964  36.340  27.908  1.00  0.00     0.074 A 
ATOM     65  C   UNL A   1      48.802  31.315  27.413  1.00  0.00     0.029 A 
ATOM     66  N   UNL A   1      47.094  32.678  27.829  1.00  0.00    -0.354 N 
ATOM     67  N   UNL A   1      45.669  35.240  27.805  1.00  0.00    -0.248 NA
ATOM     68  C   UNL A   1      45.674  37.547  27.454  1.00  0.00     0.031 C 
ATOM     69  C   UNL A   1      49.150  32.601  26.993  1.00  0.00     0.029 A 
ATOM     70  C   UNL A   1      48.077  33.445  27.231  1.00  0.00     0.049 A 
ATOM     71  H   UNL A   1      46.217  33.012  28.124  1.00  0.00     0.167 HD
ATOM     72  C   UNL A   1      46.882  35.614  27.233  1.00  0.00     0.074 A 
ATOM     73  C   UNL A   1      46.809  37.040  26.996  1.00  0.00     0.031 C 
ATOM     74  C   UNL A   1      47.964  34.851  26.943  1.00  0.00     0.034 A 
BRANCH  61  75
ATOM     75  C   UNL A   1      47.390  28.937  28.618  1.00  0.00     0.023 A 
ATOM     76  C   UNL A   1      48.181  28.590  29.731  1.00  0.00     0.012 A 
ATOM     77  C   UNL A   1      47.135  27.975  27.622  1.00  0.00     0.148 A 
ATOM     78  C   UNL A   1      48.729  27.313  29.840  1.00  0.00     0.002 A 
ATOM     79  C   UNL A   1      47.646  26.691  27.761  1.00  0.00     0.091 A 
ATOM     80  F   UNL A   1      46.398  28.334  26.562  1.00  0.00    -0.205 F 
ATOM     81  C   UNL A   1      48.452  26.361  28.863  1.00  0.00     0.022 A 
BRANCH  79  82
ATOM     82  S   UNL A   1      47.284  25.370  26.599  1.00  0.00     0.127 S 
ATOM     83  O   UNL A   1      47.916  24.223  27.250  1.00  0.00    -0.237 OA
ATOM     84  O   UNL A   1      45.821  25.348  26.608  1.00  0.00    -0.237 OA
ATOM     85  O   UNL A   1      47.882  25.770  25.334  1.00  0.00    -0.744 OA
ENDBRANCH  79  82
ENDBRANCH  61  75
BRANCH  62  86
ATOM     86  C   UNL A   1      42.931  37.880  28.416  1.00  0.00     0.023 A 
ATOM     87  C   UNL A   1      42.134  38.313  27.337  1.00  0.00     0.012 A 
ATOM     88  C   UNL A   1      43.165  38.760  29.489  1.00  0.00     0.148 A 
ATOM     89  C   UNL A   1      41.621  39.611  27.307  1.00  0.00     0.002 A 
ATOM     90  C   UNL A   1      42.603  40.032  29.479  1.00  0.00     0.091 A 
ATOM     91  F   UNL A   1      43.942  38.338  30.496  1.00  0.00    -0.205 F 
ATOM     92  C   UNL A   1      41.848  40.468  28.380  1.00  0.00     0.022 A 
BRANCH  90  93
ATOM     93  S   UNL A   1      42.744  41.148  30.875  1.00  0.00     0.127 S 
ATOM     94  O   UNL A   1      41.351  41.304  31.281  1.00  0.00    -0.237 OA
ATOM     95  O   UNL A   1      43.570  40.370  31.800  1.00  0.00    -0.237 OA
ATOM     96  O   UNL A   1      43.387  42.342  30.346  1.00  0.00    -0.744 OA
ENDBRANCH  90  93
ENDBRANCH  62  86
BRANCH  74  97
ATOM     97  C   UNL A   1      49.138  35.519  26.275  1.00  0.00     0.023 A 
ATOM     98  C   UNL A   1      49.242  35.531  24.869  1.00  0.00     0.012 A 
ATOM     99  C   UNL A   1      50.101  36.203  27.045  1.00  0.00     0.148 A 
ATOM    100  C   UNL A   1      50.304  36.183  24.243  1.00  0.00     0.002 A 
ATOM    101  C   UNL A   1      51.125  36.895  26.413  1.00  0.00     0.091 A 
ATOM    102  F   UNL A   1      49.992  36.168  28.380  1.00  0.00    -0.205 F 
ATOM    103  C   UNL A   1      51.238  36.873  25.013  1.00  0.00     0.022 A 
BRANCH 101 104
ATOM    104  S   UNL A   1      52.314  37.895  27.315  1.00  0.00     0.127 S 
ATOM    105  O   UNL A   1      51.650  39.198  27.338  1.00  0.00    -0.237 OA
ATOM    106  O   UNL A   1      52.370  37.215  28.610  1.00  0.00    -0.237 OA
ATOM    107  O   UNL A   1      53.551  37.840  26.547  1.00  0.00    -0.744 OA
ENDBRANCH 101 104
ENDBRANCH  74  97
ENDBRANCH  48  49
ENDBRANCH  41  43
ENDBRANCH  40  41
ENDBRANCH  39  40
ENDBRANCH  38  39
ENDBRANCH  37  38
ENDBRANCH  36  37
ENDBRANCH  35  36
ENDBRANCH  34  35
ENDBRANCH   1  34
TORSDOF 29
ENDMDL
MODEL 2
REMARK VINA RESULT:      -9.4      6.261      9.876
REMARK SMILES CC(=O)N1CC2(CC[NH+](C(=O)COCc3ccccc3)CC2)C[C@H]1C(=O)OCCOCCOCCOCCOC(=O)c1ccc(-c2c3nc(c(-c4cccc(S(=O)(=O)[O-])c4F)c4ccc([nH]4)c(-c4cccc(S(=O)(=O)[O-])c4F)c4nc(c(-c5cccc(S(=O)(=O)[O-])c5F)c5ccc2[nH]5)C=C4)C=C3)cc1
REMARK SMILES IDX 32 1 31 2 30 3 29 4 28 5 27 6 25 7 26 8 24 9 4 10 5 11 6 12
REMARK SMILES IDX 23 13 7 14 22 15 8 16 21 17 9 18 2 20 1 21 3 22 10 23 11 24
REMARK SMILES IDX 12 25 13 26 14 27 15 28 16 29 20 30 17 31 19 32 18 33 33 34
REMARK SMILES IDX 34 35 35 36 36 37 37 38 38 39 39 40 40 41 41 42 42 43 43 44
REMARK SMILES IDX 104 45 44 46 103 47 45 48 46 49 47 50 97 51 48 52 102 53
REMARK SMILES IDX 96 54 98 55 49 56 101 57 95 58 94 59 50 61 82 62 62 63 81 64
REMARK SMILES IDX 63 65 66 66 80 67 99 68 64 69 65 70 79 72 100 73 67 74 51 75
REMARK SMILES IDX 52 76 60 77 53 78 55 79 61 80 54 81 56 82 57 83 58 84 59 85
REMARK SMILES IDX 83 86 84 87 92 88 85 89 87 90 93 91 86 92 88 93 89 94 90 95
REMARK SMILES IDX 91 96 68 97 69 98 77 99 70 100 72 101 78 102 71 103 73 104
REMARK SMILES IDX 74 105 75 106 76 107
REMARK H PARENT 9 19 98 60 66 71
REMARK Flexibility Score: inf
ROOT
ATOM      1  C   UNL A   1      34.446  29.534  27.053  1.00  0.00     0.188 C 
ENDROOT
BRANCH   1   2
ATOM      2  C   UNL A   1      32.919  29.336  26.986  1.00  0.00     0.188 C 
BRANCH   2   3
ATOM      3  O   UNL A   1      32.260  28.382  27.814  1.00  0.00    -0.376 OA
BRANCH   3   4
ATOM      4  C   UNL A   1      31.089  27.713  27.373  1.00  0.00     0.202 C 
BRANCH   4   5
ATOM      5  C   UNL A   1      31.131  26.741  26.179  1.00  0.00     0.261 C 
BRANCH   5   6
ATOM      6  O   UNL A   1      30.683  27.256  24.913  1.00  0.00    -0.462 OA
BRANCH   6   7
ATOM      7  C   UNL A   1      30.412  26.342  23.951  1.00  0.00     0.328 C 
ATOM      8  O   UNL A   1      29.391  25.661  23.917  1.00  0.00    -0.250 OA
BRANCH   7   9
ATOM      9  C   UNL A   1      31.576  26.127  22.953  1.00  0.00     0.195 C 
ATOM     10  N   UNL A   1      32.949  26.606  23.167  1.00  0.00    -0.329 N 
ATOM     11  C   UNL A   1      33.662  25.720  24.057  1.00  0.00     0.128 C 
ATOM     12  C   UNL A   1      33.040  24.340  23.783  1.00  0.00     0.001 C 
ATOM     13  C   UNL A   1      31.807  24.621  22.878  1.00  0.00     0.046 C 
ATOM     14  C   UNL A   1      32.638  23.668  25.114  1.00  0.00     0.071 C 
ATOM     15  C   UNL A   1      34.031  23.453  22.992  1.00  0.00     0.071 C 
ATOM     16  C   UNL A   1      33.865  23.212  25.906  1.00  0.00     0.270 C 
ATOM     17  C   UNL A   1      35.201  22.993  23.851  1.00  0.00     0.270 C 
ATOM     18  N   UNL A   1      34.683  22.357  25.045  1.00  0.00    -0.270 N 
ATOM     19  H   UNL A   1      34.468  21.419  24.841  1.00  0.00     0.356 HD
BRANCH  10  20
ATOM     20  C   UNL A   1      33.498  27.646  22.447  1.00  0.00     0.220 C 
ATOM     21  C   UNL A   1      33.681  28.967  23.166  1.00  0.00     0.114 C 
ATOM     22  O   UNL A   1      33.868  27.515  21.281  1.00  0.00    -0.275 OA
ENDBRANCH  10  20
BRANCH  18  23
ATOM     23  C   UNL A   1      34.790  20.978  25.173  1.00  0.00     0.337 C 
ATOM     24  O   UNL A   1      35.884  20.406  25.162  1.00  0.00    -0.228 OA
BRANCH  23  25
ATOM     25  C   UNL A   1      33.489  20.186  25.303  1.00  0.00     0.305 C 
BRANCH  25  26
ATOM     26  O   UNL A   1      32.575  20.341  24.233  1.00  0.00    -0.363 OA
BRANCH  26  27
ATOM     27  C   UNL A   1      32.532  19.249  23.309  1.00  0.00     0.196 C 
BRANCH  27  28
ATOM     28  C   UNL A   1      32.930  17.945  23.951  1.00  0.00    -0.022 A 
ATOM     29  C   UNL A   1      32.221  17.434  25.045  1.00  0.00     0.006 A 
ATOM     30  C   UNL A   1      34.056  17.256  23.479  1.00  0.00     0.006 A 
ATOM     31  C   UNL A   1      32.660  16.277  25.686  1.00  0.00     0.000 A 
ATOM     32  C   UNL A   1      34.503  16.110  24.132  1.00  0.00     0.000 A 
ATOM     33  C   UNL A   1      33.809  15.623  25.238  1.00  0.00     0.000 A 
ENDBRANCH  27  28
ENDBRANCH  26  27
ENDBRANCH  25  26
ENDBRANCH  23  25
ENDBRANCH  18  23
ENDBRANCH   7   9
ENDBRANCH   6   7
ENDBRANCH   5   6
ENDBRANCH   4   5
ENDBRANCH   3   4
ENDBRANCH   2   3
ENDBRANCH   1   2
BRANCH   1  34
ATOM     34  O   UNL A   1      34.873  30.867  27.243  1.00  0.00    -0.377 OA
BRANCH  34  35
ATOM     35  C   UNL A   1      35.683  31.125  28.375  1.00  0.00     0.188 C 
BRANCH  35  36
ATOM     36  C   UNL A   1      36.037  32.591  28.682  1.00  0.00     0.188 C 
BRANCH  36  37
ATOM     37  O   UNL A   1      35.474  33.091  29.889  1.00  0.00    -0.376 OA
BRANCH  37  38
ATOM     38  C   UNL A   1      36.331  33.418  30.973  1.00  0.00     0.202 C 
BRANCH  38  39
ATOM     39  C   UNL A   1      37.510  32.475  31.268  1.00  0.00     0.261 C 
BRANCH  39  40
ATOM     40  O   UNL A   1      37.316  31.511  32.310  1.00  0.00    -0.460 OA
BRANCH  40  41
ATOM     41  C   UNL A   1      37.293  30.206  31.967  1.00  0.00     0.338 C 
ATOM     42  O   UNL A   1      36.432  29.635  31.318  1.00  0.00    -0.246 OA
BRANCH  41  43
ATOM     43  C   UNL A   1      38.599  29.623  32.337  1.00  0.00     0.060 A 
ATOM     44  C   UNL A   1      39.698  30.477  32.500  1.00  0.00     0.016 A 
ATOM     45  C   UNL A   1      38.731  28.248  32.549  1.00  0.00     0.016 A 
ATOM     46  C   UNL A   1      40.944  29.952  32.844  1.00  0.00     0.010 A 
ATOM     47  C   UNL A   1      39.986  27.722  32.867  1.00  0.00     0.010 A 
ATOM     48  C   UNL A   1      41.104  28.568  32.982  1.00  0.00    -0.014 A 
BRANCH  48  49
ATOM     49  C   UNL A   1      42.468  27.990  33.026  1.00  0.00     0.031 A 
ATOM     50  C   UNL A   1      43.118  27.823  34.375  1.00  0.00     0.074 A 
ATOM     51  C   UNL A   1      43.114  27.616  31.909  1.00  0.00     0.049 A 
ATOM     52  N   UNL A   1      44.316  27.395  34.670  1.00  0.00    -0.248 NA
ATOM     53  C   UNL A   1      42.304  28.191  35.547  1.00  0.00     0.031 C 
ATOM     54  C   UNL A   1      42.585  27.710  30.550  1.00  0.00     0.029 A 
ATOM     55  N   UNL A   1      44.377  27.101  31.744  1.00  0.00    -0.354 N 
ATOM     56  C   UNL A   1      44.408  27.462  36.056  1.00  0.00     0.074 A 
ATOM     57  C   UNL A   1      43.152  27.985  36.543  1.00  0.00     0.031 C 
ATOM     58  C   UNL A   1      43.531  27.303  29.685  1.00  0.00     0.029 A 
ATOM     59  C   UNL A   1      44.740  26.945  30.426  1.00  0.00     0.049 A 
ATOM     60  H   UNL A   1      44.966  26.866  32.496  1.00  0.00     0.167 HD
ATOM     61  C   UNL A   1      45.440  27.104  36.854  1.00  0.00     0.034 A 
ATOM     62  C   UNL A   1      45.922  26.588  29.885  1.00  0.00     0.034 A 
ATOM     63  C   UNL A   1      46.686  26.579  36.369  1.00  0.00     0.049 A 
ATOM     64  C   UNL A   1      47.075  26.244  30.798  1.00  0.00     0.074 A 
ATOM     65  C   UNL A   1      47.786  26.166  37.099  1.00  0.00     0.029 A 
ATOM     66  N   UNL A   1      47.003  26.402  35.032  1.00  0.00    -0.354 N 
ATOM     67  N   UNL A   1      47.115  26.219  32.108  1.00  0.00    -0.248 NA
ATOM     68  C   UNL A   1      48.339  25.850  30.155  1.00  0.00     0.031 C 
ATOM     69  C   UNL A   1      48.781  25.770  36.201  1.00  0.00     0.029 A 
ATOM     70  C   UNL A   1      48.284  25.896  34.914  1.00  0.00     0.049 A 
ATOM     71  H   UNL A   1      46.405  26.609  34.278  1.00  0.00     0.167 HD
ATOM     72  C   UNL A   1      48.386  25.764  32.444  1.00  0.00     0.074 A 
ATOM     73  C   UNL A   1      49.079  25.508  31.199  1.00  0.00     0.031 C 
ATOM     74  C   UNL A   1      48.938  25.586  33.669  1.00  0.00     0.034 A 
BRANCH  61  75
ATOM     75  C   UNL A   1      45.260  27.249  38.340  1.00  0.00     0.023 A 
ATOM     76  C   UNL A   1      44.753  26.168  39.090  1.00  0.00     0.012 A 
ATOM     77  C   UNL A   1      45.658  28.426  39.003  1.00  0.00     0.148 A 
ATOM     78  C   UNL A   1      44.622  26.266  40.474  1.00  0.00     0.002 A 
ATOM     79  C   UNL A   1      45.568  28.498  40.387  1.00  0.00     0.091 A 
ATOM     80  F   UNL A   1      46.117  29.448  38.267  1.00  0.00    -0.205 F 
ATOM     81  C   UNL A   1      45.041  27.424  41.124  1.00  0.00     0.022 A 
BRANCH  79  82
ATOM     82  S   UNL A   1      46.152  29.913  41.326  1.00  0.00     0.127 S 
ATOM     83  O   UNL A   1      45.084  30.885  41.090  1.00  0.00    -0.237 OA
ATOM     84  O   UNL A   1      46.201  29.377  42.686  1.00  0.00    -0.237 OA
ATOM     85  O   UNL A   1      47.446  30.267  40.760  1.00  0.00    -0.744 OA
ENDBRANCH  79  82
ENDBRANCH  61  75
BRANCH  62  86
ATOM     86  C   UNL A   1      46.097  26.539  28.405  1.00  0.00     0.023 A 
ATOM     87  C   UNL A   1      46.513  27.689  27.705  1.00  0.00     0.012 A 
ATOM     88  C   UNL A   1      45.815  25.364  27.685  1.00  0.00     0.148 A 
ATOM     89  C   UNL A   1      46.599  27.680  26.311  1.00  0.00     0.002 A 
ATOM     90  C   UNL A   1      45.959  25.346  26.302  1.00  0.00     0.091 A 
ATOM     91  F   UNL A   1      45.402  24.286  28.367  1.00  0.00    -0.205 F 
ATOM     92  C   UNL A   1      46.330  26.508  25.610  1.00  0.00     0.022 A 
BRANCH  90  93
ATOM     93  S   UNL A   1      45.753  23.846  25.341  1.00  0.00     0.127 S 
ATOM     94  O   UNL A   1      46.277  24.247  24.038  1.00  0.00    -0.237 OA
ATOM     95  O   UNL A   1      46.594  22.900  26.075  1.00  0.00    -0.237 OA
ATOM     96  O   UNL A   1      44.328  23.555  25.388  1.00  0.00    -0.744 OA
ENDBRANCH  90  93
ENDBRANCH  62  86
BRANCH  74  97
ATOM     97  C   UNL A   1      50.336  25.029  33.739  1.00  0.00     0.023 A 
ATOM     98  C   UNL A   1      51.438  25.896  33.880  1.00  0.00     0.012 A 
ATOM     99  C   UNL A   1      50.548  23.636  33.741  1.00  0.00     0.148 A 
ATOM    100  C   UNL A   1      52.732  25.385  33.986  1.00  0.00     0.002 A 
ATOM    101  C   UNL A   1      51.832  23.134  33.901  1.00  0.00     0.091 A 
ATOM    102  F   UNL A   1      49.488  22.829  33.591  1.00  0.00    -0.205 F 
ATOM    103  C   UNL A   1      52.927  24.006  34.007  1.00  0.00     0.022 A 
BRANCH 101 104
ATOM    104  S   UNL A   1      52.170  21.374  34.042  1.00  0.00     0.127 S 
ATOM    105  O   UNL A   1      51.660  20.871  32.768  1.00  0.00    -0.237 OA
ATOM    106  O   UNL A   1      53.628  21.350  34.169  1.00  0.00    -0.237 OA
ATOM    107  O   UNL A   1      51.451  20.920  35.224  1.00  0.00    -0.744 OA
ENDBRANCH 101 104
ENDBRANCH  74  97
ENDBRANCH  48  49
ENDBRANCH  41  43
ENDBRANCH  40  41
ENDBRANCH  39  40
ENDBRANCH  38  39
ENDBRANCH  37  38
ENDBRANCH  36  37
ENDBRANCH  35  36
ENDBRANCH  34  35
ENDBRANCH   1  34
TORSDOF 29
ENDMDL
MODEL 3
REMARK VINA RESULT:      -9.2      6.182      7.985
REMARK SMILES CC(=O)N1CC2(CC[NH+](C(=O)COCc3ccccc3)CC2)C[C@H]1C(=O)OCCOCCOCCOCCOC(=O)c1ccc(-c2c3nc(c(-c4cccc(S(=O)(=O)[O-])c4F)c4ccc([nH]4)c(-c4cccc(S(=O)(=O)[O-])c4F)c4nc(c(-c5cccc(S(=O)(=O)[O-])c5F)c5ccc2[nH]5)C=C4)C=C3)cc1
REMARK SMILES IDX 32 1 31 2 30 3 29 4 28 5 27 6 25 7 26 8 24 9 4 10 5 11 6 12
REMARK SMILES IDX 23 13 7 14 22 15 8 16 21 17 9 18 2 20 1 21 3 22 10 23 11 24
REMARK SMILES IDX 12 25 13 26 14 27 15 28 16 29 20 30 17 31 19 32 18 33 33 34
REMARK SMILES IDX 34 35 35 36 36 37 37 38 38 39 39 40 40 41 41 42 42 43 43 44
REMARK SMILES IDX 104 45 44 46 103 47 45 48 46 49 47 50 97 51 48 52 102 53
REMARK SMILES IDX 96 54 98 55 49 56 101 57 95 58 94 59 50 61 82 62 62 63 81 64
REMARK SMILES IDX 63 65 66 66 80 67 99 68 64 69 65 70 79 72 100 73 67 74 51 75
REMARK SMILES IDX 52 76 60 77 53 78 55 79 61 80 54 81 56 82 57 83 58 84 59 85
REMARK SMILES IDX 83 86 84 87 92 88 85 89 87 90 93 91 86 92 88 93 89 94 90 95
REMARK SMILES IDX 91 96 68 97 69 98 77 99 70 100 72 101 78 102 71 103 73 104
REMARK SMILES IDX 74 105 75 106 76 107
REMARK H PARENT 9 19 98 60 66 71
REMARK Flexibility Score: inf
ROOT
ATOM      1  C   UNL A   1      36.883  32.211  28.942  1.00  0.00     0.188 C 
ENDROOT
BRANCH   1   2
ATOM      2  C   UNL A   1      36.548  30.996  28.055  1.00  0.00     0.188 C 
BRANCH   2   3
ATOM      3  O   UNL A   1      35.357  30.240  28.254  1.00  0.00    -0.376 OA
BRANCH   3   4
ATOM      4  C   UNL A   1      34.339  30.203  27.266  1.00  0.00     0.202 C 
BRANCH   4   5
ATOM      5  C   UNL A   1      33.040  29.406  27.491  1.00  0.00     0.261 C 
BRANCH   5   6
ATOM      6  O   UNL A   1      32.650  28.501  26.444  1.00  0.00    -0.462 OA
BRANCH   6   7
ATOM      7  C   UNL A   1      31.527  27.775  26.660  1.00  0.00     0.328 C 
ATOM      8  O   UNL A   1      31.023  27.601  27.766  1.00  0.00    -0.250 OA
BRANCH   7   9
ATOM      9  C   UNL A   1      30.994  27.062  25.393  1.00  0.00     0.195 C 
ATOM     10  N   UNL A   1      31.482  27.322  24.031  1.00  0.00    -0.329 N 
ATOM     11  C   UNL A   1      32.725  26.626  23.796  1.00  0.00     0.128 C 
ATOM     12  C   UNL A   1      32.616  25.366  24.673  1.00  0.00     0.001 C 
ATOM     13  C   UNL A   1      31.349  25.587  25.548  1.00  0.00     0.046 C 
ATOM     14  C   UNL A   1      33.891  25.208  25.531  1.00  0.00     0.071 C 
ATOM     15  C   UNL A   1      32.384  24.118  23.789  1.00  0.00     0.071 C 
ATOM     16  C   UNL A   1      35.092  24.790  24.680  1.00  0.00     0.270 C 
ATOM     17  C   UNL A   1      33.631  23.727  23.009  1.00  0.00     0.270 C 
ATOM     18  N   UNL A   1      34.737  23.582  23.934  1.00  0.00    -0.270 N 
ATOM     19  H   UNL A   1      34.707  22.682  24.331  1.00  0.00     0.356 HD
BRANCH  10  20
ATOM     20  C   UNL A   1      30.730  27.980  23.081  1.00  0.00     0.220 C 
ATOM     21  C   UNL A   1      30.110  29.303  23.482  1.00  0.00     0.114 C 
ATOM     22  O   UNL A   1      30.590  27.547  21.938  1.00  0.00    -0.275 OA
ENDBRANCH  10  20
BRANCH  18  23
ATOM     23  C   UNL A   1      35.214  22.309  24.220  1.00  0.00     0.337 C 
ATOM     24  O   UNL A   1      36.346  21.948  23.886  1.00  0.00    -0.228 OA
BRANCH  23  25
ATOM     25  C   UNL A   1      34.266  21.355  24.946  1.00  0.00     0.305 C 
BRANCH  25  26
ATOM     26  O   UNL A   1      33.306  20.713  24.126  1.00  0.00    -0.363 OA
BRANCH  26  27
ATOM     27  C   UNL A   1      32.425  19.816  24.812  1.00  0.00     0.196 C 
BRANCH  27  28
ATOM     28  C   UNL A   1      32.912  18.391  24.761  1.00  0.00    -0.022 A 
ATOM     29  C   UNL A   1      33.662  17.923  23.675  1.00  0.00     0.006 A 
ATOM     30  C   UNL A   1      32.568  17.505  25.791  1.00  0.00     0.006 A 
ATOM     31  C   UNL A   1      34.022  16.579  23.599  1.00  0.00     0.000 A 
ATOM     32  C   UNL A   1      32.913  16.159  25.705  1.00  0.00     0.000 A 
ATOM     33  C   UNL A   1      33.635  15.694  24.606  1.00  0.00     0.000 A 
ENDBRANCH  27  28
ENDBRANCH  26  27
ENDBRANCH  25  26
ENDBRANCH  23  25
ENDBRANCH  18  23
ENDBRANCH   7   9
ENDBRANCH   6   7
ENDBRANCH   5   6
ENDBRANCH   4   5
ENDBRANCH   3   4
ENDBRANCH   2   3
ENDBRANCH   1   2
BRANCH   1  34
ATOM     34  O   UNL A   1      35.773  32.978  29.358  1.00  0.00    -0.377 OA
BRANCH  34  35
ATOM     35  C   UNL A   1      35.769  33.424  30.702  1.00  0.00     0.188 C 
BRANCH  35  36
ATOM     36  C   UNL A   1      34.748  32.789  31.663  1.00  0.00     0.188 C 
BRANCH  36  37
ATOM     37  O   UNL A   1      35.220  32.622  32.995  1.00  0.00    -0.376 OA
BRANCH  37  38
ATOM     38  C   UNL A   1      36.517  33.087  33.335  1.00  0.00     0.202 C 
BRANCH  38  39
ATOM     39  C   UNL A   1      37.658  32.058  33.401  1.00  0.00     0.261 C 
BRANCH  39  40
ATOM     40  O   UNL A   1      37.275  30.681  33.515  1.00  0.00    -0.460 OA
BRANCH  40  41
ATOM     41  C   UNL A   1      37.296  29.926  32.396  1.00  0.00     0.338 C 
ATOM     42  O   UNL A   1      36.392  29.785  31.590  1.00  0.00    -0.246 OA
BRANCH  41  43
ATOM     43  C   UNL A   1      38.683  29.454  32.202  1.00  0.00     0.060 A 
ATOM     44  C   UNL A   1      39.037  28.183  32.675  1.00  0.00     0.016 A 
ATOM     45  C   UNL A   1      39.618  30.248  31.532  1.00  0.00     0.016 A 
ATOM     46  C   UNL A   1      40.341  27.715  32.509  1.00  0.00     0.010 A 
ATOM     47  C   UNL A   1      40.931  29.788  31.391  1.00  0.00     0.010 A 
ATOM     48  C   UNL A   1      41.304  28.535  31.909  1.00  0.00    -0.014 A 
BRANCH  48  49
ATOM     49  C   UNL A   1      42.739  28.178  32.021  1.00  0.00     0.031 A 
ATOM     50  C   UNL A   1      43.393  27.515  30.837  1.00  0.00     0.074 A 
ATOM     51  C   UNL A   1      43.448  28.439  33.133  1.00  0.00     0.049 A 
ATOM     52  N   UNL A   1      44.612  27.062  30.710  1.00  0.00    -0.248 NA
ATOM     53  C   UNL A   1      42.557  27.339  29.637  1.00  0.00     0.031 C 
ATOM     54  C   UNL A   1      42.933  29.092  34.334  1.00  0.00     0.029 A 
ATOM     55  N   UNL A   1      44.757  28.158  33.436  1.00  0.00    -0.354 N 
ATOM     56  C   UNL A   1      44.683  26.530  29.428  1.00  0.00     0.074 A 
ATOM     57  C   UNL A   1      43.383  26.700  28.821  1.00  0.00     0.031 C 
ATOM     58  C   UNL A   1      43.907  29.127  35.262  1.00  0.00     0.029 A 
ATOM     59  C   UNL A   1      45.103  28.477  34.729  1.00  0.00     0.049 A 
ATOM     60  H   UNL A   1      45.389  27.765  32.791  1.00  0.00     0.167 HD
ATOM     61  C   UNL A   1      45.741  25.963  28.804  1.00  0.00     0.034 A 
ATOM     62  C   UNL A   1      46.243  28.239  35.409  1.00  0.00     0.034 A 
ATOM     63  C   UNL A   1      47.035  25.799  29.406  1.00  0.00     0.049 A 
ATOM     64  C   UNL A   1      47.391  27.557  34.705  1.00  0.00     0.074 A 
ATOM     65  C   UNL A   1      48.179  25.255  28.849  1.00  0.00     0.029 A 
ATOM     66  N   UNL A   1      47.356  26.165  30.703  1.00  0.00    -0.354 N 
ATOM     67  N   UNL A   1      47.475  27.147  33.463  1.00  0.00    -0.248 NA
ATOM     68  C   UNL A   1      48.615  27.331  35.491  1.00  0.00     0.031 C 
ATOM     69  C   UNL A   1      49.183  25.265  29.820  1.00  0.00     0.029 A 
ATOM     70  C   UNL A   1      48.677  25.853  30.967  1.00  0.00     0.049 A 
ATOM     71  H   UNL A   1      46.736  26.585  31.341  1.00  0.00     0.167 HD
ATOM     72  C   UNL A   1      48.769  26.661  33.306  1.00  0.00     0.074 A 
ATOM     73  C   UNL A   1      49.440  26.843  34.576  1.00  0.00     0.031 C 
ATOM     74  C   UNL A   1      49.349  26.100  32.216  1.00  0.00     0.034 A 
BRANCH  61  75
ATOM     75  C   UNL A   1      45.551  25.496  27.387  1.00  0.00     0.023 A 
ATOM     76  C   UNL A   1      45.813  26.379  26.321  1.00  0.00     0.012 A 
ATOM     77  C   UNL A   1      45.184  24.165  27.111  1.00  0.00     0.148 A 
ATOM     78  C   UNL A   1      45.688  25.951  25.000  1.00  0.00     0.002 A 
ATOM     79  C   UNL A   1      45.107  23.733  25.792  1.00  0.00     0.091 A 
ATOM     80  F   UNL A   1      44.919  23.349  28.140  1.00  0.00    -0.205 F 
ATOM     81  C   UNL A   1      45.349  24.627  24.735  1.00  0.00     0.022 A 
BRANCH  79  82
ATOM     82  S   UNL A   1      44.754  22.030  25.347  1.00  0.00     0.127 S 
ATOM     83  O   UNL A   1      44.396  22.163  23.935  1.00  0.00    -0.237 OA
ATOM     84  O   UNL A   1      46.040  21.377  25.592  1.00  0.00    -0.237 OA
ATOM     85  O   UNL A   1      43.672  21.600  26.221  1.00  0.00    -0.744 OA
ENDBRANCH  79  82
ENDBRANCH  61  75
BRANCH  62  86
ATOM     86  C   UNL A   1      46.370  28.634  36.841  1.00  0.00     0.023 A 
ATOM     87  C   UNL A   1      45.956  27.751  37.858  1.00  0.00     0.012 A 
ATOM     88  C   UNL A   1      46.865  29.903  37.197  1.00  0.00     0.148 A 
ATOM     89  C   UNL A   1      45.992  28.141  39.198  1.00  0.00     0.002 A 
ATOM     90  C   UNL A   1      46.952  30.263  38.537  1.00  0.00     0.091 A 
ATOM     91  F   UNL A   1      47.235  30.737  36.215  1.00  0.00    -0.205 F 
ATOM     92  C   UNL A   1      46.496  29.393  39.539  1.00  0.00     0.022 A 
BRANCH  90  93
ATOM     93  S   UNL A   1      47.703  31.803  39.065  1.00  0.00     0.127 S 
ATOM     94  O   UNL A   1      47.617  31.701  40.518  1.00  0.00    -0.237 OA
ATOM     95  O   UNL A   1      49.056  31.680  38.520  1.00  0.00    -0.237 OA
ATOM     96  O   UNL A   1      46.896  32.850  38.455  1.00  0.00    -0.744 OA
ENDBRANCH  90  93
ENDBRANCH  62  86
BRANCH  74  97
ATOM     97  C   UNL A   1      50.798  25.700  32.316  1.00  0.00     0.023 A 
ATOM     98  C   UNL A   1      51.811  26.675  32.216  1.00  0.00     0.012 A 
ATOM     99  C   UNL A   1      51.151  24.363  32.587  1.00  0.00     0.148 A 
ATOM    100  C   UNL A   1      53.153  26.318  32.348  1.00  0.00     0.002 A 
ATOM    101  C   UNL A   1      52.485  24.025  32.771  1.00  0.00     0.091 A 
ATOM    102  F   UNL A   1      50.174  23.448  32.665  1.00  0.00    -0.205 F 
ATOM    103  C   UNL A   1      53.488  24.997  32.636  1.00  0.00     0.022 A 
BRANCH 101 104
ATOM    104  S   UNL A   1      53.005  22.371  33.245  1.00  0.00     0.127 S 
ATOM    105  O   UNL A   1      52.106  21.537  32.448  1.00  0.00    -0.237 OA
ATOM    106  O   UNL A   1      54.402  22.351  32.811  1.00  0.00    -0.237 OA
ATOM    107  O   UNL A   1      52.816  22.288  34.687  1.00  0.00    -0.744 OA
ENDBRANCH 101 104
ENDBRANCH  74  97
ENDBRANCH  48  49
ENDBRANCH  41  43
ENDBRANCH  40  41
ENDBRANCH  39  40
ENDBRANCH  38  39
ENDBRANCH  37  38
ENDBRANCH  36  37
ENDBRANCH  35  36
ENDBRANCH  34  35
ENDBRANCH   1  34
TORSDOF 29
ENDMDL
