MODEL 1
REMARK VINA RESULT:     -11.0      0.000      0.000
REMARK SMILES Cc1cccc(CC(=O)N2CCC3(CCC(=O)N([C@H](C)C(=O)OCCOCCOCCOCCOC(=O)c4ccc(-c5c6nc(c(-c7cccc(S(=O)(=O)[O-])c7F)c7ccc([nH]7)c(-c7cccc(S(=O)(=O)[O-])c7F)c7nc(c(-c8cccc(S(=O)(=O)[O-])c8F)c8ccc5[nH]8)C=C7)C=C6)cc4)C3)CC2)c1
REMARK SMILES IDX 29 1 28 2 27 3 26 4 25 5 24 6 23 7 21 8 22 9 19 10 20 11
REMARK SMILES IDX 18 12 8 13 9 14 10 15 11 16 103 17 12 18 102 19 13 20 14 21
REMARK SMILES IDX 101 22 15 23 16 24 17 25 7 26 6 27 1 28 2 29 3 30 104 31
REMARK SMILES IDX 4 32 5 33 30 34 31 35 32 36 33 37 34 38 35 39 36 40 37 41
REMARK SMILES IDX 38 42 39 43 100 44 40 45 99 46 41 47 42 48 43 49 93 50 44 51
REMARK SMILES IDX 98 52 92 53 94 54 45 55 97 56 91 57 90 58 46 60 78 61 58 62
REMARK SMILES IDX 77 63 59 64 62 65 76 66 95 67 60 68 61 69 75 71 96 72 63 73
REMARK SMILES IDX 47 74 48 75 56 76 49 77 51 78 57 79 50 80 52 81 53 82 54 83
REMARK SMILES IDX 55 84 79 85 80 86 88 87 81 88 83 89 89 90 82 91 84 92 85 93
REMARK SMILES IDX 86 94 87 95 64 96 65 97 73 98 66 99 68 100 74 101 67 102
REMARK SMILES IDX 69 103 70 104 71 105 72 106
REMARK H PARENT 94 59 62 70
REMARK Flexibility Score: inf
ROOT
ATOM      1  O   UNL A   1      30.664  26.939  25.540  1.00  0.00    -0.377 OA
ENDROOT
BRANCH   1   2
ATOM      2  C   UNL A   1      30.157  25.615  25.649  1.00  0.00     0.188 C 
BRANCH   2   3
ATOM      3  C   UNL A   1      29.117  25.242  26.727  1.00  0.00     0.188 C 
BRANCH   3   4
ATOM      4  O   UNL A   1      29.152  23.995  27.393  1.00  0.00    -0.376 OA
BRANCH   4   5
ATOM      5  C   UNL A   1      29.976  22.983  26.821  1.00  0.00     0.202 C 
BRANCH   5   6
ATOM      6  C   UNL A   1      31.143  22.428  27.631  1.00  0.00     0.261 C 
BRANCH   6   7
ATOM      7  O   UNL A   1      32.203  23.380  27.652  1.00  0.00    -0.462 OA
BRANCH   7   8
ATOM      8  C   UNL A   1      33.439  22.929  27.372  1.00  0.00     0.328 C 
ATOM      9  O   UNL A   1      34.019  22.005  27.914  1.00  0.00    -0.250 OA
BRANCH   8  10
ATOM     10  C   UNL A   1      33.962  23.639  26.133  1.00  0.00     0.192 C 
ATOM     11  C   UNL A   1      35.448  23.940  26.205  1.00  0.00     0.044 C 
BRANCH  10  12
ATOM     12  N   UNL A   1      33.514  22.945  24.933  1.00  0.00    -0.329 N 
ATOM     13  C   UNL A   1      31.798  28.265  22.351  1.00  0.00     0.226 C 
ATOM     14  O   UNL A   1      32.446  29.304  22.536  1.00  0.00    -0.275 OA
ATOM     15  N   UNL A   1      32.452  27.076  22.077  1.00  0.00    -0.342 N 
ATOM     16  C   UNL A   1      33.716  26.829  22.749  1.00  0.00     0.120 C 
ATOM     17  C   UNL A   1      31.916  25.904  21.394  1.00  0.00     0.120 C 
ATOM     18  C   UNL A   1      33.485  25.730  23.786  1.00  0.00     0.030 C 
ATOM     19  C   UNL A   1      31.575  24.834  22.405  1.00  0.00     0.030 C 
ATOM     20  C   UNL A   1      32.831  24.442  23.184  1.00  0.00    -0.008 C 
ATOM     21  C   UNL A   1      33.840  23.696  22.249  1.00  0.00     0.019 C 
ATOM     22  C   UNL A   1      32.355  23.473  24.288  1.00  0.00     0.127 C 
ATOM     23  C   UNL A   1      34.970  23.030  23.026  1.00  0.00     0.101 C 
ATOM     24  C   UNL A   1      34.299  22.189  24.078  1.00  0.00     0.223 C 
ATOM     25  O   UNL A   1      34.124  20.997  23.866  1.00  0.00    -0.275 OA
BRANCH  13  26
ATOM     26  C   UNL A   1      30.310  28.266  22.701  1.00  0.00     0.135 C 
BRANCH  26  27
ATOM     27  C   UNL A   1      29.594  29.586  22.791  1.00  0.00    -0.038 A 
ATOM     28  C   UNL A   1      28.024  32.072  20.362  1.00  0.00     0.044 C 
ATOM     29  C   UNL A   1      28.548  31.455  21.626  1.00  0.00    -0.051 A 
ATOM     30  C   UNL A   1      28.652  32.217  22.794  1.00  0.00     0.003 A 
ATOM     31  C   UNL A   1      28.993  30.129  21.642  1.00  0.00     0.007 A 
ATOM     32  C   UNL A   1      29.165  31.655  23.966  1.00  0.00     0.001 A 
ATOM     33  C   UNL A   1      29.614  30.334  23.974  1.00  0.00     0.004 A 
ENDBRANCH  26  27
ENDBRANCH  13  26
ENDBRANCH  10  12
ENDBRANCH   8  10
ENDBRANCH   7   8
ENDBRANCH   6   7
ENDBRANCH   5   6
ENDBRANCH   4   5
ENDBRANCH   3   4
ENDBRANCH   2   3
ENDBRANCH   1   2
BRANCH   1  34
ATOM     34  C   UNL A   1      31.678  27.359  26.458  1.00  0.00     0.188 C 
BRANCH  34  35
ATOM     35  C   UNL A   1      32.337  28.695  26.140  1.00  0.00     0.188 C 
BRANCH  35  36
ATOM     36  O   UNL A   1      31.880  29.641  27.103  1.00  0.00    -0.376 OA
BRANCH  36  37
ATOM     37  C   UNL A   1      32.061  31.023  26.828  1.00  0.00     0.202 C 
BRANCH  37  38
ATOM     38  C   UNL A   1      33.199  31.672  27.612  1.00  0.00     0.261 C 
BRANCH  38  39
ATOM     39  O   UNL A   1      34.460  31.251  27.060  1.00  0.00    -0.460 OA
BRANCH  39  40
ATOM     40  C   UNL A   1      35.537  31.533  27.842  1.00  0.00     0.338 C 
ATOM     41  O   UNL A   1      35.902  32.673  28.110  1.00  0.00    -0.246 OA
BRANCH  40  42
ATOM     42  C   UNL A   1      36.334  30.297  28.105  1.00  0.00     0.060 A 
ATOM     43  C   UNL A   1      36.262  29.662  29.351  1.00  0.00     0.016 A 
ATOM     44  C   UNL A   1      37.390  29.990  27.259  1.00  0.00     0.016 A 
ATOM     45  C   UNL A   1      37.350  28.908  29.829  1.00  0.00     0.010 A 
ATOM     46  C   UNL A   1      38.496  29.352  27.791  1.00  0.00     0.010 A 
ATOM     47  C   UNL A   1      38.529  28.849  29.104  1.00  0.00    -0.014 A 
BRANCH  47  48
ATOM     48  C   UNL A   1      39.854  28.388  29.599  1.00  0.00     0.031 A 
ATOM     49  C   UNL A   1      40.276  26.974  29.246  1.00  0.00     0.074 A 
ATOM     50  C   UNL A   1      40.805  29.309  29.925  1.00  0.00     0.049 A 
ATOM     51  N   UNL A   1      41.474  26.492  29.281  1.00  0.00    -0.248 NA
ATOM     52  C   UNL A   1      39.319  25.975  28.769  1.00  0.00     0.031 C 
ATOM     53  C   UNL A   1      42.216  29.158  29.567  1.00  0.00     0.029 A 
ATOM     54  N   UNL A   1      40.791  30.599  30.483  1.00  0.00    -0.354 N 
ATOM     55  C   UNL A   1      41.503  25.282  28.601  1.00  0.00     0.074 A 
ATOM     56  C   UNL A   1      40.118  24.983  28.358  1.00  0.00     0.031 C 
ATOM     57  C   UNL A   1      42.902  30.245  29.913  1.00  0.00     0.029 A 
ATOM     58  C   UNL A   1      42.102  30.925  30.876  1.00  0.00     0.049 A 
ATOM     59  H   UNL A   1      40.000  31.176  30.582  1.00  0.00     0.167 HD
ATOM     60  C   UNL A   1      42.706  24.737  28.235  1.00  0.00     0.034 A 
ATOM     61  C   UNL A   1      42.601  31.114  32.137  1.00  0.00     0.034 A 
ATOM     62  C   UNL A   1      43.836  25.482  28.839  1.00  0.00     0.049 A 
ATOM     63  C   UNL A   1      43.625  30.035  32.549  1.00  0.00     0.074 A 
ATOM     64  C   UNL A   1      44.964  26.112  28.340  1.00  0.00     0.029 A 
ATOM     65  N   UNL A   1      43.817  25.766  30.207  1.00  0.00    -0.354 N 
ATOM     66  N   UNL A   1      43.754  28.890  31.916  1.00  0.00    -0.248 NA
ATOM     67  C   UNL A   1      44.611  30.146  33.627  1.00  0.00     0.031 C 
ATOM     68  C   UNL A   1      45.564  26.846  29.397  1.00  0.00     0.029 A 
ATOM     69  C   UNL A   1      44.839  26.622  30.556  1.00  0.00     0.049 A 
ATOM     70  H   UNL A   1      43.157  25.402  30.841  1.00  0.00     0.167 HD
ATOM     71  C   UNL A   1      44.779  28.147  32.433  1.00  0.00     0.074 A 
ATOM     72  C   UNL A   1      45.278  28.978  33.517  1.00  0.00     0.031 C 
ATOM     73  C   UNL A   1      45.131  26.909  31.954  1.00  0.00     0.034 A 
BRANCH  60  74
ATOM     74  C   UNL A   1      42.963  23.616  27.197  1.00  0.00     0.023 A 
ATOM     75  C   UNL A   1      43.770  23.953  26.079  1.00  0.00     0.012 A 
ATOM     76  C   UNL A   1      42.438  22.297  27.169  1.00  0.00     0.148 A 
ATOM     77  C   UNL A   1      43.987  23.098  24.988  1.00  0.00     0.002 A 
ATOM     78  C   UNL A   1      42.712  21.411  26.108  1.00  0.00     0.091 A 
ATOM     79  F   UNL A   1      41.628  21.878  28.142  1.00  0.00    -0.205 F 
ATOM     80  C   UNL A   1      43.461  21.821  25.003  1.00  0.00     0.022 A 
BRANCH  78  81
ATOM     81  S   UNL A   1      42.152  19.693  26.071  1.00  0.00     0.127 S 
ATOM     82  O   UNL A   1      40.704  19.839  25.916  1.00  0.00    -0.237 OA
ATOM     83  O   UNL A   1      42.835  19.166  24.889  1.00  0.00    -0.237 OA
ATOM     84  O   UNL A   1      42.570  19.095  27.333  1.00  0.00    -0.744 OA
ENDBRANCH  78  81
ENDBRANCH  60  74
BRANCH  61  85
ATOM     85  C   UNL A   1      41.801  32.078  32.947  1.00  0.00     0.023 A 
ATOM     86  C   UNL A   1      41.502  33.265  32.228  1.00  0.00     0.012 A 
ATOM     87  C   UNL A   1      40.808  31.523  33.764  1.00  0.00     0.148 A 
ATOM     88  C   UNL A   1      40.172  33.633  32.013  1.00  0.00     0.002 A 
ATOM     89  C   UNL A   1      39.481  31.884  33.538  1.00  0.00     0.091 A 
ATOM     90  F   UNL A   1      41.147  30.531  34.598  1.00  0.00    -0.205 F 
ATOM     91  C   UNL A   1      39.157  32.892  32.611  1.00  0.00     0.022 A 
BRANCH  89  92
ATOM     92  S   UNL A   1      38.160  30.834  34.155  1.00  0.00     0.127 S 
ATOM     93  O   UNL A   1      38.511  29.534  33.600  1.00  0.00    -0.237 OA
ATOM     94  O   UNL A   1      38.315  30.953  35.605  1.00  0.00    -0.237 OA
ATOM     95  O   UNL A   1      36.948  31.457  33.642  1.00  0.00    -0.744 OA
ENDBRANCH  89  92
ENDBRANCH  61  85
BRANCH  73  96
ATOM     96  C   UNL A   1      45.809  25.802  32.760  1.00  0.00     0.023 A 
ATOM     97  C   UNL A   1      47.175  25.865  33.085  1.00  0.00     0.012 A 
ATOM     98  C   UNL A   1      45.047  24.788  33.418  1.00  0.00     0.148 A 
ATOM     99  C   UNL A   1      47.764  24.969  33.983  1.00  0.00     0.002 A 
ATOM    100  C   UNL A   1      45.616  23.970  34.389  1.00  0.00     0.091 A 
ATOM    101  F   UNL A   1      43.758  24.597  33.107  1.00  0.00    -0.205 F 
ATOM    102  C   UNL A   1      46.983  24.040  34.655  1.00  0.00     0.022 A 
BRANCH 100 103
ATOM    103  S   UNL A   1      44.624  22.901  35.449  1.00  0.00     0.127 S 
ATOM    104  O   UNL A   1      44.950  21.576  34.924  1.00  0.00    -0.237 OA
ATOM    105  O   UNL A   1      45.183  23.184  36.772  1.00  0.00    -0.237 OA
ATOM    106  O   UNL A   1      43.243  23.326  35.275  1.00  0.00    -0.744 OA
ENDBRANCH 100 103
ENDBRANCH  73  96
ENDBRANCH  47  48
ENDBRANCH  40  42
ENDBRANCH  39  40
ENDBRANCH  38  39
ENDBRANCH  37  38
ENDBRANCH  36  37
ENDBRANCH  35  36
ENDBRANCH  34  35
ENDBRANCH   1  34
TORSDOF 26
ENDMDL
MODEL 2
REMARK VINA RESULT:      -9.7      4.633      8.250
REMARK SMILES Cc1cccc(CC(=O)N2CCC3(CCC(=O)N([C@H](C)C(=O)OCCOCCOCCOCCOC(=O)c4ccc(-c5c6nc(c(-c7cccc(S(=O)(=O)[O-])c7F)c7ccc([nH]7)c(-c7cccc(S(=O)(=O)[O-])c7F)c7nc(c(-c8cccc(S(=O)(=O)[O-])c8F)c8ccc5[nH]8)C=C7)C=C6)cc4)C3)CC2)c1
REMARK SMILES IDX 29 1 28 2 27 3 26 4 25 5 24 6 23 7 21 8 22 9 19 10 20 11
REMARK SMILES IDX 18 12 8 13 9 14 10 15 11 16 103 17 12 18 102 19 13 20 14 21
REMARK SMILES IDX 101 22 15 23 16 24 17 25 7 26 6 27 1 28 2 29 3 30 104 31
REMARK SMILES IDX 4 32 5 33 30 34 31 35 32 36 33 37 34 38 35 39 36 40 37 41
REMARK SMILES IDX 38 42 39 43 100 44 40 45 99 46 41 47 42 48 43 49 93 50 44 51
REMARK SMILES IDX 98 52 92 53 94 54 45 55 97 56 91 57 90 58 46 60 78 61 58 62
REMARK SMILES IDX 77 63 59 64 62 65 76 66 95 67 60 68 61 69 75 71 96 72 63 73
REMARK SMILES IDX 47 74 48 75 56 76 49 77 51 78 57 79 50 80 52 81 53 82 54 83
REMARK SMILES IDX 55 84 79 85 80 86 88 87 81 88 83 89 89 90 82 91 84 92 85 93
REMARK SMILES IDX 86 94 87 95 64 96 65 97 73 98 66 99 68 100 74 101 67 102
REMARK SMILES IDX 69 103 70 104 71 105 72 106
REMARK H PARENT 94 59 62 70
REMARK Flexibility Score: inf
ROOT
ATOM      1  O   UNL A   1      36.437  31.173  31.104  1.00  0.00    -0.377 OA
ENDROOT
BRANCH   1   2
ATOM      2  C   UNL A   1      36.220  32.498  30.636  1.00  0.00     0.188 C 
BRANCH   2   3
ATOM      3  C   UNL A   1      35.028  32.837  29.716  1.00  0.00     0.188 C 
BRANCH   3   4
ATOM      4  O   UNL A   1      34.965  32.373  28.382  1.00  0.00    -0.376 OA
BRANCH   4   5
ATOM      5  C   UNL A   1      34.265  31.152  28.157  1.00  0.00     0.202 C 
BRANCH   5   6
ATOM      6  C   UNL A   1      34.985  30.000  27.465  1.00  0.00     0.261 C 
BRANCH   6   7
ATOM      7  O   UNL A   1      34.077  28.920  27.268  1.00  0.00    -0.462 OA
BRANCH   7   8
ATOM      8  C   UNL A   1      33.338  28.937  26.145  1.00  0.00     0.328 C 
ATOM      9  O   UNL A   1      33.474  29.684  25.192  1.00  0.00    -0.250 OA
BRANCH   8  10
ATOM     10  C   UNL A   1      32.388  27.749  26.152  1.00  0.00     0.192 C 
ATOM     11  C   UNL A   1      31.359  27.819  27.265  1.00  0.00     0.044 C 
BRANCH  10  12
ATOM     12  N   UNL A   1      31.859  27.525  24.814  1.00  0.00    -0.329 N 
ATOM     13  C   UNL A   1      33.846  21.698  24.874  1.00  0.00     0.226 C 
ATOM     14  O   UNL A   1      33.829  21.026  25.914  1.00  0.00    -0.275 OA
ATOM     15  N   UNL A   1      32.756  22.479  24.530  1.00  0.00    -0.342 N 
ATOM     16  C   UNL A   1      32.032  23.138  25.603  1.00  0.00     0.120 C 
ATOM     17  C   UNL A   1      32.382  22.947  23.201  1.00  0.00     0.120 C 
ATOM     18  C   UNL A   1      32.333  24.634  25.517  1.00  0.00     0.030 C 
ATOM     19  C   UNL A   1      32.765  24.400  23.043  1.00  0.00     0.030 C 
ATOM     20  C   UNL A   1      32.048  25.239  24.102  1.00  0.00    -0.008 C 
ATOM     21  C   UNL A   1      30.510  25.275  23.816  1.00  0.00     0.019 C 
ATOM     22  C   UNL A   1      32.620  26.666  23.964  1.00  0.00     0.127 C 
ATOM     23  C   UNL A   1      29.787  26.322  24.657  1.00  0.00     0.101 C 
ATOM     24  C   UNL A   1      30.531  27.610  24.428  1.00  0.00     0.223 C 
ATOM     25  O   UNL A   1      30.112  28.401  23.595  1.00  0.00    -0.275 OA
BRANCH  13  26
ATOM     26  C   UNL A   1      35.176  21.859  24.137  1.00  0.00     0.135 C 
BRANCH  26  27
ATOM     27  C   UNL A   1      36.448  21.852  24.941  1.00  0.00    -0.038 A 
ATOM     28  C   UNL A   1      38.664  24.430  26.669  1.00  0.00     0.044 C 
ATOM     29  C   UNL A   1      38.165  23.131  26.107  1.00  0.00    -0.051 A 
ATOM     30  C   UNL A   1      39.005  22.014  26.056  1.00  0.00     0.003 A 
ATOM     31  C   UNL A   1      36.876  23.032  25.574  1.00  0.00     0.007 A 
ATOM     32  C   UNL A   1      38.555  20.810  25.509  1.00  0.00     0.001 A 
ATOM     33  C   UNL A   1      37.270  20.720  24.972  1.00  0.00     0.004 A 
ENDBRANCH  26  27
ENDBRANCH  13  26
ENDBRANCH  10  12
ENDBRANCH   8  10
ENDBRANCH   7   8
ENDBRANCH   6   7
ENDBRANCH   5   6
ENDBRANCH   4   5
ENDBRANCH   3   4
ENDBRANCH   2   3
ENDBRANCH   1   2
BRANCH   1  34
ATOM     34  C   UNL A   1      37.321  30.976  32.211  1.00  0.00     0.188 C 
BRANCH  34  35
ATOM     35  C   UNL A   1      38.129  29.684  32.184  1.00  0.00     0.188 C 
BRANCH  35  36
ATOM     36  O   UNL A   1      37.846  29.025  30.952  1.00  0.00    -0.376 OA
BRANCH  36  37
ATOM     37  C   UNL A   1      38.801  29.119  29.905  1.00  0.00     0.202 C 
BRANCH  37  38
ATOM     38  C   UNL A   1      40.032  28.237  30.099  1.00  0.00     0.261 C 
BRANCH  38  39
ATOM     39  O   UNL A   1      39.920  27.071  29.261  1.00  0.00    -0.460 OA
BRANCH  39  40
ATOM     40  C   UNL A   1      40.400  27.239  28.000  1.00  0.00     0.338 C 
ATOM     41  O   UNL A   1      39.740  27.706  27.077  1.00  0.00    -0.246 OA
BRANCH  40  42
ATOM     42  C   UNL A   1      41.719  26.555  27.843  1.00  0.00     0.060 A 
ATOM     43  C   UNL A   1      41.916  25.272  28.368  1.00  0.00     0.016 A 
ATOM     44  C   UNL A   1      42.829  27.313  27.500  1.00  0.00     0.016 A 
ATOM     45  C   UNL A   1      43.203  24.850  28.752  1.00  0.00     0.010 A 
ATOM     46  C   UNL A   1      44.064  26.935  27.995  1.00  0.00     0.010 A 
ATOM     47  C   UNL A   1      44.273  25.727  28.684  1.00  0.00    -0.014 A 
BRANCH  47  48
ATOM     48  C   UNL A   1      45.598  25.565  29.340  1.00  0.00     0.031 A 
ATOM     49  C   UNL A   1      46.768  25.170  28.459  1.00  0.00     0.074 A 
ATOM     50  C   UNL A   1      45.836  26.184  30.532  1.00  0.00     0.049 A 
ATOM     51  N   UNL A   1      48.024  25.291  28.738  1.00  0.00    -0.248 NA
ATOM     52  C   UNL A   1      46.577  24.616  27.117  1.00  0.00     0.031 C 
ATOM     53  C   UNL A   1      47.097  26.861  30.839  1.00  0.00     0.029 A 
ATOM     54  N   UNL A   1      45.062  26.500  31.661  1.00  0.00    -0.354 N 
ATOM     55  C   UNL A   1      48.771  25.116  27.581  1.00  0.00     0.074 A 
ATOM     56  C   UNL A   1      47.818  24.637  26.617  1.00  0.00     0.031 C 
ATOM     57  C   UNL A   1      47.022  27.466  32.023  1.00  0.00     0.029 A 
ATOM     58  C   UNL A   1      45.932  26.857  32.707  1.00  0.00     0.049 A 
ATOM     59  H   UNL A   1      44.079  26.477  31.712  1.00  0.00     0.167 HD
ATOM     60  C   UNL A   1      50.085  25.502  27.556  1.00  0.00     0.034 A 
ATOM     61  C   UNL A   1      46.172  26.206  33.888  1.00  0.00     0.034 A 
ATOM     62  C   UNL A   1      50.557  25.877  28.910  1.00  0.00     0.049 A 
ATOM     63  C   UNL A   1      47.607  25.646  33.988  1.00  0.00     0.074 A 
ATOM     64  C   UNL A   1      51.147  27.005  29.457  1.00  0.00     0.029 A 
ATOM     65  N   UNL A   1      50.313  25.018  29.984  1.00  0.00    -0.354 N 
ATOM     66  N   UNL A   1      48.396  25.509  32.945  1.00  0.00    -0.248 NA
ATOM     67  C   UNL A   1      48.299  25.258  35.218  1.00  0.00     0.031 C 
ATOM     68  C   UNL A   1      51.169  26.851  30.869  1.00  0.00     0.029 A 
ATOM     69  C   UNL A   1      50.646  25.607  31.185  1.00  0.00     0.049 A 
ATOM     70  H   UNL A   1      49.950  24.107  29.895  1.00  0.00     0.167 HD
ATOM     71  C   UNL A   1      49.636  25.063  33.315  1.00  0.00     0.074 A 
ATOM     72  C   UNL A   1      49.518  24.909  34.755  1.00  0.00     0.031 C 
ATOM     73  C   UNL A   1      50.654  24.837  32.421  1.00  0.00     0.034 A 
BRANCH  60  74
ATOM     74  C   UNL A   1      50.986  25.724  26.316  1.00  0.00     0.023 A 
ATOM     75  C   UNL A   1      52.259  25.095  26.330  1.00  0.00     0.012 A 
ATOM     76  C   UNL A   1      50.745  26.541  25.180  1.00  0.00     0.148 A 
ATOM     77  C   UNL A   1      53.243  25.303  25.352  1.00  0.00     0.002 A 
ATOM     78  C   UNL A   1      51.705  26.696  24.159  1.00  0.00     0.091 A 
ATOM     79  F   UNL A   1      49.603  27.220  25.073  1.00  0.00    -0.205 F 
ATOM     80  C   UNL A   1      52.964  26.102  24.260  1.00  0.00     0.022 A 
BRANCH  78  81
ATOM     81  S   UNL A   1      51.411  27.642  22.647  1.00  0.00     0.127 S 
ATOM     82  O   UNL A   1      52.663  27.452  21.911  1.00  0.00    -0.237 OA
ATOM     83  O   UNL A   1      50.259  26.952  22.066  1.00  0.00    -0.237 OA
ATOM     84  O   UNL A   1      51.154  29.015  23.062  1.00  0.00    -0.744 OA
ENDBRANCH  78  81
ENDBRANCH  60  74
BRANCH  61  85
ATOM     85  C   UNL A   1      44.926  25.872  34.638  1.00  0.00     0.023 A 
ATOM     86  C   UNL A   1      44.424  24.588  34.299  1.00  0.00     0.012 A 
ATOM     87  C   UNL A   1      44.886  26.274  35.979  1.00  0.00     0.148 A 
ATOM     88  C   UNL A   1      44.281  23.613  35.289  1.00  0.00     0.002 A 
ATOM     89  C   UNL A   1      44.755  25.296  36.963  1.00  0.00     0.091 A 
ATOM     90  F   UNL A   1      45.163  27.552  36.272  1.00  0.00    -0.205 F 
ATOM     91  C   UNL A   1      44.522  23.953  36.617  1.00  0.00     0.022 A 
BRANCH  89  92
ATOM     92  S   UNL A   1      45.234  25.672  38.654  1.00  0.00     0.127 S 
ATOM     93  O   UNL A   1      46.593  26.170  38.489  1.00  0.00    -0.237 OA
ATOM     94  O   UNL A   1      44.247  26.679  39.044  1.00  0.00    -0.237 OA
ATOM     95  O   UNL A   1      45.083  24.403  39.352  1.00  0.00    -0.744 OA
ENDBRANCH  89  92
ENDBRANCH  61  85
BRANCH  73  96
ATOM     96  C   UNL A   1      51.802  23.847  32.611  1.00  0.00     0.023 A 
ATOM     97  C   UNL A   1      53.141  24.238  32.437  1.00  0.00     0.012 A 
ATOM     98  C   UNL A   1      51.588  22.564  33.201  1.00  0.00     0.148 A 
ATOM     99  C   UNL A   1      54.207  23.407  32.797  1.00  0.00     0.002 A 
ATOM    100  C   UNL A   1      52.651  21.789  33.655  1.00  0.00     0.091 A 
ATOM    101  F   UNL A   1      50.349  22.072  33.327  1.00  0.00    -0.205 F 
ATOM    102  C   UNL A   1      53.965  22.196  33.431  1.00  0.00     0.022 A 
BRANCH 100 103
ATOM    103  S   UNL A   1      52.406  20.321  34.673  1.00  0.00     0.127 S 
ATOM    104  O   UNL A   1      51.874  20.900  35.906  1.00  0.00    -0.237 OA
ATOM    105  O   UNL A   1      51.430  19.566  33.885  1.00  0.00    -0.237 OA
ATOM    106  O   UNL A   1      53.710  19.684  34.787  1.00  0.00    -0.744 OA
ENDBRANCH 100 103
ENDBRANCH  73  96
ENDBRANCH  47  48
ENDBRANCH  40  42
ENDBRANCH  39  40
ENDBRANCH  38  39
ENDBRANCH  37  38
ENDBRANCH  36  37
ENDBRANCH  35  36
ENDBRANCH  34  35
ENDBRANCH   1  34
TORSDOF 26
ENDMDL
MODEL 3
REMARK VINA RESULT:      -9.4      3.934      8.270
REMARK SMILES Cc1cccc(CC(=O)N2CCC3(CCC(=O)N([C@H](C)C(=O)OCCOCCOCCOCCOC(=O)c4ccc(-c5c6nc(c(-c7cccc(S(=O)(=O)[O-])c7F)c7ccc([nH]7)c(-c7cccc(S(=O)(=O)[O-])c7F)c7nc(c(-c8cccc(S(=O)(=O)[O-])c8F)c8ccc5[nH]8)C=C7)C=C6)cc4)C3)CC2)c1
REMARK SMILES IDX 29 1 28 2 27 3 26 4 25 5 24 6 23 7 21 8 22 9 19 10 20 11
REMARK SMILES IDX 18 12 8 13 9 14 10 15 11 16 103 17 12 18 102 19 13 20 14 21
REMARK SMILES IDX 101 22 15 23 16 24 17 25 7 26 6 27 1 28 2 29 3 30 104 31
REMARK SMILES IDX 4 32 5 33 30 34 31 35 32 36 33 37 34 38 35 39 36 40 37 41
REMARK SMILES IDX 38 42 39 43 100 44 40 45 99 46 41 47 42 48 43 49 93 50 44 51
REMARK SMILES IDX 98 52 92 53 94 54 45 55 97 56 91 57 90 58 46 60 78 61 58 62
REMARK SMILES IDX 77 63 59 64 62 65 76 66 95 67 60 68 61 69 75 71 96 72 63 73
REMARK SMILES IDX 47 74 48 75 56 76 49 77 51 78 57 79 50 80 52 81 53 82 54 83
REMARK SMILES IDX 55 84 79 85 80 86 88 87 81 88 83 89 89 90 82 91 84 92 85 93
REMARK SMILES IDX 86 94 87 95 64 96 65 97 73 98 66 99 68 100 74 101 67 102
REMARK SMILES IDX 69 103 70 104 71 105 72 106
REMARK H PARENT 94 59 62 70
REMARK Flexibility Score: inf
ROOT
ATOM      1  O   UNL A   1      30.909  27.217  25.925  1.00  0.00    -0.377 OA
ENDROOT
BRANCH   1   2
ATOM      2  C   UNL A   1      30.737  25.824  26.155  1.00  0.00     0.188 C 
BRANCH   2   3
ATOM      3  C   UNL A   1      29.410  25.262  26.709  1.00  0.00     0.188 C 
BRANCH   3   4
ATOM      4  O   UNL A   1      29.339  23.983  27.309  1.00  0.00    -0.376 OA
BRANCH   4   5
ATOM      5  C   UNL A   1      30.217  22.983  26.800  1.00  0.00     0.202 C 
BRANCH   5   6
ATOM      6  C   UNL A   1      31.318  22.432  27.700  1.00  0.00     0.261 C 
BRANCH   6   7
ATOM      7  O   UNL A   1      32.420  23.335  27.711  1.00  0.00    -0.462 OA
BRANCH   7   8
ATOM      8  C   UNL A   1      33.596  22.874  27.247  1.00  0.00     0.328 C 
ATOM      9  O   UNL A   1      34.217  21.912  27.661  1.00  0.00    -0.250 OA
BRANCH   8  10
ATOM     10  C   UNL A   1      33.971  23.638  25.987  1.00  0.00     0.192 C 
ATOM     11  C   UNL A   1      35.454  23.943  25.897  1.00  0.00     0.044 C 
BRANCH  10  12
ATOM     12  N   UNL A   1      33.386  22.992  24.820  1.00  0.00    -0.329 N 
ATOM     13  C   UNL A   1      31.667  28.439  22.519  1.00  0.00     0.226 C 
ATOM     14  O   UNL A   1      32.372  29.447  22.665  1.00  0.00    -0.275 OA
ATOM     15  N   UNL A   1      32.242  27.232  22.161  1.00  0.00    -0.342 N 
ATOM     16  C   UNL A   1      33.550  26.918  22.708  1.00  0.00     0.120 C 
ATOM     17  C   UNL A   1      31.596  26.099  21.506  1.00  0.00     0.120 C 
ATOM     18  C   UNL A   1      33.370  25.804  23.738  1.00  0.00     0.030 C 
ATOM     19  C   UNL A   1      31.304  25.019  22.522  1.00  0.00     0.030 C 
ATOM     20  C   UNL A   1      32.609  24.558  23.173  1.00  0.00    -0.008 C 
ATOM     21  C   UNL A   1      33.495  23.796  22.133  1.00  0.00     0.019 C 
ATOM     22  C   UNL A   1      32.196  23.583  24.296  1.00  0.00     0.127 C 
ATOM     23  C   UNL A   1      34.663  23.066  22.788  1.00  0.00     0.101 C 
ATOM     24  C   UNL A   1      34.056  22.227  23.880  1.00  0.00     0.223 C 
ATOM     25  O   UNL A   1      33.812  21.048  23.660  1.00  0.00    -0.275 OA
BRANCH  13  26
ATOM     26  C   UNL A   1      30.218  28.491  23.006  1.00  0.00     0.135 C 
BRANCH  26  27
ATOM     27  C   UNL A   1      29.454  29.778  22.852  1.00  0.00    -0.038 A 
ATOM     28  C   UNL A   1      28.010  31.832  19.981  1.00  0.00     0.044 C 
ATOM     29  C   UNL A   1      28.448  31.420  21.356  1.00  0.00    -0.051 A 
ATOM     30  C   UNL A   1      28.431  32.340  22.409  1.00  0.00     0.003 A 
ATOM     31  C   UNL A   1      28.933  30.130  21.594  1.00  0.00     0.007 A 
ATOM     32  C   UNL A   1      28.863  31.970  23.685  1.00  0.00     0.001 A 
ATOM     33  C   UNL A   1      29.352  30.684  23.915  1.00  0.00     0.004 A 
ENDBRANCH  26  27
ENDBRANCH  13  26
ENDBRANCH  10  12
ENDBRANCH   8  10
ENDBRANCH   7   8
ENDBRANCH   6   7
ENDBRANCH   5   6
ENDBRANCH   4   5
ENDBRANCH   3   4
ENDBRANCH   2   3
ENDBRANCH   1   2
BRANCH   1  34
ATOM     34  C   UNL A   1      31.773  27.951  26.797  1.00  0.00     0.188 C 
BRANCH  34  35
ATOM     35  C   UNL A   1      32.234  29.306  26.276  1.00  0.00     0.188 C 
BRANCH  35  36
ATOM     36  O   UNL A   1      31.555  30.310  27.025  1.00  0.00    -0.376 OA
BRANCH  36  37
ATOM     37  C   UNL A   1      31.585  31.645  26.544  1.00  0.00     0.202 C 
BRANCH  37  38
ATOM     38  C   UNL A   1      32.231  32.642  27.503  1.00  0.00     0.261 C 
BRANCH  38  39
ATOM     39  O   UNL A   1      33.629  32.331  27.644  1.00  0.00    -0.460 OA
BRANCH  39  40
ATOM     40  C   UNL A   1      34.143  32.602  28.873  1.00  0.00     0.338 C 
ATOM     41  O   UNL A   1      33.836  33.588  29.536  1.00  0.00    -0.246 OA
BRANCH  40  42
ATOM     42  C   UNL A   1      35.288  31.692  29.177  1.00  0.00     0.060 A 
ATOM     43  C   UNL A   1      35.729  31.527  30.496  1.00  0.00     0.016 A 
ATOM     44  C   UNL A   1      36.121  31.298  28.140  1.00  0.00     0.016 A 
ATOM     45  C   UNL A   1      37.068  31.186  30.761  1.00  0.00     0.010 A 
ATOM     46  C   UNL A   1      37.461  31.085  28.416  1.00  0.00     0.010 A 
ATOM     47  C   UNL A   1      37.980  31.083  29.723  1.00  0.00    -0.014 A 
BRANCH  47  48
ATOM     48  C   UNL A   1      39.462  31.059  29.841  1.00  0.00     0.031 A 
ATOM     49  C   UNL A   1      40.142  32.324  30.334  1.00  0.00     0.074 A 
ATOM     50  C   UNL A   1      40.107  29.864  29.959  1.00  0.00     0.049 A 
ATOM     51  N   UNL A   1      41.337  32.424  30.813  1.00  0.00    -0.248 NA
ATOM     52  C   UNL A   1      39.457  33.617  30.349  1.00  0.00     0.031 C 
ATOM     53  C   UNL A   1      41.218  29.646  30.887  1.00  0.00     0.029 A 
ATOM     54  N   UNL A   1      39.900  28.568  29.456  1.00  0.00    -0.354 N 
ATOM     55  C   UNL A   1      41.481  33.658  31.434  1.00  0.00     0.074 A 
ATOM     56  C   UNL A   1      40.297  34.381  31.057  1.00  0.00     0.031 C 
ATOM     57  C   UNL A   1      41.590  28.368  30.875  1.00  0.00     0.029 A 
ATOM     58  C   UNL A   1      41.073  27.820  29.666  1.00  0.00     0.049 A 
ATOM     59  H   UNL A   1      39.076  28.239  29.031  1.00  0.00     0.167 HD
ATOM     60  C   UNL A   1      42.538  33.874  32.278  1.00  0.00     0.034 A 
ATOM     61  C   UNL A   1      41.948  27.313  28.741  1.00  0.00     0.034 A 
ATOM     62  C   UNL A   1      43.506  32.753  32.220  1.00  0.00     0.049 A 
ATOM     63  C   UNL A   1      43.341  27.974  28.803  1.00  0.00     0.074 A 
ATOM     64  C   UNL A   1      44.063  31.900  33.159  1.00  0.00     0.029 A 
ATOM     65  N   UNL A   1      43.950  32.292  30.978  1.00  0.00    -0.354 N 
ATOM     66  N   UNL A   1      43.568  29.111  29.424  1.00  0.00    -0.248 NA
ATOM     67  C   UNL A   1      44.583  27.426  28.252  1.00  0.00     0.031 C 
ATOM     68  C   UNL A   1      44.764  30.878  32.465  1.00  0.00     0.029 A 
ATOM     69  C   UNL A   1      44.686  31.134  31.105  1.00  0.00     0.049 A 
ATOM     70  H   UNL A   1      43.761  32.738  30.121  1.00  0.00     0.167 HD
ATOM     71  C   UNL A   1      44.896  29.439  29.392  1.00  0.00     0.074 A 
ATOM     72  C   UNL A   1      45.490  28.351  28.632  1.00  0.00     0.031 C 
ATOM     73  C   UNL A   1      45.406  30.576  29.969  1.00  0.00     0.034 A 
BRANCH  60  74
ATOM     74  C   UNL A   1      42.705  35.008  33.319  1.00  0.00     0.023 A 
ATOM     75  C   UNL A   1      42.247  34.740  34.636  1.00  0.00     0.012 A 
ATOM     76  C   UNL A   1      43.193  36.327  33.123  1.00  0.00     0.148 A 
ATOM     77  C   UNL A   1      42.202  35.701  35.657  1.00  0.00     0.002 A 
ATOM     78  C   UNL A   1      43.215  37.275  34.166  1.00  0.00     0.091 A 
ATOM     79  F   UNL A   1      43.610  36.715  31.917  1.00  0.00    -0.205 F 
ATOM     80  C   UNL A   1      42.691  36.971  35.424  1.00  0.00     0.022 A 
BRANCH  78  81
ATOM     81  S   UNL A   1      43.916  38.932  33.997  1.00  0.00     0.127 S 
ATOM     82  O   UNL A   1      44.015  39.374  35.389  1.00  0.00    -0.237 OA
ATOM     83  O   UNL A   1      45.204  38.663  33.356  1.00  0.00    -0.237 OA
ATOM     84  O   UNL A   1      42.979  39.696  33.183  1.00  0.00    -0.744 OA
ENDBRANCH  78  81
ENDBRANCH  60  74
BRANCH  61  85
ATOM     85  C   UNL A   1      41.277  26.519  27.672  1.00  0.00     0.023 A 
ATOM     86  C   UNL A   1      41.255  27.204  26.428  1.00  0.00     0.012 A 
ATOM     87  C   UNL A   1      41.531  25.142  27.672  1.00  0.00     0.148 A 
ATOM     88  C   UNL A   1      41.862  26.632  25.308  1.00  0.00     0.002 A 
ATOM     89  C   UNL A   1      42.147  24.578  26.556  1.00  0.00     0.091 A 
ATOM     90  F   UNL A   1      41.348  24.458  28.810  1.00  0.00    -0.205 F 
ATOM     91  C   UNL A   1      42.376  25.343  25.398  1.00  0.00     0.022 A 
BRANCH  89  92
ATOM     92  S   UNL A   1      42.970  22.988  26.708  1.00  0.00     0.127 S 
ATOM     93  O   UNL A   1      43.069  22.826  28.153  1.00  0.00    -0.237 OA
ATOM     94  O   UNL A   1      42.033  22.084  26.044  1.00  0.00    -0.237 OA
ATOM     95  O   UNL A   1      44.221  23.171  25.986  1.00  0.00    -0.744 OA
ENDBRANCH  89  92
ENDBRANCH  61  85
BRANCH  73  96
ATOM     96  C   UNL A   1      46.672  31.308  29.527  1.00  0.00     0.023 A 
ATOM     97  C   UNL A   1      47.951  30.817  29.845  1.00  0.00     0.012 A 
ATOM     98  C   UNL A   1      46.621  32.375  28.578  1.00  0.00     0.148 A 
ATOM     99  C   UNL A   1      49.112  31.360  29.285  1.00  0.00     0.002 A 
ATOM    100  C   UNL A   1      47.770  32.837  27.945  1.00  0.00     0.091 A 
ATOM    101  F   UNL A   1      45.455  32.962  28.279  1.00  0.00    -0.205 F 
ATOM    102  C   UNL A   1      49.022  32.349  28.315  1.00  0.00     0.022 A 
BRANCH 100 103
ATOM    103  S   UNL A   1      47.708  33.955  26.531  1.00  0.00     0.127 S 
ATOM    104  O   UNL A   1      46.681  33.328  25.701  1.00  0.00    -0.237 OA
ATOM    105  O   UNL A   1      47.296  35.212  27.159  1.00  0.00    -0.237 OA
ATOM    106  O   UNL A   1      49.050  33.974  25.969  1.00  0.00    -0.744 OA
ENDBRANCH 100 103
ENDBRANCH  73  96
ENDBRANCH  47  48
ENDBRANCH  40  42
ENDBRANCH  39  40
ENDBRANCH  38  39
ENDBRANCH  37  38
ENDBRANCH  36  37
ENDBRANCH  35  36
ENDBRANCH  34  35
ENDBRANCH   1  34
TORSDOF 26
ENDMDL
