MODEL 1
REMARK VINA RESULT:     -10.1      0.000      0.000
REMARK SMILES CN1C(=O)C[C@@H](C(=O)OCCOCCOCCOCCOC(=O)c2ccc(-c3c4nc(c(-c5cccc(S(=O)(=O)[O-])c5F)c5ccc([nH]5)c(-c5cccc(S(=O)(=O)[O-])c5F)c5nc(c(-c6cccc(S(=O)(=O)[O-])c6F)c6ccc3[nH]6)C=C5)C=C4)cc2)C12CCN(C(=O)c1cccc3ccccc13)CC2
REMARK SMILES IDX 16 1 15 2 14 3 13 4 12 5 11 6 10 7 9 8 7 9 8 10 6 11 1 12
REMARK SMILES IDX 2 13 3 14 87 15 4 16 5 17 88 18 104 19 89 20 103 21 90 22
REMARK SMILES IDX 91 23 92 24 93 25 94 26 102 27 95 28 97 29 101 30 96 31
REMARK SMILES IDX 98 32 100 33 99 34 17 35 18 36 19 37 20 38 21 39 22 40 23 41
REMARK SMILES IDX 24 42 25 43 86 44 26 45 85 46 27 47 28 48 29 49 79 50 30 51
REMARK SMILES IDX 84 52 78 53 80 54 31 55 83 56 77 57 76 58 32 60 64 61 44 62
REMARK SMILES IDX 63 63 45 64 48 65 62 66 81 67 46 68 47 69 61 71 82 72 49 73
REMARK SMILES IDX 33 74 34 75 42 76 35 77 37 78 43 79 36 80 38 81 39 82 40 83
REMARK SMILES IDX 41 84 65 85 66 86 74 87 67 88 69 89 75 90 68 91 70 92 71 93
REMARK SMILES IDX 72 94 73 95 50 96 51 97 59 98 52 99 54 100 60 101 53 102
REMARK SMILES IDX 55 103 56 104 57 105 58 106
REMARK H PARENT 80 59 48 70
REMARK Flexibility Score: inf
ROOT
ATOM      1  C   UNL A   1      38.539  28.439  28.844  1.00  0.00     0.188 C 
ENDROOT
BRANCH   1   2
ATOM      2  O   UNL A   1      37.902  29.458  29.617  1.00  0.00    -0.377 OA
BRANCH   2   3
ATOM      3  C   UNL A   1      37.492  30.667  29.007  1.00  0.00     0.188 C 
BRANCH   3   4
ATOM      4  C   UNL A   1      35.984  30.849  28.863  1.00  0.00     0.188 C 
BRANCH   4   5
ATOM      5  O   UNL A   1      35.452  30.775  27.556  1.00  0.00    -0.376 OA
BRANCH   5   6
ATOM      6  C   UNL A   1      34.434  29.809  27.283  1.00  0.00     0.202 C 
BRANCH   6   7
ATOM      7  C   UNL A   1      33.612  29.862  25.979  1.00  0.00     0.261 C 
BRANCH   7   8
ATOM      8  O   UNL A   1      32.168  29.711  26.120  1.00  0.00    -0.463 OA
BRANCH   8   9
ATOM      9  C   UNL A   1      31.675  28.482  25.858  1.00  0.00     0.311 C 
ATOM     10  O   UNL A   1      31.440  27.642  26.731  1.00  0.00    -0.252 OA
BRANCH   9  11
ATOM     11  C   UNL A   1      31.551  28.048  24.405  1.00  0.00     0.134 C 
ATOM     12  C   UNL A   1      28.183  26.665  23.602  1.00  0.00     0.147 C 
ATOM     13  N   UNL A   1      29.405  27.434  23.756  1.00  0.00    -0.339 N 
ATOM     14  C   UNL A   1      29.433  28.814  23.611  1.00  0.00     0.223 C 
ATOM     15  C   UNL A   1      30.752  26.850  23.830  1.00  0.00     0.060 C 
ATOM     16  O   UNL A   1      28.494  29.552  23.366  1.00  0.00    -0.275 OA
ATOM     17  C   UNL A   1      30.862  29.266  23.743  1.00  0.00     0.118 C 
ATOM     18  C   UNL A   1      30.795  25.497  24.566  1.00  0.00     0.051 C 
ATOM     19  C   UNL A   1      31.229  26.567  22.361  1.00  0.00     0.051 C 
ATOM     20  C   UNL A   1      32.110  24.715  24.429  1.00  0.00     0.122 C 
ATOM     21  C   UNL A   1      32.557  25.825  22.279  1.00  0.00     0.122 C 
ATOM     22  N   UNL A   1      32.535  24.584  23.036  1.00  0.00    -0.338 N 
ATOM     23  C   UNL A   1      33.086  23.445  22.436  1.00  0.00     0.254 C 
ATOM     24  O   UNL A   1      33.389  23.391  21.243  1.00  0.00    -0.269 OA
BRANCH  23  25
ATOM     25  C   UNL A   1      33.460  22.269  23.253  1.00  0.00     0.047 A 
ATOM     26  C   UNL A   1      32.432  21.340  23.483  1.00  0.00     0.014 A 
ATOM     27  C   UNL A   1      34.727  22.129  23.873  1.00  0.00    -0.006 A 
ATOM     28  C   UNL A   1      32.649  20.249  24.320  1.00  0.00     0.001 A 
ATOM     29  C   UNL A   1      34.934  20.999  24.712  1.00  0.00    -0.018 A 
ATOM     30  C   UNL A   1      35.809  23.015  23.680  1.00  0.00     0.009 A 
ATOM     31  C   UNL A   1      33.889  20.084  24.934  1.00  0.00     0.009 A 
ATOM     32  C   UNL A   1      36.206  20.752  25.253  1.00  0.00     0.009 A 
ATOM     33  C   UNL A   1      37.067  22.754  24.230  1.00  0.00     0.001 A 
ATOM     34  C   UNL A   1      37.271  21.613  24.997  1.00  0.00     0.001 A 
ENDBRANCH  23  25
ENDBRANCH   9  11
ENDBRANCH   8   9
ENDBRANCH   7   8
ENDBRANCH   6   7
ENDBRANCH   5   6
ENDBRANCH   4   5
ENDBRANCH   3   4
ENDBRANCH   2   3
ENDBRANCH   1   2
BRANCH   1  35
ATOM     35  C   UNL A   1      39.306  27.315  29.556  1.00  0.00     0.188 C 
BRANCH  35  36
ATOM     36  O   UNL A   1      39.135  25.985  29.053  1.00  0.00    -0.376 OA
BRANCH  36  37
ATOM     37  C   UNL A   1      39.962  25.607  27.958  1.00  0.00     0.202 C 
BRANCH  37  38
ATOM     38  C   UNL A   1      41.445  25.764  28.230  1.00  0.00     0.261 C 
BRANCH  38  39
ATOM     39  O   UNL A   1      42.233  25.485  27.077  1.00  0.00    -0.460 OA
BRANCH  39  40
ATOM     40  C   UNL A   1      42.151  26.439  26.131  1.00  0.00     0.338 C 
ATOM     41  O   UNL A   1      41.592  26.387  25.052  1.00  0.00    -0.246 OA
BRANCH  40  42
ATOM     42  C   UNL A   1      42.807  27.636  26.653  1.00  0.00     0.060 A 
ATOM     43  C   UNL A   1      43.771  27.468  27.647  1.00  0.00     0.016 A 
ATOM     44  C   UNL A   1      42.342  28.898  26.276  1.00  0.00     0.016 A 
ATOM     45  C   UNL A   1      44.189  28.579  28.364  1.00  0.00     0.010 A 
ATOM     46  C   UNL A   1      42.778  30.014  26.987  1.00  0.00     0.010 A 
ATOM     47  C   UNL A   1      43.638  29.839  28.084  1.00  0.00    -0.014 A 
BRANCH  47  48
ATOM     48  C   UNL A   1      43.791  30.895  29.105  1.00  0.00     0.031 A 
ATOM     49  C   UNL A   1      45.022  31.760  29.059  1.00  0.00     0.074 A 
ATOM     50  C   UNL A   1      42.798  31.136  29.976  1.00  0.00     0.049 A 
ATOM     51  N   UNL A   1      45.290  32.850  29.728  1.00  0.00    -0.248 NA
ATOM     52  C   UNL A   1      46.092  31.354  28.128  1.00  0.00     0.031 C 
ATOM     53  C   UNL A   1      41.578  30.340  30.102  1.00  0.00     0.029 A 
ATOM     54  N   UNL A   1      42.656  32.125  30.911  1.00  0.00    -0.354 N 
ATOM     55  C   UNL A   1      46.554  33.250  29.310  1.00  0.00     0.074 A 
ATOM     56  C   UNL A   1      47.015  32.279  28.346  1.00  0.00     0.031 C 
ATOM     57  C   UNL A   1      40.808  30.875  31.065  1.00  0.00     0.029 A 
ATOM     58  C   UNL A   1      41.482  32.046  31.619  1.00  0.00     0.049 A 
ATOM     59  H   UNL A   1      43.331  32.826  31.062  1.00  0.00     0.167 HD
ATOM     60  C   UNL A   1      47.256  34.345  29.681  1.00  0.00     0.034 A 
ATOM     61  C   UNL A   1      41.007  32.842  32.596  1.00  0.00     0.034 A 
ATOM     62  C   UNL A   1      46.769  35.317  30.619  1.00  0.00     0.049 A 
ATOM     63  C   UNL A   1      41.797  34.068  32.970  1.00  0.00     0.074 A 
ATOM     64  C   UNL A   1      47.372  36.489  31.038  1.00  0.00     0.029 A 
ATOM     65  N   UNL A   1      45.559  35.223  31.290  1.00  0.00    -0.354 N 
ATOM     66  N   UNL A   1      42.926  34.507  32.464  1.00  0.00    -0.248 NA
ATOM     67  C   UNL A   1      41.230  34.932  34.013  1.00  0.00     0.031 C 
ATOM     68  C   UNL A   1      46.530  37.096  31.977  1.00  0.00     0.029 A 
ATOM     69  C   UNL A   1      45.398  36.309  32.128  1.00  0.00     0.049 A 
ATOM     70  H   UNL A   1      44.910  34.491  31.183  1.00  0.00     0.167 HD
ATOM     71  C   UNL A   1      43.195  35.707  33.111  1.00  0.00     0.074 A 
ATOM     72  C   UNL A   1      42.091  35.942  34.020  1.00  0.00     0.031 C 
ATOM     73  C   UNL A   1      44.264  36.532  32.987  1.00  0.00     0.034 A 
BRANCH  60  74
ATOM     74  C   UNL A   1      48.603  34.567  29.047  1.00  0.00     0.023 A 
ATOM     75  C   UNL A   1      49.772  34.226  29.758  1.00  0.00     0.012 A 
ATOM     76  C   UNL A   1      48.711  35.057  27.731  1.00  0.00     0.148 A 
ATOM     77  C   UNL A   1      51.029  34.387  29.175  1.00  0.00     0.002 A 
ATOM     78  C   UNL A   1      49.966  35.181  27.145  1.00  0.00     0.091 A 
ATOM     79  F   UNL A   1      47.589  35.398  27.083  1.00  0.00    -0.205 F 
ATOM     80  C   UNL A   1      51.124  34.854  27.867  1.00  0.00     0.022 A 
BRANCH  78  81
ATOM     81  S   UNL A   1      50.196  35.718  25.446  1.00  0.00     0.127 S 
ATOM     82  O   UNL A   1      51.578  35.313  25.193  1.00  0.00    -0.237 OA
ATOM     83  O   UNL A   1      49.189  34.928  24.736  1.00  0.00    -0.237 OA
ATOM     84  O   UNL A   1      49.959  37.155  25.441  1.00  0.00    -0.744 OA
ENDBRANCH  78  81
ENDBRANCH  60  74
BRANCH  61  85
ATOM     85  C   UNL A   1      39.700  32.531  33.239  1.00  0.00     0.023 A 
ATOM     86  C   UNL A   1      39.636  31.600  34.293  1.00  0.00     0.012 A 
ATOM     87  C   UNL A   1      38.522  33.186  32.831  1.00  0.00     0.148 A 
ATOM     88  C   UNL A   1      38.418  31.308  34.911  1.00  0.00     0.002 A 
ATOM     89  C   UNL A   1      37.323  32.934  33.490  1.00  0.00     0.091 A 
ATOM     90  F   UNL A   1      38.592  34.051  31.810  1.00  0.00    -0.205 F 
ATOM     91  C   UNL A   1      37.265  31.984  34.519  1.00  0.00     0.022 A 
BRANCH  89  92
ATOM     92  S   UNL A   1      35.839  33.879  33.132  1.00  0.00     0.127 S 
ATOM     93  O   UNL A   1      35.559  33.491  31.753  1.00  0.00    -0.237 OA
ATOM     94  O   UNL A   1      34.893  33.363  34.123  1.00  0.00    -0.237 OA
ATOM     95  O   UNL A   1      36.219  35.271  33.346  1.00  0.00    -0.744 OA
ENDBRANCH  89  92
ENDBRANCH  61  85
BRANCH  73  96
ATOM     96  C   UNL A   1      44.287  37.762  33.853  1.00  0.00     0.023 A 
ATOM     97  C   UNL A   1      44.939  37.716  35.100  1.00  0.00     0.012 A 
ATOM     98  C   UNL A   1      43.730  38.973  33.402  1.00  0.00     0.148 A 
ATOM     99  C   UNL A   1      45.007  38.852  35.904  1.00  0.00     0.002 A 
ATOM    100  C   UNL A   1      43.841  40.113  34.189  1.00  0.00     0.091 A 
ATOM    101  F   UNL A   1      43.096  38.990  32.220  1.00  0.00    -0.205 F 
ATOM    102  C   UNL A   1      44.469  40.052  35.444  1.00  0.00     0.022 A 
BRANCH 100 103
ATOM    103  S   UNL A   1      43.259  41.716  33.624  1.00  0.00     0.127 S 
ATOM    104  O   UNL A   1      43.871  41.806  32.300  1.00  0.00    -0.237 OA
ATOM    105  O   UNL A   1      41.807  41.538  33.614  1.00  0.00    -0.237 OA
ATOM    106  O   UNL A   1      43.738  42.677  34.609  1.00  0.00    -0.744 OA
ENDBRANCH 100 103
ENDBRANCH  73  96
ENDBRANCH  47  48
ENDBRANCH  40  42
ENDBRANCH  39  40
ENDBRANCH  38  39
ENDBRANCH  37  38
ENDBRANCH  36  37
ENDBRANCH  35  36
ENDBRANCH   1  35
TORSDOF 24
ENDMDL
MODEL 2
REMARK VINA RESULT:      -9.7      4.635     10.349
REMARK SMILES CN1C(=O)C[C@@H](C(=O)OCCOCCOCCOCCOC(=O)c2ccc(-c3c4nc(c(-c5cccc(S(=O)(=O)[O-])c5F)c5ccc([nH]5)c(-c5cccc(S(=O)(=O)[O-])c5F)c5nc(c(-c6cccc(S(=O)(=O)[O-])c6F)c6ccc3[nH]6)C=C5)C=C4)cc2)C12CCN(C(=O)c1cccc3ccccc13)CC2
REMARK SMILES IDX 16 1 15 2 14 3 13 4 12 5 11 6 10 7 9 8 7 9 8 10 6 11 1 12
REMARK SMILES IDX 2 13 3 14 87 15 4 16 5 17 88 18 104 19 89 20 103 21 90 22
REMARK SMILES IDX 91 23 92 24 93 25 94 26 102 27 95 28 97 29 101 30 96 31
REMARK SMILES IDX 98 32 100 33 99 34 17 35 18 36 19 37 20 38 21 39 22 40 23 41
REMARK SMILES IDX 24 42 25 43 86 44 26 45 85 46 27 47 28 48 29 49 79 50 30 51
REMARK SMILES IDX 84 52 78 53 80 54 31 55 83 56 77 57 76 58 32 60 64 61 44 62
REMARK SMILES IDX 63 63 45 64 48 65 62 66 81 67 46 68 47 69 61 71 82 72 49 73
REMARK SMILES IDX 33 74 34 75 42 76 35 77 37 78 43 79 36 80 38 81 39 82 40 83
REMARK SMILES IDX 41 84 65 85 66 86 74 87 67 88 69 89 75 90 68 91 70 92 71 93
REMARK SMILES IDX 72 94 73 95 50 96 51 97 59 98 52 99 54 100 60 101 53 102
REMARK SMILES IDX 55 103 56 104 57 105 58 106
REMARK H PARENT 80 59 48 70
REMARK Flexibility Score: inf
ROOT
ATOM      1  C   UNL A   1      40.558  26.576  28.729  1.00  0.00     0.188 C 
ENDROOT
BRANCH   1   2
ATOM      2  O   UNL A   1      40.710  26.858  27.335  1.00  0.00    -0.377 OA
BRANCH   2   3
ATOM      3  C   UNL A   1      40.438  25.861  26.370  1.00  0.00     0.188 C 
BRANCH   3   4
ATOM      4  C   UNL A   1      39.896  24.545  26.921  1.00  0.00     0.188 C 
BRANCH   4   5
ATOM      5  O   UNL A   1      38.495  24.359  26.873  1.00  0.00    -0.376 OA
BRANCH   5   6
ATOM      6  C   UNL A   1      37.933  23.663  25.758  1.00  0.00     0.202 C 
BRANCH   6   7
ATOM      7  C   UNL A   1      37.758  22.132  25.779  1.00  0.00     0.261 C 
BRANCH   7   8
ATOM      8  O   UNL A   1      37.129  21.538  24.604  1.00  0.00    -0.463 OA
BRANCH   8   9
ATOM      9  C   UNL A   1      35.966  22.099  24.212  1.00  0.00     0.311 C 
ATOM     10  O   UNL A   1      35.889  22.971  23.341  1.00  0.00    -0.252 OA
BRANCH   9  11
ATOM     11  C   UNL A   1      34.701  21.759  24.988  1.00  0.00     0.134 C 
ATOM     12  C   UNL A   1      32.149  20.031  22.890  1.00  0.00     0.147 C 
ATOM     13  N   UNL A   1      33.178  20.440  23.830  1.00  0.00    -0.339 N 
ATOM     14  C   UNL A   1      34.072  19.536  24.385  1.00  0.00     0.223 C 
ATOM     15  C   UNL A   1      33.237  21.759  24.477  1.00  0.00     0.060 C 
ATOM     16  O   UNL A   1      34.142  18.337  24.172  1.00  0.00    -0.275 OA
ATOM     17  C   UNL A   1      34.928  20.278  25.377  1.00  0.00     0.118 C 
ATOM     18  C   UNL A   1      32.758  22.910  23.571  1.00  0.00     0.051 C 
ATOM     19  C   UNL A   1      32.261  21.730  25.706  1.00  0.00     0.051 C 
ATOM     20  C   UNL A   1      32.535  24.255  24.279  1.00  0.00     0.122 C 
ATOM     21  C   UNL A   1      32.104  23.079  26.398  1.00  0.00     0.122 C 
ATOM     22  N   UNL A   1      31.697  24.121  25.471  1.00  0.00    -0.338 N 
ATOM     23  C   UNL A   1      30.686  25.000  25.881  1.00  0.00     0.254 C 
ATOM     24  O   UNL A   1      29.991  24.808  26.879  1.00  0.00    -0.269 OA
BRANCH  23  25
ATOM     25  C   UNL A   1      30.488  26.295  25.193  1.00  0.00     0.047 A 
ATOM     26  C   UNL A   1      29.535  26.293  24.162  1.00  0.00     0.014 A 
ATOM     27  C   UNL A   1      31.280  27.440  25.456  1.00  0.00    -0.006 A 
ATOM     28  C   UNL A   1      29.341  27.432  23.385  1.00  0.00     0.001 A 
ATOM     29  C   UNL A   1      31.056  28.600  24.663  1.00  0.00    -0.018 A 
ATOM     30  C   UNL A   1      32.249  27.518  26.481  1.00  0.00     0.009 A 
ATOM     31  C   UNL A   1      30.101  28.574  23.631  1.00  0.00     0.009 A 
ATOM     32  C   UNL A   1      31.731  29.794  24.962  1.00  0.00     0.009 A 
ATOM     33  C   UNL A   1      32.912  28.717  26.762  1.00  0.00     0.001 A 
ATOM     34  C   UNL A   1      32.638  29.857  26.018  1.00  0.00     0.001 A 
ENDBRANCH  23  25
ENDBRANCH   9  11
ENDBRANCH   8   9
ENDBRANCH   7   8
ENDBRANCH   6   7
ENDBRANCH   5   6
ENDBRANCH   4   5
ENDBRANCH   3   4
ENDBRANCH   2   3
ENDBRANCH   1   2
BRANCH   1  35
ATOM     35  C   UNL A   1      39.278  27.013  29.455  1.00  0.00     0.188 C 
BRANCH  35  36
ATOM     36  O   UNL A   1      39.024  28.419  29.547  1.00  0.00    -0.376 OA
BRANCH  36  37
ATOM     37  C   UNL A   1      37.673  28.834  29.381  1.00  0.00     0.202 C 
BRANCH  37  38
ATOM     38  C   UNL A   1      37.285  30.013  30.251  1.00  0.00     0.261 C 
BRANCH  38  39
ATOM     39  O   UNL A   1      36.514  29.614  31.380  1.00  0.00    -0.460 OA
BRANCH  39  40
ATOM     40  C   UNL A   1      37.263  29.304  32.455  1.00  0.00     0.338 C 
ATOM     41  O   UNL A   1      37.408  28.219  32.987  1.00  0.00    -0.246 OA
BRANCH  40  42
ATOM     42  C   UNL A   1      37.968  30.515  32.866  1.00  0.00     0.060 A 
ATOM     43  C   UNL A   1      39.304  30.392  33.248  1.00  0.00     0.016 A 
ATOM     44  C   UNL A   1      37.258  31.707  33.028  1.00  0.00     0.016 A 
ATOM     45  C   UNL A   1      39.906  31.447  33.917  1.00  0.00     0.010 A 
ATOM     46  C   UNL A   1      37.872  32.771  33.685  1.00  0.00     0.010 A 
ATOM     47  C   UNL A   1      39.168  32.606  34.201  1.00  0.00    -0.014 A 
BRANCH  47  48
ATOM     48  C   UNL A   1      39.693  33.513  35.242  1.00  0.00     0.031 A 
ATOM     49  C   UNL A   1      39.244  33.305  36.664  1.00  0.00     0.074 A 
ATOM     50  C   UNL A   1      40.630  34.423  34.929  1.00  0.00     0.049 A 
ATOM     51  N   UNL A   1      39.698  33.852  37.760  1.00  0.00    -0.248 NA
ATOM     52  C   UNL A   1      38.145  32.346  36.886  1.00  0.00     0.031 C 
ATOM     53  C   UNL A   1      41.113  34.702  33.578  1.00  0.00     0.029 A 
ATOM     54  N   UNL A   1      41.348  35.270  35.728  1.00  0.00    -0.354 N 
ATOM     55  C   UNL A   1      38.937  33.317  38.793  1.00  0.00     0.074 A 
ATOM     56  C   UNL A   1      37.977  32.417  38.198  1.00  0.00     0.031 C 
ATOM     57  C   UNL A   1      42.052  35.660  33.641  1.00  0.00     0.029 A 
ATOM     58  C   UNL A   1      42.234  36.058  35.035  1.00  0.00     0.049 A 
ATOM     59  H   UNL A   1      41.241  35.310  36.706  1.00  0.00     0.167 HD
ATOM     60  C   UNL A   1      39.050  33.538  40.123  1.00  0.00     0.034 A 
ATOM     61  C   UNL A   1      43.098  36.988  35.485  1.00  0.00     0.034 A 
ATOM     62  C   UNL A   1      40.031  34.412  40.700  1.00  0.00     0.049 A 
ATOM     63  C   UNL A   1      43.220  37.193  36.972  1.00  0.00     0.074 A 
ATOM     64  C   UNL A   1      40.268  34.681  42.035  1.00  0.00     0.029 A 
ATOM     65  N   UNL A   1      40.935  35.168  39.969  1.00  0.00    -0.354 N 
ATOM     66  N   UNL A   1      42.590  36.575  37.944  1.00  0.00    -0.248 NA
ATOM     67  C   UNL A   1      44.199  38.189  37.427  1.00  0.00     0.031 C 
ATOM     68  C   UNL A   1      41.309  35.614  42.110  1.00  0.00     0.029 A 
ATOM     69  C   UNL A   1      41.728  35.912  40.822  1.00  0.00     0.049 A 
ATOM     70  H   UNL A   1      41.003  35.173  38.988  1.00  0.00     0.167 HD
ATOM     71  C   UNL A   1      43.111  37.090  39.125  1.00  0.00     0.074 A 
ATOM     72  C   UNL A   1      44.132  38.046  38.744  1.00  0.00     0.031 C 
ATOM     73  C   UNL A   1      42.766  36.820  40.408  1.00  0.00     0.034 A 
BRANCH  60  74
ATOM     74  C   UNL A   1      38.115  32.798  41.041  1.00  0.00     0.023 A 
ATOM     75  C   UNL A   1      38.448  31.498  41.476  1.00  0.00     0.012 A 
ATOM     76  C   UNL A   1      36.938  33.406  41.520  1.00  0.00     0.148 A 
ATOM     77  C   UNL A   1      37.615  30.808  42.357  1.00  0.00     0.002 A 
ATOM     78  C   UNL A   1      36.131  32.726  42.425  1.00  0.00     0.091 A 
ATOM     79  F   UNL A   1      36.627  34.632  41.075  1.00  0.00    -0.205 F 
ATOM     80  C   UNL A   1      36.464  31.426  42.838  1.00  0.00     0.022 A 
BRANCH  78  81
ATOM     81  S   UNL A   1      34.658  33.454  43.151  1.00  0.00     0.127 S 
ATOM     82  O   UNL A   1      35.228  34.532  43.958  1.00  0.00    -0.237 OA
ATOM     83  O   UNL A   1      33.923  33.901  41.968  1.00  0.00    -0.237 OA
ATOM     84  O   UNL A   1      34.012  32.389  43.905  1.00  0.00    -0.744 OA
ENDBRANCH  78  81
ENDBRANCH  60  74
BRANCH  61  85
ATOM     85  C   UNL A   1      43.947  37.742  34.521  1.00  0.00     0.023 A 
ATOM     86  C   UNL A   1      45.175  37.204  34.092  1.00  0.00     0.012 A 
ATOM     87  C   UNL A   1      43.521  38.977  33.997  1.00  0.00     0.148 A 
ATOM     88  C   UNL A   1      45.974  37.895  33.179  1.00  0.00     0.002 A 
ATOM     89  C   UNL A   1      44.294  39.633  33.044  1.00  0.00     0.091 A 
ATOM     90  F   UNL A   1      42.361  39.490  34.433  1.00  0.00    -0.205 F 
ATOM     91  C   UNL A   1      45.528  39.102  32.646  1.00  0.00     0.022 A 
BRANCH  89  92
ATOM     92  S   UNL A   1      43.704  41.110  32.212  1.00  0.00     0.127 S 
ATOM     93  O   UNL A   1      44.708  41.290  31.168  1.00  0.00    -0.237 OA
ATOM     94  O   UNL A   1      42.384  40.693  31.734  1.00  0.00    -0.237 OA
ATOM     95  O   UNL A   1      43.660  42.134  33.248  1.00  0.00    -0.744 OA
ENDBRANCH  89  92
ENDBRANCH  61  85
BRANCH  73  96
ATOM     96  C   UNL A   1      43.499  37.565  41.489  1.00  0.00     0.023 A 
ATOM     97  C   UNL A   1      44.690  37.026  42.014  1.00  0.00     0.012 A 
ATOM     98  C   UNL A   1      43.050  38.824  41.932  1.00  0.00     0.148 A 
ATOM     99  C   UNL A   1      45.407  37.715  42.990  1.00  0.00     0.002 A 
ATOM    100  C   UNL A   1      43.795  39.525  42.872  1.00  0.00     0.091 A 
ATOM    101  F   UNL A   1      41.903  39.309  41.435  1.00  0.00    -0.205 F 
ATOM    102  C   UNL A   1      44.967  38.968  43.410  1.00  0.00     0.022 A 
BRANCH 100 103
ATOM    103  S   UNL A   1      43.345  41.184  43.392  1.00  0.00     0.127 S 
ATOM    104  O   UNL A   1      44.546  41.608  44.109  1.00  0.00    -0.237 OA
ATOM    105  O   UNL A   1      43.124  41.866  42.117  1.00  0.00    -0.237 OA
ATOM    106  O   UNL A   1      42.145  41.030  44.204  1.00  0.00    -0.744 OA
ENDBRANCH 100 103
ENDBRANCH  73  96
ENDBRANCH  47  48
ENDBRANCH  40  42
ENDBRANCH  39  40
ENDBRANCH  38  39
ENDBRANCH  37  38
ENDBRANCH  36  37
ENDBRANCH  35  36
ENDBRANCH   1  35
TORSDOF 24
ENDMDL
MODEL 3
REMARK VINA RESULT:      -9.3      5.041      8.284
REMARK SMILES CN1C(=O)C[C@@H](C(=O)OCCOCCOCCOCCOC(=O)c2ccc(-c3c4nc(c(-c5cccc(S(=O)(=O)[O-])c5F)c5ccc([nH]5)c(-c5cccc(S(=O)(=O)[O-])c5F)c5nc(c(-c6cccc(S(=O)(=O)[O-])c6F)c6ccc3[nH]6)C=C5)C=C4)cc2)C12CCN(C(=O)c1cccc3ccccc13)CC2
REMARK SMILES IDX 16 1 15 2 14 3 13 4 12 5 11 6 10 7 9 8 7 9 8 10 6 11 1 12
REMARK SMILES IDX 2 13 3 14 87 15 4 16 5 17 88 18 104 19 89 20 103 21 90 22
REMARK SMILES IDX 91 23 92 24 93 25 94 26 102 27 95 28 97 29 101 30 96 31
REMARK SMILES IDX 98 32 100 33 99 34 17 35 18 36 19 37 20 38 21 39 22 40 23 41
REMARK SMILES IDX 24 42 25 43 86 44 26 45 85 46 27 47 28 48 29 49 79 50 30 51
REMARK SMILES IDX 84 52 78 53 80 54 31 55 83 56 77 57 76 58 32 60 64 61 44 62
REMARK SMILES IDX 63 63 45 64 48 65 62 66 81 67 46 68 47 69 61 71 82 72 49 73
REMARK SMILES IDX 33 74 34 75 42 76 35 77 37 78 43 79 36 80 38 81 39 82 40 83
REMARK SMILES IDX 41 84 65 85 66 86 74 87 67 88 69 89 75 90 68 91 70 92 71 93
REMARK SMILES IDX 72 94 73 95 50 96 51 97 59 98 52 99 54 100 60 101 53 102
REMARK SMILES IDX 55 103 56 104 57 105 58 106
REMARK H PARENT 80 59 48 70
REMARK Flexibility Score: inf
ROOT
ATOM      1  C   UNL A   1      31.955  28.998  26.544  1.00  0.00     0.188 C 
ENDROOT
BRANCH   1   2
ATOM      2  O   UNL A   1      32.305  27.777  25.887  1.00  0.00    -0.377 OA
BRANCH   2   3
ATOM      3  C   UNL A   1      33.661  27.466  25.630  1.00  0.00     0.188 C 
BRANCH   3   4
ATOM      4  C   UNL A   1      33.906  26.532  24.450  1.00  0.00     0.188 C 
BRANCH   4   5
ATOM      5  O   UNL A   1      32.953  26.554  23.406  1.00  0.00    -0.376 OA
BRANCH   5   6
ATOM      6  C   UNL A   1      32.219  25.361  23.121  1.00  0.00     0.202 C 
BRANCH   6   7
ATOM      7  C   UNL A   1      32.652  24.409  21.988  1.00  0.00     0.261 C 
BRANCH   7   8
ATOM      8  O   UNL A   1      33.266  23.151  22.400  1.00  0.00    -0.463 OA
BRANCH   8   9
ATOM      9  C   UNL A   1      34.503  23.246  22.934  1.00  0.00     0.311 C 
ATOM     10  O   UNL A   1      35.365  24.027  22.521  1.00  0.00    -0.252 OA
BRANCH   9  11
ATOM     11  C   UNL A   1      34.913  22.232  23.992  1.00  0.00     0.134 C 
ATOM     12  C   UNL A   1      33.679  23.129  27.394  1.00  0.00     0.147 C 
ATOM     13  N   UNL A   1      33.954  22.570  26.082  1.00  0.00    -0.339 N 
ATOM     14  C   UNL A   1      33.009  21.839  25.378  1.00  0.00     0.223 C 
ATOM     15  C   UNL A   1      35.290  22.495  25.473  1.00  0.00     0.060 C 
ATOM     16  O   UNL A   1      31.867  21.582  25.719  1.00  0.00    -0.275 OA
ATOM     17  C   UNL A   1      33.655  21.339  24.114  1.00  0.00     0.118 C 
ATOM     18  C   UNL A   1      36.190  23.699  25.815  1.00  0.00     0.051 C 
ATOM     19  C   UNL A   1      36.009  21.228  26.056  1.00  0.00     0.051 C 
ATOM     20  C   UNL A   1      37.672  23.540  25.442  1.00  0.00     0.122 C 
ATOM     21  C   UNL A   1      37.465  21.094  25.626  1.00  0.00     0.122 C 
ATOM     22  N   UNL A   1      38.236  22.285  25.939  1.00  0.00    -0.338 N 
ATOM     23  C   UNL A   1      39.506  22.109  26.505  1.00  0.00     0.254 C 
ATOM     24  O   UNL A   1      39.906  21.028  26.938  1.00  0.00    -0.269 OA
BRANCH  23  25
ATOM     25  C   UNL A   1      40.497  23.208  26.490  1.00  0.00     0.047 A 
ATOM     26  C   UNL A   1      41.654  22.969  25.732  1.00  0.00     0.014 A 
ATOM     27  C   UNL A   1      40.365  24.379  27.277  1.00  0.00    -0.006 A 
ATOM     28  C   UNL A   1      42.693  23.896  25.729  1.00  0.00     0.001 A 
ATOM     29  C   UNL A   1      41.430  25.322  27.249  1.00  0.00    -0.018 A 
ATOM     30  C   UNL A   1      39.228  24.691  28.054  1.00  0.00     0.009 A 
ATOM     31  C   UNL A   1      42.583  25.060  26.487  1.00  0.00     0.009 A 
ATOM     32  C   UNL A   1      41.296  26.551  27.915  1.00  0.00     0.009 A 
ATOM     33  C   UNL A   1      39.115  25.919  28.714  1.00  0.00     0.001 A 
ATOM     34  C   UNL A   1      40.138  26.855  28.626  1.00  0.00     0.001 A 
ENDBRANCH  23  25
ENDBRANCH   9  11
ENDBRANCH   8   9
ENDBRANCH   7   8
ENDBRANCH   6   7
ENDBRANCH   5   6
ENDBRANCH   4   5
ENDBRANCH   3   4
ENDBRANCH   2   3
ENDBRANCH   1   2
BRANCH   1  35
ATOM     35  C   UNL A   1      32.937  29.631  27.541  1.00  0.00     0.188 C 
BRANCH  35  36
ATOM     36  O   UNL A   1      33.691  30.761  27.090  1.00  0.00    -0.376 OA
BRANCH  36  37
ATOM     37  C   UNL A   1      33.470  31.988  27.775  1.00  0.00     0.202 C 
BRANCH  37  38
ATOM     38  C   UNL A   1      34.741  32.762  28.066  1.00  0.00     0.261 C 
BRANCH  38  39
ATOM     39  O   UNL A   1      34.481  33.972  28.772  1.00  0.00    -0.460 OA
BRANCH  39  40
ATOM     40  C   UNL A   1      34.518  33.828  30.109  1.00  0.00     0.338 C 
ATOM     41  O   UNL A   1      33.673  34.141  30.926  1.00  0.00    -0.246 OA
BRANCH  40  42
ATOM     42  C   UNL A   1      35.760  33.137  30.445  1.00  0.00     0.060 A 
ATOM     43  C   UNL A   1      35.665  31.890  31.064  1.00  0.00     0.016 A 
ATOM     44  C   UNL A   1      36.981  33.799  30.299  1.00  0.00     0.016 A 
ATOM     45  C   UNL A   1      36.797  31.351  31.657  1.00  0.00     0.010 A 
ATOM     46  C   UNL A   1      38.119  33.247  30.882  1.00  0.00     0.010 A 
ATOM     47  C   UNL A   1      38.005  32.065  31.630  1.00  0.00    -0.014 A 
BRANCH  47  48
ATOM     48  C   UNL A   1      39.052  31.671  32.595  1.00  0.00     0.031 A 
ATOM     49  C   UNL A   1      40.217  30.859  32.094  1.00  0.00     0.074 A 
ATOM     50  C   UNL A   1      39.009  32.128  33.857  1.00  0.00     0.049 A 
ATOM     51  N   UNL A   1      41.331  30.552  32.703  1.00  0.00    -0.248 NA
ATOM     52  C   UNL A   1      40.123  30.331  30.720  1.00  0.00     0.031 C 
ATOM     53  C   UNL A   1      37.913  32.907  34.432  1.00  0.00     0.029 A 
ATOM     54  N   UNL A   1      39.913  32.010  34.877  1.00  0.00    -0.354 N 
ATOM     55  C   UNL A   1      42.060  29.790  31.797  1.00  0.00     0.074 A 
ATOM     56  C   UNL A   1      41.259  29.659  30.603  1.00  0.00     0.031 C 
ATOM     57  C   UNL A   1      38.211  33.198  35.709  1.00  0.00     0.029 A 
ATOM     58  C   UNL A   1      39.514  32.627  36.037  1.00  0.00     0.049 A 
ATOM     59  H   UNL A   1      40.767  31.529  34.787  1.00  0.00     0.167 HD
ATOM     60  C   UNL A   1      43.299  29.268  31.942  1.00  0.00     0.034 A 
ATOM     61  C   UNL A   1      40.143  32.722  37.225  1.00  0.00     0.034 A 
ATOM     62  C   UNL A   1      44.095  29.434  33.126  1.00  0.00     0.049 A 
ATOM     63  C   UNL A   1      41.532  32.154  37.349  1.00  0.00     0.074 A 
ATOM     64  C   UNL A   1      45.381  28.988  33.371  1.00  0.00     0.029 A 
ATOM     65  N   UNL A   1      43.672  30.095  34.269  1.00  0.00    -0.354 N 
ATOM     66  N   UNL A   1      42.263  31.558  36.436  1.00  0.00    -0.248 NA
ATOM     67  C   UNL A   1      42.201  32.310  38.647  1.00  0.00     0.031 C 
ATOM     68  C   UNL A   1      45.729  29.367  34.671  1.00  0.00     0.029 A 
ATOM     69  C   UNL A   1      44.666  30.063  35.228  1.00  0.00     0.049 A 
ATOM     70  H   UNL A   1      42.794  30.524  34.380  1.00  0.00     0.167 HD
ATOM     71  C   UNL A   1      43.484  31.287  37.042  1.00  0.00     0.074 A 
ATOM     72  C   UNL A   1      43.404  31.816  38.388  1.00  0.00     0.031 C 
ATOM     73  C   UNL A   1      44.567  30.640  36.544  1.00  0.00     0.034 A 
BRANCH  60  74
ATOM     74  C   UNL A   1      43.881  28.503  30.784  1.00  0.00     0.023 A 
ATOM     75  C   UNL A   1      43.821  27.094  30.779  1.00  0.00     0.012 A 
ATOM     76  C   UNL A   1      44.434  29.175  29.677  1.00  0.00     0.148 A 
ATOM     77  C   UNL A   1      44.320  26.366  29.699  1.00  0.00     0.002 A 
ATOM     78  C   UNL A   1      44.896  28.444  28.589  1.00  0.00     0.091 A 
ATOM     79  F   UNL A   1      44.504  30.513  29.713  1.00  0.00    -0.205 F 
ATOM     80  C   UNL A   1      44.847  27.041  28.601  1.00  0.00     0.022 A 
BRANCH  78  81
ATOM     81  S   UNL A   1      45.541  29.218  27.101  1.00  0.00     0.127 S 
ATOM     82  O   UNL A   1      45.852  28.052  26.274  1.00  0.00    -0.237 OA
ATOM     83  O   UNL A   1      44.394  30.002  26.643  1.00  0.00    -0.237 OA
ATOM     84  O   UNL A   1      46.690  30.007  27.521  1.00  0.00    -0.744 OA
ENDBRANCH  78  81
ENDBRANCH  60  74
BRANCH  61  85
ATOM     85  C   UNL A   1      39.485  33.429  38.359  1.00  0.00     0.023 A 
ATOM     86  C   UNL A   1      38.623  32.728  39.223  1.00  0.00     0.012 A 
ATOM     87  C   UNL A   1      39.743  34.791  38.607  1.00  0.00     0.148 A 
ATOM     88  C   UNL A   1      38.009  33.378  40.296  1.00  0.00     0.002 A 
ATOM     89  C   UNL A   1      39.175  35.417  39.711  1.00  0.00     0.091 A 
ATOM     90  F   UNL A   1      40.547  35.453  37.762  1.00  0.00    -0.205 F 
ATOM     91  C   UNL A   1      38.295  34.717  40.548  1.00  0.00     0.022 A 
BRANCH  89  92
ATOM     92  S   UNL A   1      39.622  37.094  40.173  1.00  0.00     0.127 S 
ATOM     93  O   UNL A   1      38.978  37.878  39.124  1.00  0.00    -0.237 OA
ATOM     94  O   UNL A   1      39.018  37.224  41.500  1.00  0.00    -0.237 OA
ATOM     95  O   UNL A   1      41.080  37.105  40.184  1.00  0.00    -0.744 OA
ENDBRANCH  89  92
ENDBRANCH  61  85
BRANCH  73  96
ATOM     96  C   UNL A   1      45.749  30.472  37.459  1.00  0.00     0.023 A 
ATOM     97  C   UNL A   1      46.761  31.451  37.466  1.00  0.00     0.012 A 
ATOM     98  C   UNL A   1      45.821  29.389  38.356  1.00  0.00     0.148 A 
ATOM     99  C   UNL A   1      47.847  31.337  38.332  1.00  0.00     0.002 A 
ATOM    100  C   UNL A   1      46.883  29.307  39.247  1.00  0.00     0.091 A 
ATOM    101  F   UNL A   1      44.857  28.457  38.318  1.00  0.00    -0.205 F 
ATOM    102  C   UNL A   1      47.902  30.273  39.229  1.00  0.00     0.022 A 
BRANCH 100 103
ATOM    103  S   UNL A   1      46.976  28.019  40.496  1.00  0.00     0.127 S 
ATOM    104  O   UNL A   1      48.211  28.370  41.194  1.00  0.00    -0.237 OA
ATOM    105  O   UNL A   1      45.755  28.242  41.270  1.00  0.00    -0.237 OA
ATOM    106  O   UNL A   1      46.999  26.761  39.763  1.00  0.00    -0.744 OA
ENDBRANCH 100 103
ENDBRANCH  73  96
ENDBRANCH  47  48
ENDBRANCH  40  42
ENDBRANCH  39  40
ENDBRANCH  38  39
ENDBRANCH  37  38
ENDBRANCH  36  37
ENDBRANCH  35  36
ENDBRANCH   1  35
TORSDOF 24
ENDMDL
