MODEL 1
REMARK VINA RESULT:      -9.3      0.000      0.000
REMARK SMILES O=C(OCCOCCOCCOCCOC(=O)[C@H]1C[C@](O)(c2ccc(Cl)cc2)[C@@H](c2ccc(Cl)cc2)O1)c1ccc(-c2c3nc(c(-c4cccc(S(=O)(=O)[O-])c4F)c4ccc([nH]4)c(-c4cccc(S(=O)(=O)[O-])c4F)c4nc(c(-c5cccc(S(=O)(=O)[O-])c5F)c5ccc2[nH]5)C=C4)C=C3)cc1
REMARK SMILES IDX 8 1 7 2 6 3 5 4 4 5 3 6 2 7 1 8 38 9 39 10 100 11 40 12
REMARK SMILES IDX 99 13 41 14 42 15 43 16 93 17 44 18 98 19 92 20 94 21 45 22
REMARK SMILES IDX 97 23 91 24 90 25 46 27 78 28 58 29 77 30 59 31 62 32 76 33
REMARK SMILES IDX 95 34 60 35 61 36 75 38 96 39 63 40 47 41 48 42 56 43 49 44
REMARK SMILES IDX 51 45 57 46 50 47 52 48 53 49 54 50 55 51 79 52 80 53 88 54
REMARK SMILES IDX 81 55 83 56 89 57 82 58 84 59 85 60 86 61 87 62 64 63 65 64
REMARK SMILES IDX 73 65 66 66 68 67 74 68 67 69 69 70 70 71 71 72 72 73 9 74
REMARK SMILES IDX 10 75 11 76 12 77 13 78 14 79 15 80 16 81 17 82 18 83 19 84
REMARK SMILES IDX 37 85 20 86 29 87 22 88 23 89 28 90 24 91 27 92 25 93 26 94
REMARK SMILES IDX 21 95 30 97 31 98 36 99 32 100 35 101 33 102 34 103
REMARK H PARENT 94 26 62 37 21 96
REMARK Flexibility Score: inf
ROOT
ATOM      1  C   UNL A   1      35.732  29.897  27.937  1.00  0.00     0.188 C 
ENDROOT
BRANCH   1   2
ATOM      2  C   UNL A   1      35.137  31.304  27.835  1.00  0.00     0.188 C 
BRANCH   2   3
ATOM      3  O   UNL A   1      34.667  31.707  29.120  1.00  0.00    -0.376 OA
BRANCH   3   4
ATOM      4  C   UNL A   1      35.375  32.771  29.742  1.00  0.00     0.202 C 
BRANCH   4   5
ATOM      5  C   UNL A   1      36.740  32.361  30.291  1.00  0.00     0.261 C 
BRANCH   5   6
ATOM      6  O   UNL A   1      37.037  32.998  31.541  1.00  0.00    -0.460 OA
BRANCH   6   7
ATOM      7  C   UNL A   1      37.834  34.081  31.726  1.00  0.00     0.338 C 
ATOM      8  O   UNL A   1      37.556  34.874  32.624  1.00  0.00    -0.246 OA
BRANCH   7   9
ATOM      9  C   UNL A   1      39.079  34.319  30.936  1.00  0.00     0.060 A 
ATOM     10  C   UNL A   1      39.107  34.686  29.588  1.00  0.00     0.016 A 
ATOM     11  C   UNL A   1      40.296  34.275  31.630  1.00  0.00     0.016 A 
ATOM     12  C   UNL A   1      40.301  34.918  28.918  1.00  0.00     0.010 A 
ATOM     13  C   UNL A   1      41.499  34.564  30.978  1.00  0.00     0.010 A 
ATOM     14  C   UNL A   1      41.505  34.866  29.610  1.00  0.00    -0.014 A 
BRANCH  14  15
ATOM     15  C   UNL A   1      42.765  35.054  28.868  1.00  0.00     0.031 A 
ATOM     16  C   UNL A   1      43.641  33.861  28.643  1.00  0.00     0.074 A 
ATOM     17  C   UNL A   1      43.082  36.265  28.372  1.00  0.00     0.049 A 
ATOM     18  N   UNL A   1      44.843  33.802  28.141  1.00  0.00    -0.248 NA
ATOM     19  C   UNL A   1      43.086  32.552  29.036  1.00  0.00     0.031 C 
ATOM     20  C   UNL A   1      42.247  37.465  28.474  1.00  0.00     0.029 A 
ATOM     21  N   UNL A   1      44.194  36.692  27.694  1.00  0.00    -0.354 N 
ATOM     22  C   UNL A   1      45.219  32.469  28.231  1.00  0.00     0.074 A 
ATOM     23  C   UNL A   1      44.107  31.742  28.799  1.00  0.00     0.031 C 
ATOM     24  C   UNL A   1      42.883  38.496  27.892  1.00  0.00     0.029 A 
ATOM     25  C   UNL A   1      44.196  38.046  27.444  1.00  0.00     0.049 A 
ATOM     26  H   UNL A   1      44.921  36.090  27.414  1.00  0.00     0.167 HD
ATOM     27  C   UNL A   1      46.399  31.912  27.881  1.00  0.00     0.034 A 
ATOM     28  C   UNL A   1      45.175  38.836  26.962  1.00  0.00     0.034 A 
ATOM     29  C   UNL A   1      47.471  32.652  27.282  1.00  0.00     0.049 A 
ATOM     30  C   UNL A   1      46.489  38.191  26.609  1.00  0.00     0.074 A 
ATOM     31  C   UNL A   1      48.706  32.196  26.863  1.00  0.00     0.029 A 
ATOM     32  N   UNL A   1      47.433  34.016  27.025  1.00  0.00    -0.354 N 
ATOM     33  N   UNL A   1      46.818  36.920  26.642  1.00  0.00    -0.248 NA
ATOM     34  C   UNL A   1      47.569  39.079  26.158  1.00  0.00     0.031 C 
ATOM     35  C   UNL A   1      49.425  33.293  26.377  1.00  0.00     0.029 A 
ATOM     36  C   UNL A   1      48.631  34.427  26.477  1.00  0.00     0.049 A 
ATOM     37  H   UNL A   1      46.663  34.603  27.208  1.00  0.00     0.167 HD
ATOM     38  C   UNL A   1      48.138  36.856  26.213  1.00  0.00     0.074 A 
ATOM     39  C   UNL A   1      48.535  38.211  25.887  1.00  0.00     0.031 C 
ATOM     40  C   UNL A   1      48.964  35.783  26.125  1.00  0.00     0.034 A 
BRANCH  27  41
ATOM     41  C   UNL A   1      46.591  30.451  28.168  1.00  0.00     0.023 A 
ATOM     42  C   UNL A   1      47.156  30.036  29.390  1.00  0.00     0.012 A 
ATOM     43  C   UNL A   1      46.192  29.485  27.224  1.00  0.00     0.148 A 
ATOM     44  C   UNL A   1      47.342  28.680  29.657  1.00  0.00     0.002 A 
ATOM     45  C   UNL A   1      46.349  28.136  27.510  1.00  0.00     0.091 A 
ATOM     46  F   UNL A   1      45.680  29.907  26.058  1.00  0.00    -0.205 F 
ATOM     47  C   UNL A   1      46.932  27.731  28.723  1.00  0.00     0.022 A 
BRANCH  45  48
ATOM     48  S   UNL A   1      45.817  26.836  26.393  1.00  0.00     0.127 S 
ATOM     49  O   UNL A   1      46.449  27.246  25.140  1.00  0.00    -0.237 OA
ATOM     50  O   UNL A   1      46.403  25.646  27.011  1.00  0.00    -0.237 OA
ATOM     51  O   UNL A   1      44.362  26.873  26.391  1.00  0.00    -0.744 OA
ENDBRANCH  45  48
ENDBRANCH  27  41
BRANCH  28  52
ATOM     52  C   UNL A   1      44.967  40.309  26.823  1.00  0.00     0.023 A 
ATOM     53  C   UNL A   1      44.336  40.822  25.674  1.00  0.00     0.012 A 
ATOM     54  C   UNL A   1      45.385  41.206  27.827  1.00  0.00     0.148 A 
ATOM     55  C   UNL A   1      44.151  42.199  25.516  1.00  0.00     0.002 A 
ATOM     56  C   UNL A   1      45.139  42.569  27.692  1.00  0.00     0.091 A 
ATOM     57  F   UNL A   1      46.016  40.714  28.903  1.00  0.00    -0.205 F 
ATOM     58  C   UNL A   1      44.541  43.071  26.529  1.00  0.00     0.022 A 
BRANCH  56  59
ATOM     59  S   UNL A   1      45.479  43.722  29.029  1.00  0.00     0.127 S 
ATOM     60  O   UNL A   1      46.598  43.077  29.709  1.00  0.00    -0.237 OA
ATOM     61  O   UNL A   1      45.822  44.948  28.304  1.00  0.00    -0.237 OA
ATOM     62  O   UNL A   1      44.231  43.810  29.777  1.00  0.00    -0.744 OA
ENDBRANCH  56  59
ENDBRANCH  28  52
BRANCH  40  63
ATOM     63  C   UNL A   1      50.370  36.035  25.661  1.00  0.00     0.023 A 
ATOM     64  C   UNL A   1      50.640  36.088  24.280  1.00  0.00     0.012 A 
ATOM     65  C   UNL A   1      51.389  36.329  26.585  1.00  0.00     0.148 A 
ATOM     66  C   UNL A   1      51.914  36.413  23.824  1.00  0.00     0.002 A 
ATOM     67  C   UNL A   1      52.644  36.701  26.122  1.00  0.00     0.091 A 
ATOM     68  F   UNL A   1      51.108  36.254  27.894  1.00  0.00    -0.205 F 
ATOM     69  C   UNL A   1      52.911  36.735  24.744  1.00  0.00     0.022 A 
BRANCH  67  70
ATOM     70  S   UNL A   1      53.953  37.234  27.230  1.00  0.00     0.127 S 
ATOM     71  O   UNL A   1      54.936  37.773  26.292  1.00  0.00    -0.237 OA
ATOM     72  O   UNL A   1      53.276  38.239  28.050  1.00  0.00    -0.237 OA
ATOM     73  O   UNL A   1      54.371  36.044  27.957  1.00  0.00    -0.744 OA
ENDBRANCH  67  70
ENDBRANCH  40  63
ENDBRANCH  14  15
ENDBRANCH   7   9
ENDBRANCH   6   7
ENDBRANCH   5   6
ENDBRANCH   4   5
ENDBRANCH   3   4
ENDBRANCH   2   3
ENDBRANCH   1   2
BRANCH   1  74
ATOM     74  O   UNL A   1      35.144  28.943  27.047  1.00  0.00    -0.377 OA
BRANCH  74  75
ATOM     75  C   UNL A   1      33.984  29.382  26.341  1.00  0.00     0.188 C 
BRANCH  75  76
ATOM     76  C   UNL A   1      33.154  28.357  25.527  1.00  0.00     0.188 C 
BRANCH  76  77
ATOM     77  O   UNL A   1      33.808  27.780  24.397  1.00  0.00    -0.376 OA
BRANCH  77  78
ATOM     78  C   UNL A   1      32.925  27.422  23.326  1.00  0.00     0.202 C 
BRANCH  78  79
ATOM     79  C   UNL A   1      32.002  26.242  23.673  1.00  0.00     0.261 C 
BRANCH  79  80
ATOM     80  O   UNL A   1      32.695  25.016  23.400  1.00  0.00    -0.461 OA
BRANCH  80  81
ATOM     81  C   UNL A   1      33.177  24.229  24.389  1.00  0.00     0.335 C 
ATOM     82  O   UNL A   1      32.525  23.590  25.190  1.00  0.00    -0.249 OA
BRANCH  81  83
ATOM     83  C   UNL A   1      34.708  24.220  24.265  1.00  0.00     0.232 C 
ATOM     84  C   UNL A   1      35.471  24.337  25.562  1.00  0.00     0.087 C 
ATOM     85  O   UNL A   1      35.148  23.027  23.627  1.00  0.00    -0.355 OA
ATOM     86  C   UNL A   1      36.089  22.950  25.841  1.00  0.00     0.123 C 
ATOM     87  C   UNL A   1      35.725  22.119  24.572  1.00  0.00     0.186 C 
BRANCH  86  88
ATOM     88  C   UNL A   1      37.594  23.116  26.142  1.00  0.00    -0.013 A 
ATOM     89  C   UNL A   1      38.455  22.014  25.940  1.00  0.00     0.008 A 
ATOM     90  C   UNL A   1      38.181  24.305  26.612  1.00  0.00     0.008 A 
ATOM     91  C   UNL A   1      39.814  22.073  26.263  1.00  0.00     0.021 A 
ATOM     92  C   UNL A   1      39.542  24.366  26.937  1.00  0.00     0.021 A 
ATOM     93  C   UNL A   1      40.351  23.248  26.772  1.00  0.00     0.041 A 
ATOM     94  Cl  UNL A   1      42.018  23.323  27.187  1.00  0.00    -0.084 Cl
ENDBRANCH  86  88
BRANCH  86  95
ATOM     95  O   UNL A   1      35.531  22.420  27.045  1.00  0.00    -0.382 OA
ATOM     96  H   UNL A   1      34.620  22.735  27.144  1.00  0.00     0.212 HD
ENDBRANCH  86  95
BRANCH  87  97
ATOM     97  C   UNL A   1      34.811  20.900  24.638  1.00  0.00    -0.016 A 
ATOM     98  C   UNL A   1      33.417  20.976  24.499  1.00  0.00     0.008 A 
ATOM     99  C   UNL A   1      35.386  19.616  24.712  1.00  0.00     0.008 A 
ATOM    100  C   UNL A   1      32.628  19.824  24.401  1.00  0.00     0.021 A 
ATOM    101  C   UNL A   1      34.600  18.461  24.626  1.00  0.00     0.021 A 
ATOM    102  C   UNL A   1      33.223  18.570  24.460  1.00  0.00     0.041 A 
ATOM    103  Cl  UNL A   1      32.258  17.156  24.315  1.00  0.00    -0.084 Cl
ENDBRANCH  87  97
ENDBRANCH  81  83
ENDBRANCH  80  81
ENDBRANCH  79  80
ENDBRANCH  78  79
ENDBRANCH  77  78
ENDBRANCH  76  77
ENDBRANCH  75  76
ENDBRANCH  74  75
ENDBRANCH   1  74
TORSDOF 26
ENDMDL
MODEL 2
REMARK VINA RESULT:      -9.1      4.156      9.694
REMARK SMILES O=C(OCCOCCOCCOCCOC(=O)[C@H]1C[C@](O)(c2ccc(Cl)cc2)[C@@H](c2ccc(Cl)cc2)O1)c1ccc(-c2c3nc(c(-c4cccc(S(=O)(=O)[O-])c4F)c4ccc([nH]4)c(-c4cccc(S(=O)(=O)[O-])c4F)c4nc(c(-c5cccc(S(=O)(=O)[O-])c5F)c5ccc2[nH]5)C=C4)C=C3)cc1
REMARK SMILES IDX 8 1 7 2 6 3 5 4 4 5 3 6 2 7 1 8 38 9 39 10 100 11 40 12
REMARK SMILES IDX 99 13 41 14 42 15 43 16 93 17 44 18 98 19 92 20 94 21 45 22
REMARK SMILES IDX 97 23 91 24 90 25 46 27 78 28 58 29 77 30 59 31 62 32 76 33
REMARK SMILES IDX 95 34 60 35 61 36 75 38 96 39 63 40 47 41 48 42 56 43 49 44
REMARK SMILES IDX 51 45 57 46 50 47 52 48 53 49 54 50 55 51 79 52 80 53 88 54
REMARK SMILES IDX 81 55 83 56 89 57 82 58 84 59 85 60 86 61 87 62 64 63 65 64
REMARK SMILES IDX 73 65 66 66 68 67 74 68 67 69 69 70 70 71 71 72 72 73 9 74
REMARK SMILES IDX 10 75 11 76 12 77 13 78 14 79 15 80 16 81 17 82 18 83 19 84
REMARK SMILES IDX 37 85 20 86 29 87 22 88 23 89 28 90 24 91 27 92 25 93 26 94
REMARK SMILES IDX 21 95 30 97 31 98 36 99 32 100 35 101 33 102 34 103
REMARK H PARENT 94 26 62 37 21 96
REMARK Flexibility Score: inf
ROOT
ATOM      1  C   UNL A   1      38.776  27.520  29.695  1.00  0.00     0.188 C 
ENDROOT
BRANCH   1   2
ATOM      2  C   UNL A   1      39.990  27.034  28.899  1.00  0.00     0.188 C 
BRANCH   2   3
ATOM      3  O   UNL A   1      39.646  25.837  28.204  1.00  0.00    -0.376 OA
BRANCH   3   4
ATOM      4  C   UNL A   1      40.593  25.366  27.256  1.00  0.00     0.202 C 
BRANCH   4   5
ATOM      5  C   UNL A   1      40.679  23.843  27.178  1.00  0.00     0.261 C 
BRANCH   5   6
ATOM      6  O   UNL A   1      42.033  23.373  27.181  1.00  0.00    -0.460 OA
BRANCH   6   7
ATOM      7  C   UNL A   1      42.993  23.678  28.092  1.00  0.00     0.338 C 
ATOM      8  O   UNL A   1      43.110  22.966  29.088  1.00  0.00    -0.246 OA
BRANCH   7   9
ATOM      9  C   UNL A   1      43.963  24.797  27.907  1.00  0.00     0.060 A 
ATOM     10  C   UNL A   1      44.416  25.260  26.668  1.00  0.00     0.016 A 
ATOM     11  C   UNL A   1      44.359  25.498  29.054  1.00  0.00     0.016 A 
ATOM     12  C   UNL A   1      45.301  26.325  26.564  1.00  0.00     0.010 A 
ATOM     13  C   UNL A   1      45.204  26.607  28.955  1.00  0.00     0.010 A 
ATOM     14  C   UNL A   1      45.695  27.011  27.707  1.00  0.00    -0.014 A 
BRANCH  14  15
ATOM     15  C   UNL A   1      46.683  28.099  27.581  1.00  0.00     0.031 A 
ATOM     16  C   UNL A   1      46.179  29.496  27.392  1.00  0.00     0.074 A 
ATOM     17  C   UNL A   1      47.999  27.832  27.683  1.00  0.00     0.049 A 
ATOM     18  N   UNL A   1      46.845  30.586  27.128  1.00  0.00    -0.248 NA
ATOM     19  C   UNL A   1      44.722  29.695  27.519  1.00  0.00     0.031 C 
ATOM     20  C   UNL A   1      48.575  26.511  27.949  1.00  0.00     0.029 A 
ATOM     21  N   UNL A   1      49.090  28.652  27.564  1.00  0.00    -0.354 N 
ATOM     22  C   UNL A   1      45.888  31.580  26.978  1.00  0.00     0.074 A 
ATOM     23  C   UNL A   1      44.596  30.979  27.218  1.00  0.00     0.031 C 
ATOM     24  C   UNL A   1      49.915  26.609  27.959  1.00  0.00     0.029 A 
ATOM     25  C   UNL A   1      50.290  27.978  27.629  1.00  0.00     0.049 A 
ATOM     26  H   UNL A   1      49.024  29.627  27.444  1.00  0.00     0.167 HD
ATOM     27  C   UNL A   1      46.080  32.878  26.654  1.00  0.00     0.034 A 
ATOM     28  C   UNL A   1      51.542  28.415  27.389  1.00  0.00     0.034 A 
ATOM     29  C   UNL A   1      47.378  33.456  26.461  1.00  0.00     0.049 A 
ATOM     30  C   UNL A   1      51.720  29.859  27.000  1.00  0.00     0.074 A 
ATOM     31  C   UNL A   1      47.702  34.763  26.152  1.00  0.00     0.029 A 
ATOM     32  N   UNL A   1      48.570  32.751  26.553  1.00  0.00    -0.354 N 
ATOM     33  N   UNL A   1      50.816  30.807  26.916  1.00  0.00    -0.248 NA
ATOM     34  C   UNL A   1      53.082  30.296  26.666  1.00  0.00     0.031 C 
ATOM     35  C   UNL A   1      49.093  34.840  26.030  1.00  0.00     0.029 A 
ATOM     36  C   UNL A   1      49.634  33.588  26.281  1.00  0.00     0.049 A 
ATOM     37  H   UNL A   1      48.645  31.795  26.779  1.00  0.00     0.167 HD
ATOM     38  C   UNL A   1      51.499  31.952  26.527  1.00  0.00     0.074 A 
ATOM     39  C   UNL A   1      52.899  31.588  26.430  1.00  0.00     0.031 C 
ATOM     40  C   UNL A   1      51.017  33.188  26.242  1.00  0.00     0.034 A 
BRANCH  27  41
ATOM     41  C   UNL A   1      44.862  33.734  26.460  1.00  0.00     0.023 A 
ATOM     42  C   UNL A   1      44.213  33.772  25.211  1.00  0.00     0.012 A 
ATOM     43  C   UNL A   1      44.351  34.491  27.532  1.00  0.00     0.148 A 
ATOM     44  C   UNL A   1      43.085  34.572  25.025  1.00  0.00     0.002 A 
ATOM     45  C   UNL A   1      43.208  35.259  27.350  1.00  0.00     0.091 A 
ATOM     46  F   UNL A   1      45.002  34.456  28.704  1.00  0.00    -0.205 F 
ATOM     47  C   UNL A   1      42.579  35.307  26.095  1.00  0.00     0.022 A 
BRANCH  45  48
ATOM     48  S   UNL A   1      42.453  36.208  28.673  1.00  0.00     0.127 S 
ATOM     49  O   UNL A   1      42.027  37.415  27.964  1.00  0.00    -0.237 OA
ATOM     50  O   UNL A   1      41.361  35.330  29.091  1.00  0.00    -0.237 OA
ATOM     51  O   UNL A   1      43.493  36.413  29.670  1.00  0.00    -0.744 OA
ENDBRANCH  45  48
ENDBRANCH  27  41
BRANCH  28  52
ATOM     52  C   UNL A   1      52.703  27.479  27.468  1.00  0.00     0.023 A 
ATOM     53  C   UNL A   1      53.318  27.230  28.710  1.00  0.00     0.012 A 
ATOM     54  C   UNL A   1      53.200  26.826  26.321  1.00  0.00     0.148 A 
ATOM     55  C   UNL A   1      54.419  26.374  28.803  1.00  0.00     0.002 A 
ATOM     56  C   UNL A   1      54.255  25.927  26.431  1.00  0.00     0.091 A 
ATOM     57  F   UNL A   1      52.632  27.095  25.137  1.00  0.00    -0.205 F 
ATOM     58  C   UNL A   1      54.880  25.713  27.667  1.00  0.00     0.022 A 
BRANCH  56  59
ATOM     59  S   UNL A   1      54.791  24.931  25.034  1.00  0.00     0.127 S 
ATOM     60  O   UNL A   1      55.859  24.131  25.624  1.00  0.00    -0.237 OA
ATOM     61  O   UNL A   1      53.576  24.185  24.697  1.00  0.00    -0.237 OA
ATOM     62  O   UNL A   1      55.192  25.895  24.016  1.00  0.00    -0.744 OA
ENDBRANCH  56  59
ENDBRANCH  28  52
BRANCH  40  63
ATOM     63  C   UNL A   1      52.008  34.227  25.800  1.00  0.00     0.023 A 
ATOM     64  C   UNL A   1      52.248  34.408  24.424  1.00  0.00     0.012 A 
ATOM     65  C   UNL A   1      52.609  35.090  26.735  1.00  0.00     0.148 A 
ATOM     66  C   UNL A   1      53.089  35.426  23.985  1.00  0.00     0.002 A 
ATOM     67  C   UNL A   1      53.407  36.133  26.286  1.00  0.00     0.091 A 
ATOM     68  F   UNL A   1      52.377  34.882  28.039  1.00  0.00    -0.205 F 
ATOM     69  C   UNL A   1      53.655  36.298  24.914  1.00  0.00     0.022 A 
BRANCH  67  70
ATOM     70  S   UNL A   1      54.088  37.364  27.402  1.00  0.00     0.127 S 
ATOM     71  O   UNL A   1      54.962  36.550  28.245  1.00  0.00    -0.237 OA
ATOM     72  O   UNL A   1      54.789  38.262  26.483  1.00  0.00    -0.237 OA
ATOM     73  O   UNL A   1      52.948  37.965  28.080  1.00  0.00    -0.744 OA
ENDBRANCH  67  70
ENDBRANCH  40  63
ENDBRANCH  14  15
ENDBRANCH   7   9
ENDBRANCH   6   7
ENDBRANCH   5   6
ENDBRANCH   4   5
ENDBRANCH   3   4
ENDBRANCH   2   3
ENDBRANCH   1   2
BRANCH   1  74
ATOM     74  O   UNL A   1      38.511  28.920  29.568  1.00  0.00    -0.377 OA
BRANCH  74  75
ATOM     75  C   UNL A   1      37.238  29.359  30.039  1.00  0.00     0.188 C 
BRANCH  75  76
ATOM     76  C   UNL A   1      36.536  30.550  29.338  1.00  0.00     0.188 C 
BRANCH  76  77
ATOM     77  O   UNL A   1      35.854  30.245  28.122  1.00  0.00    -0.376 OA
BRANCH  77  78
ATOM     78  C   UNL A   1      35.015  31.302  27.637  1.00  0.00     0.202 C 
BRANCH  78  79
ATOM     79  C   UNL A   1      33.550  30.872  27.450  1.00  0.00     0.261 C 
BRANCH  79  80
ATOM     80  O   UNL A   1      33.517  29.662  26.682  1.00  0.00    -0.461 OA
BRANCH  80  81
ATOM     81  C   UNL A   1      32.598  28.694  26.907  1.00  0.00     0.335 C 
ATOM     82  O   UNL A   1      31.580  28.800  27.562  1.00  0.00    -0.249 OA
BRANCH  81  83
ATOM     83  C   UNL A   1      33.029  27.454  26.110  1.00  0.00     0.232 C 
ATOM     84  C   UNL A   1      32.305  26.174  26.447  1.00  0.00     0.087 C 
ATOM     85  O   UNL A   1      32.859  27.676  24.715  1.00  0.00    -0.355 OA
ATOM     86  C   UNL A   1      31.369  25.867  25.259  1.00  0.00     0.123 C 
ATOM     87  C   UNL A   1      31.715  26.974  24.216  1.00  0.00     0.186 C 
BRANCH  86  88
ATOM     88  C   UNL A   1      31.585  24.408  24.806  1.00  0.00    -0.013 A 
ATOM     89  C   UNL A   1      32.307  23.531  25.647  1.00  0.00     0.008 A 
ATOM     90  C   UNL A   1      31.106  23.876  23.594  1.00  0.00     0.008 A 
ATOM     91  C   UNL A   1      32.602  22.220  25.265  1.00  0.00     0.021 A 
ATOM     92  C   UNL A   1      31.402  22.562  23.208  1.00  0.00     0.021 A 
ATOM     93  C   UNL A   1      32.157  21.743  24.039  1.00  0.00     0.041 A 
ATOM     94  Cl  UNL A   1      32.530  20.135  23.554  1.00  0.00    -0.084 Cl
ENDBRANCH  86  88
BRANCH  86  95
ATOM     95  O   UNL A   1      30.012  25.913  25.705  1.00  0.00    -0.382 OA
ATOM     96  H   UNL A   1      29.971  25.667  26.642  1.00  0.00     0.212 HD
ENDBRANCH  86  95
BRANCH  87  97
ATOM     97  C   UNL A   1      30.699  28.024  23.783  1.00  0.00    -0.016 A 
ATOM     98  C   UNL A   1      29.472  27.704  23.180  1.00  0.00     0.008 A 
ATOM     99  C   UNL A   1      30.927  29.375  24.110  1.00  0.00     0.008 A 
ATOM    100  C   UNL A   1      28.496  28.680  22.946  1.00  0.00     0.021 A 
ATOM    101  C   UNL A   1      29.958  30.356  23.866  1.00  0.00     0.021 A 
ATOM    102  C   UNL A   1      28.741  30.002  23.294  1.00  0.00     0.041 A 
ATOM    103  Cl  UNL A   1      27.534  31.195  23.028  1.00  0.00    -0.084 Cl
ENDBRANCH  87  97
ENDBRANCH  81  83
ENDBRANCH  80  81
ENDBRANCH  79  80
ENDBRANCH  78  79
ENDBRANCH  77  78
ENDBRANCH  76  77
ENDBRANCH  75  76
ENDBRANCH  74  75
ENDBRANCH   1  74
TORSDOF 26
ENDMDL
MODEL 3
REMARK VINA RESULT:      -9.1      4.810      7.943
REMARK SMILES O=C(OCCOCCOCCOCCOC(=O)[C@H]1C[C@](O)(c2ccc(Cl)cc2)[C@@H](c2ccc(Cl)cc2)O1)c1ccc(-c2c3nc(c(-c4cccc(S(=O)(=O)[O-])c4F)c4ccc([nH]4)c(-c4cccc(S(=O)(=O)[O-])c4F)c4nc(c(-c5cccc(S(=O)(=O)[O-])c5F)c5ccc2[nH]5)C=C4)C=C3)cc1
REMARK SMILES IDX 8 1 7 2 6 3 5 4 4 5 3 6 2 7 1 8 38 9 39 10 100 11 40 12
REMARK SMILES IDX 99 13 41 14 42 15 43 16 93 17 44 18 98 19 92 20 94 21 45 22
REMARK SMILES IDX 97 23 91 24 90 25 46 27 78 28 58 29 77 30 59 31 62 32 76 33
REMARK SMILES IDX 95 34 60 35 61 36 75 38 96 39 63 40 47 41 48 42 56 43 49 44
REMARK SMILES IDX 51 45 57 46 50 47 52 48 53 49 54 50 55 51 79 52 80 53 88 54
REMARK SMILES IDX 81 55 83 56 89 57 82 58 84 59 85 60 86 61 87 62 64 63 65 64
REMARK SMILES IDX 73 65 66 66 68 67 74 68 67 69 69 70 70 71 71 72 72 73 9 74
REMARK SMILES IDX 10 75 11 76 12 77 13 78 14 79 15 80 16 81 17 82 18 83 19 84
REMARK SMILES IDX 37 85 20 86 29 87 22 88 23 89 28 90 24 91 27 92 25 93 26 94
REMARK SMILES IDX 21 95 30 97 31 98 36 99 32 100 35 101 33 102 34 103
REMARK H PARENT 94 26 62 37 21 96
REMARK Flexibility Score: inf
ROOT
ATOM      1  C   UNL A   1      35.312  33.042  31.150  1.00  0.00     0.188 C 
ENDROOT
BRANCH   1   2
ATOM      2  C   UNL A   1      36.216  33.818  32.112  1.00  0.00     0.188 C 
BRANCH   2   3
ATOM      3  O   UNL A   1      35.971  33.374  33.445  1.00  0.00    -0.376 OA
BRANCH   3   4
ATOM      4  C   UNL A   1      36.412  34.236  34.485  1.00  0.00     0.202 C 
BRANCH   4   5
ATOM      5  C   UNL A   1      37.120  33.508  35.626  1.00  0.00     0.261 C 
BRANCH   5   6
ATOM      6  O   UNL A   1      37.161  32.089  35.424  1.00  0.00    -0.460 OA
BRANCH   6   7
ATOM      7  C   UNL A   1      38.115  31.235  35.875  1.00  0.00     0.338 C 
ATOM      8  O   UNL A   1      37.943  30.673  36.955  1.00  0.00    -0.246 OA
BRANCH   7   9
ATOM      9  C   UNL A   1      39.335  30.889  35.086  1.00  0.00     0.060 A 
ATOM     10  C   UNL A   1      40.614  31.392  35.339  1.00  0.00     0.016 A 
ATOM     11  C   UNL A   1      39.199  29.908  34.095  1.00  0.00     0.016 A 
ATOM     12  C   UNL A   1      41.713  31.009  34.582  1.00  0.00     0.010 A 
ATOM     13  C   UNL A   1      40.311  29.473  33.366  1.00  0.00     0.010 A 
ATOM     14  C   UNL A   1      41.571  30.041  33.595  1.00  0.00    -0.014 A 
BRANCH  14  15
ATOM     15  C   UNL A   1      42.737  29.693  32.762  1.00  0.00     0.031 A 
ATOM     16  C   UNL A   1      43.594  28.542  33.188  1.00  0.00     0.074 A 
ATOM     17  C   UNL A   1      42.983  30.373  31.627  1.00  0.00     0.049 A 
ATOM     18  N   UNL A   1      44.732  28.134  32.699  1.00  0.00    -0.248 NA
ATOM     19  C   UNL A   1      43.101  27.735  34.321  1.00  0.00     0.031 C 
ATOM     20  C   UNL A   1      42.152  31.457  31.094  1.00  0.00     0.029 A 
ATOM     21  N   UNL A   1      44.006  30.264  30.722  1.00  0.00    -0.354 N 
ATOM     22  C   UNL A   1      45.130  27.080  33.510  1.00  0.00     0.074 A 
ATOM     23  C   UNL A   1      44.097  26.880  34.500  1.00  0.00     0.031 C 
ATOM     24  C   UNL A   1      42.708  31.922  29.962  1.00  0.00     0.029 A 
ATOM     25  C   UNL A   1      43.965  31.221  29.732  1.00  0.00     0.049 A 
ATOM     26  H   UNL A   1      44.703  29.571  30.774  1.00  0.00     0.167 HD
ATOM     27  C   UNL A   1      46.269  26.356  33.435  1.00  0.00     0.034 A 
ATOM     28  C   UNL A   1      44.875  31.529  28.787  1.00  0.00     0.034 A 
ATOM     29  C   UNL A   1      47.258  26.551  32.415  1.00  0.00     0.049 A 
ATOM     30  C   UNL A   1      46.148  30.724  28.749  1.00  0.00     0.074 A 
ATOM     31  C   UNL A   1      48.442  25.867  32.220  1.00  0.00     0.029 A 
ATOM     32  N   UNL A   1      47.176  27.514  31.419  1.00  0.00    -0.354 N 
ATOM     33  N   UNL A   1      46.492  29.691  29.482  1.00  0.00    -0.248 NA
ATOM     34  C   UNL A   1      47.160  31.124  27.762  1.00  0.00     0.031 C 
ATOM     35  C   UNL A   1      49.090  26.437  31.120  1.00  0.00     0.029 A 
ATOM     36  C   UNL A   1      48.301  27.462  30.619  1.00  0.00     0.049 A 
ATOM     37  H   UNL A   1      46.426  28.142  31.301  1.00  0.00     0.167 HD
ATOM     38  C   UNL A   1      47.755  29.314  29.043  1.00  0.00     0.074 A 
ATOM     39  C   UNL A   1      48.098  30.205  27.953  1.00  0.00     0.031 C 
ATOM     40  C   UNL A   1      48.577  28.343  29.514  1.00  0.00     0.034 A 
BRANCH  27  41
ATOM     41  C   UNL A   1      46.507  25.323  34.497  1.00  0.00     0.023 A 
ATOM     42  C   UNL A   1      47.141  25.679  35.703  1.00  0.00     0.012 A 
ATOM     43  C   UNL A   1      46.083  23.995  34.300  1.00  0.00     0.148 A 
ATOM     44  C   UNL A   1      47.371  24.719  36.690  1.00  0.00     0.002 A 
ATOM     45  C   UNL A   1      46.285  23.052  35.300  1.00  0.00     0.091 A 
ATOM     46  F   UNL A   1      45.504  23.677  33.133  1.00  0.00    -0.205 F 
ATOM     47  C   UNL A   1      46.935  23.411  36.492  1.00  0.00     0.022 A 
BRANCH  45  48
ATOM     48  S   UNL A   1      45.726  21.352  35.161  1.00  0.00     0.127 S 
ATOM     49  O   UNL A   1      44.314  21.532  34.824  1.00  0.00    -0.237 OA
ATOM     50  O   UNL A   1      46.555  20.849  34.066  1.00  0.00    -0.237 OA
ATOM     51  O   UNL A   1      45.977  20.735  36.455  1.00  0.00    -0.744 OA
ENDBRANCH  45  48
ENDBRANCH  27  41
BRANCH  28  52
ATOM     52  C   UNL A   1      44.638  32.659  27.840  1.00  0.00     0.023 A 
ATOM     53  C   UNL A   1      44.223  32.392  26.521  1.00  0.00     0.012 A 
ATOM     54  C   UNL A   1      44.813  34.000  28.238  1.00  0.00     0.148 A 
ATOM     55  C   UNL A   1      44.015  33.434  25.613  1.00  0.00     0.002 A 
ATOM     56  C   UNL A   1      44.543  35.034  27.349  1.00  0.00     0.091 A 
ATOM     57  F   UNL A   1      45.242  34.246  29.485  1.00  0.00    -0.205 F 
ATOM     58  C   UNL A   1      44.163  34.755  26.030  1.00  0.00     0.022 A 
BRANCH  56  59
ATOM     59  S   UNL A   1      44.567  36.754  27.871  1.00  0.00     0.127 S 
ATOM     60  O   UNL A   1      45.926  36.896  28.383  1.00  0.00    -0.237 OA
ATOM     61  O   UNL A   1      44.303  37.465  26.618  1.00  0.00    -0.237 OA
ATOM     62  O   UNL A   1      43.492  36.865  28.849  1.00  0.00    -0.744 OA
ENDBRANCH  56  59
ENDBRANCH  28  52
BRANCH  40  63
ATOM     63  C   UNL A   1      49.919  28.199  28.854  1.00  0.00     0.023 A 
ATOM     64  C   UNL A   1      51.052  28.766  29.468  1.00  0.00     0.012 A 
ATOM     65  C   UNL A   1      50.069  27.413  27.697  1.00  0.00     0.148 A 
ATOM     66  C   UNL A   1      52.319  28.566  28.928  1.00  0.00     0.002 A 
ATOM     67  C   UNL A   1      51.341  27.178  27.193  1.00  0.00     0.091 A 
ATOM     68  F   UNL A   1      48.970  26.901  27.123  1.00  0.00    -0.205 F 
ATOM     69  C   UNL A   1      52.465  27.760  27.800  1.00  0.00     0.022 A 
BRANCH  67  70
ATOM     70  S   UNL A   1      51.631  26.068  25.811  1.00  0.00     0.127 S 
ATOM     71  O   UNL A   1      50.386  26.200  25.057  1.00  0.00    -0.237 OA
ATOM     72  O   UNL A   1      52.800  26.670  25.170  1.00  0.00    -0.237 OA
ATOM     73  O   UNL A   1      51.871  24.755  26.394  1.00  0.00    -0.744 OA
ENDBRANCH  67  70
ENDBRANCH  40  63
ENDBRANCH  14  15
ENDBRANCH   7   9
ENDBRANCH   6   7
ENDBRANCH   5   6
ENDBRANCH   4   5
ENDBRANCH   3   4
ENDBRANCH   2   3
ENDBRANCH   1   2
BRANCH   1  74
ATOM     74  O   UNL A   1      34.179  33.780  30.684  1.00  0.00    -0.377 OA
BRANCH  74  75
ATOM     75  C   UNL A   1      34.001  33.820  29.268  1.00  0.00     0.188 C 
BRANCH  75  76
ATOM     76  C   UNL A   1      35.233  33.670  28.341  1.00  0.00     0.188 C 
BRANCH  76  77
ATOM     77  O   UNL A   1      35.273  32.490  27.540  1.00  0.00    -0.376 OA
BRANCH  77  78
ATOM     78  C   UNL A   1      34.535  31.386  28.082  1.00  0.00     0.202 C 
BRANCH  78  79
ATOM     79  C   UNL A   1      35.097  30.019  27.661  1.00  0.00     0.261 C 
BRANCH  79  80
ATOM     80  O   UNL A   1      34.005  29.154  27.319  1.00  0.00    -0.461 OA
BRANCH  80  81
ATOM     81  C   UNL A   1      33.461  29.141  26.080  1.00  0.00     0.335 C 
ATOM     82  O   UNL A   1      32.942  30.078  25.507  1.00  0.00    -0.249 OA
BRANCH  81  83
ATOM     83  C   UNL A   1      33.693  27.742  25.490  1.00  0.00     0.232 C 
ATOM     84  C   UNL A   1      33.172  26.589  26.311  1.00  0.00     0.087 C 
ATOM     85  O   UNL A   1      33.096  27.642  24.202  1.00  0.00    -0.355 OA
ATOM     86  C   UNL A   1      31.936  26.037  25.568  1.00  0.00     0.123 C 
ATOM     87  C   UNL A   1      31.892  26.868  24.249  1.00  0.00     0.186 C 
BRANCH  86  88
ATOM     88  C   UNL A   1      32.079  24.508  25.410  1.00  0.00    -0.013 A 
ATOM     89  C   UNL A   1      31.032  23.674  25.863  1.00  0.00     0.008 A 
ATOM     90  C   UNL A   1      33.196  23.873  24.836  1.00  0.00     0.008 A 
ATOM     91  C   UNL A   1      31.129  22.281  25.817  1.00  0.00     0.021 A 
ATOM     92  C   UNL A   1      33.295  22.476  24.791  1.00  0.00     0.021 A 
ATOM     93  C   UNL A   1      32.267  21.686  25.291  1.00  0.00     0.041 A 
ATOM     94  Cl  UNL A   1      32.401  19.972  25.246  1.00  0.00    -0.084 Cl
ENDBRANCH  86  88
BRANCH  86  95
ATOM     95  O   UNL A   1      30.778  26.212  26.387  1.00  0.00    -0.382 OA
ATOM     96  H   UNL A   1      30.540  27.152  26.413  1.00  0.00     0.212 HD
ENDBRANCH  86  95
BRANCH  87  97
ATOM     97  C   UNL A   1      30.740  27.812  23.924  1.00  0.00    -0.016 A 
ATOM     98  C   UNL A   1      30.881  29.207  23.868  1.00  0.00     0.008 A 
ATOM     99  C   UNL A   1      29.500  27.269  23.534  1.00  0.00     0.008 A 
ATOM    100  C   UNL A   1      29.846  30.028  23.408  1.00  0.00     0.021 A 
ATOM    101  C   UNL A   1      28.457  28.089  23.084  1.00  0.00     0.021 A 
ATOM    102  C   UNL A   1      28.638  29.466  23.013  1.00  0.00     0.041 A 
ATOM    103  Cl  UNL A   1      27.376  30.472  22.426  1.00  0.00    -0.084 Cl
ENDBRANCH  87  97
ENDBRANCH  81  83
ENDBRANCH  80  81
ENDBRANCH  79  80
ENDBRANCH  78  79
ENDBRANCH  77  78
ENDBRANCH  76  77
ENDBRANCH  75  76
ENDBRANCH  74  75
ENDBRANCH   1  74
TORSDOF 26
ENDMDL
