MODEL 1
REMARK VINA RESULT:      -8.7      0.000      0.000
REMARK SMILES C[C@](Nc1ccc(C(N)=O)nn1)(C(=O)OCCOCCOCCOCCOC(=O)c1ccc(-c2c3nc(c(-c4cccc(S(=O)(=O)[O-])c4F)c4ccc([nH]4)c(-c4cccc(S(=O)(=O)[O-])c4F)c4nc(c(-c5cccc(S(=O)(=O)[O-])c5F)c5ccc2[nH]5)C=C4)C=C3)cc1)c1ccccc1
REMARK SMILES IDX 21 1 20 2 19 3 18 4 17 5 16 6 15 7 13 8 14 9 2 10 1 11 93 12
REMARK SMILES IDX 94 13 98 14 95 15 97 16 96 17 3 18 4 20 5 21 12 22 6 23
REMARK SMILES IDX 11 24 7 25 8 26 9 27 10 28 22 31 23 32 24 33 25 34 26 35
REMARK SMILES IDX 27 36 28 37 29 38 30 39 31 40 92 41 32 42 91 43 33 44 34 45
REMARK SMILES IDX 35 46 85 47 36 48 90 49 84 50 86 51 37 52 89 53 83 54 82 55
REMARK SMILES IDX 38 57 70 58 50 59 69 60 51 61 54 62 68 63 87 64 52 65 53 66
REMARK SMILES IDX 67 68 88 69 55 70 39 71 40 72 48 73 41 74 43 75 49 76 42 77
REMARK SMILES IDX 44 78 45 79 46 80 47 81 71 82 72 83 80 84 73 85 75 86 81 87
REMARK SMILES IDX 74 88 76 89 77 90 78 91 79 92 56 93 57 94 65 95 58 96 60 97
REMARK SMILES IDX 66 98 59 99 61 100 62 101 63 102 64 103
REMARK H PARENT 3 19 9 29 9 30 86 56 54 67
REMARK Flexibility Score: inf
ROOT
ATOM      1  O   UNL A   1      41.679  20.525  25.821  1.00  0.00    -0.377 OA
ENDROOT
BRANCH   1   2
ATOM      2  C   UNL A   1      40.606  20.754  26.709  1.00  0.00     0.188 C 
BRANCH   2   3
ATOM      3  C   UNL A   1      39.552  21.750  26.180  1.00  0.00     0.188 C 
BRANCH   3   4
ATOM      4  O   UNL A   1      39.631  23.136  26.482  1.00  0.00    -0.376 OA
BRANCH   4   5
ATOM      5  C   UNL A   1      38.449  23.869  26.763  1.00  0.00     0.202 C 
BRANCH   5   6
ATOM      6  C   UNL A   1      37.262  23.889  25.776  1.00  0.00     0.261 C 
BRANCH   6   7
ATOM      7  O   UNL A   1      36.216  22.916  25.955  1.00  0.00    -0.461 OA
BRANCH   7   8
ATOM      8  C   UNL A   1      35.995  22.074  24.912  1.00  0.00     0.336 C 
ATOM      9  O   UNL A   1      36.821  21.887  24.018  1.00  0.00    -0.249 OA
BRANCH   8  10
ATOM     10  C   UNL A   1      34.572  21.392  24.899  1.00  0.00     0.160 C 
ATOM     11  C   UNL A   1      34.306  21.158  26.401  1.00  0.00     0.053 C 
BRANCH  10  12
ATOM     12  C   UNL A   1      33.577  22.403  24.244  1.00  0.00    -0.012 A 
ATOM     13  C   UNL A   1      32.233  22.483  24.638  1.00  0.00     0.007 A 
ATOM     14  C   UNL A   1      34.017  23.358  23.296  1.00  0.00     0.007 A 
ATOM     15  C   UNL A   1      31.381  23.469  24.127  1.00  0.00     0.000 A 
ATOM     16  C   UNL A   1      33.173  24.355  22.799  1.00  0.00     0.000 A 
ATOM     17  C   UNL A   1      31.852  24.411  23.218  1.00  0.00     0.000 A 
ENDBRANCH  10  12
BRANCH  10  18
ATOM     18  N   UNL A   1      34.465  20.121  24.130  1.00  0.00    -0.350 N 
ATOM     19  H   UNL A   1      34.729  20.173  23.184  1.00  0.00     0.163 HD
BRANCH  18  20
ATOM     20  C   UNL A   1      34.045  18.885  24.564  1.00  0.00     0.149 A 
ATOM     21  C   UNL A   1      32.708  18.638  24.853  1.00  0.00     0.051 A 
ATOM     22  N   UNL A   1      34.884  17.834  24.458  1.00  0.00    -0.132 NA
ATOM     23  C   UNL A   1      32.278  17.353  25.178  1.00  0.00     0.040 A 
ATOM     24  N   UNL A   1      34.470  16.539  24.749  1.00  0.00    -0.143 NA
ATOM     25  C   UNL A   1      33.194  16.322  25.126  1.00  0.00     0.150 A 
BRANCH  25  26
ATOM     26  C   UNL A   1      32.774  14.936  25.468  1.00  0.00     0.269 C 
ATOM     27  N   UNL A   1      31.445  14.728  25.706  1.00  0.00    -0.364 N 
ATOM     28  O   UNL A   1      33.591  14.023  25.541  1.00  0.00    -0.268 OA
ATOM     29  H   UNL A   1      30.810  15.477  25.640  1.00  0.00     0.160 HD
ATOM     30  H   UNL A   1      31.122  13.828  25.942  1.00  0.00     0.160 HD
ENDBRANCH  25  26
ENDBRANCH  18  20
ENDBRANCH  10  18
ENDBRANCH   8  10
ENDBRANCH   7   8
ENDBRANCH   6   7
ENDBRANCH   5   6
ENDBRANCH   4   5
ENDBRANCH   3   4
ENDBRANCH   2   3
ENDBRANCH   1   2
BRANCH   1  31
ATOM     31  C   UNL A   1      42.607  21.586  25.694  1.00  0.00     0.188 C 
BRANCH  31  32
ATOM     32  C   UNL A   1      43.351  21.995  26.980  1.00  0.00     0.188 C 
BRANCH  32  33
ATOM     33  O   UNL A   1      44.475  22.843  26.752  1.00  0.00    -0.376 OA
BRANCH  33  34
ATOM     34  C   UNL A   1      44.435  24.186  27.205  1.00  0.00     0.202 C 
BRANCH  34  35
ATOM     35  C   UNL A   1      44.031  24.442  28.667  1.00  0.00     0.261 C 
BRANCH  35  36
ATOM     36  O   UNL A   1      43.794  25.806  29.037  1.00  0.00    -0.460 OA
BRANCH  36  37
ATOM     37  C   UNL A   1      43.147  26.585  28.148  1.00  0.00     0.338 C 
ATOM     38  O   UNL A   1      42.286  26.229  27.358  1.00  0.00    -0.246 OA
BRANCH  37  39
ATOM     39  C   UNL A   1      43.487  27.995  28.431  1.00  0.00     0.060 A 
ATOM     40  C   UNL A   1      44.525  28.257  29.335  1.00  0.00     0.016 A 
ATOM     41  C   UNL A   1      42.798  29.046  27.818  1.00  0.00     0.016 A 
ATOM     42  C   UNL A   1      44.830  29.568  29.685  1.00  0.00     0.010 A 
ATOM     43  C   UNL A   1      43.085  30.362  28.192  1.00  0.00     0.010 A 
ATOM     44  C   UNL A   1      44.061  30.619  29.172  1.00  0.00    -0.014 A 
BRANCH  44  45
ATOM     45  C   UNL A   1      44.103  31.923  29.874  1.00  0.00     0.031 A 
ATOM     46  C   UNL A   1      45.039  32.976  29.340  1.00  0.00     0.074 A 
ATOM     47  C   UNL A   1      43.290  32.197  30.908  1.00  0.00     0.049 A 
ATOM     48  N   UNL A   1      45.218  34.208  29.737  1.00  0.00    -0.248 NA
ATOM     49  C   UNL A   1      45.886  32.587  28.198  1.00  0.00     0.031 C 
ATOM     50  C   UNL A   1      42.325  31.271  31.495  1.00  0.00     0.029 A 
ATOM     51  N   UNL A   1      43.156  33.343  31.650  1.00  0.00    -0.354 N 
ATOM     52  C   UNL A   1      46.218  34.726  28.923  1.00  0.00     0.074 A 
ATOM     53  C   UNL A   1      46.616  33.675  28.015  1.00  0.00     0.031 C 
ATOM     54  C   UNL A   1      41.704  31.883  32.521  1.00  0.00     0.029 A 
ATOM     55  C   UNL A   1      42.244  33.233  32.673  1.00  0.00     0.049 A 
ATOM     56  H   UNL A   1      43.665  34.166  31.469  1.00  0.00     0.167 HD
ATOM     57  C   UNL A   1      46.750  35.970  28.919  1.00  0.00     0.034 A 
ATOM     58  C   UNL A   1      41.898  34.120  33.626  1.00  0.00     0.034 A 
ATOM     59  C   UNL A   1      46.341  37.019  29.810  1.00  0.00     0.049 A 
ATOM     60  C   UNL A   1      42.529  35.490  33.619  1.00  0.00     0.074 A 
ATOM     61  C   UNL A   1      46.781  38.328  29.858  1.00  0.00     0.029 A 
ATOM     62  N   UNL A   1      45.408  36.873  30.825  1.00  0.00    -0.354 N 
ATOM     63  N   UNL A   1      43.393  36.001  32.775  1.00  0.00    -0.248 NA
ATOM     64  C   UNL A   1      42.106  36.420  34.677  1.00  0.00     0.031 C 
ATOM     65  C   UNL A   1      46.152  38.961  30.934  1.00  0.00     0.029 A 
ATOM     66  C   UNL A   1      45.274  38.062  31.519  1.00  0.00     0.049 A 
ATOM     67  H   UNL A   1      44.913  36.044  31.023  1.00  0.00     0.167 HD
ATOM     68  C   UNL A   1      43.579  37.322  33.170  1.00  0.00     0.074 A 
ATOM     69  C   UNL A   1      42.726  37.536  34.321  1.00  0.00     0.031 C 
ATOM     70  C   UNL A   1      44.384  38.273  32.633  1.00  0.00     0.034 A 
BRANCH  57  71
ATOM     71  C   UNL A   1      47.845  36.258  27.925  1.00  0.00     0.023 A 
ATOM     72  C   UNL A   1      47.533  36.783  26.655  1.00  0.00     0.012 A 
ATOM     73  C   UNL A   1      49.193  36.038  28.270  1.00  0.00     0.148 A 
ATOM     74  C   UNL A   1      48.541  37.047  25.729  1.00  0.00     0.002 A 
ATOM     75  C   UNL A   1      50.195  36.352  27.362  1.00  0.00     0.091 A 
ATOM     76  F   UNL A   1      49.468  35.512  29.471  1.00  0.00    -0.205 F 
ATOM     77  C   UNL A   1      49.872  36.843  26.086  1.00  0.00     0.022 A 
BRANCH  75  78
ATOM     78  S   UNL A   1      51.940  36.204  27.760  1.00  0.00     0.127 S 
ATOM     79  O   UNL A   1      51.958  34.973  28.549  1.00  0.00    -0.237 OA
ATOM     80  O   UNL A   1      52.547  36.088  26.434  1.00  0.00    -0.237 OA
ATOM     81  O   UNL A   1      52.292  37.415  28.486  1.00  0.00    -0.744 OA
ENDBRANCH  75  78
ENDBRANCH  57  71
BRANCH  58  82
ATOM     82  C   UNL A   1      40.878  33.761  34.651  1.00  0.00     0.023 A 
ATOM     83  C   UNL A   1      41.287  33.421  35.956  1.00  0.00     0.012 A 
ATOM     84  C   UNL A   1      39.505  33.746  34.338  1.00  0.00     0.148 A 
ATOM     85  C   UNL A   1      40.352  33.038  36.918  1.00  0.00     0.002 A 
ATOM     86  C   UNL A   1      38.575  33.419  35.316  1.00  0.00     0.091 A 
ATOM     87  F   UNL A   1      39.138  34.059  33.087  1.00  0.00    -0.205 F 
ATOM     88  C   UNL A   1      38.997  33.045  36.601  1.00  0.00     0.022 A 
BRANCH  86  89
ATOM     89  S   UNL A   1      36.804  33.513  35.035  1.00  0.00     0.127 S 
ATOM     90  O   UNL A   1      36.278  33.365  36.389  1.00  0.00    -0.237 OA
ATOM     91  O   UNL A   1      36.664  34.852  34.461  1.00  0.00    -0.237 OA
ATOM     92  O   UNL A   1      36.490  32.426  34.117  1.00  0.00    -0.744 OA
ENDBRANCH  86  89
ENDBRANCH  58  82
BRANCH  70  93
ATOM     93  C   UNL A   1      44.339  39.655  33.237  1.00  0.00     0.023 A 
ATOM     94  C   UNL A   1      45.039  39.936  34.426  1.00  0.00     0.012 A 
ATOM     95  C   UNL A   1      43.645  40.693  32.583  1.00  0.00     0.148 A 
ATOM     96  C   UNL A   1      45.010  41.216  34.980  1.00  0.00     0.002 A 
ATOM     97  C   UNL A   1      43.667  41.978  33.110  1.00  0.00     0.091 A 
ATOM     98  F   UNL A   1      42.971  40.404  31.460  1.00  0.00    -0.205 F 
ATOM     99  C   UNL A   1      44.334  42.238  34.318  1.00  0.00     0.022 A 
BRANCH  97 100
ATOM    100  S   UNL A   1      42.914  43.375  32.268  1.00  0.00     0.127 S 
ATOM    101  O   UNL A   1      42.408  44.161  33.390  1.00  0.00    -0.237 OA
ATOM    102  O   UNL A   1      44.056  43.968  31.571  1.00  0.00    -0.237 OA
ATOM    103  O   UNL A   1      41.897  42.813  31.388  1.00  0.00    -0.744 OA
ENDBRANCH  97 100
ENDBRANCH  70  93
ENDBRANCH  44  45
ENDBRANCH  37  39
ENDBRANCH  36  37
ENDBRANCH  35  36
ENDBRANCH  34  35
ENDBRANCH  33  34
ENDBRANCH  32  33
ENDBRANCH  31  32
ENDBRANCH   1  31
TORSDOF 27
ENDMDL
MODEL 2
REMARK VINA RESULT:      -8.2      7.407     11.872
REMARK SMILES C[C@](Nc1ccc(C(N)=O)nn1)(C(=O)OCCOCCOCCOCCOC(=O)c1ccc(-c2c3nc(c(-c4cccc(S(=O)(=O)[O-])c4F)c4ccc([nH]4)c(-c4cccc(S(=O)(=O)[O-])c4F)c4nc(c(-c5cccc(S(=O)(=O)[O-])c5F)c5ccc2[nH]5)C=C4)C=C3)cc1)c1ccccc1
REMARK SMILES IDX 21 1 20 2 19 3 18 4 17 5 16 6 15 7 13 8 14 9 2 10 1 11 93 12
REMARK SMILES IDX 94 13 98 14 95 15 97 16 96 17 3 18 4 20 5 21 12 22 6 23
REMARK SMILES IDX 11 24 7 25 8 26 9 27 10 28 22 31 23 32 24 33 25 34 26 35
REMARK SMILES IDX 27 36 28 37 29 38 30 39 31 40 92 41 32 42 91 43 33 44 34 45
REMARK SMILES IDX 35 46 85 47 36 48 90 49 84 50 86 51 37 52 89 53 83 54 82 55
REMARK SMILES IDX 38 57 70 58 50 59 69 60 51 61 54 62 68 63 87 64 52 65 53 66
REMARK SMILES IDX 67 68 88 69 55 70 39 71 40 72 48 73 41 74 43 75 49 76 42 77
REMARK SMILES IDX 44 78 45 79 46 80 47 81 71 82 72 83 80 84 73 85 75 86 81 87
REMARK SMILES IDX 74 88 76 89 77 90 78 91 79 92 56 93 57 94 65 95 58 96 60 97
REMARK SMILES IDX 66 98 59 99 61 100 62 101 63 102 64 103
REMARK H PARENT 3 19 9 29 9 30 86 56 54 67
REMARK Flexibility Score: inf
ROOT
ATOM      1  O   UNL A   1      37.896  30.674  28.302  1.00  0.00    -0.377 OA
ENDROOT
BRANCH   1   2
ATOM      2  C   UNL A   1      38.973  30.011  28.927  1.00  0.00     0.188 C 
BRANCH   2   3
ATOM      3  C   UNL A   1      38.972  28.480  28.729  1.00  0.00     0.188 C 
BRANCH   3   4
ATOM      4  O   UNL A   1      40.180  27.763  28.519  1.00  0.00    -0.376 OA
BRANCH   4   5
ATOM      5  C   UNL A   1      40.699  27.620  27.206  1.00  0.00     0.202 C 
BRANCH   5   6
ATOM      6  C   UNL A   1      42.101  28.150  26.833  1.00  0.00     0.261 C 
BRANCH   6   7
ATOM      7  O   UNL A   1      43.191  27.211  26.794  1.00  0.00    -0.461 OA
BRANCH   7   8
ATOM      8  C   UNL A   1      43.300  26.464  25.665  1.00  0.00     0.336 C 
ATOM      9  O   UNL A   1      42.651  26.699  24.644  1.00  0.00    -0.249 OA
BRANCH   8  10
ATOM     10  C   UNL A   1      44.282  25.234  25.773  1.00  0.00     0.160 C 
ATOM     11  C   UNL A   1      45.665  25.916  25.777  1.00  0.00     0.053 C 
BRANCH  10  12
ATOM     12  C   UNL A   1      43.953  24.494  27.110  1.00  0.00    -0.012 A 
ATOM     13  C   UNL A   1      44.950  24.169  28.043  1.00  0.00     0.007 A 
ATOM     14  C   UNL A   1      42.618  24.212  27.486  1.00  0.00     0.007 A 
ATOM     15  C   UNL A   1      44.630  23.610  29.286  1.00  0.00     0.000 A 
ATOM     16  C   UNL A   1      42.295  23.672  28.734  1.00  0.00     0.000 A 
ATOM     17  C   UNL A   1      43.304  23.373  29.637  1.00  0.00     0.000 A 
ENDBRANCH  10  12
BRANCH  10  18
ATOM     18  N   UNL A   1      44.183  24.223  24.684  1.00  0.00    -0.350 N 
ATOM     19  H   UNL A   1      43.961  24.577  23.794  1.00  0.00     0.163 HD
BRANCH  18  20
ATOM     20  C   UNL A   1      44.360  22.860  24.757  1.00  0.00     0.149 A 
ATOM     21  C   UNL A   1      45.598  22.308  25.058  1.00  0.00     0.051 A 
ATOM     22  N   UNL A   1      43.273  22.061  24.797  1.00  0.00    -0.132 NA
ATOM     23  C   UNL A   1      45.737  20.935  25.244  1.00  0.00     0.040 A 
ATOM     24  N   UNL A   1      43.383  20.691  25.009  1.00  0.00    -0.143 NA
ATOM     25  C   UNL A   1      44.603  20.149  25.201  1.00  0.00     0.150 A 
BRANCH  25  26
ATOM     26  C   UNL A   1      44.709  18.677  25.393  1.00  0.00     0.269 C 
ATOM     27  N   UNL A   1      45.965  18.139  25.402  1.00  0.00    -0.364 N 
ATOM     28  O   UNL A   1      43.709  17.978  25.527  1.00  0.00    -0.268 OA
ATOM     29  H   UNL A   1      46.751  18.721  25.293  1.00  0.00     0.160 HD
ATOM     30  H   UNL A   1      46.084  17.168  25.519  1.00  0.00     0.160 HD
ENDBRANCH  25  26
ENDBRANCH  18  20
ENDBRANCH  10  18
ENDBRANCH   8  10
ENDBRANCH   7   8
ENDBRANCH   6   7
ENDBRANCH   5   6
ENDBRANCH   4   5
ENDBRANCH   3   4
ENDBRANCH   2   3
ENDBRANCH   1   2
BRANCH   1  31
ATOM     31  C   UNL A   1      36.676  30.674  29.018  1.00  0.00     0.188 C 
BRANCH  31  32
ATOM     32  C   UNL A   1      35.418  31.063  28.218  1.00  0.00     0.188 C 
BRANCH  32  33
ATOM     33  O   UNL A   1      34.517  31.907  28.932  1.00  0.00    -0.376 OA
BRANCH  33  34
ATOM     34  C   UNL A   1      34.580  33.310  28.740  1.00  0.00     0.202 C 
BRANCH  34  35
ATOM     35  C   UNL A   1      35.293  34.153  29.811  1.00  0.00     0.261 C 
BRANCH  35  36
ATOM     36  O   UNL A   1      34.475  34.672  30.867  1.00  0.00    -0.460 OA
BRANCH  36  37
ATOM     37  C   UNL A   1      34.422  33.966  32.014  1.00  0.00     0.338 C 
ATOM     38  O   UNL A   1      33.413  33.607  32.602  1.00  0.00    -0.246 OA
BRANCH  37  39
ATOM     39  C   UNL A   1      35.786  33.499  32.336  1.00  0.00     0.060 A 
ATOM     40  C   UNL A   1      35.945  32.180  32.783  1.00  0.00     0.016 A 
ATOM     41  C   UNL A   1      36.893  34.341  32.203  1.00  0.00     0.016 A 
ATOM     42  C   UNL A   1      37.200  31.721  33.167  1.00  0.00     0.010 A 
ATOM     43  C   UNL A   1      38.150  33.888  32.615  1.00  0.00     0.010 A 
ATOM     44  C   UNL A   1      38.292  32.596  33.155  1.00  0.00    -0.014 A 
BRANCH  44  45
ATOM     45  C   UNL A   1      39.483  32.240  33.960  1.00  0.00     0.031 A 
ATOM     46  C   UNL A   1      39.560  32.769  35.369  1.00  0.00     0.074 A 
ATOM     47  C   UNL A   1      40.435  31.416  33.491  1.00  0.00     0.049 A 
ATOM     48  N   UNL A   1      40.462  32.555  36.290  1.00  0.00    -0.248 NA
ATOM     49  C   UNL A   1      38.466  33.659  35.798  1.00  0.00     0.031 C 
ATOM     50  C   UNL A   1      40.456  30.819  32.158  1.00  0.00     0.029 A 
ATOM     51  N   UNL A   1      41.574  30.944  34.092  1.00  0.00    -0.354 N 
ATOM     52  C   UNL A   1      40.066  33.309  37.388  1.00  0.00     0.074 A 
ATOM     53  C   UNL A   1      38.849  33.995  37.020  1.00  0.00     0.031 C 
ATOM     54  C   UNL A   1      41.566  30.068  32.036  1.00  0.00     0.029 A 
ATOM     55  C   UNL A   1      42.340  30.150  33.273  1.00  0.00     0.049 A 
ATOM     56  H   UNL A   1      41.820  31.156  35.022  1.00  0.00     0.167 HD
ATOM     57  C   UNL A   1      40.654  33.413  38.602  1.00  0.00     0.034 A 
ATOM     58  C   UNL A   1      43.535  29.568  33.499  1.00  0.00     0.034 A 
ATOM     59  C   UNL A   1      41.855  32.717  38.973  1.00  0.00     0.049 A 
ATOM     60  C   UNL A   1      44.185  29.725  34.851  1.00  0.00     0.074 A 
ATOM     61  C   UNL A   1      42.506  32.715  40.192  1.00  0.00     0.029 A 
ATOM     62  N   UNL A   1      42.596  31.915  38.120  1.00  0.00    -0.354 N 
ATOM     63  N   UNL A   1      43.744  30.351  35.916  1.00  0.00    -0.248 NA
ATOM     64  C   UNL A   1      45.483  29.060  35.043  1.00  0.00     0.031 C 
ATOM     65  C   UNL A   1      43.669  31.951  40.063  1.00  0.00     0.029 A 
ATOM     66  C   UNL A   1      43.711  31.427  38.780  1.00  0.00     0.049 A 
ATOM     67  H   UNL A   1      42.364  31.718  37.183  1.00  0.00     0.167 HD
ATOM     68  C   UNL A   1      44.683  30.115  36.915  1.00  0.00     0.074 A 
ATOM     69  C   UNL A   1      45.710  29.276  36.331  1.00  0.00     0.031 C 
ATOM     70  C   UNL A   1      44.699  30.554  38.199  1.00  0.00     0.034 A 
BRANCH  57  71
ATOM     71  C   UNL A   1      40.011  34.324  39.614  1.00  0.00     0.023 A 
ATOM     72  C   UNL A   1      40.257  35.712  39.581  1.00  0.00     0.012 A 
ATOM     73  C   UNL A   1      39.130  33.802  40.581  1.00  0.00     0.148 A 
ATOM     74  C   UNL A   1      39.668  36.560  40.518  1.00  0.00     0.002 A 
ATOM     75  C   UNL A   1      38.506  34.660  41.478  1.00  0.00     0.091 A 
ATOM     76  F   UNL A   1      38.930  32.478  40.615  1.00  0.00    -0.205 F 
ATOM     77  C   UNL A   1      38.784  36.036  41.458  1.00  0.00     0.022 A 
BRANCH  75  78
ATOM     78  S   UNL A   1      37.289  34.092  42.670  1.00  0.00     0.127 S 
ATOM     79  O   UNL A   1      37.623  34.902  43.841  1.00  0.00    -0.237 OA
ATOM     80  O   UNL A   1      36.030  34.452  42.017  1.00  0.00    -0.237 OA
ATOM     81  O   UNL A   1      37.509  32.660  42.820  1.00  0.00    -0.744 OA
ENDBRANCH  75  78
ENDBRANCH  57  71
BRANCH  58  82
ATOM     82  C   UNL A   1      44.185  28.751  32.436  1.00  0.00     0.023 A 
ATOM     83  C   UNL A   1      43.926  27.368  32.361  1.00  0.00     0.012 A 
ATOM     84  C   UNL A   1      45.063  29.336  31.503  1.00  0.00     0.148 A 
ATOM     85  C   UNL A   1      44.558  26.577  31.402  1.00  0.00     0.002 A 
ATOM     86  C   UNL A   1      45.646  28.552  30.515  1.00  0.00     0.091 A 
ATOM     87  F   UNL A   1      45.307  30.650  31.600  1.00  0.00    -0.205 F 
ATOM     88  C   UNL A   1      45.411  27.169  30.475  1.00  0.00     0.022 A 
BRANCH  86  89
ATOM     89  S   UNL A   1      46.664  29.245  29.208  1.00  0.00     0.127 S 
ATOM     90  O   UNL A   1      47.813  29.746  29.959  1.00  0.00    -0.237 OA
ATOM     91  O   UNL A   1      46.932  28.068  28.383  1.00  0.00    -0.237 OA
ATOM     92  O   UNL A   1      45.843  30.261  28.564  1.00  0.00    -0.744 OA
ENDBRANCH  86  89
ENDBRANCH  58  82
BRANCH  70  93
ATOM     93  C   UNL A   1      45.825  30.087  39.087  1.00  0.00     0.023 A 
ATOM     94  C   UNL A   1      45.708  28.889  39.818  1.00  0.00     0.012 A 
ATOM     95  C   UNL A   1      47.030  30.817  39.147  1.00  0.00     0.148 A 
ATOM     96  C   UNL A   1      46.753  28.449  40.631  1.00  0.00     0.002 A 
ATOM     97  C   UNL A   1      48.087  30.343  39.913  1.00  0.00     0.091 A 
ATOM     98  F   UNL A   1      47.119  31.963  38.457  1.00  0.00    -0.205 F 
ATOM     99  C   UNL A   1      47.945  29.169  40.670  1.00  0.00     0.022 A 
BRANCH  97 100
ATOM    100  S   UNL A   1      49.693  31.149  39.938  1.00  0.00     0.127 S 
ATOM    101  O   UNL A   1      50.527  30.131  40.571  1.00  0.00    -0.237 OA
ATOM    102  O   UNL A   1      49.956  31.356  38.513  1.00  0.00    -0.237 OA
ATOM    103  O   UNL A   1      49.515  32.376  40.702  1.00  0.00    -0.744 OA
ENDBRANCH  97 100
ENDBRANCH  70  93
ENDBRANCH  44  45
ENDBRANCH  37  39
ENDBRANCH  36  37
ENDBRANCH  35  36
ENDBRANCH  34  35
ENDBRANCH  33  34
ENDBRANCH  32  33
ENDBRANCH  31  32
ENDBRANCH   1  31
TORSDOF 27
ENDMDL
MODEL 3
REMARK VINA RESULT:      -8.2      1.707      7.531
REMARK SMILES C[C@](Nc1ccc(C(N)=O)nn1)(C(=O)OCCOCCOCCOCCOC(=O)c1ccc(-c2c3nc(c(-c4cccc(S(=O)(=O)[O-])c4F)c4ccc([nH]4)c(-c4cccc(S(=O)(=O)[O-])c4F)c4nc(c(-c5cccc(S(=O)(=O)[O-])c5F)c5ccc2[nH]5)C=C4)C=C3)cc1)c1ccccc1
REMARK SMILES IDX 21 1 20 2 19 3 18 4 17 5 16 6 15 7 13 8 14 9 2 10 1 11 93 12
REMARK SMILES IDX 94 13 98 14 95 15 97 16 96 17 3 18 4 20 5 21 12 22 6 23
REMARK SMILES IDX 11 24 7 25 8 26 9 27 10 28 22 31 23 32 24 33 25 34 26 35
REMARK SMILES IDX 27 36 28 37 29 38 30 39 31 40 92 41 32 42 91 43 33 44 34 45
REMARK SMILES IDX 35 46 85 47 36 48 90 49 84 50 86 51 37 52 89 53 83 54 82 55
REMARK SMILES IDX 38 57 70 58 50 59 69 60 51 61 54 62 68 63 87 64 52 65 53 66
REMARK SMILES IDX 67 68 88 69 55 70 39 71 40 72 48 73 41 74 43 75 49 76 42 77
REMARK SMILES IDX 44 78 45 79 46 80 47 81 71 82 72 83 80 84 73 85 75 86 81 87
REMARK SMILES IDX 74 88 76 89 77 90 78 91 79 92 56 93 57 94 65 95 58 96 60 97
REMARK SMILES IDX 66 98 59 99 61 100 62 101 63 102 64 103
REMARK H PARENT 3 19 9 29 9 30 86 56 54 67
REMARK Flexibility Score: inf
ROOT
ATOM      1  O   UNL A   1      42.421  23.574  26.017  1.00  0.00    -0.377 OA
ENDROOT
BRANCH   1   2
ATOM      2  C   UNL A   1      41.278  23.047  26.654  1.00  0.00     0.188 C 
BRANCH   2   3
ATOM      3  C   UNL A   1      40.536  24.057  27.555  1.00  0.00     0.188 C 
BRANCH   3   4
ATOM      4  O   UNL A   1      39.116  24.112  27.588  1.00  0.00    -0.376 OA
BRANCH   4   5
ATOM      5  C   UNL A   1      38.379  24.116  26.376  1.00  0.00     0.202 C 
BRANCH   5   6
ATOM      6  C   UNL A   1      37.851  22.806  25.752  1.00  0.00     0.261 C 
BRANCH   6   7
ATOM      7  O   UNL A   1      36.545  22.347  26.145  1.00  0.00    -0.461 OA
BRANCH   7   8
ATOM      8  C   UNL A   1      35.672  22.084  25.138  1.00  0.00     0.336 C 
ATOM      9  O   UNL A   1      36.020  21.995  23.960  1.00  0.00    -0.249 OA
BRANCH   8  10
ATOM     10  C   UNL A   1      34.164  21.957  25.582  1.00  0.00     0.160 C 
ATOM     11  C   UNL A   1      34.290  21.445  27.031  1.00  0.00     0.053 C 
BRANCH  10  12
ATOM     12  C   UNL A   1      33.528  23.381  25.482  1.00  0.00    -0.012 A 
ATOM     13  C   UNL A   1      34.103  24.398  24.704  1.00  0.00     0.007 A 
ATOM     14  C   UNL A   1      32.283  23.675  26.089  1.00  0.00     0.007 A 
ATOM     15  C   UNL A   1      33.464  25.631  24.530  1.00  0.00     0.000 A 
ATOM     16  C   UNL A   1      31.634  24.899  25.900  1.00  0.00     0.000 A 
ATOM     17  C   UNL A   1      32.226  25.878  25.116  1.00  0.00     0.000 A 
ENDBRANCH  10  12
BRANCH  10  18
ATOM     18  N   UNL A   1      33.317  21.047  24.762  1.00  0.00    -0.350 N 
ATOM     19  H   UNL A   1      32.718  21.488  24.118  1.00  0.00     0.163 HD
BRANCH  18  20
ATOM     20  C   UNL A   1      33.258  19.672  24.785  1.00  0.00     0.149 A 
ATOM     21  C   UNL A   1      34.365  18.897  24.462  1.00  0.00     0.051 A 
ATOM     22  N   UNL A   1      32.204  19.073  25.376  1.00  0.00    -0.132 NA
ATOM     23  C   UNL A   1      34.328  17.512  24.603  1.00  0.00     0.040 A 
ATOM     24  N   UNL A   1      32.156  17.694  25.554  1.00  0.00    -0.143 NA
ATOM     25  C   UNL A   1      33.195  16.938  25.145  1.00  0.00     0.150 A 
BRANCH  25  26
ATOM     26  C   UNL A   1      33.115  15.462  25.310  1.00  0.00     0.269 C 
ATOM     27  N   UNL A   1      31.867  14.912  25.392  1.00  0.00    -0.364 N 
ATOM     28  O   UNL A   1      34.127  14.772  25.376  1.00  0.00    -0.268 OA
ATOM     29  H   UNL A   1      31.070  15.487  25.335  1.00  0.00     0.160 HD
ATOM     30  H   UNL A   1      31.764  13.939  25.508  1.00  0.00     0.160 HD
ENDBRANCH  25  26
ENDBRANCH  18  20
ENDBRANCH  10  18
ENDBRANCH   8  10
ENDBRANCH   7   8
ENDBRANCH   6   7
ENDBRANCH   5   6
ENDBRANCH   4   5
ENDBRANCH   3   4
ENDBRANCH   2   3
ENDBRANCH   1   2
BRANCH   1  31
ATOM     31  C   UNL A   1      42.307  24.906  25.555  1.00  0.00     0.188 C 
BRANCH  31  32
ATOM     32  C   UNL A   1      43.627  25.680  25.380  1.00  0.00     0.188 C 
BRANCH  32  33
ATOM     33  O   UNL A   1      44.784  24.950  25.781  1.00  0.00    -0.376 OA
BRANCH  33  34
ATOM     34  C   UNL A   1      45.640  25.495  26.771  1.00  0.00     0.202 C 
BRANCH  34  35
ATOM     35  C   UNL A   1      44.994  26.112  28.024  1.00  0.00     0.261 C 
BRANCH  35  36
ATOM     36  O   UNL A   1      43.994  25.324  28.682  1.00  0.00    -0.460 OA
BRANCH  36  37
ATOM     37  C   UNL A   1      44.071  25.221  30.023  1.00  0.00     0.338 C 
ATOM     38  O   UNL A   1      44.366  24.222  30.661  1.00  0.00    -0.246 OA
BRANCH  37  39
ATOM     39  C   UNL A   1      43.956  26.575  30.602  1.00  0.00     0.060 A 
ATOM     40  C   UNL A   1      42.824  27.337  30.283  1.00  0.00     0.016 A 
ATOM     41  C   UNL A   1      44.944  27.091  31.446  1.00  0.00     0.016 A 
ATOM     42  C   UNL A   1      42.710  28.644  30.747  1.00  0.00     0.010 A 
ATOM     43  C   UNL A   1      44.842  28.414  31.889  1.00  0.00     0.010 A 
ATOM     44  C   UNL A   1      43.753  29.210  31.488  1.00  0.00    -0.014 A 
BRANCH  44  45
ATOM     45  C   UNL A   1      43.818  30.687  31.589  1.00  0.00     0.031 A 
ATOM     46  C   UNL A   1      43.226  31.331  32.815  1.00  0.00     0.074 A 
ATOM     47  C   UNL A   1      44.443  31.433  30.664  1.00  0.00     0.049 A 
ATOM     48  N   UNL A   1      43.206  32.590  33.166  1.00  0.00    -0.248 NA
ATOM     49  C   UNL A   1      42.568  30.431  33.780  1.00  0.00     0.031 C 
ATOM     50  C   UNL A   1      45.077  30.922  29.451  1.00  0.00     0.029 A 
ATOM     51  N   UNL A   1      44.639  32.789  30.603  1.00  0.00    -0.354 N 
ATOM     52  C   UNL A   1      42.507  32.637  34.367  1.00  0.00     0.074 A 
ATOM     53  C   UNL A   1      42.108  31.284  34.681  1.00  0.00     0.031 C 
ATOM     54  C   UNL A   1      45.583  31.958  28.756  1.00  0.00     0.029 A 
ATOM     55  C   UNL A   1      45.288  33.201  29.465  1.00  0.00     0.049 A 
ATOM     56  H   UNL A   1      44.342  33.408  31.308  1.00  0.00     0.167 HD
ATOM     57  C   UNL A   1      42.232  33.707  35.147  1.00  0.00     0.034 A 
ATOM     58  C   UNL A   1      45.596  34.444  29.043  1.00  0.00     0.034 A 
ATOM     59  C   UNL A   1      42.644  35.048  34.841  1.00  0.00     0.049 A 
ATOM     60  C   UNL A   1      45.250  35.623  29.917  1.00  0.00     0.074 A 
ATOM     61  C   UNL A   1      42.458  36.197  35.588  1.00  0.00     0.029 A 
ATOM     62  N   UNL A   1      43.308  35.425  33.684  1.00  0.00    -0.354 N 
ATOM     63  N   UNL A   1      44.686  35.641  31.101  1.00  0.00    -0.248 NA
ATOM     64  C   UNL A   1      45.619  36.954  29.411  1.00  0.00     0.031 C 
ATOM     65  C   UNL A   1      42.966  37.276  34.860  1.00  0.00     0.029 A 
ATOM     66  C   UNL A   1      43.522  36.792  33.686  1.00  0.00     0.049 A 
ATOM     67  H   UNL A   1      43.587  34.811  32.966  1.00  0.00     0.167 HD
ATOM     68  C   UNL A   1      44.678  36.975  31.501  1.00  0.00     0.074 A 
ATOM     69  C   UNL A   1      45.307  37.731  30.438  1.00  0.00     0.031 C 
ATOM     70  C   UNL A   1      44.193  37.525  32.642  1.00  0.00     0.034 A 
BRANCH  57  71
ATOM     71  C   UNL A   1      41.434  33.469  36.402  1.00  0.00     0.023 A 
ATOM     72  C   UNL A   1      42.056  33.544  37.665  1.00  0.00     0.012 A 
ATOM     73  C   UNL A   1      40.053  33.203  36.327  1.00  0.00     0.148 A 
ATOM     74  C   UNL A   1      41.324  33.321  38.831  1.00  0.00     0.002 A 
ATOM     75  C   UNL A   1      39.320  33.033  37.494  1.00  0.00     0.091 A 
ATOM     76  F   UNL A   1      39.486  33.107  35.117  1.00  0.00    -0.205 F 
ATOM     77  C   UNL A   1      39.956  33.077  38.746  1.00  0.00     0.022 A 
BRANCH  75  78
ATOM     78  S   UNL A   1      37.540  32.797  37.491  1.00  0.00     0.127 S 
ATOM     79  O   UNL A   1      37.108  33.828  36.548  1.00  0.00    -0.237 OA
ATOM     80  O   UNL A   1      37.414  31.426  36.997  1.00  0.00    -0.237 OA
ATOM     81  O   UNL A   1      37.105  32.991  38.867  1.00  0.00    -0.744 OA
ENDBRANCH  75  78
ENDBRANCH  57  71
BRANCH  58  82
ATOM     82  C   UNL A   1      46.302  34.643  27.746  1.00  0.00     0.023 A 
ATOM     83  C   UNL A   1      45.556  34.809  26.562  1.00  0.00     0.012 A 
ATOM     84  C   UNL A   1      47.709  34.660  27.678  1.00  0.00     0.148 A 
ATOM     85  C   UNL A   1      46.197  34.952  25.331  1.00  0.00     0.002 A 
ATOM     86  C   UNL A   1      48.341  34.859  26.456  1.00  0.00     0.091 A 
ATOM     87  F   UNL A   1      48.399  34.486  28.813  1.00  0.00    -0.205 F 
ATOM     88  C   UNL A   1      47.587  34.985  25.279  1.00  0.00     0.022 A 
BRANCH  86  89
ATOM     89  S   UNL A   1      50.121  35.033  26.309  1.00  0.00     0.127 S 
ATOM     90  O   UNL A   1      50.375  36.213  27.132  1.00  0.00    -0.237 OA
ATOM     91  O   UNL A   1      50.593  33.770  26.877  1.00  0.00    -0.237 OA
ATOM     92  O   UNL A   1      50.387  35.192  24.885  1.00  0.00    -0.744 OA
ENDBRANCH  86  89
ENDBRANCH  58  82
BRANCH  70  93
ATOM     93  C   UNL A   1      44.375  39.009  32.839  1.00  0.00     0.023 A 
ATOM     94  C   UNL A   1      45.357  39.497  33.723  1.00  0.00     0.012 A 
ATOM     95  C   UNL A   1      43.602  39.923  32.094  1.00  0.00     0.148 A 
ATOM     96  C   UNL A   1      45.535  40.869  33.898  1.00  0.00     0.002 A 
ATOM     97  C   UNL A   1      43.825  41.288  32.230  1.00  0.00     0.091 A 
ATOM     98  F   UNL A   1      42.661  39.442  31.268  1.00  0.00    -0.205 F 
ATOM     99  C   UNL A   1      44.778  41.763  33.145  1.00  0.00     0.022 A 
BRANCH  97 100
ATOM    100  S   UNL A   1      42.970  42.506  31.223  1.00  0.00     0.127 S 
ATOM    101  O   UNL A   1      43.119  43.715  32.029  1.00  0.00    -0.237 OA
ATOM    102  O   UNL A   1      43.756  42.492  29.989  1.00  0.00    -0.237 OA
ATOM    103  O   UNL A   1      41.606  42.018  31.074  1.00  0.00    -0.744 OA
ENDBRANCH  97 100
ENDBRANCH  70  93
ENDBRANCH  44  45
ENDBRANCH  37  39
ENDBRANCH  36  37
ENDBRANCH  35  36
ENDBRANCH  34  35
ENDBRANCH  33  34
ENDBRANCH  32  33
ENDBRANCH  31  32
ENDBRANCH   1  31
TORSDOF 27
ENDMDL
