MODEL 1
REMARK VINA RESULT:      -7.2      0.000      0.000
REMARK SMILES CC(C)n1c2c(c3ccccc31)[C@@H](c1ccccc1)N(CC(=O)OCCOCCOCCOCCOC(=O)c1ccc(-c3c4nc(c(-c5cccc(S(=O)(=O)[O-])c5F)c5ccc([nH]5)c(-c5cccc(S(=O)(=O)[O-])c5F)c5nc(c(-c6cccc(S(=O)(=O)[O-])c6F)c6ccc3[nH]6)C=C5)C=C4)cc1)C2=O
REMARK SMILES IDX 31 1 30 2 29 3 28 4 27 5 26 6 25 7 24 8 22 9 23 10 21 11
REMARK SMILES IDX 20 12 4 13 5 14 12 15 6 16 102 17 7 18 11 19 13 20 103 21
REMARK SMILES IDX 8 22 10 23 9 24 2 25 1 26 3 27 14 28 15 29 19 30 16 31 18 32
REMARK SMILES IDX 17 33 32 34 33 35 34 36 35 37 36 38 37 39 38 40 39 41 40 42
REMARK SMILES IDX 101 43 41 44 100 45 42 46 43 47 44 48 94 49 45 50 99 51
REMARK SMILES IDX 93 52 95 53 46 54 98 55 92 56 91 57 47 59 79 60 59 61 78 62
REMARK SMILES IDX 60 63 63 64 77 65 96 66 61 67 62 68 76 70 97 71 64 72 48 73
REMARK SMILES IDX 49 74 57 75 50 76 52 77 58 78 51 79 53 80 54 81 55 82 56 83
REMARK SMILES IDX 80 84 81 85 89 86 82 87 84 88 90 89 83 90 85 91 86 92 87 93
REMARK SMILES IDX 88 94 65 95 66 96 74 97 67 98 69 99 75 100 68 101 70 102
REMARK SMILES IDX 71 103 72 104 73 105
REMARK H PARENT 95 58 63 69
REMARK Flexibility Score: inf
ROOT
ATOM      1  C   UNL A   1      38.335  33.741  35.995  1.00  0.00     0.188 C 
ENDROOT
BRANCH   1   2
ATOM      2  O   UNL A   1      39.264  34.536  35.284  1.00  0.00    -0.377 OA
BRANCH   2   3
ATOM      3  C   UNL A   1      39.883  35.640  35.887  1.00  0.00     0.188 C 
BRANCH   3   4
ATOM      4  C   UNL A   1      39.678  35.756  37.390  1.00  0.00     0.188 C 
BRANCH   4   5
ATOM      5  O   UNL A   1      40.794  36.013  38.214  1.00  0.00    -0.376 OA
BRANCH   5   6
ATOM      6  C   UNL A   1      42.116  35.847  37.705  1.00  0.00     0.202 C 
BRANCH   6   7
ATOM      7  C   UNL A   1      43.010  37.040  37.293  1.00  0.00     0.261 C 
BRANCH   7   8
ATOM      8  O   UNL A   1      44.424  36.943  37.633  1.00  0.00    -0.462 OA
BRANCH   8   9
ATOM      9  C   UNL A   1      45.083  35.841  37.211  1.00  0.00     0.325 C 
ATOM     10  O   UNL A   1      45.310  34.871  37.935  1.00  0.00    -0.250 OA
BRANCH   9  11
ATOM     11  C   UNL A   1      45.553  35.808  35.734  1.00  0.00     0.243 C 
BRANCH  11  12
ATOM     12  N   UNL A   1      44.837  35.363  34.534  1.00  0.00    -0.315 N 
ATOM     13  N   UNL A   1      44.126  35.154  31.021  1.00  0.00    -0.334 N 
ATOM     14  C   UNL A   1      44.361  35.138  32.361  1.00  0.00     0.114 A 
ATOM     15  C   UNL A   1      42.771  34.880  30.838  1.00  0.00     0.049 A 
ATOM     16  C   UNL A   1      43.285  34.623  33.021  1.00  0.00     0.018 A 
ATOM     17  C   UNL A   1      45.386  35.572  33.258  1.00  0.00     0.272 C 
ATOM     18  C   UNL A   1      42.271  34.397  32.067  1.00  0.00     0.006 A 
ATOM     19  C   UNL A   1      41.919  35.022  29.727  1.00  0.00     0.027 A 
ATOM     20  C   UNL A   1      43.505  34.668  34.500  1.00  0.00     0.150 C 
ATOM     21  O   UNL A   1      46.474  36.022  32.984  1.00  0.00    -0.267 OA
ATOM     22  C   UNL A   1      40.954  33.903  32.119  1.00  0.00     0.011 A 
ATOM     23  C   UNL A   1      40.585  34.618  29.843  1.00  0.00     0.002 A 
ATOM     24  C   UNL A   1      40.114  34.035  31.012  1.00  0.00     0.001 A 
BRANCH  13  25
ATOM     25  C   UNL A   1      45.165  35.398  30.022  1.00  0.00     0.082 C 
ATOM     26  C   UNL A   1      45.092  34.515  28.771  1.00  0.00     0.031 C 
ATOM     27  C   UNL A   1      45.252  36.872  29.638  1.00  0.00     0.031 C 
ENDBRANCH  13  25
BRANCH  20  28
ATOM     28  C   UNL A   1      43.429  33.268  35.112  1.00  0.00    -0.021 A 
ATOM     29  C   UNL A   1      44.630  32.582  35.393  1.00  0.00     0.006 A 
ATOM     30  C   UNL A   1      42.248  32.639  35.549  1.00  0.00     0.006 A 
ATOM     31  C   UNL A   1      44.662  31.366  36.083  1.00  0.00     0.000 A 
ATOM     32  C   UNL A   1      42.274  31.427  36.256  1.00  0.00     0.000 A 
ATOM     33  C   UNL A   1      43.481  30.793  36.527  1.00  0.00     0.000 A 
ENDBRANCH  20  28
ENDBRANCH  11  12
ENDBRANCH   9  11
ENDBRANCH   8   9
ENDBRANCH   7   8
ENDBRANCH   6   7
ENDBRANCH   5   6
ENDBRANCH   4   5
ENDBRANCH   3   4
ENDBRANCH   2   3
ENDBRANCH   1   2
BRANCH   1  34
ATOM     34  C   UNL A   1      37.716  32.531  35.293  1.00  0.00     0.188 C 
BRANCH  34  35
ATOM     35  O   UNL A   1      36.668  32.917  34.409  1.00  0.00    -0.376 OA
BRANCH  35  36
ATOM     36  C   UNL A   1      36.493  32.177  33.208  1.00  0.00     0.202 C 
BRANCH  36  37
ATOM     37  C   UNL A   1      35.385  32.606  32.237  1.00  0.00     0.261 C 
BRANCH  37  38
ATOM     38  O   UNL A   1      35.086  31.641  31.224  1.00  0.00    -0.460 OA
BRANCH  38  39
ATOM     39  C   UNL A   1      35.224  31.914  29.913  1.00  0.00     0.338 C 
ATOM     40  O   UNL A   1      34.700  32.810  29.285  1.00  0.00    -0.246 OA
BRANCH  39  41
ATOM     41  C   UNL A   1      36.415  31.116  29.529  1.00  0.00     0.060 A 
ATOM     42  C   UNL A   1      36.454  29.725  29.708  1.00  0.00     0.016 A 
ATOM     43  C   UNL A   1      37.593  31.842  29.315  1.00  0.00     0.016 A 
ATOM     44  C   UNL A   1      37.692  29.082  29.762  1.00  0.00     0.010 A 
ATOM     45  C   UNL A   1      38.826  31.202  29.416  1.00  0.00     0.010 A 
ATOM     46  C   UNL A   1      38.881  29.830  29.674  1.00  0.00    -0.014 A 
BRANCH  46  47
ATOM     47  C   UNL A   1      40.164  29.116  29.629  1.00  0.00     0.031 A 
ATOM     48  C   UNL A   1      40.742  28.901  30.985  1.00  0.00     0.074 A 
ATOM     49  C   UNL A   1      40.714  28.521  28.547  1.00  0.00     0.049 A 
ATOM     50  N   UNL A   1      41.878  29.308  31.451  1.00  0.00    -0.248 NA
ATOM     51  C   UNL A   1      39.870  28.257  31.982  1.00  0.00     0.031 C 
ATOM     52  C   UNL A   1      40.109  28.378  27.222  1.00  0.00     0.029 A 
ATOM     53  N   UNL A   1      41.880  27.803  28.429  1.00  0.00    -0.354 N 
ATOM     54  C   UNL A   1      41.951  28.770  32.733  1.00  0.00     0.074 A 
ATOM     55  C   UNL A   1      40.635  28.294  33.070  1.00  0.00     0.031 C 
ATOM     56  C   UNL A   1      40.804  27.467  26.504  1.00  0.00     0.029 A 
ATOM     57  C   UNL A   1      41.934  26.999  27.285  1.00  0.00     0.049 A 
ATOM     58  H   UNL A   1      42.609  27.850  29.088  1.00  0.00     0.167 HD
ATOM     59  C   UNL A   1      43.133  28.501  33.345  1.00  0.00     0.034 A 
ATOM     60  C   UNL A   1      42.776  25.959  27.039  1.00  0.00     0.034 A 
ATOM     61  C   UNL A   1      44.244  29.177  32.748  1.00  0.00     0.049 A 
ATOM     62  C   UNL A   1      43.935  26.108  27.947  1.00  0.00     0.074 A 
ATOM     63  C   UNL A   1      44.572  30.496  32.512  1.00  0.00     0.029 A 
ATOM     64  N   UNL A   1      45.082  28.428  31.963  1.00  0.00    -0.354 N 
ATOM     65  N   UNL A   1      44.825  27.052  27.853  1.00  0.00    -0.248 NA
ATOM     66  C   UNL A   1      43.907  25.388  29.209  1.00  0.00     0.031 C 
ATOM     67  C   UNL A   1      45.269  30.488  31.271  1.00  0.00     0.029 A 
ATOM     68  C   UNL A   1      45.359  29.162  30.843  1.00  0.00     0.049 A 
ATOM     69  H   UNL A   1      45.421  27.526  32.168  1.00  0.00     0.167 HD
ATOM     70  C   UNL A   1      45.155  27.340  29.169  1.00  0.00     0.074 A 
ATOM     71  C   UNL A   1      44.644  26.218  29.949  1.00  0.00     0.031 C 
ATOM     72  C   UNL A   1      45.556  28.590  29.531  1.00  0.00     0.034 A 
BRANCH  59  73
ATOM     73  C   UNL A   1      43.303  27.329  34.269  1.00  0.00     0.023 A 
ATOM     74  C   UNL A   1      43.280  27.549  35.658  1.00  0.00     0.012 A 
ATOM     75  C   UNL A   1      43.716  26.055  33.813  1.00  0.00     0.148 A 
ATOM     76  C   UNL A   1      43.629  26.533  36.554  1.00  0.00     0.002 A 
ATOM     77  C   UNL A   1      43.974  25.025  34.705  1.00  0.00     0.091 A 
ATOM     78  F   UNL A   1      43.983  25.873  32.513  1.00  0.00    -0.205 F 
ATOM     79  C   UNL A   1      43.952  25.263  36.079  1.00  0.00     0.022 A 
BRANCH  77  80
ATOM     80  S   UNL A   1      44.324  23.362  34.129  1.00  0.00     0.127 S 
ATOM     81  O   UNL A   1      44.329  22.612  35.382  1.00  0.00    -0.237 OA
ATOM     82  O   UNL A   1      43.181  23.101  33.252  1.00  0.00    -0.237 OA
ATOM     83  O   UNL A   1      45.599  23.461  33.429  1.00  0.00    -0.744 OA
ENDBRANCH  77  80
ENDBRANCH  59  73
BRANCH  60  84
ATOM     84  C   UNL A   1      42.563  24.691  26.278  1.00  0.00     0.023 A 
ATOM     85  C   UNL A   1      43.481  24.327  25.263  1.00  0.00     0.012 A 
ATOM     86  C   UNL A   1      41.660  23.699  26.718  1.00  0.00     0.148 A 
ATOM     87  C   UNL A   1      43.535  23.018  24.760  1.00  0.00     0.002 A 
ATOM     88  C   UNL A   1      41.708  22.404  26.203  1.00  0.00     0.091 A 
ATOM     89  F   UNL A   1      40.816  23.980  27.717  1.00  0.00    -0.205 F 
ATOM     90  C   UNL A   1      42.657  22.053  25.237  1.00  0.00     0.022 A 
BRANCH  88  91
ATOM     91  S   UNL A   1      40.596  21.120  26.797  1.00  0.00     0.127 S 
ATOM     92  O   UNL A   1      41.028  19.952  26.027  1.00  0.00    -0.237 OA
ATOM     93  O   UNL A   1      40.921  21.071  28.219  1.00  0.00    -0.237 OA
ATOM     94  O   UNL A   1      39.254  21.585  26.463  1.00  0.00    -0.744 OA
ENDBRANCH  88  91
ENDBRANCH  60  84
BRANCH  72  95
ATOM     95  C   UNL A   1      45.987  29.544  28.453  1.00  0.00     0.023 A 
ATOM     96  C   UNL A   1      45.100  30.452  27.840  1.00  0.00     0.012 A 
ATOM     97  C   UNL A   1      47.365  29.652  28.204  1.00  0.00     0.148 A 
ATOM     98  C   UNL A   1      45.586  31.453  26.994  1.00  0.00     0.002 A 
ATOM     99  C   UNL A   1      47.847  30.672  27.397  1.00  0.00     0.091 A 
ATOM    100  F   UNL A   1      48.184  28.772  28.799  1.00  0.00    -0.205 F 
ATOM    101  C   UNL A   1      46.961  31.575  26.787  1.00  0.00     0.022 A 
BRANCH  99 102
ATOM    102  S   UNL A   1      49.607  30.949  27.186  1.00  0.00     0.127 S 
ATOM    103  O   UNL A   1      49.989  29.841  26.315  1.00  0.00    -0.237 OA
ATOM    104  O   UNL A   1      49.643  32.269  26.553  1.00  0.00    -0.237 OA
ATOM    105  O   UNL A   1      50.186  30.916  28.525  1.00  0.00    -0.744 OA
ENDBRANCH  99 102
ENDBRANCH  72  95
ENDBRANCH  46  47
ENDBRANCH  39  41
ENDBRANCH  38  39
ENDBRANCH  37  38
ENDBRANCH  36  37
ENDBRANCH  35  36
ENDBRANCH  34  35
ENDBRANCH   1  34
TORSDOF 26
ENDMDL
MODEL 2
REMARK VINA RESULT:      -7.1      1.591      2.781
REMARK SMILES CC(C)n1c2c(c3ccccc31)[C@@H](c1ccccc1)N(CC(=O)OCCOCCOCCOCCOC(=O)c1ccc(-c3c4nc(c(-c5cccc(S(=O)(=O)[O-])c5F)c5ccc([nH]5)c(-c5cccc(S(=O)(=O)[O-])c5F)c5nc(c(-c6cccc(S(=O)(=O)[O-])c6F)c6ccc3[nH]6)C=C5)C=C4)cc1)C2=O
REMARK SMILES IDX 31 1 30 2 29 3 28 4 27 5 26 6 25 7 24 8 22 9 23 10 21 11
REMARK SMILES IDX 20 12 4 13 5 14 12 15 6 16 102 17 7 18 11 19 13 20 103 21
REMARK SMILES IDX 8 22 10 23 9 24 2 25 1 26 3 27 14 28 15 29 19 30 16 31 18 32
REMARK SMILES IDX 17 33 32 34 33 35 34 36 35 37 36 38 37 39 38 40 39 41 40 42
REMARK SMILES IDX 101 43 41 44 100 45 42 46 43 47 44 48 94 49 45 50 99 51
REMARK SMILES IDX 93 52 95 53 46 54 98 55 92 56 91 57 47 59 79 60 59 61 78 62
REMARK SMILES IDX 60 63 63 64 77 65 96 66 61 67 62 68 76 70 97 71 64 72 48 73
REMARK SMILES IDX 49 74 57 75 50 76 52 77 58 78 51 79 53 80 54 81 55 82 56 83
REMARK SMILES IDX 80 84 81 85 89 86 82 87 84 88 90 89 83 90 85 91 86 92 87 93
REMARK SMILES IDX 88 94 65 95 66 96 74 97 67 98 69 99 75 100 68 101 70 102
REMARK SMILES IDX 71 103 72 104 73 105
REMARK H PARENT 95 58 63 69
REMARK Flexibility Score: inf
ROOT
ATOM      1  C   UNL A   1      38.324  33.710  36.131  1.00  0.00     0.188 C 
ENDROOT
BRANCH   1   2
ATOM      2  O   UNL A   1      39.223  34.532  35.411  1.00  0.00    -0.377 OA
BRANCH   2   3
ATOM      3  C   UNL A   1      39.778  35.680  35.994  1.00  0.00     0.188 C 
BRANCH   3   4
ATOM      4  C   UNL A   1      39.614  35.785  37.503  1.00  0.00     0.188 C 
BRANCH   4   5
ATOM      5  O   UNL A   1      40.763  35.930  38.307  1.00  0.00    -0.376 OA
BRANCH   5   6
ATOM      6  C   UNL A   1      42.024  35.438  37.856  1.00  0.00     0.202 C 
BRANCH   6   7
ATOM      7  C   UNL A   1      43.236  36.361  37.590  1.00  0.00     0.261 C 
BRANCH   7   8
ATOM      8  O   UNL A   1      44.556  35.756  37.720  1.00  0.00    -0.462 OA
BRANCH   8   9
ATOM      9  C   UNL A   1      44.799  34.649  36.983  1.00  0.00     0.325 C 
ATOM     10  O   UNL A   1      44.699  33.505  37.429  1.00  0.00    -0.250 OA
BRANCH   9  11
ATOM     11  C   UNL A   1      45.207  34.849  35.501  1.00  0.00     0.243 C 
BRANCH  11  12
ATOM     12  N   UNL A   1      44.367  35.075  34.321  1.00  0.00    -0.315 N 
ATOM     13  N   UNL A   1      41.644  34.466  32.062  1.00  0.00    -0.334 N 
ATOM     14  C   UNL A   1      42.669  34.795  32.894  1.00  0.00     0.114 A 
ATOM     15  C   UNL A   1      41.994  34.904  30.785  1.00  0.00     0.049 A 
ATOM     16  C   UNL A   1      43.535  35.638  32.263  1.00  0.00     0.018 A 
ATOM     17  C   UNL A   1      43.115  34.448  34.207  1.00  0.00     0.272 C 
ATOM     18  C   UNL A   1      43.101  35.770  30.927  1.00  0.00     0.006 A 
ATOM     19  C   UNL A   1      41.471  34.618  29.510  1.00  0.00     0.027 A 
ATOM     20  C   UNL A   1      44.702  35.948  33.144  1.00  0.00     0.150 C 
ATOM     21  O   UNL A   1      42.549  33.768  35.030  1.00  0.00    -0.267 OA
ATOM     22  C   UNL A   1      43.564  36.473  29.799  1.00  0.00     0.011 A 
ATOM     23  C   UNL A   1      42.025  35.255  28.394  1.00  0.00     0.002 A 
ATOM     24  C   UNL A   1      43.036  36.195  28.537  1.00  0.00     0.001 A 
BRANCH  13  25
ATOM     25  C   UNL A   1      40.424  33.798  32.509  1.00  0.00     0.082 C 
ATOM     26  C   UNL A   1      39.128  34.290  31.852  1.00  0.00     0.031 C 
ATOM     27  C   UNL A   1      40.536  32.280  32.411  1.00  0.00     0.031 C 
ENDBRANCH  13  25
BRANCH  20  28
ATOM     28  C   UNL A   1      44.818  37.453  33.399  1.00  0.00    -0.021 A 
ATOM     29  C   UNL A   1      43.855  38.080  34.218  1.00  0.00     0.006 A 
ATOM     30  C   UNL A   1      45.892  38.262  32.985  1.00  0.00     0.006 A 
ATOM     31  C   UNL A   1      43.962  39.415  34.622  1.00  0.00     0.000 A 
ATOM     32  C   UNL A   1      46.013  39.597  33.401  1.00  0.00     0.000 A 
ATOM     33  C   UNL A   1      45.051  40.172  34.223  1.00  0.00     0.000 A 
ENDBRANCH  20  28
ENDBRANCH  11  12
ENDBRANCH   9  11
ENDBRANCH   8   9
ENDBRANCH   7   8
ENDBRANCH   6   7
ENDBRANCH   5   6
ENDBRANCH   4   5
ENDBRANCH   3   4
ENDBRANCH   2   3
ENDBRANCH   1   2
BRANCH   1  34
ATOM     34  C   UNL A   1      37.794  32.441  35.462  1.00  0.00     0.188 C 
BRANCH  34  35
ATOM     35  O   UNL A   1      36.724  32.728  34.567  1.00  0.00    -0.376 OA
BRANCH  35  36
ATOM     36  C   UNL A   1      36.654  32.004  33.345  1.00  0.00     0.202 C 
BRANCH  36  37
ATOM     37  C   UNL A   1      35.527  32.335  32.359  1.00  0.00     0.261 C 
BRANCH  37  38
ATOM     38  O   UNL A   1      35.357  31.372  31.316  1.00  0.00    -0.460 OA
BRANCH  38  39
ATOM     39  C   UNL A   1      35.441  31.704  30.014  1.00  0.00     0.338 C 
ATOM     40  O   UNL A   1      34.847  32.591  29.436  1.00  0.00    -0.246 OA
BRANCH  39  41
ATOM     41  C   UNL A   1      36.666  30.996  29.567  1.00  0.00     0.060 A 
ATOM     42  C   UNL A   1      36.779  29.601  29.653  1.00  0.00     0.016 A 
ATOM     43  C   UNL A   1      37.803  31.795  29.390  1.00  0.00     0.016 A 
ATOM     44  C   UNL A   1      38.049  29.021  29.653  1.00  0.00     0.010 A 
ATOM     45  C   UNL A   1      39.068  31.215  29.437  1.00  0.00     0.010 A 
ATOM     46  C   UNL A   1      39.196  29.833  29.604  1.00  0.00    -0.014 A 
BRANCH  46  47
ATOM     47  C   UNL A   1      40.514  29.191  29.500  1.00  0.00     0.031 A 
ATOM     48  C   UNL A   1      41.148  28.979  30.830  1.00  0.00     0.074 A 
ATOM     49  C   UNL A   1      41.058  28.651  28.386  1.00  0.00     0.049 A 
ATOM     50  N   UNL A   1      42.276  29.437  31.267  1.00  0.00    -0.248 NA
ATOM     51  C   UNL A   1      40.348  28.267  31.840  1.00  0.00     0.031 C 
ATOM     52  C   UNL A   1      40.417  28.504  27.078  1.00  0.00     0.029 A 
ATOM     53  N   UNL A   1      42.256  28.001  28.212  1.00  0.00    -0.354 N 
ATOM     54  C   UNL A   1      42.422  28.876  32.534  1.00  0.00     0.074 A 
ATOM     55  C   UNL A   1      41.146  28.322  32.903  1.00  0.00     0.031 C 
ATOM     56  C   UNL A   1      41.135  27.648  26.317  1.00  0.00     0.029 A 
ATOM     57  C   UNL A   1      42.314  27.225  27.049  1.00  0.00     0.049 A 
ATOM     58  H   UNL A   1      43.003  28.073  28.848  1.00  0.00     0.167 HD
ATOM     59  C   UNL A   1      43.637  28.658  33.099  1.00  0.00     0.034 A 
ATOM     60  C   UNL A   1      43.202  26.239  26.751  1.00  0.00     0.034 A 
ATOM     61  C   UNL A   1      44.689  29.407  32.482  1.00  0.00     0.049 A 
ATOM     62  C   UNL A   1      44.381  26.431  27.623  1.00  0.00     0.074 A 
ATOM     63  C   UNL A   1      44.937  30.747  32.267  1.00  0.00     0.029 A 
ATOM     64  N   UNL A   1      45.538  28.721  31.653  1.00  0.00    -0.354 N 
ATOM     65  N   UNL A   1      45.216  27.424  27.522  1.00  0.00    -0.248 NA
ATOM     66  C   UNL A   1      44.435  25.683  28.868  1.00  0.00     0.031 C 
ATOM     67  C   UNL A   1      45.591  30.804  31.004  1.00  0.00     0.029 A 
ATOM     68  C   UNL A   1      45.738  29.494  30.542  1.00  0.00     0.049 A 
ATOM     69  H   UNL A   1      45.933  27.835  31.825  1.00  0.00     0.167 HD
ATOM     70  C   UNL A   1      45.575  27.701  28.833  1.00  0.00     0.074 A 
ATOM     71  C   UNL A   1      45.152  26.536  29.602  1.00  0.00     0.031 C 
ATOM     72  C   UNL A   1      45.920  28.962  29.211  1.00  0.00     0.034 A 
BRANCH  59  73
ATOM     73  C   UNL A   1      43.901  27.477  33.990  1.00  0.00     0.023 A 
ATOM     74  C   UNL A   1      44.215  26.239  33.402  1.00  0.00     0.012 A 
ATOM     75  C   UNL A   1      43.624  27.494  35.377  1.00  0.00     0.148 A 
ATOM     76  C   UNL A   1      44.275  25.071  34.170  1.00  0.00     0.002 A 
ATOM     77  C   UNL A   1      43.773  26.352  36.149  1.00  0.00     0.091 A 
ATOM     78  F   UNL A   1      43.092  28.592  35.931  1.00  0.00    -0.205 F 
ATOM     79  C   UNL A   1      44.078  25.131  35.548  1.00  0.00     0.022 A 
BRANCH  77  80
ATOM     80  S   UNL A   1      43.596  26.408  37.935  1.00  0.00     0.127 S 
ATOM     81  O   UNL A   1      42.144  26.378  38.087  1.00  0.00    -0.237 OA
ATOM     82  O   UNL A   1      44.290  25.186  38.343  1.00  0.00    -0.237 OA
ATOM     83  O   UNL A   1      44.265  27.636  38.346  1.00  0.00    -0.744 OA
ENDBRANCH  77  80
ENDBRANCH  59  73
BRANCH  60  84
ATOM     84  C   UNL A   1      43.031  24.978  25.968  1.00  0.00     0.023 A 
ATOM     85  C   UNL A   1      43.953  24.669  24.938  1.00  0.00     0.012 A 
ATOM     86  C   UNL A   1      42.172  23.943  26.396  1.00  0.00     0.148 A 
ATOM     87  C   UNL A   1      44.053  23.373  24.409  1.00  0.00     0.002 A 
ATOM     88  C   UNL A   1      42.265  22.660  25.856  1.00  0.00     0.091 A 
ATOM     89  F   UNL A   1      41.327  24.171  27.408  1.00  0.00    -0.205 F 
ATOM     90  C   UNL A   1      43.218  22.366  24.876  1.00  0.00     0.022 A 
BRANCH  88  91
ATOM     91  S   UNL A   1      41.210  21.323  26.435  1.00  0.00     0.127 S 
ATOM     92  O   UNL A   1      41.680  20.188  25.639  1.00  0.00    -0.237 OA
ATOM     93  O   UNL A   1      41.551  21.259  27.853  1.00  0.00    -0.237 OA
ATOM     94  O   UNL A   1      39.848  21.741  26.123  1.00  0.00    -0.744 OA
ENDBRANCH  88  91
ENDBRANCH  60  84
BRANCH  72  95
ATOM     95  C   UNL A   1      46.262  29.962  28.142  1.00  0.00     0.023 A 
ATOM     96  C   UNL A   1      45.285  30.734  27.481  1.00  0.00     0.012 A 
ATOM     97  C   UNL A   1      47.621  30.259  27.952  1.00  0.00     0.148 A 
ATOM     98  C   UNL A   1      45.666  31.789  26.646  1.00  0.00     0.002 A 
ATOM     99  C   UNL A   1      47.993  31.333  27.156  1.00  0.00     0.091 A 
ATOM    100  F   UNL A   1      48.528  29.505  28.592  1.00  0.00    -0.205 F 
ATOM    101  C   UNL A   1      47.018  32.100  26.498  1.00  0.00     0.022 A 
BRANCH  99 102
ATOM    102  S   UNL A   1      49.705  31.851  27.018  1.00  0.00     0.127 S 
ATOM    103  O   UNL A   1      49.606  32.999  26.121  1.00  0.00    -0.237 OA
ATOM    104  O   UNL A   1      50.044  32.181  28.404  1.00  0.00    -0.237 OA
ATOM    105  O   UNL A   1      50.433  30.705  26.484  1.00  0.00    -0.744 OA
ENDBRANCH  99 102
ENDBRANCH  72  95
ENDBRANCH  46  47
ENDBRANCH  39  41
ENDBRANCH  38  39
ENDBRANCH  37  38
ENDBRANCH  36  37
ENDBRANCH  35  36
ENDBRANCH  34  35
ENDBRANCH   1  34
TORSDOF 26
ENDMDL
MODEL 3
REMARK VINA RESULT:      -6.6      3.129      5.037
REMARK SMILES CC(C)n1c2c(c3ccccc31)[C@@H](c1ccccc1)N(CC(=O)OCCOCCOCCOCCOC(=O)c1ccc(-c3c4nc(c(-c5cccc(S(=O)(=O)[O-])c5F)c5ccc([nH]5)c(-c5cccc(S(=O)(=O)[O-])c5F)c5nc(c(-c6cccc(S(=O)(=O)[O-])c6F)c6ccc3[nH]6)C=C5)C=C4)cc1)C2=O
REMARK SMILES IDX 31 1 30 2 29 3 28 4 27 5 26 6 25 7 24 8 22 9 23 10 21 11
REMARK SMILES IDX 20 12 4 13 5 14 12 15 6 16 102 17 7 18 11 19 13 20 103 21
REMARK SMILES IDX 8 22 10 23 9 24 2 25 1 26 3 27 14 28 15 29 19 30 16 31 18 32
REMARK SMILES IDX 17 33 32 34 33 35 34 36 35 37 36 38 37 39 38 40 39 41 40 42
REMARK SMILES IDX 101 43 41 44 100 45 42 46 43 47 44 48 94 49 45 50 99 51
REMARK SMILES IDX 93 52 95 53 46 54 98 55 92 56 91 57 47 59 79 60 59 61 78 62
REMARK SMILES IDX 60 63 63 64 77 65 96 66 61 67 62 68 76 70 97 71 64 72 48 73
REMARK SMILES IDX 49 74 57 75 50 76 52 77 58 78 51 79 53 80 54 81 55 82 56 83
REMARK SMILES IDX 80 84 81 85 89 86 82 87 84 88 90 89 83 90 85 91 86 92 87 93
REMARK SMILES IDX 88 94 65 95 66 96 74 97 67 98 69 99 75 100 68 101 70 102
REMARK SMILES IDX 71 103 72 104 73 105
REMARK H PARENT 95 58 63 69
REMARK Flexibility Score: inf
ROOT
ATOM      1  C   UNL A   1      36.439  33.923  30.837  1.00  0.00     0.188 C 
ENDROOT
BRANCH   1   2
ATOM      2  O   UNL A   1      37.303  33.899  31.956  1.00  0.00    -0.377 OA
BRANCH   2   3
ATOM      3  C   UNL A   1      38.514  34.606  31.951  1.00  0.00     0.188 C 
BRANCH   3   4
ATOM      4  C   UNL A   1      39.767  33.744  31.956  1.00  0.00     0.188 C 
BRANCH   4   5
ATOM      5  O   UNL A   1      40.736  33.940  30.951  1.00  0.00    -0.376 OA
BRANCH   5   6
ATOM      6  C   UNL A   1      41.938  33.171  30.951  1.00  0.00     0.202 C 
BRANCH   6   7
ATOM      7  C   UNL A   1      43.292  33.735  30.461  1.00  0.00     0.261 C 
BRANCH   7   8
ATOM      8  O   UNL A   1      43.419  35.187  30.423  1.00  0.00    -0.462 OA
BRANCH   8   9
ATOM      9  C   UNL A   1      44.621  35.706  30.760  1.00  0.00     0.325 C 
ATOM     10  O   UNL A   1      45.323  35.254  31.664  1.00  0.00    -0.250 OA
BRANCH   9  11
ATOM     11  C   UNL A   1      45.129  36.922  29.943  1.00  0.00     0.243 C 
BRANCH  11  12
ATOM     12  N   UNL A   1      44.999  38.356  30.220  1.00  0.00    -0.315 N 
ATOM     13  N   UNL A   1      46.065  41.595  31.343  1.00  0.00    -0.334 N 
ATOM     14  C   UNL A   1      45.602  40.415  30.849  1.00  0.00     0.114 A 
ATOM     15  C   UNL A   1      44.956  42.328  31.766  1.00  0.00     0.049 A 
ATOM     16  C   UNL A   1      44.247  40.464  30.707  1.00  0.00     0.018 A 
ATOM     17  C   UNL A   1      46.134  39.132  30.510  1.00  0.00     0.272 C 
ATOM     18  C   UNL A   1      43.810  41.697  31.235  1.00  0.00     0.006 A 
ATOM     19  C   UNL A   1      44.831  43.470  32.577  1.00  0.00     0.027 A 
ATOM     20  C   UNL A   1      43.721  39.147  30.233  1.00  0.00     0.150 C 
ATOM     21  O   UNL A   1      47.292  38.790  30.483  1.00  0.00    -0.267 OA
ATOM     22  C   UNL A   1      42.557  42.321  31.387  1.00  0.00     0.011 A 
ATOM     23  C   UNL A   1      43.557  44.006  32.797  1.00  0.00     0.002 A 
ATOM     24  C   UNL A   1      42.437  43.461  32.184  1.00  0.00     0.001 A 
BRANCH  13  25
ATOM     25  C   UNL A   1      47.480  41.961  31.366  1.00  0.00     0.082 C 
ATOM     26  C   UNL A   1      47.884  43.082  30.400  1.00  0.00     0.031 C 
ATOM     27  C   UNL A   1      47.966  42.265  32.780  1.00  0.00     0.031 C 
ENDBRANCH  13  25
BRANCH  20  28
ATOM     28  C   UNL A   1      42.974  39.295  28.905  1.00  0.00    -0.021 A 
ATOM     29  C   UNL A   1      43.065  40.519  28.207  1.00  0.00     0.006 A 
ATOM     30  C   UNL A   1      42.294  38.259  28.240  1.00  0.00     0.006 A 
ATOM     31  C   UNL A   1      42.539  40.696  26.923  1.00  0.00     0.000 A 
ATOM     32  C   UNL A   1      41.778  38.426  26.945  1.00  0.00     0.000 A 
ATOM     33  C   UNL A   1      41.905  39.643  26.285  1.00  0.00     0.000 A 
ENDBRANCH  20  28
ENDBRANCH  11  12
ENDBRANCH   9  11
ENDBRANCH   8   9
ENDBRANCH   7   8
ENDBRANCH   6   7
ENDBRANCH   5   6
ENDBRANCH   4   5
ENDBRANCH   3   4
ENDBRANCH   2   3
ENDBRANCH   1   2
BRANCH   1  34
ATOM     34  C   UNL A   1      34.938  34.107  31.072  1.00  0.00     0.188 C 
BRANCH  34  35
ATOM     35  O   UNL A   1      34.276  34.566  29.898  1.00  0.00    -0.376 OA
BRANCH  35  36
ATOM     36  C   UNL A   1      34.214  33.697  28.774  1.00  0.00     0.202 C 
BRANCH  36  37
ATOM     37  C   UNL A   1      35.505  33.408  27.998  1.00  0.00     0.261 C 
BRANCH  37  38
ATOM     38  O   UNL A   1      35.685  32.033  27.648  1.00  0.00    -0.460 OA
BRANCH  38  39
ATOM     39  C   UNL A   1      35.899  31.080  28.575  1.00  0.00     0.338 C 
ATOM     40  O   UNL A   1      35.069  30.433  29.177  1.00  0.00    -0.246 OA
BRANCH  39  41
ATOM     41  C   UNL A   1      37.340  30.767  28.405  1.00  0.00     0.060 A 
ATOM     42  C   UNL A   1      37.765  29.603  27.748  1.00  0.00     0.016 A 
ATOM     43  C   UNL A   1      38.222  31.491  29.217  1.00  0.00     0.016 A 
ATOM     44  C   UNL A   1      39.054  29.121  27.985  1.00  0.00     0.010 A 
ATOM     45  C   UNL A   1      39.490  30.981  29.486  1.00  0.00     0.010 A 
ATOM     46  C   UNL A   1      39.896  29.779  28.901  1.00  0.00    -0.014 A 
BRANCH  46  47
ATOM     47  C   UNL A   1      41.281  29.310  29.052  1.00  0.00     0.031 A 
ATOM     48  C   UNL A   1      41.641  29.054  30.474  1.00  0.00     0.074 A 
ATOM     49  C   UNL A   1      42.116  28.941  28.054  1.00  0.00     0.049 A 
ATOM     50  N   UNL A   1      42.578  29.601  31.178  1.00  0.00    -0.248 NA
ATOM     51  C   UNL A   1      40.749  28.163  31.234  1.00  0.00     0.031 C 
ATOM     52  C   UNL A   1      41.792  28.839  26.631  1.00  0.00     0.029 A 
ATOM     53  N   UNL A   1      43.400  28.456  28.111  1.00  0.00    -0.354 N 
ATOM     54  C   UNL A   1      42.527  28.949  32.408  1.00  0.00     0.074 A 
ATOM     55  C   UNL A   1      41.289  28.216  32.449  1.00  0.00     0.031 C 
ATOM     56  C   UNL A   1      42.765  28.147  25.996  1.00  0.00     0.029 A 
ATOM     57  C   UNL A   1      43.809  27.802  26.943  1.00  0.00     0.049 A 
ATOM     58  H   UNL A   1      43.979  28.558  28.900  1.00  0.00     0.167 HD
ATOM     59  C   UNL A   1      43.612  28.825  33.214  1.00  0.00     0.034 A 
ATOM     60  C   UNL A   1      44.864  26.959  26.788  1.00  0.00     0.034 A 
ATOM     61  C   UNL A   1      44.660  29.747  32.894  1.00  0.00     0.049 A 
ATOM     62  C   UNL A   1      45.794  27.209  27.911  1.00  0.00     0.074 A 
ATOM     63  C   UNL A   1      44.764  31.120  32.824  1.00  0.00     0.029 A 
ATOM     64  N   UNL A   1      45.750  29.245  32.232  1.00  0.00    -0.354 N 
ATOM     65  N   UNL A   1      46.490  28.299  28.059  1.00  0.00    -0.248 NA
ATOM     66  C   UNL A   1      45.685  26.363  29.087  1.00  0.00     0.031 C 
ATOM     67  C   UNL A   1      45.657  31.369  31.743  1.00  0.00     0.029 A 
ATOM     68  C   UNL A   1      46.074  30.133  31.244  1.00  0.00     0.049 A 
ATOM     69  H   UNL A   1      46.216  28.400  32.432  1.00  0.00     0.167 HD
ATOM     70  C   UNL A   1      46.522  28.496  29.432  1.00  0.00     0.074 A 
ATOM     71  C   UNL A   1      46.107  27.225  30.014  1.00  0.00     0.031 C 
ATOM     72  C   UNL A   1      46.605  29.750  29.956  1.00  0.00     0.034 A 
BRANCH  59  73
ATOM     73  C   UNL A   1      43.839  27.609  34.064  1.00  0.00     0.023 A 
ATOM     74  C   UNL A   1      44.137  27.778  35.429  1.00  0.00     0.012 A 
ATOM     75  C   UNL A   1      43.998  26.315  33.514  1.00  0.00     0.148 A 
ATOM     76  C   UNL A   1      44.550  26.697  36.215  1.00  0.00     0.002 A 
ATOM     77  C   UNL A   1      44.319  25.231  34.317  1.00  0.00     0.091 A 
ATOM     78  F   UNL A   1      43.959  26.154  32.185  1.00  0.00    -0.205 F 
ATOM     79  C   UNL A   1      44.617  25.419  35.666  1.00  0.00     0.022 A 
BRANCH  77  80
ATOM     80  S   UNL A   1      44.345  23.562  33.657  1.00  0.00     0.127 S 
ATOM     81  O   UNL A   1      43.058  23.046  34.112  1.00  0.00    -0.237 OA
ATOM     82  O   UNL A   1      44.443  23.809  32.218  1.00  0.00    -0.237 OA
ATOM     83  O   UNL A   1      45.532  22.943  34.235  1.00  0.00    -0.744 OA
ENDBRANCH  77  80
ENDBRANCH  59  73
BRANCH  60  84
ATOM     84  C   UNL A   1      45.036  25.763  25.909  1.00  0.00     0.023 A 
ATOM     85  C   UNL A   1      46.232  25.612  25.165  1.00  0.00     0.012 A 
ATOM     86  C   UNL A   1      44.192  24.636  26.008  1.00  0.00     0.148 A 
ATOM     87  C   UNL A   1      46.596  24.379  24.604  1.00  0.00     0.002 A 
ATOM     88  C   UNL A   1      44.550  23.416  25.435  1.00  0.00     0.091 A 
ATOM     89  F   UNL A   1      43.082  24.714  26.750  1.00  0.00    -0.205 F 
ATOM     90  C   UNL A   1      45.761  23.277  24.749  1.00  0.00     0.022 A 
BRANCH  88  91
ATOM     91  S   UNL A   1      43.505  21.961  25.602  1.00  0.00     0.127 S 
ATOM     92  O   UNL A   1      42.215  22.444  25.106  1.00  0.00    -0.237 OA
ATOM     93  O   UNL A   1      44.176  21.003  24.729  1.00  0.00    -0.237 OA
ATOM     94  O   UNL A   1      43.510  21.642  27.025  1.00  0.00    -0.744 OA
ENDBRANCH  88  91
ENDBRANCH  60  84
BRANCH  72  95
ATOM     95  C   UNL A   1      47.026  30.876  29.055  1.00  0.00     0.023 A 
ATOM     96  C   UNL A   1      48.379  31.169  28.783  1.00  0.00     0.012 A 
ATOM     97  C   UNL A   1      46.020  31.519  28.315  1.00  0.00     0.148 A 
ATOM     98  C   UNL A   1      48.715  32.089  27.786  1.00  0.00     0.002 A 
ATOM     99  C   UNL A   1      46.360  32.399  27.298  1.00  0.00     0.091 A 
ATOM    100  F   UNL A   1      44.742  31.222  28.598  1.00  0.00    -0.205 F 
ATOM    101  C   UNL A   1      47.707  32.690  27.031  1.00  0.00     0.022 A 
BRANCH  99 102
ATOM    102  S   UNL A   1      45.116  33.114  26.221  1.00  0.00     0.127 S 
ATOM    103  O   UNL A   1      45.925  33.926  25.316  1.00  0.00    -0.237 OA
ATOM    104  O   UNL A   1      44.513  31.928  25.609  1.00  0.00    -0.237 OA
ATOM    105  O   UNL A   1      44.211  33.861  27.087  1.00  0.00    -0.744 OA
ENDBRANCH  99 102
ENDBRANCH  72  95
ENDBRANCH  46  47
ENDBRANCH  39  41
ENDBRANCH  38  39
ENDBRANCH  37  38
ENDBRANCH  36  37
ENDBRANCH  35  36
ENDBRANCH  34  35
ENDBRANCH   1  34
TORSDOF 26
ENDMDL
