MODEL 1
REMARK VINA RESULT:      -8.8      0.000      0.000
REMARK SMILES O=C(OCCOCCOCCOCCOC(=O)c1cc(OCc2ccccc2C(F)(F)F)cs1)c1ccc(-c2c3nc(c(-c4cccc(S(=O)(=O)[O-])c4F)c4ccc([nH]4)c(-c4cccc(S(=O)(=O)[O-])c4F)c4nc(c(-c5cccc(S(=O)(=O)[O-])c5F)c5ccc2[nH]5)C=C4)C=C3)cc1
REMARK SMILES IDX 10 1 9 2 8 3 7 4 6 5 5 6 4 7 3 8 2 9 1 10 35 11 36 12 97 13
REMARK SMILES IDX 37 14 96 15 38 16 39 17 40 18 90 19 41 20 95 21 89 22 91 23
REMARK SMILES IDX 42 24 94 25 88 26 87 27 43 29 75 30 55 31 74 32 56 33 59 34
REMARK SMILES IDX 73 35 92 36 57 37 58 38 72 40 93 41 60 42 44 43 45 44 53 45
REMARK SMILES IDX 46 46 48 47 54 48 47 49 49 50 50 51 51 52 52 53 76 54 77 55
REMARK SMILES IDX 85 56 78 57 80 58 86 59 79 60 81 61 82 62 83 63 84 64 61 65
REMARK SMILES IDX 62 66 70 67 63 68 65 69 71 70 64 71 66 72 67 73 68 74 69 75
REMARK SMILES IDX 11 76 12 77 13 78 14 79 15 80 16 81 17 82 18 83 19 84 34 85
REMARK SMILES IDX 20 86 33 87 21 88 22 89 23 90 24 91 28 92 25 93 27 94 26 95
REMARK SMILES IDX 29 96 30 97 31 98 32 99
REMARK H PARENT 91 28 59 39
REMARK Flexibility Score: inf
ROOT
ATOM      1  C   UNL A   1      35.883  21.601  25.187  1.00  0.00     0.188 C 
ENDROOT
BRANCH   1   2
ATOM      2  O   UNL A   1      37.162  20.985  25.315  1.00  0.00    -0.377 OA
BRANCH   2   3
ATOM      3  C   UNL A   1      38.254  21.825  25.691  1.00  0.00     0.188 C 
BRANCH   3   4
ATOM      4  C   UNL A   1      39.591  21.106  25.875  1.00  0.00     0.188 C 
BRANCH   4   5
ATOM      5  O   UNL A   1      40.122  21.374  27.175  1.00  0.00    -0.376 OA
BRANCH   5   6
ATOM      6  C   UNL A   1      41.542  21.297  27.281  1.00  0.00     0.202 C 
BRANCH   6   7
ATOM      7  C   UNL A   1      42.250  20.989  25.960  1.00  0.00     0.261 C 
BRANCH   7   8
ATOM      8  O   UNL A   1      42.571  22.188  25.241  1.00  0.00    -0.460 OA
BRANCH   8   9
ATOM      9  C   UNL A   1      43.538  23.098  25.526  1.00  0.00     0.338 C 
ATOM     10  O   UNL A   1      44.697  22.818  25.217  1.00  0.00    -0.246 OA
BRANCH   9  11
ATOM     11  C   UNL A   1      43.282  24.432  26.161  1.00  0.00     0.060 A 
ATOM     12  C   UNL A   1      42.913  25.601  25.491  1.00  0.00     0.016 A 
ATOM     13  C   UNL A   1      43.382  24.489  27.563  1.00  0.00     0.016 A 
ATOM     14  C   UNL A   1      42.763  26.809  26.161  1.00  0.00     0.010 A 
ATOM     15  C   UNL A   1      43.192  25.690  28.253  1.00  0.00     0.010 A 
ATOM     16  C   UNL A   1      42.932  26.866  27.542  1.00  0.00    -0.014 A 
BRANCH  16  17
ATOM     17  C   UNL A   1      43.013  28.191  28.181  1.00  0.00     0.031 A 
ATOM     18  C   UNL A   1      44.346  28.879  28.199  1.00  0.00     0.074 A 
ATOM     19  C   UNL A   1      41.902  28.797  28.633  1.00  0.00     0.049 A 
ATOM     20  N   UNL A   1      44.677  30.032  28.711  1.00  0.00    -0.248 NA
ATOM     21  C   UNL A   1      45.456  28.175  27.533  1.00  0.00     0.031 C 
ATOM     22  C   UNL A   1      40.551  28.236  28.566  1.00  0.00     0.029 A 
ATOM     23  N   UNL A   1      41.729  30.019  29.226  1.00  0.00    -0.354 N 
ATOM     24  C   UNL A   1      46.039  30.166  28.477  1.00  0.00     0.074 A 
ATOM     25  C   UNL A   1      46.474  28.987  27.765  1.00  0.00     0.031 C 
ATOM     26  C   UNL A   1      39.686  29.118  29.097  1.00  0.00     0.029 A 
ATOM     27  C   UNL A   1      40.427  30.276  29.584  1.00  0.00     0.049 A 
ATOM     28  H   UNL A   1      42.467  30.653  29.379  1.00  0.00     0.167 HD
ATOM     29  C   UNL A   1      46.855  31.186  28.827  1.00  0.00     0.034 A 
ATOM     30  C   UNL A   1      39.909  31.322  30.256  1.00  0.00     0.034 A 
ATOM     31  C   UNL A   1      46.395  32.355  29.522  1.00  0.00     0.049 A 
ATOM     32  C   UNL A   1      40.845  32.425  30.678  1.00  0.00     0.074 A 
ATOM     33  C   UNL A   1      47.124  33.441  29.965  1.00  0.00     0.029 A 
ATOM     34  N   UNL A   1      45.072  32.580  29.880  1.00  0.00    -0.354 N 
ATOM     35  N   UNL A   1      42.130  32.555  30.436  1.00  0.00    -0.248 NA
ATOM     36  C   UNL A   1      40.266  33.529  31.454  1.00  0.00     0.031 C 
ATOM     37  C   UNL A   1      46.242  34.315  30.612  1.00  0.00     0.029 A 
ATOM     38  C   UNL A   1      44.961  33.784  30.547  1.00  0.00     0.049 A 
ATOM     39  H   UNL A   1      44.324  31.970  29.687  1.00  0.00     0.167 HD
ATOM     40  C   UNL A   1      42.509  33.762  31.008  1.00  0.00     0.074 A 
ATOM     41  C   UNL A   1      41.311  34.337  31.590  1.00  0.00     0.031 C 
ATOM     42  C   UNL A   1      43.735  34.339  31.068  1.00  0.00     0.034 A 
BRANCH  29  43
ATOM     43  C   UNL A   1      48.312  31.042  28.484  1.00  0.00     0.023 A 
ATOM     44  C   UNL A   1      48.811  31.575  27.278  1.00  0.00     0.012 A 
ATOM     45  C   UNL A   1      49.179  30.330  29.336  1.00  0.00     0.148 A 
ATOM     46  C   UNL A   1      50.138  31.361  26.903  1.00  0.00     0.002 A 
ATOM     47  C   UNL A   1      50.510  30.155  28.974  1.00  0.00     0.091 A 
ATOM     48  F   UNL A   1      48.678  29.801  30.462  1.00  0.00    -0.205 F 
ATOM     49  C   UNL A   1      50.988  30.657  27.753  1.00  0.00     0.022 A 
BRANCH  47  50
ATOM     50  S   UNL A   1      51.688  29.302  30.027  1.00  0.00     0.127 S 
ATOM     51  O   UNL A   1      51.731  30.180  31.195  1.00  0.00    -0.237 OA
ATOM     52  O   UNL A   1      51.024  28.017  30.254  1.00  0.00    -0.237 OA
ATOM     53  O   UNL A   1      52.922  29.217  29.258  1.00  0.00    -0.744 OA
ENDBRANCH  47  50
ENDBRANCH  29  43
BRANCH  30  54
ATOM     54  C   UNL A   1      38.447  31.379  30.546  1.00  0.00     0.023 A 
ATOM     55  C   UNL A   1      37.949  30.814  31.736  1.00  0.00     0.012 A 
ATOM     56  C   UNL A   1      37.551  32.026  29.670  1.00  0.00     0.148 A 
ATOM     57  C   UNL A   1      36.587  30.877  32.039  1.00  0.00     0.002 A 
ATOM     58  C   UNL A   1      36.205  32.135  30.005  1.00  0.00     0.091 A 
ATOM     59  F   UNL A   1      38.035  32.538  28.530  1.00  0.00    -0.205 F 
ATOM     60  C   UNL A   1      35.718  31.548  31.182  1.00  0.00     0.022 A 
BRANCH  58  61
ATOM     61  S   UNL A   1      35.042  33.093  29.027  1.00  0.00     0.127 S 
ATOM     62  O   UNL A   1      34.922  32.279  27.821  1.00  0.00    -0.237 OA
ATOM     63  O   UNL A   1      33.857  33.100  29.886  1.00  0.00    -0.237 OA
ATOM     64  O   UNL A   1      35.660  34.401  28.849  1.00  0.00    -0.744 OA
ENDBRANCH  58  61
ENDBRANCH  30  54
BRANCH  42  65
ATOM     65  C   UNL A   1      43.838  35.669  31.763  1.00  0.00     0.023 A 
ATOM     66  C   UNL A   1      44.036  35.712  33.157  1.00  0.00     0.012 A 
ATOM     67  C   UNL A   1      43.843  36.864  31.021  1.00  0.00     0.148 A 
ATOM     68  C   UNL A   1      44.217  36.932  33.804  1.00  0.00     0.002 A 
ATOM     69  C   UNL A   1      44.073  38.071  31.666  1.00  0.00     0.091 A 
ATOM     70  F   UNL A   1      43.631  36.797  29.698  1.00  0.00    -0.205 F 
ATOM     71  C   UNL A   1      44.250  38.109  33.059  1.00  0.00     0.022 A 
BRANCH  69  72
ATOM     72  S   UNL A   1      44.238  39.617  30.767  1.00  0.00     0.127 S 
ATOM     73  O   UNL A   1      44.538  40.558  31.845  1.00  0.00    -0.237 OA
ATOM     74  O   UNL A   1      45.360  39.338  29.870  1.00  0.00    -0.237 OA
ATOM     75  O   UNL A   1      42.965  39.823  30.091  1.00  0.00    -0.744 OA
ENDBRANCH  69  72
ENDBRANCH  42  65
ENDBRANCH  16  17
ENDBRANCH   9  11
ENDBRANCH   8   9
ENDBRANCH   7   8
ENDBRANCH   6   7
ENDBRANCH   5   6
ENDBRANCH   4   5
ENDBRANCH   3   4
ENDBRANCH   2   3
ENDBRANCH   1   2
BRANCH   1  76
ATOM     76  C   UNL A   1      35.064  21.886  26.465  1.00  0.00     0.188 C 
BRANCH  76  77
ATOM     77  O   UNL A   1      33.993  20.982  26.687  1.00  0.00    -0.376 OA
BRANCH  77  78
ATOM     78  C   UNL A   1      33.479  20.326  25.533  1.00  0.00     0.202 C 
BRANCH  78  79
ATOM     79  C   UNL A   1      32.303  21.063  24.885  1.00  0.00     0.261 C 
BRANCH  79  80
ATOM     80  O   UNL A   1      32.448  22.491  24.771  1.00  0.00    -0.459 OA
BRANCH  80  81
ATOM     81  C   UNL A   1      31.356  23.295  24.885  1.00  0.00     0.348 C 
ATOM     82  O   UNL A   1      30.443  23.146  25.686  1.00  0.00    -0.245 OA
BRANCH  81  83
ATOM     83  C   UNL A   1      31.543  24.400  23.975  1.00  0.00     0.116 A 
ATOM     84  C   UNL A   1      30.954  25.647  24.044  1.00  0.00     0.074 A 
ATOM     85  S   UNL A   1      32.453  24.226  22.541  1.00  0.00    -0.133 S 
ATOM     86  C   UNL A   1      31.038  26.363  22.820  1.00  0.00     0.131 A 
ATOM     87  C   UNL A   1      31.824  25.694  21.908  1.00  0.00     0.112 A 
BRANCH  86  88
ATOM     88  O   UNL A   1      30.451  27.538  22.464  1.00  0.00    -0.488 OA
BRANCH  88  89
ATOM     89  C   UNL A   1      29.191  27.832  23.077  1.00  0.00     0.266 C 
BRANCH  89  90
ATOM     90  C   UNL A   1      28.957  29.328  23.211  1.00  0.00     0.001 A 
ATOM     91  C   UNL A   1      27.815  29.885  22.599  1.00  0.00     0.008 A 
ATOM     92  C   UNL A   1      29.839  30.195  23.895  1.00  0.00     0.062 A 
ATOM     93  C   UNL A   1      27.561  31.255  22.623  1.00  0.00     0.000 A 
ATOM     94  C   UNL A   1      29.551  31.579  23.925  1.00  0.00     0.013 A 
ATOM     95  C   UNL A   1      28.431  32.105  23.285  1.00  0.00     0.001 A 
BRANCH  92  96
ATOM     96  C   UNL A   1      31.058  29.741  24.671  1.00  0.00     0.416 C 
ATOM     97  F   UNL A   1      30.822  28.621  25.414  1.00  0.00    -0.166 F 
ATOM     98  F   UNL A   1      32.086  29.409  23.836  1.00  0.00    -0.166 F 
ATOM     99  F   UNL A   1      31.577  30.648  25.540  1.00  0.00    -0.166 F 
ENDBRANCH  92  96
ENDBRANCH  89  90
ENDBRANCH  88  89
ENDBRANCH  86  88
ENDBRANCH  81  83
ENDBRANCH  80  81
ENDBRANCH  79  80
ENDBRANCH  78  79
ENDBRANCH  77  78
ENDBRANCH  76  77
ENDBRANCH   1  76
TORSDOF 27
ENDMDL
MODEL 2
REMARK VINA RESULT:      -8.7      3.473      4.739
REMARK SMILES O=C(OCCOCCOCCOCCOC(=O)c1cc(OCc2ccccc2C(F)(F)F)cs1)c1ccc(-c2c3nc(c(-c4cccc(S(=O)(=O)[O-])c4F)c4ccc([nH]4)c(-c4cccc(S(=O)(=O)[O-])c4F)c4nc(c(-c5cccc(S(=O)(=O)[O-])c5F)c5ccc2[nH]5)C=C4)C=C3)cc1
REMARK SMILES IDX 10 1 9 2 8 3 7 4 6 5 5 6 4 7 3 8 2 9 1 10 35 11 36 12 97 13
REMARK SMILES IDX 37 14 96 15 38 16 39 17 40 18 90 19 41 20 95 21 89 22 91 23
REMARK SMILES IDX 42 24 94 25 88 26 87 27 43 29 75 30 55 31 74 32 56 33 59 34
REMARK SMILES IDX 73 35 92 36 57 37 58 38 72 40 93 41 60 42 44 43 45 44 53 45
REMARK SMILES IDX 46 46 48 47 54 48 47 49 49 50 50 51 51 52 52 53 76 54 77 55
REMARK SMILES IDX 85 56 78 57 80 58 86 59 79 60 81 61 82 62 83 63 84 64 61 65
REMARK SMILES IDX 62 66 70 67 63 68 65 69 71 70 64 71 66 72 67 73 68 74 69 75
REMARK SMILES IDX 11 76 12 77 13 78 14 79 15 80 16 81 17 82 18 83 19 84 34 85
REMARK SMILES IDX 20 86 33 87 21 88 22 89 23 90 24 91 28 92 25 93 27 94 26 95
REMARK SMILES IDX 29 96 30 97 31 98 32 99
REMARK H PARENT 91 28 59 39
REMARK Flexibility Score: inf
ROOT
ATOM      1  C   UNL A   1      39.552  21.495  26.101  1.00  0.00     0.188 C 
ENDROOT
BRANCH   1   2
ATOM      2  O   UNL A   1      40.642  20.611  26.352  1.00  0.00    -0.377 OA
BRANCH   2   3
ATOM      3  C   UNL A   1      41.276  20.706  27.629  1.00  0.00     0.188 C 
BRANCH   3   4
ATOM      4  C   UNL A   1      41.798  22.097  27.991  1.00  0.00     0.188 C 
BRANCH   4   5
ATOM      5  O   UNL A   1      43.029  22.357  27.314  1.00  0.00    -0.376 OA
BRANCH   5   6
ATOM      6  C   UNL A   1      43.279  23.726  27.006  1.00  0.00     0.202 C 
BRANCH   6   7
ATOM      7  C   UNL A   1      42.239  24.355  26.076  1.00  0.00     0.261 C 
BRANCH   7   8
ATOM      8  O   UNL A   1      41.904  25.688  26.483  1.00  0.00    -0.460 OA
BRANCH   8   9
ATOM      9  C   UNL A   1      40.928  26.076  27.345  1.00  0.00     0.338 C 
ATOM     10  O   UNL A   1      39.937  25.354  27.451  1.00  0.00    -0.246 OA
BRANCH   9  11
ATOM     11  C   UNL A   1      40.996  27.307  28.198  1.00  0.00     0.060 A 
ATOM     12  C   UNL A   1      40.379  28.530  27.923  1.00  0.00     0.016 A 
ATOM     13  C   UNL A   1      41.711  27.195  29.405  1.00  0.00     0.016 A 
ATOM     14  C   UNL A   1      40.556  29.637  28.745  1.00  0.00     0.010 A 
ATOM     15  C   UNL A   1      41.861  28.291  30.261  1.00  0.00     0.010 A 
ATOM     16  C   UNL A   1      41.323  29.531  29.901  1.00  0.00    -0.014 A 
BRANCH  16  17
ATOM     17  C   UNL A   1      41.695  30.769  30.609  1.00  0.00     0.031 A 
ATOM     18  C   UNL A   1      42.946  31.474  30.176  1.00  0.00     0.074 A 
ATOM     19  C   UNL A   1      40.874  31.296  31.534  1.00  0.00     0.049 A 
ATOM     20  N   UNL A   1      43.491  32.561  30.647  1.00  0.00    -0.248 NA
ATOM     21  C   UNL A   1      43.677  30.876  29.044  1.00  0.00     0.031 C 
ATOM     22  C   UNL A   1      39.591  30.724  31.944  1.00  0.00     0.029 A 
ATOM     23  N   UNL A   1      40.991  32.433  32.288  1.00  0.00    -0.354 N 
ATOM     24  C   UNL A   1      44.652  32.747  29.908  1.00  0.00     0.074 A 
ATOM     25  C   UNL A   1      44.729  31.672  28.947  1.00  0.00     0.031 C 
ATOM     26  C   UNL A   1      39.037  31.518  32.877  1.00  0.00     0.029 A 
ATOM     27  C   UNL A   1      39.948  32.621  33.163  1.00  0.00     0.049 A 
ATOM     28  H   UNL A   1      41.750  33.057  32.209  1.00  0.00     0.167 HD
ATOM     29  C   UNL A   1      45.572  33.732  30.024  1.00  0.00     0.034 A 
ATOM     30  C   UNL A   1      39.773  33.568  34.105  1.00  0.00     0.034 A 
ATOM     31  C   UNL A   1      45.464  34.798  30.977  1.00  0.00     0.049 A 
ATOM     32  C   UNL A   1      40.835  34.627  34.247  1.00  0.00     0.074 A 
ATOM     33  C   UNL A   1      46.344  35.835  31.220  1.00  0.00     0.029 A 
ATOM     34  N   UNL A   1      44.400  34.954  31.857  1.00  0.00    -0.354 N 
ATOM     35  N   UNL A   1      41.921  34.809  33.530  1.00  0.00    -0.248 NA
ATOM     36  C   UNL A   1      40.648  35.618  35.315  1.00  0.00     0.031 C 
ATOM     37  C   UNL A   1      45.820  36.607  32.263  1.00  0.00     0.029 A 
ATOM     38  C   UNL A   1      44.602  36.065  32.652  1.00  0.00     0.049 A 
ATOM     39  H   UNL A   1      43.617  34.359  31.907  1.00  0.00     0.167 HD
ATOM     40  C   UNL A   1      42.535  35.944  34.044  1.00  0.00     0.074 A 
ATOM     41  C   UNL A   1      41.686  36.422  35.118  1.00  0.00     0.031 C 
ATOM     42  C   UNL A   1      43.703  36.531  33.679  1.00  0.00     0.034 A 
BRANCH  29  43
ATOM     43  C   UNL A   1      46.767  33.656  29.114  1.00  0.00     0.023 A 
ATOM     44  C   UNL A   1      47.917  32.945  29.514  1.00  0.00     0.012 A 
ATOM     45  C   UNL A   1      46.769  34.335  27.880  1.00  0.00     0.148 A 
ATOM     46  C   UNL A   1      49.066  32.950  28.723  1.00  0.00     0.002 A 
ATOM     47  C   UNL A   1      47.905  34.304  27.079  1.00  0.00     0.091 A 
ATOM     48  F   UNL A   1      45.679  35.035  27.533  1.00  0.00    -0.205 F 
ATOM     49  C   UNL A   1      49.058  33.624  27.504  1.00  0.00     0.022 A 
BRANCH  47  50
ATOM     50  S   UNL A   1      47.971  35.103  25.472  1.00  0.00     0.127 S 
ATOM     51  O   UNL A   1      49.243  34.609  24.948  1.00  0.00    -0.237 OA
ATOM     52  O   UNL A   1      46.786  34.558  24.808  1.00  0.00    -0.237 OA
ATOM     53  O   UNL A   1      47.912  36.534  25.735  1.00  0.00    -0.744 OA
ENDBRANCH  47  50
ENDBRANCH  29  43
BRANCH  30  54
ATOM     54  C   UNL A   1      38.550  33.563  34.957  1.00  0.00     0.023 A 
ATOM     55  C   UNL A   1      37.363  34.150  34.478  1.00  0.00     0.012 A 
ATOM     56  C   UNL A   1      38.541  32.942  36.224  1.00  0.00     0.148 A 
ATOM     57  C   UNL A   1      36.198  34.135  35.249  1.00  0.00     0.002 A 
ATOM     58  C   UNL A   1      37.363  32.881  36.962  1.00  0.00     0.091 A 
ATOM     59  F   UNL A   1      39.684  32.408  36.677  1.00  0.00    -0.205 F 
ATOM     60  C   UNL A   1      36.194  33.489  36.483  1.00  0.00     0.022 A 
BRANCH  58  61
ATOM     61  S   UNL A   1      37.235  31.957  38.498  1.00  0.00     0.127 S 
ATOM     62  O   UNL A   1      35.921  32.367  38.985  1.00  0.00    -0.237 OA
ATOM     63  O   UNL A   1      37.313  30.574  38.027  1.00  0.00    -0.237 OA
ATOM     64  O   UNL A   1      38.370  32.379  39.308  1.00  0.00    -0.744 OA
ENDBRANCH  58  61
ENDBRANCH  30  54
BRANCH  42  65
ATOM     65  C   UNL A   1      44.117  37.767  34.429  1.00  0.00     0.023 A 
ATOM     66  C   UNL A   1      44.880  37.645  35.606  1.00  0.00     0.012 A 
ATOM     67  C   UNL A   1      43.837  39.044  33.908  1.00  0.00     0.148 A 
ATOM     68  C   UNL A   1      45.341  38.781  36.267  1.00  0.00     0.002 A 
ATOM     69  C   UNL A   1      44.343  40.170  34.545  1.00  0.00     0.091 A 
ATOM     70  F   UNL A   1      43.091  39.134  32.798  1.00  0.00    -0.205 F 
ATOM     71  C   UNL A   1      45.087  40.041  35.730  1.00  0.00     0.022 A 
BRANCH  69  72
ATOM     72  S   UNL A   1      44.151  41.819  33.861  1.00  0.00     0.127 S 
ATOM     73  O   UNL A   1      42.871  42.232  34.433  1.00  0.00    -0.237 OA
ATOM     74  O   UNL A   1      45.316  42.520  34.404  1.00  0.00    -0.237 OA
ATOM     75  O   UNL A   1      44.170  41.656  32.414  1.00  0.00    -0.744 OA
ENDBRANCH  69  72
ENDBRANCH  42  65
ENDBRANCH  16  17
ENDBRANCH   9  11
ENDBRANCH   8   9
ENDBRANCH   7   8
ENDBRANCH   6   7
ENDBRANCH   5   6
ENDBRANCH   4   5
ENDBRANCH   3   4
ENDBRANCH   2   3
ENDBRANCH   1   2
BRANCH   1  76
ATOM     76  C   UNL A   1      38.316  20.955  25.349  1.00  0.00     0.188 C 
BRANCH  76  77
ATOM     77  O   UNL A   1      37.154  21.760  25.482  1.00  0.00    -0.376 OA
BRANCH  77  78
ATOM     78  C   UNL A   1      36.843  22.597  24.374  1.00  0.00     0.202 C 
BRANCH  78  79
ATOM     79  C   UNL A   1      35.417  23.155  24.414  1.00  0.00     0.261 C 
BRANCH  79  80
ATOM     80  O   UNL A   1      34.497  22.586  23.464  1.00  0.00    -0.459 OA
BRANCH  80  81
ATOM     81  C   UNL A   1      33.392  21.924  23.903  1.00  0.00     0.348 C 
ATOM     82  O   UNL A   1      33.350  20.743  24.222  1.00  0.00    -0.245 OA
BRANCH  81  83
ATOM     83  C   UNL A   1      32.333  22.899  24.029  1.00  0.00     0.116 A 
ATOM     84  C   UNL A   1      32.058  23.946  23.172  1.00  0.00     0.074 A 
ATOM     85  S   UNL A   1      31.340  22.956  25.416  1.00  0.00    -0.133 S 
ATOM     86  C   UNL A   1      31.218  24.930  23.760  1.00  0.00     0.131 A 
ATOM     87  C   UNL A   1      30.760  24.518  24.993  1.00  0.00     0.112 A 
BRANCH  86  88
ATOM     88  O   UNL A   1      30.860  26.154  23.289  1.00  0.00    -0.488 OA
BRANCH  88  89
ATOM     89  C   UNL A   1      31.926  27.078  23.043  1.00  0.00     0.266 C 
BRANCH  89  90
ATOM     90  C   UNL A   1      32.106  28.061  24.188  1.00  0.00     0.001 A 
ATOM     91  C   UNL A   1      33.162  27.847  25.097  1.00  0.00     0.008 A 
ATOM     92  C   UNL A   1      31.251  29.166  24.404  1.00  0.00     0.062 A 
ATOM     93  C   UNL A   1      33.356  28.666  26.207  1.00  0.00     0.000 A 
ATOM     94  C   UNL A   1      31.480  29.997  25.525  1.00  0.00     0.013 A 
ATOM     95  C   UNL A   1      32.513  29.742  26.424  1.00  0.00     0.001 A 
BRANCH  92  96
ATOM     96  C   UNL A   1      30.128  29.579  23.475  1.00  0.00     0.416 C 
ATOM     97  F   UNL A   1      29.126  28.655  23.419  1.00  0.00    -0.166 F 
ATOM     98  F   UNL A   1      29.532  30.733  23.895  1.00  0.00    -0.166 F 
ATOM     99  F   UNL A   1      30.483  29.805  22.183  1.00  0.00    -0.166 F 
ENDBRANCH  92  96
ENDBRANCH  89  90
ENDBRANCH  88  89
ENDBRANCH  86  88
ENDBRANCH  81  83
ENDBRANCH  80  81
ENDBRANCH  79  80
ENDBRANCH  78  79
ENDBRANCH  77  78
ENDBRANCH  76  77
ENDBRANCH   1  76
TORSDOF 27
ENDMDL
MODEL 3
REMARK VINA RESULT:      -8.4      4.758      9.909
REMARK SMILES O=C(OCCOCCOCCOCCOC(=O)c1cc(OCc2ccccc2C(F)(F)F)cs1)c1ccc(-c2c3nc(c(-c4cccc(S(=O)(=O)[O-])c4F)c4ccc([nH]4)c(-c4cccc(S(=O)(=O)[O-])c4F)c4nc(c(-c5cccc(S(=O)(=O)[O-])c5F)c5ccc2[nH]5)C=C4)C=C3)cc1
REMARK SMILES IDX 10 1 9 2 8 3 7 4 6 5 5 6 4 7 3 8 2 9 1 10 35 11 36 12 97 13
REMARK SMILES IDX 37 14 96 15 38 16 39 17 40 18 90 19 41 20 95 21 89 22 91 23
REMARK SMILES IDX 42 24 94 25 88 26 87 27 43 29 75 30 55 31 74 32 56 33 59 34
REMARK SMILES IDX 73 35 92 36 57 37 58 38 72 40 93 41 60 42 44 43 45 44 53 45
REMARK SMILES IDX 46 46 48 47 54 48 47 49 49 50 50 51 51 52 52 53 76 54 77 55
REMARK SMILES IDX 85 56 78 57 80 58 86 59 79 60 81 61 82 62 83 63 84 64 61 65
REMARK SMILES IDX 62 66 70 67 63 68 65 69 71 70 64 71 66 72 67 73 68 74 69 75
REMARK SMILES IDX 11 76 12 77 13 78 14 79 15 80 16 81 17 82 18 83 19 84 34 85
REMARK SMILES IDX 20 86 33 87 21 88 22 89 23 90 24 91 28 92 25 93 27 94 26 95
REMARK SMILES IDX 29 96 30 97 31 98 32 99
REMARK H PARENT 91 28 59 39
REMARK Flexibility Score: inf
ROOT
ATOM      1  C   UNL A   1      34.668  33.418  28.065  1.00  0.00     0.188 C 
ENDROOT
BRANCH   1   2
ATOM      2  O   UNL A   1      34.835  34.446  29.039  1.00  0.00    -0.377 OA
BRANCH   2   3
ATOM      3  C   UNL A   1      34.154  35.680  28.805  1.00  0.00     0.188 C 
BRANCH   3   4
ATOM      4  C   UNL A   1      32.858  35.864  29.595  1.00  0.00     0.188 C 
BRANCH   4   5
ATOM      5  O   UNL A   1      32.908  37.072  30.356  1.00  0.00    -0.376 OA
BRANCH   5   6
ATOM      6  C   UNL A   1      33.295  36.919  31.719  1.00  0.00     0.202 C 
BRANCH   6   7
ATOM      7  C   UNL A   1      32.626  35.740  32.429  1.00  0.00     0.261 C 
BRANCH   7   8
ATOM      8  O   UNL A   1      33.553  35.027  33.258  1.00  0.00    -0.460 OA
BRANCH   8   9
ATOM      9  C   UNL A   1      34.232  33.889  32.962  1.00  0.00     0.338 C 
ATOM     10  O   UNL A   1      33.580  32.911  32.594  1.00  0.00    -0.246 OA
BRANCH   9  11
ATOM     11  C   UNL A   1      35.724  33.756  33.021  1.00  0.00     0.060 A 
ATOM     12  C   UNL A   1      36.431  32.708  33.619  1.00  0.00     0.016 A 
ATOM     13  C   UNL A   1      36.470  34.757  32.374  1.00  0.00     0.016 A 
ATOM     14  C   UNL A   1      37.819  32.708  33.682  1.00  0.00     0.010 A 
ATOM     15  C   UNL A   1      37.868  34.745  32.394  1.00  0.00     0.010 A 
ATOM     16  C   UNL A   1      38.543  33.742  33.096  1.00  0.00    -0.014 A 
BRANCH  16  17
ATOM     17  C   UNL A   1      39.983  33.841  33.394  1.00  0.00     0.031 A 
ATOM     18  C   UNL A   1      40.949  33.543  32.285  1.00  0.00     0.074 A 
ATOM     19  C   UNL A   1      40.401  34.289  34.590  1.00  0.00     0.049 A 
ATOM     20  N   UNL A   1      42.253  33.545  32.299  1.00  0.00    -0.248 NA
ATOM     21  C   UNL A   1      40.360  33.212  30.975  1.00  0.00     0.031 C 
ATOM     22  C   UNL A   1      39.524  34.693  35.691  1.00  0.00     0.029 A 
ATOM     23  N   UNL A   1      41.665  34.491  35.076  1.00  0.00    -0.354 N 
ATOM     24  C   UNL A   1      42.640  33.164  31.020  1.00  0.00     0.074 A 
ATOM     25  C   UNL A   1      41.436  32.953  30.249  1.00  0.00     0.031 C 
ATOM     26  C   UNL A   1      40.281  35.097  36.726  1.00  0.00     0.029 A 
ATOM     27  C   UNL A   1      41.689  34.933  36.377  1.00  0.00     0.049 A 
ATOM     28  H   UNL A   1      42.479  34.336  34.543  1.00  0.00     0.167 HD
ATOM     29  C   UNL A   1      43.891  33.006  30.534  1.00  0.00     0.034 A 
ATOM     30  C   UNL A   1      42.737  35.150  37.195  1.00  0.00     0.034 A 
ATOM     31  C   UNL A   1      45.072  33.237  31.316  1.00  0.00     0.049 A 
ATOM     32  C   UNL A   1      44.121  34.921  36.645  1.00  0.00     0.074 A 
ATOM     33  C   UNL A   1      46.395  33.078  30.954  1.00  0.00     0.029 A 
ATOM     34  N   UNL A   1      45.061  33.673  32.635  1.00  0.00    -0.354 N 
ATOM     35  N   UNL A   1      44.480  34.581  35.428  1.00  0.00    -0.248 NA
ATOM     36  C   UNL A   1      45.245  35.114  37.571  1.00  0.00     0.031 C 
ATOM     37  C   UNL A   1      47.185  33.399  32.064  1.00  0.00     0.029 A 
ATOM     38  C   UNL A   1      46.354  33.783  33.108  1.00  0.00     0.049 A 
ATOM     39  H   UNL A   1      44.251  33.874  33.156  1.00  0.00     0.167 HD
ATOM     40  C   UNL A   1      45.868  34.540  35.434  1.00  0.00     0.074 A 
ATOM     41  C   UNL A   1      46.286  34.914  36.772  1.00  0.00     0.031 C 
ATOM     42  C   UNL A   1      46.724  34.206  34.436  1.00  0.00     0.034 A 
BRANCH  29  43
ATOM     43  C   UNL A   1      44.014  32.534  29.111  1.00  0.00     0.023 A 
ATOM     44  C   UNL A   1      44.131  31.157  28.829  1.00  0.00     0.012 A 
ATOM     45  C   UNL A   1      44.066  33.463  28.053  1.00  0.00     0.148 A 
ATOM     46  C   UNL A   1      44.344  30.716  27.523  1.00  0.00     0.002 A 
ATOM     47  C   UNL A   1      44.240  33.012  26.749  1.00  0.00     0.091 A 
ATOM     48  F   UNL A   1      43.988  34.770  28.344  1.00  0.00    -0.205 F 
ATOM     49  C   UNL A   1      44.393  31.642  26.484  1.00  0.00     0.022 A 
BRANCH  47  50
ATOM     50  S   UNL A   1      44.268  34.128  25.342  1.00  0.00     0.127 S 
ATOM     51  O   UNL A   1      44.376  33.191  24.225  1.00  0.00    -0.237 OA
ATOM     52  O   UNL A   1      42.970  34.795  25.453  1.00  0.00    -0.237 OA
ATOM     53  O   UNL A   1      45.416  35.000  25.546  1.00  0.00    -0.744 OA
ENDBRANCH  47  50
ENDBRANCH  29  43
BRANCH  30  54
ATOM     54  C   UNL A   1      42.514  35.623  38.592  1.00  0.00     0.023 A 
ATOM     55  C   UNL A   1      42.229  34.691  39.608  1.00  0.00     0.012 A 
ATOM     56  C   UNL A   1      42.625  36.988  38.930  1.00  0.00     0.148 A 
ATOM     57  C   UNL A   1      42.041  35.108  40.927  1.00  0.00     0.002 A 
ATOM     58  C   UNL A   1      42.492  37.391  40.255  1.00  0.00     0.091 A 
ATOM     59  F   UNL A   1      42.873  37.867  37.949  1.00  0.00    -0.205 F 
ATOM     60  C   UNL A   1      42.186  36.455  41.253  1.00  0.00     0.022 A 
BRANCH  58  61
ATOM     61  S   UNL A   1      42.793  39.082  40.784  1.00  0.00     0.127 S 
ATOM     62  O   UNL A   1      42.303  39.057  42.159  1.00  0.00    -0.237 OA
ATOM     63  O   UNL A   1      44.246  39.187  40.649  1.00  0.00    -0.237 OA
ATOM     64  O   UNL A   1      42.044  39.923  39.860  1.00  0.00    -0.744 OA
ENDBRANCH  58  61
ENDBRANCH  30  54
BRANCH  42  65
ATOM     65  C   UNL A   1      48.195  34.256  34.744  1.00  0.00     0.023 A 
ATOM     66  C   UNL A   1      48.906  35.457  34.556  1.00  0.00     0.012 A 
ATOM     67  C   UNL A   1      48.842  33.145  35.316  1.00  0.00     0.148 A 
ATOM     68  C   UNL A   1      50.249  35.543  34.914  1.00  0.00     0.002 A 
ATOM     69  C   UNL A   1      50.167  33.254  35.716  1.00  0.00     0.091 A 
ATOM     70  F   UNL A   1      48.149  32.006  35.465  1.00  0.00    -0.205 F 
ATOM     71  C   UNL A   1      50.876  34.448  35.508  1.00  0.00     0.022 A 
BRANCH  69  72
ATOM     72  S   UNL A   1      51.013  31.929  36.583  1.00  0.00     0.127 S 
ATOM     73  O   UNL A   1      52.384  32.434  36.637  1.00  0.00    -0.237 OA
ATOM     74  O   UNL A   1      50.320  31.906  37.872  1.00  0.00    -0.237 OA
ATOM     75  O   UNL A   1      50.816  30.733  35.775  1.00  0.00    -0.744 OA
ENDBRANCH  69  72
ENDBRANCH  42  65
ENDBRANCH  16  17
ENDBRANCH   9  11
ENDBRANCH   8   9
ENDBRANCH   7   8
ENDBRANCH   6   7
ENDBRANCH   5   6
ENDBRANCH   4   5
ENDBRANCH   3   4
ENDBRANCH   2   3
ENDBRANCH   1   2
BRANCH   1  76
ATOM     76  C   UNL A   1      34.450  31.967  28.546  1.00  0.00     0.188 C 
BRANCH  76  77
ATOM     77  O   UNL A   1      34.553  30.991  27.522  1.00  0.00    -0.376 OA
BRANCH  77  78
ATOM     78  C   UNL A   1      33.431  30.129  27.364  1.00  0.00     0.202 C 
BRANCH  78  79
ATOM     79  C   UNL A   1      32.930  30.038  25.920  1.00  0.00     0.261 C 
BRANCH  79  80
ATOM     80  O   UNL A   1      33.570  29.044  25.097  1.00  0.00    -0.459 OA
BRANCH  80  81
ATOM     81  C   UNL A   1      33.217  28.915  23.790  1.00  0.00     0.348 C 
ATOM     82  O   UNL A   1      33.914  29.215  22.831  1.00  0.00    -0.245 OA
BRANCH  81  83
ATOM     83  C   UNL A   1      31.931  28.256  23.760  1.00  0.00     0.116 A 
ATOM     84  C   UNL A   1      31.644  26.968  24.166  1.00  0.00     0.074 A 
ATOM     85  S   UNL A   1      30.573  28.993  23.033  1.00  0.00    -0.133 S 
ATOM     86  C   UNL A   1      30.402  26.498  23.662  1.00  0.00     0.131 A 
ATOM     87  C   UNL A   1      29.717  27.503  23.015  1.00  0.00     0.112 A 
BRANCH  86  88
ATOM     88  O   UNL A   1      29.863  25.251  23.720  1.00  0.00    -0.488 OA
BRANCH  88  89
ATOM     89  C   UNL A   1      30.706  24.171  23.304  1.00  0.00     0.266 C 
BRANCH  89  90
ATOM     90  C   UNL A   1      31.476  23.566  24.467  1.00  0.00     0.001 A 
ATOM     91  C   UNL A   1      30.821  23.436  25.709  1.00  0.00     0.008 A 
ATOM     92  C   UNL A   1      32.824  23.152  24.374  1.00  0.00     0.062 A 
ATOM     93  C   UNL A   1      31.475  22.949  26.839  1.00  0.00     0.000 A 
ATOM     94  C   UNL A   1      33.462  22.641  25.528  1.00  0.00     0.013 A 
ATOM     95  C   UNL A   1      32.798  22.552  26.750  1.00  0.00     0.001 A 
BRANCH  92  96
ATOM     96  C   UNL A   1      33.636  23.150  23.096  1.00  0.00     0.416 C 
ATOM     97  F   UNL A   1      33.966  24.406  22.680  1.00  0.00    -0.166 F 
ATOM     98  F   UNL A   1      34.825  22.500  23.262  1.00  0.00    -0.166 F 
ATOM     99  F   UNL A   1      33.048  22.558  22.023  1.00  0.00    -0.166 F 
ENDBRANCH  92  96
ENDBRANCH  89  90
ENDBRANCH  88  89
ENDBRANCH  86  88
ENDBRANCH  81  83
ENDBRANCH  80  81
ENDBRANCH  79  80
ENDBRANCH  78  79
ENDBRANCH  77  78
ENDBRANCH  76  77
ENDBRANCH   1  76
TORSDOF 27
ENDMDL
