MODEL 1
REMARK VINA RESULT:     -11.2      0.000      0.000
REMARK SMILES Cc1cnn(C2(C(=O)OCCOCCOCCOCCOC(=O)c3ccc(-c4c5nc(c(-c6cccc(S(=O)(=O)[O-])c6F)c6ccc([nH]6)c(-c6cccc(S(=O)(=O)[O-])c6F)c6nc(c(-c7cccc(S(=O)(=O)[O-])c7F)c7ccc4[nH]7)C=C6)C=C5)cc3)CCN(C(=O)c3cc4ccccc4[nH]3)CC2)c1
REMARK SMILES IDX 16 1 15 2 14 3 13 4 12 5 11 6 10 7 9 8 7 9 8 10 6 11 87 12
REMARK SMILES IDX 102 13 88 14 101 15 89 16 90 17 91 18 5 19 1 20 2 21 3 22
REMARK SMILES IDX 103 23 4 24 92 25 93 26 100 27 94 28 99 29 95 31 98 32 96 33
REMARK SMILES IDX 97 34 17 35 18 36 19 37 20 38 21 39 22 40 23 41 24 42 25 43
REMARK SMILES IDX 86 44 26 45 85 46 27 47 28 48 29 49 79 50 30 51 84 52 78 53
REMARK SMILES IDX 80 54 31 55 83 56 77 57 76 58 32 60 64 61 44 62 63 63 45 64
REMARK SMILES IDX 48 65 62 66 81 67 46 68 47 69 61 71 82 72 49 73 33 74 34 75
REMARK SMILES IDX 42 76 35 77 37 78 43 79 36 80 38 81 39 82 40 83 41 84 65 85
REMARK SMILES IDX 66 86 74 87 67 88 69 89 75 90 68 91 70 92 71 93 72 94 73 95
REMARK SMILES IDX 50 96 51 97 59 98 52 99 54 100 60 101 53 102 55 103 56 104
REMARK SMILES IDX 57 105 58 106
REMARK H PARENT 100 30 80 59 48 70
REMARK Flexibility Score: inf
ROOT
ATOM      1  C   UNL A   1      38.070  22.224  25.882  1.00  0.00     0.188 C 
ENDROOT
BRANCH   1   2
ATOM      2  O   UNL A   1      37.218  23.330  26.136  1.00  0.00    -0.377 OA
BRANCH   2   3
ATOM      3  C   UNL A   1      35.863  23.125  25.781  1.00  0.00     0.188 C 
BRANCH   3   4
ATOM      4  C   UNL A   1      35.370  23.931  24.563  1.00  0.00     0.188 C 
BRANCH   4   5
ATOM      5  O   UNL A   1      34.800  25.224  24.735  1.00  0.00    -0.376 OA
BRANCH   5   6
ATOM      6  C   UNL A   1      33.975  25.463  25.863  1.00  0.00     0.202 C 
BRANCH   6   7
ATOM      7  C   UNL A   1      33.438  26.882  26.112  1.00  0.00     0.261 C 
BRANCH   7   8
ATOM      8  O   UNL A   1      32.004  27.035  26.082  1.00  0.00    -0.461 OA
BRANCH   8   9
ATOM      9  C   UNL A   1      31.500  27.863  25.124  1.00  0.00     0.334 C 
ATOM     10  O   UNL A   1      31.263  29.054  25.329  1.00  0.00    -0.249 OA
BRANCH   9  11
ATOM     11  C   UNL A   1      31.098  27.147  23.798  1.00  0.00     0.163 C 
ATOM     12  C   UNL A   1      32.197  27.064  22.707  1.00  0.00     0.064 C 
ATOM     13  C   UNL A   1      30.770  25.739  24.341  1.00  0.00     0.064 C 
ATOM     14  C   UNL A   1      32.023  25.918  21.712  1.00  0.00     0.123 C 
ATOM     15  C   UNL A   1      30.692  24.628  23.317  1.00  0.00     0.123 C 
ATOM     16  N   UNL A   1      31.818  24.656  22.398  1.00  0.00    -0.337 N 
ATOM     17  C   UNL A   1      32.719  23.608  22.174  1.00  0.00     0.270 C 
ATOM     18  O   UNL A   1      33.766  23.776  21.554  1.00  0.00    -0.267 OA
BRANCH  11  19
ATOM     19  N   UNL A   1      29.925  27.853  23.236  1.00  0.00    -0.255 N 
ATOM     20  C   UNL A   1      27.974  30.499  21.622  1.00  0.00     0.048 C 
ATOM     21  C   UNL A   1      28.552  29.343  22.338  1.00  0.00    -0.013 A 
ATOM     22  C   UNL A   1      27.863  28.354  23.056  1.00  0.00     0.138 A 
ATOM     23  C   UNL A   1      29.881  28.995  22.478  1.00  0.00     0.113 A 
ATOM     24  N   UNL A   1      28.688  27.487  23.634  1.00  0.00    -0.180 NA
ENDBRANCH  11  19
BRANCH  17  25
ATOM     25  C   UNL A   1      32.421  22.328  22.775  1.00  0.00     0.105 A 
ATOM     26  C   UNL A   1      32.361  21.924  24.097  1.00  0.00     0.042 A 
ATOM     27  N   UNL A   1      32.106  21.219  22.022  1.00  0.00    -0.351 N 
ATOM     28  C   UNL A   1      32.392  20.507  24.109  1.00  0.00     0.000 A 
ATOM     29  C   UNL A   1      32.217  20.084  22.794  1.00  0.00     0.046 A 
ATOM     30  H   UNL A   1      31.841  21.235  21.074  1.00  0.00     0.167 HD
ATOM     31  C   UNL A   1      32.590  19.548  25.118  1.00  0.00     0.010 A 
ATOM     32  C   UNL A   1      32.192  18.734  22.433  1.00  0.00     0.026 A 
ATOM     33  C   UNL A   1      32.616  18.194  24.769  1.00  0.00     0.001 A 
ATOM     34  C   UNL A   1      32.408  17.796  23.449  1.00  0.00     0.002 A 
ENDBRANCH  17  25
ENDBRANCH   9  11
ENDBRANCH   8   9
ENDBRANCH   7   8
ENDBRANCH   6   7
ENDBRANCH   5   6
ENDBRANCH   4   5
ENDBRANCH   3   4
ENDBRANCH   2   3
ENDBRANCH   1   2
BRANCH   1  35
ATOM     35  C   UNL A   1      39.473  22.297  26.516  1.00  0.00     0.188 C 
BRANCH  35  36
ATOM     36  O   UNL A   1      40.363  21.256  26.105  1.00  0.00    -0.376 OA
BRANCH  36  37
ATOM     37  C   UNL A   1      41.565  21.053  26.834  1.00  0.00     0.202 C 
BRANCH  37  38
ATOM     38  C   UNL A   1      42.794  21.739  26.231  1.00  0.00     0.261 C 
BRANCH  38  39
ATOM     39  O   UNL A   1      42.508  22.948  25.544  1.00  0.00    -0.460 OA
BRANCH  39  40
ATOM     40  C   UNL A   1      43.198  24.029  25.944  1.00  0.00     0.338 C 
ATOM     41  O   UNL A   1      44.316  24.374  25.568  1.00  0.00    -0.246 OA
BRANCH  40  42
ATOM     42  C   UNL A   1      42.436  24.750  26.962  1.00  0.00     0.060 A 
ATOM     43  C   UNL A   1      41.388  25.541  26.495  1.00  0.00     0.016 A 
ATOM     44  C   UNL A   1      42.929  24.850  28.270  1.00  0.00     0.016 A 
ATOM     45  C   UNL A   1      41.025  26.629  27.244  1.00  0.00     0.010 A 
ATOM     46  C   UNL A   1      42.568  25.940  29.023  1.00  0.00     0.010 A 
ATOM     47  C   UNL A   1      41.714  26.869  28.438  1.00  0.00    -0.014 A 
BRANCH  47  48
ATOM     48  C   UNL A   1      41.624  28.210  28.963  1.00  0.00     0.031 A 
ATOM     49  C   UNL A   1      42.645  29.147  28.485  1.00  0.00     0.074 A 
ATOM     50  C   UNL A   1      40.664  28.553  29.840  1.00  0.00     0.049 A 
ATOM     51  N   UNL A   1      43.625  29.644  29.162  1.00  0.00    -0.248 NA
ATOM     52  C   UNL A   1      42.641  29.480  27.058  1.00  0.00     0.031 C 
ATOM     53  C   UNL A   1      39.436  27.823  30.163  1.00  0.00     0.029 A 
ATOM     54  N   UNL A   1      40.530  29.720  30.522  1.00  0.00    -0.354 N 
ATOM     55  C   UNL A   1      44.238  30.538  28.297  1.00  0.00     0.074 A 
ATOM     56  C   UNL A   1      43.709  30.273  26.982  1.00  0.00     0.031 C 
ATOM     57  C   UNL A   1      38.573  28.673  30.762  1.00  0.00     0.029 A 
ATOM     58  C   UNL A   1      39.241  29.947  30.974  1.00  0.00     0.049 A 
ATOM     59  H   UNL A   1      41.276  30.343  30.680  1.00  0.00     0.167 HD
ATOM     60  C   UNL A   1      44.961  31.590  28.758  1.00  0.00     0.034 A 
ATOM     61  C   UNL A   1      38.743  31.135  31.383  1.00  0.00     0.034 A 
ATOM     62  C   UNL A   1      45.304  31.465  30.149  1.00  0.00     0.049 A 
ATOM     63  C   UNL A   1      39.889  32.004  31.751  1.00  0.00     0.074 A 
ATOM     64  C   UNL A   1      45.982  30.532  30.908  1.00  0.00     0.029 A 
ATOM     65  N   UNL A   1      44.625  32.258  31.041  1.00  0.00    -0.354 N 
ATOM     66  N   UNL A   1      40.658  31.799  32.784  1.00  0.00    -0.248 NA
ATOM     67  C   UNL A   1      40.429  32.903  30.742  1.00  0.00     0.031 C 
ATOM     68  C   UNL A   1      45.326  30.532  32.173  1.00  0.00     0.029 A 
ATOM     69  C   UNL A   1      44.294  31.472  32.114  1.00  0.00     0.049 A 
ATOM     70  H   UNL A   1      44.414  33.213  30.931  1.00  0.00     0.167 HD
ATOM     71  C   UNL A   1      41.926  32.184  32.363  1.00  0.00     0.074 A 
ATOM     72  C   UNL A   1      41.697  32.973  31.157  1.00  0.00     0.031 C 
ATOM     73  C   UNL A   1      43.055  31.587  32.856  1.00  0.00     0.034 A 
BRANCH  60  74
ATOM     74  C   UNL A   1      45.088  32.889  28.021  1.00  0.00     0.023 A 
ATOM     75  C   UNL A   1      46.368  33.276  27.577  1.00  0.00     0.012 A 
ATOM     76  C   UNL A   1      44.057  33.853  27.949  1.00  0.00     0.148 A 
ATOM     77  C   UNL A   1      46.610  34.564  27.092  1.00  0.00     0.002 A 
ATOM     78  C   UNL A   1      44.281  35.096  27.374  1.00  0.00     0.091 A 
ATOM     79  F   UNL A   1      42.885  33.629  28.555  1.00  0.00    -0.205 F 
ATOM     80  C   UNL A   1      45.563  35.470  26.969  1.00  0.00     0.022 A 
BRANCH  78  81
ATOM     81  S   UNL A   1      42.915  36.232  27.116  1.00  0.00     0.127 S 
ATOM     82  O   UNL A   1      42.128  35.526  26.111  1.00  0.00    -0.237 OA
ATOM     83  O   UNL A   1      42.309  36.295  28.447  1.00  0.00    -0.237 OA
ATOM     84  O   UNL A   1      43.551  37.475  26.696  1.00  0.00    -0.744 OA
ENDBRANCH  78  81
ENDBRANCH  60  74
BRANCH  61  85
ATOM     85  C   UNL A   1      37.360  31.641  31.249  1.00  0.00     0.023 A 
ATOM     86  C   UNL A   1      36.715  32.206  32.363  1.00  0.00     0.012 A 
ATOM     87  C   UNL A   1      36.747  31.783  29.981  1.00  0.00     0.148 A 
ATOM     88  C   UNL A   1      35.507  32.899  32.221  1.00  0.00     0.002 A 
ATOM     89  C   UNL A   1      35.534  32.449  29.848  1.00  0.00     0.091 A 
ATOM     90  F   UNL A   1      37.395  31.351  28.891  1.00  0.00    -0.205 F 
ATOM     91  C   UNL A   1      34.915  33.020  30.965  1.00  0.00     0.022 A 
BRANCH  89  92
ATOM     92  S   UNL A   1      34.718  32.615  28.253  1.00  0.00     0.127 S 
ATOM     93  O   UNL A   1      33.514  33.374  28.599  1.00  0.00    -0.237 OA
ATOM     94  O   UNL A   1      35.708  33.358  27.480  1.00  0.00    -0.237 OA
ATOM     95  O   UNL A   1      34.451  31.252  27.810  1.00  0.00    -0.744 OA
ENDBRANCH  89  92
ENDBRANCH  61  85
BRANCH  73  96
ATOM     96  C   UNL A   1      42.929  30.701  34.074  1.00  0.00     0.023 A 
ATOM     97  C   UNL A   1      42.984  31.230  35.380  1.00  0.00     0.012 A 
ATOM     98  C   UNL A   1      42.553  29.353  33.908  1.00  0.00     0.148 A 
ATOM     99  C   UNL A   1      42.703  30.434  36.493  1.00  0.00     0.002 A 
ATOM    100  C   UNL A   1      42.226  28.577  35.016  1.00  0.00     0.091 A 
ATOM    101  F   UNL A   1      42.490  28.857  32.662  1.00  0.00    -0.205 F 
ATOM    102  C   UNL A   1      42.311  29.111  36.311  1.00  0.00     0.022 A 
BRANCH 100 103
ATOM    103  S   UNL A   1      41.573  26.913  34.837  1.00  0.00     0.127 S 
ATOM    104  O   UNL A   1      42.732  26.180  34.332  1.00  0.00    -0.237 OA
ATOM    105  O   UNL A   1      41.184  26.571  36.207  1.00  0.00    -0.237 OA
ATOM    106  O   UNL A   1      40.448  27.029  33.917  1.00  0.00    -0.744 OA
ENDBRANCH 100 103
ENDBRANCH  73  96
ENDBRANCH  47  48
ENDBRANCH  40  42
ENDBRANCH  39  40
ENDBRANCH  38  39
ENDBRANCH  37  38
ENDBRANCH  36  37
ENDBRANCH  35  36
ENDBRANCH   1  35
TORSDOF 25
ENDMDL
MODEL 2
REMARK VINA RESULT:     -10.1      1.996      2.303
REMARK SMILES Cc1cnn(C2(C(=O)OCCOCCOCCOCCOC(=O)c3ccc(-c4c5nc(c(-c6cccc(S(=O)(=O)[O-])c6F)c6ccc([nH]6)c(-c6cccc(S(=O)(=O)[O-])c6F)c6nc(c(-c7cccc(S(=O)(=O)[O-])c7F)c7ccc4[nH]7)C=C6)C=C5)cc3)CCN(C(=O)c3cc4ccccc4[nH]3)CC2)c1
REMARK SMILES IDX 16 1 15 2 14 3 13 4 12 5 11 6 10 7 9 8 7 9 8 10 6 11 87 12
REMARK SMILES IDX 102 13 88 14 101 15 89 16 90 17 91 18 5 19 1 20 2 21 3 22
REMARK SMILES IDX 103 23 4 24 92 25 93 26 100 27 94 28 99 29 95 31 98 32 96 33
REMARK SMILES IDX 97 34 17 35 18 36 19 37 20 38 21 39 22 40 23 41 24 42 25 43
REMARK SMILES IDX 86 44 26 45 85 46 27 47 28 48 29 49 79 50 30 51 84 52 78 53
REMARK SMILES IDX 80 54 31 55 83 56 77 57 76 58 32 60 64 61 44 62 63 63 45 64
REMARK SMILES IDX 48 65 62 66 81 67 46 68 47 69 61 71 82 72 49 73 33 74 34 75
REMARK SMILES IDX 42 76 35 77 37 78 43 79 36 80 38 81 39 82 40 83 41 84 65 85
REMARK SMILES IDX 66 86 74 87 67 88 69 89 75 90 68 91 70 92 71 93 72 94 73 95
REMARK SMILES IDX 50 96 51 97 59 98 52 99 54 100 60 101 53 102 55 103 56 104
REMARK SMILES IDX 57 105 58 106
REMARK H PARENT 100 30 80 59 48 70
REMARK Flexibility Score: inf
ROOT
ATOM      1  C   UNL A   1      38.193  22.000  25.971  1.00  0.00     0.188 C 
ENDROOT
BRANCH   1   2
ATOM      2  O   UNL A   1      37.309  23.068  26.272  1.00  0.00    -0.377 OA
BRANCH   2   3
ATOM      3  C   UNL A   1      35.984  22.884  25.810  1.00  0.00     0.188 C 
BRANCH   3   4
ATOM      4  C   UNL A   1      35.473  23.953  24.824  1.00  0.00     0.188 C 
BRANCH   4   5
ATOM      5  O   UNL A   1      35.098  25.246  25.290  1.00  0.00    -0.376 OA
BRANCH   5   6
ATOM      6  C   UNL A   1      33.773  25.447  25.753  1.00  0.00     0.202 C 
BRANCH   6   7
ATOM      7  C   UNL A   1      33.334  26.857  26.179  1.00  0.00     0.261 C 
BRANCH   7   8
ATOM      8  O   UNL A   1      31.915  27.117  26.155  1.00  0.00    -0.461 OA
BRANCH   8   9
ATOM      9  C   UNL A   1      31.464  27.936  25.163  1.00  0.00     0.334 C 
ATOM     10  O   UNL A   1      31.237  29.134  25.339  1.00  0.00    -0.249 OA
BRANCH   9  11
ATOM     11  C   UNL A   1      31.103  27.204  23.834  1.00  0.00     0.163 C 
ATOM     12  C   UNL A   1      32.233  27.116  22.776  1.00  0.00     0.064 C 
ATOM     13  C   UNL A   1      30.769  25.799  24.383  1.00  0.00     0.064 C 
ATOM     14  C   UNL A   1      32.095  25.958  21.789  1.00  0.00     0.123 C 
ATOM     15  C   UNL A   1      30.726  24.676  23.370  1.00  0.00     0.123 C 
ATOM     16  N   UNL A   1      31.877  24.702  22.483  1.00  0.00    -0.337 N 
ATOM     17  C   UNL A   1      32.791  23.657  22.296  1.00  0.00     0.270 C 
ATOM     18  O   UNL A   1      33.854  23.825  21.704  1.00  0.00    -0.267 OA
BRANCH  11  19
ATOM     19  N   UNL A   1      29.943  27.896  23.232  1.00  0.00    -0.255 N 
ATOM     20  C   UNL A   1      28.034  30.488  21.483  1.00  0.00     0.048 C 
ATOM     21  C   UNL A   1      28.594  29.359  22.255  1.00  0.00    -0.013 A 
ATOM     22  C   UNL A   1      27.889  28.411  23.012  1.00  0.00     0.138 A 
ATOM     23  C   UNL A   1      29.918  29.002  22.422  1.00  0.00     0.113 A 
ATOM     24  N   UNL A   1      28.699  27.563  23.636  1.00  0.00    -0.180 NA
ENDBRANCH  11  19
BRANCH  17  25
ATOM     25  C   UNL A   1      32.483  22.382  22.902  1.00  0.00     0.105 A 
ATOM     26  C   UNL A   1      32.463  21.973  24.224  1.00  0.00     0.042 A 
ATOM     27  N   UNL A   1      32.112  21.285  22.157  1.00  0.00    -0.351 N 
ATOM     28  C   UNL A   1      32.458  20.555  24.229  1.00  0.00     0.000 A 
ATOM     29  C   UNL A   1      32.223  20.144  22.919  1.00  0.00     0.046 A 
ATOM     30  H   UNL A   1      31.812  21.312  21.220  1.00  0.00     0.167 HD
ATOM     31  C   UNL A   1      32.670  19.586  25.225  1.00  0.00     0.010 A 
ATOM     32  C   UNL A   1      32.151  18.797  22.554  1.00  0.00     0.026 A 
ATOM     33  C   UNL A   1      32.648  18.234  24.869  1.00  0.00     0.001 A 
ATOM     34  C   UNL A   1      32.381  17.848  23.557  1.00  0.00     0.002 A 
ENDBRANCH  17  25
ENDBRANCH   9  11
ENDBRANCH   8   9
ENDBRANCH   7   8
ENDBRANCH   6   7
ENDBRANCH   5   6
ENDBRANCH   4   5
ENDBRANCH   3   4
ENDBRANCH   2   3
ENDBRANCH   1   2
BRANCH   1  35
ATOM     35  C   UNL A   1      39.645  22.170  26.463  1.00  0.00     0.188 C 
BRANCH  35  36
ATOM     36  O   UNL A   1      40.530  21.118  26.072  1.00  0.00    -0.376 OA
BRANCH  36  37
ATOM     37  C   UNL A   1      41.805  21.027  26.691  1.00  0.00     0.202 C 
BRANCH  37  38
ATOM     38  C   UNL A   1      42.924  21.758  25.944  1.00  0.00     0.261 C 
BRANCH  38  39
ATOM     39  O   UNL A   1      42.474  22.804  25.098  1.00  0.00    -0.460 OA
BRANCH  39  40
ATOM     40  C   UNL A   1      43.029  24.009  25.305  1.00  0.00     0.338 C 
ATOM     41  O   UNL A   1      44.069  24.440  24.809  1.00  0.00    -0.246 OA
BRANCH  40  42
ATOM     42  C   UNL A   1      42.231  24.760  26.272  1.00  0.00     0.060 A 
ATOM     43  C   UNL A   1      41.327  25.677  25.738  1.00  0.00     0.016 A 
ATOM     44  C   UNL A   1      42.579  24.749  27.630  1.00  0.00     0.016 A 
ATOM     45  C   UNL A   1      40.990  26.762  26.503  1.00  0.00     0.010 A 
ATOM     46  C   UNL A   1      42.243  25.837  28.398  1.00  0.00     0.010 A 
ATOM     47  C   UNL A   1      41.558  26.875  27.777  1.00  0.00    -0.014 A 
BRANCH  47  48
ATOM     48  C   UNL A   1      41.541  28.193  28.363  1.00  0.00     0.031 A 
ATOM     49  C   UNL A   1      42.619  29.091  27.934  1.00  0.00     0.074 A 
ATOM     50  C   UNL A   1      40.596  28.551  29.249  1.00  0.00     0.049 A 
ATOM     51  N   UNL A   1      43.620  29.498  28.638  1.00  0.00    -0.248 NA
ATOM     52  C   UNL A   1      42.644  29.489  26.524  1.00  0.00     0.031 C 
ATOM     53  C   UNL A   1      39.325  27.879  29.532  1.00  0.00     0.029 A 
ATOM     54  N   UNL A   1      40.525  29.691  29.985  1.00  0.00    -0.354 N 
ATOM     55  C   UNL A   1      44.291  30.394  27.818  1.00  0.00     0.074 A 
ATOM     56  C   UNL A   1      43.757  30.221  26.489  1.00  0.00     0.031 C 
ATOM     57  C   UNL A   1      38.508  28.749  30.166  1.00  0.00     0.029 A 
ATOM     58  C   UNL A   1      39.247  29.971  30.440  1.00  0.00     0.049 A 
ATOM     59  H   UNL A   1      41.304  30.261  30.175  1.00  0.00     0.167 HD
ATOM     60  C   UNL A   1      45.070  31.380  28.331  1.00  0.00     0.034 A 
ATOM     61  C   UNL A   1      38.815  31.166  30.901  1.00  0.00     0.034 A 
ATOM     62  C   UNL A   1      45.394  31.171  29.716  1.00  0.00     0.049 A 
ATOM     63  C   UNL A   1      40.007  31.949  31.314  1.00  0.00     0.074 A 
ATOM     64  C   UNL A   1      46.011  30.166  30.435  1.00  0.00     0.029 A 
ATOM     65  N   UNL A   1      44.755  31.960  30.641  1.00  0.00    -0.354 N 
ATOM     66  N   UNL A   1      40.755  31.653  32.341  1.00  0.00    -0.248 NA
ATOM     67  C   UNL A   1      40.606  32.861  30.352  1.00  0.00     0.031 C 
ATOM     68  C   UNL A   1      45.346  30.146  31.695  1.00  0.00     0.029 A 
ATOM     69  C   UNL A   1      44.371  31.146  31.674  1.00  0.00     0.049 A 
ATOM     70  H   UNL A   1      44.601  32.930  30.575  1.00  0.00     0.167 HD
ATOM     71  C   UNL A   1      42.047  31.983  31.945  1.00  0.00     0.074 A 
ATOM     72  C   UNL A   1      41.873  32.838  30.775  1.00  0.00     0.031 C 
ATOM     73  C   UNL A   1      43.135  31.299  32.416  1.00  0.00     0.034 A 
BRANCH  60  74
ATOM     74  C   UNL A   1      45.277  32.702  27.656  1.00  0.00     0.023 A 
ATOM     75  C   UNL A   1      44.314  33.123  26.718  1.00  0.00     0.012 A 
ATOM     76  C   UNL A   1      46.482  33.437  27.724  1.00  0.00     0.148 A 
ATOM     77  C   UNL A   1      44.545  34.220  25.883  1.00  0.00     0.002 A 
ATOM     78  C   UNL A   1      46.663  34.583  26.964  1.00  0.00     0.091 A 
ATOM     79  F   UNL A   1      47.519  32.962  28.425  1.00  0.00    -0.205 F 
ATOM     80  C   UNL A   1      45.710  34.965  26.019  1.00  0.00     0.022 A 
BRANCH  78  81
ATOM     81  S   UNL A   1      48.116  35.608  27.207  1.00  0.00     0.127 S 
ATOM     82  O   UNL A   1      47.909  36.102  28.563  1.00  0.00    -0.237 OA
ATOM     83  O   UNL A   1      49.206  34.642  27.057  1.00  0.00    -0.237 OA
ATOM     84  O   UNL A   1      48.049  36.594  26.134  1.00  0.00    -0.744 OA
ENDBRANCH  78  81
ENDBRANCH  60  74
BRANCH  61  85
ATOM     85  C   UNL A   1      37.465  31.757  30.784  1.00  0.00     0.023 A 
ATOM     86  C   UNL A   1      36.686  31.491  29.644  1.00  0.00     0.012 A 
ATOM     87  C   UNL A   1      36.842  32.396  31.882  1.00  0.00     0.148 A 
ATOM     88  C   UNL A   1      35.330  31.837  29.601  1.00  0.00     0.002 A 
ATOM     89  C   UNL A   1      35.502  32.761  31.826  1.00  0.00     0.091 A 
ATOM     90  F   UNL A   1      37.532  32.559  33.019  1.00  0.00    -0.205 F 
ATOM     91  C   UNL A   1      34.738  32.473  30.690  1.00  0.00     0.022 A 
BRANCH  89  92
ATOM     92  S   UNL A   1      34.695  33.603  33.196  1.00  0.00     0.127 S 
ATOM     93  O   UNL A   1      35.337  32.987  34.359  1.00  0.00    -0.237 OA
ATOM     94  O   UNL A   1      35.065  34.995  32.959  1.00  0.00    -0.237 OA
ATOM     95  O   UNL A   1      33.278  33.285  33.067  1.00  0.00    -0.744 OA
ENDBRANCH  89  92
ENDBRANCH  61  85
BRANCH  73  96
ATOM     96  C   UNL A   1      42.949  30.366  33.590  1.00  0.00     0.023 A 
ATOM     97  C   UNL A   1      42.340  29.103  33.440  1.00  0.00     0.012 A 
ATOM     98  C   UNL A   1      43.570  30.673  34.817  1.00  0.00     0.148 A 
ATOM     99  C   UNL A   1      42.320  28.183  34.490  1.00  0.00     0.002 A 
ATOM    100  C   UNL A   1      43.590  29.734  35.844  1.00  0.00     0.091 A 
ATOM    101  F   UNL A   1      44.158  31.872  34.952  1.00  0.00    -0.205 F 
ATOM    102  C   UNL A   1      42.957  28.492  35.688  1.00  0.00     0.022 A 
BRANCH 100 103
ATOM    103  S   UNL A   1      44.520  30.017  37.356  1.00  0.00     0.127 S 
ATOM    104  O   UNL A   1      43.835  31.175  37.926  1.00  0.00    -0.237 OA
ATOM    105  O   UNL A   1      44.322  28.767  38.092  1.00  0.00    -0.237 OA
ATOM    106  O   UNL A   1      45.897  30.240  36.933  1.00  0.00    -0.744 OA
ENDBRANCH 100 103
ENDBRANCH  73  96
ENDBRANCH  47  48
ENDBRANCH  40  42
ENDBRANCH  39  40
ENDBRANCH  38  39
ENDBRANCH  37  38
ENDBRANCH  36  37
ENDBRANCH  35  36
ENDBRANCH   1  35
TORSDOF 25
ENDMDL
MODEL 3
REMARK VINA RESULT:      -9.8      2.651      5.088
REMARK SMILES Cc1cnn(C2(C(=O)OCCOCCOCCOCCOC(=O)c3ccc(-c4c5nc(c(-c6cccc(S(=O)(=O)[O-])c6F)c6ccc([nH]6)c(-c6cccc(S(=O)(=O)[O-])c6F)c6nc(c(-c7cccc(S(=O)(=O)[O-])c7F)c7ccc4[nH]7)C=C6)C=C5)cc3)CCN(C(=O)c3cc4ccccc4[nH]3)CC2)c1
REMARK SMILES IDX 16 1 15 2 14 3 13 4 12 5 11 6 10 7 9 8 7 9 8 10 6 11 87 12
REMARK SMILES IDX 102 13 88 14 101 15 89 16 90 17 91 18 5 19 1 20 2 21 3 22
REMARK SMILES IDX 103 23 4 24 92 25 93 26 100 27 94 28 99 29 95 31 98 32 96 33
REMARK SMILES IDX 97 34 17 35 18 36 19 37 20 38 21 39 22 40 23 41 24 42 25 43
REMARK SMILES IDX 86 44 26 45 85 46 27 47 28 48 29 49 79 50 30 51 84 52 78 53
REMARK SMILES IDX 80 54 31 55 83 56 77 57 76 58 32 60 64 61 44 62 63 63 45 64
REMARK SMILES IDX 48 65 62 66 81 67 46 68 47 69 61 71 82 72 49 73 33 74 34 75
REMARK SMILES IDX 42 76 35 77 37 78 43 79 36 80 38 81 39 82 40 83 41 84 65 85
REMARK SMILES IDX 66 86 74 87 67 88 69 89 75 90 68 91 70 92 71 93 72 94 73 95
REMARK SMILES IDX 50 96 51 97 59 98 52 99 54 100 60 101 53 102 55 103 56 104
REMARK SMILES IDX 57 105 58 106
REMARK H PARENT 100 30 80 59 48 70
REMARK Flexibility Score: inf
ROOT
ATOM      1  C   UNL A   1      36.093  22.647  25.078  1.00  0.00     0.188 C 
ENDROOT
BRANCH   1   2
ATOM      2  O   UNL A   1      34.980  21.895  25.536  1.00  0.00    -0.377 OA
BRANCH   2   3
ATOM      3  C   UNL A   1      33.876  21.880  24.650  1.00  0.00     0.188 C 
BRANCH   3   4
ATOM      4  C   UNL A   1      32.837  22.997  24.871  1.00  0.00     0.188 C 
BRANCH   4   5
ATOM      5  O   UNL A   1      31.502  22.847  24.400  1.00  0.00    -0.376 OA
BRANCH   5   6
ATOM      6  C   UNL A   1      31.013  23.755  23.427  1.00  0.00     0.202 C 
BRANCH   6   7
ATOM      7  C   UNL A   1      32.015  24.548  22.572  1.00  0.00     0.261 C 
BRANCH   7   8
ATOM      8  O   UNL A   1      31.542  25.800  22.032  1.00  0.00    -0.461 OA
BRANCH   8   9
ATOM      9  C   UNL A   1      32.300  26.901  22.295  1.00  0.00     0.334 C 
ATOM     10  O   UNL A   1      33.426  27.064  21.822  1.00  0.00    -0.249 OA
BRANCH   9  11
ATOM     11  C   UNL A   1      31.697  27.860  23.366  1.00  0.00     0.163 C 
ATOM     12  C   UNL A   1      31.244  27.201  24.694  1.00  0.00     0.064 C 
ATOM     13  C   UNL A   1      32.909  28.786  23.611  1.00  0.00     0.064 C 
ATOM     14  C   UNL A   1      31.215  28.142  25.898  1.00  0.00     0.123 C 
ATOM     15  C   UNL A   1      32.862  29.636  24.862  1.00  0.00     0.123 C 
ATOM     16  N   UNL A   1      32.468  28.862  26.028  1.00  0.00    -0.337 N 
ATOM     17  C   UNL A   1      33.210  28.725  27.208  1.00  0.00     0.270 C 
ATOM     18  O   UNL A   1      32.922  27.886  28.059  1.00  0.00    -0.267 OA
BRANCH  11  19
ATOM     19  N   UNL A   1      30.538  28.551  22.760  1.00  0.00    -0.255 N 
ATOM     20  C   UNL A   1      28.601  31.198  21.130  1.00  0.00     0.048 C 
ATOM     21  C   UNL A   1      29.173  30.033  21.835  1.00  0.00    -0.013 A 
ATOM     22  C   UNL A   1      28.475  28.994  22.471  1.00  0.00     0.138 A 
ATOM     23  C   UNL A   1      30.502  29.720  22.045  1.00  0.00     0.113 A 
ATOM     24  N   UNL A   1      29.292  28.131  23.066  1.00  0.00    -0.180 NA
ENDBRANCH  11  19
BRANCH  17  25
ATOM     25  C   UNL A   1      34.388  29.546  27.358  1.00  0.00     0.105 A 
ATOM     26  C   UNL A   1      35.710  29.223  27.605  1.00  0.00     0.042 A 
ATOM     27  N   UNL A   1      34.346  30.918  27.247  1.00  0.00    -0.351 N 
ATOM     28  C   UNL A   1      36.368  30.408  28.019  1.00  0.00     0.000 A 
ATOM     29  C   UNL A   1      35.495  31.465  27.773  1.00  0.00     0.046 A 
ATOM     30  H   UNL A   1      33.605  31.432  26.851  1.00  0.00     0.167 HD
ATOM     31  C   UNL A   1      37.613  30.671  28.616  1.00  0.00     0.010 A 
ATOM     32  C   UNL A   1      35.820  32.793  28.061  1.00  0.00     0.026 A 
ATOM     33  C   UNL A   1      37.937  31.990  28.953  1.00  0.00     0.001 A 
ATOM     34  C   UNL A   1      37.057  33.033  28.669  1.00  0.00     0.002 A 
ENDBRANCH  17  25
ENDBRANCH   9  11
ENDBRANCH   8   9
ENDBRANCH   7   8
ENDBRANCH   6   7
ENDBRANCH   5   6
ENDBRANCH   4   5
ENDBRANCH   3   4
ENDBRANCH   2   3
ENDBRANCH   1   2
BRANCH   1  35
ATOM     35  C   UNL A   1      37.435  21.890  25.014  1.00  0.00     0.188 C 
BRANCH  35  36
ATOM     36  O   UNL A   1      38.358  22.230  26.051  1.00  0.00    -0.376 OA
BRANCH  36  37
ATOM     37  C   UNL A   1      39.580  21.512  26.147  1.00  0.00     0.202 C 
BRANCH  37  38
ATOM     38  C   UNL A   1      40.808  22.386  26.409  1.00  0.00     0.261 C 
BRANCH  38  39
ATOM     39  O   UNL A   1      40.542  23.553  27.172  1.00  0.00    -0.460 OA
BRANCH  39  40
ATOM     40  C   UNL A   1      40.781  24.724  26.560  1.00  0.00     0.338 C 
ATOM     41  O   UNL A   1      41.438  24.904  25.537  1.00  0.00    -0.246 OA
BRANCH  40  42
ATOM     42  C   UNL A   1      40.171  25.811  27.323  1.00  0.00     0.060 A 
ATOM     43  C   UNL A   1      40.473  27.102  26.893  1.00  0.00     0.016 A 
ATOM     44  C   UNL A   1      39.572  25.551  28.563  1.00  0.00     0.016 A 
ATOM     45  C   UNL A   1      40.439  28.110  27.822  1.00  0.00     0.010 A 
ATOM     46  C   UNL A   1      39.538  26.559  29.496  1.00  0.00     0.010 A 
ATOM     47  C   UNL A   1      40.087  27.785  29.137  1.00  0.00    -0.014 A 
BRANCH  47  48
ATOM     48  C   UNL A   1      40.476  28.736  30.149  1.00  0.00     0.031 A 
ATOM     49  C   UNL A   1      41.719  29.467  29.887  1.00  0.00     0.074 A 
ATOM     50  C   UNL A   1      39.736  28.917  31.258  1.00  0.00     0.049 A 
ATOM     51  N   UNL A   1      42.846  29.334  30.502  1.00  0.00    -0.248 NA
ATOM     52  C   UNL A   1      41.741  30.369  28.733  1.00  0.00     0.031 C 
ATOM     53  C   UNL A   1      38.356  28.487  31.500  1.00  0.00     0.029 A 
ATOM     54  N   UNL A   1      40.035  29.663  32.353  1.00  0.00    -0.354 N 
ATOM     55  C   UNL A   1      43.668  30.306  29.953  1.00  0.00     0.074 A 
ATOM     56  C   UNL A   1      43.005  30.791  28.767  1.00  0.00     0.031 C 
ATOM     57  C   UNL A   1      37.860  29.197  32.538  1.00  0.00     0.029 A 
ATOM     58  C   UNL A   1      38.922  30.017  33.096  1.00  0.00     0.049 A 
ATOM     59  H   UNL A   1      40.953  29.925  32.594  1.00  0.00     0.167 HD
ATOM     60  C   UNL A   1      44.724  30.814  30.639  1.00  0.00     0.034 A 
ATOM     61  C   UNL A   1      38.869  30.999  34.024  1.00  0.00     0.034 A 
ATOM     62  C   UNL A   1      45.087  30.013  31.777  1.00  0.00     0.049 A 
ATOM     63  C   UNL A   1      40.257  31.273  34.472  1.00  0.00     0.074 A 
ATOM     64  C   UNL A   1      45.462  28.698  31.966  1.00  0.00     0.029 A 
ATOM     65  N   UNL A   1      44.761  30.497  33.020  1.00  0.00    -0.354 N 
ATOM     66  N   UNL A   1      40.975  30.441  35.175  1.00  0.00    -0.248 NA
ATOM     67  C   UNL A   1      41.004  32.332  33.811  1.00  0.00     0.031 C 
ATOM     68  C   UNL A   1      44.918  28.333  33.232  1.00  0.00     0.029 A 
ATOM     69  C   UNL A   1      44.252  29.450  33.743  1.00  0.00     0.049 A 
ATOM     70  H   UNL A   1      44.872  31.423  33.334  1.00  0.00     0.167 HD
ATOM     71  C   UNL A   1      42.272  30.605  34.702  1.00  0.00     0.074 A 
ATOM     72  C   UNL A   1      42.246  31.866  33.967  1.00  0.00     0.031 C 
ATOM     73  C   UNL A   1      43.167  29.569  34.696  1.00  0.00     0.034 A 
BRANCH  60  74
ATOM     74  C   UNL A   1      45.229  32.214  30.457  1.00  0.00     0.023 A 
ATOM     75  C   UNL A   1      44.779  33.200  31.356  1.00  0.00     0.012 A 
ATOM     76  C   UNL A   1      45.934  32.650  29.313  1.00  0.00     0.148 A 
ATOM     77  C   UNL A   1      45.015  34.558  31.122  1.00  0.00     0.002 A 
ATOM     78  C   UNL A   1      46.252  33.990  29.138  1.00  0.00     0.091 A 
ATOM     79  F   UNL A   1      46.191  31.795  28.315  1.00  0.00    -0.205 F 
ATOM     80  C   UNL A   1      45.771  34.954  30.024  1.00  0.00     0.022 A 
BRANCH  78  81
ATOM     81  S   UNL A   1      47.313  34.497  27.782  1.00  0.00     0.127 S 
ATOM     82  O   UNL A   1      47.705  35.839  28.198  1.00  0.00    -0.237 OA
ATOM     83  O   UNL A   1      48.379  33.496  27.831  1.00  0.00    -0.237 OA
ATOM     84  O   UNL A   1      46.464  34.399  26.601  1.00  0.00    -0.744 OA
ENDBRANCH  78  81
ENDBRANCH  60  74
BRANCH  61  85
ATOM     85  C   UNL A   1      37.725  31.872  34.366  1.00  0.00     0.023 A 
ATOM     86  C   UNL A   1      37.661  32.466  35.639  1.00  0.00     0.012 A 
ATOM     87  C   UNL A   1      36.812  32.310  33.379  1.00  0.00     0.148 A 
ATOM     88  C   UNL A   1      36.727  33.471  35.918  1.00  0.00     0.002 A 
ATOM     89  C   UNL A   1      35.868  33.290  33.667  1.00  0.00     0.091 A 
ATOM     90  F   UNL A   1      36.925  31.840  32.129  1.00  0.00    -0.205 F 
ATOM     91  C   UNL A   1      35.830  33.882  34.934  1.00  0.00     0.022 A 
BRANCH  89  92
ATOM     92  S   UNL A   1      34.674  33.841  32.440  1.00  0.00     0.127 S 
ATOM     93  O   UNL A   1      33.999  32.592  32.082  1.00  0.00    -0.237 OA
ATOM     94  O   UNL A   1      33.859  34.778  33.207  1.00  0.00    -0.237 OA
ATOM     95  O   UNL A   1      35.466  34.417  31.359  1.00  0.00    -0.744 OA
ENDBRANCH  89  92
ENDBRANCH  61  85
BRANCH  73  96
ATOM     96  C   UNL A   1      42.827  28.317  35.471  1.00  0.00     0.023 A 
ATOM     97  C   UNL A   1      41.863  27.400  35.005  1.00  0.00     0.012 A 
ATOM     98  C   UNL A   1      43.624  27.955  36.575  1.00  0.00     0.148 A 
ATOM     99  C   UNL A   1      41.673  26.170  35.638  1.00  0.00     0.002 A 
ATOM    100  C   UNL A   1      43.465  26.707  37.172  1.00  0.00     0.091 A 
ATOM    101  F   UNL A   1      44.549  28.826  37.008  1.00  0.00    -0.205 F 
ATOM    102  C   UNL A   1      42.483  25.817  36.713  1.00  0.00     0.022 A 
BRANCH 100 103
ATOM    103  S   UNL A   1      44.575  26.138  38.465  1.00  0.00     0.127 S 
ATOM    104  O   UNL A   1      44.094  26.874  39.632  1.00  0.00    -0.237 OA
ATOM    105  O   UNL A   1      44.313  24.698  38.502  1.00  0.00    -0.237 OA
ATOM    106  O   UNL A   1      45.917  26.481  38.009  1.00  0.00    -0.744 OA
ENDBRANCH 100 103
ENDBRANCH  73  96
ENDBRANCH  47  48
ENDBRANCH  40  42
ENDBRANCH  39  40
ENDBRANCH  38  39
ENDBRANCH  37  38
ENDBRANCH  36  37
ENDBRANCH  35  36
ENDBRANCH   1  35
TORSDOF 25
ENDMDL
