MODEL 1
REMARK VINA RESULT:      -7.5      0.000      0.000
REMARK SMILES CCCCCCNC(=O)Oc1cccc(-c2ccc([C@@H](C)C(=O)OCCOCCOCCOCCOC(=O)c3ccc(-c4c5nc(c(-c6cccc(S(=O)(=O)[O-])c6F)c6ccc([nH]6)c(-c6cccc(S(=O)(=O)[O-])c6F)c6nc(c(-c7cccc(S(=O)(=O)[O-])c7F)c7ccc4[nH]7)C=C6)C=C5)cc3)cc2)c1
REMARK SMILES IDX 27 1 26 2 25 3 24 4 22 5 23 6 20 7 21 8 19 9 16 10 17 11
REMARK SMILES IDX 103 12 18 13 102 14 15 15 11 16 12 17 104 18 13 19 14 20
REMARK SMILES IDX 10 21 8 22 7 23 9 25 6 26 5 27 4 28 3 29 2 30 1 31 28 32
REMARK SMILES IDX 29 33 30 34 31 35 32 36 33 37 34 38 35 39 36 40 37 41 38 42
REMARK SMILES IDX 39 43 40 44 101 45 41 46 100 47 42 48 43 49 44 50 94 51
REMARK SMILES IDX 45 52 99 53 93 54 95 55 46 56 98 57 92 58 91 59 47 61 79 62
REMARK SMILES IDX 59 63 78 64 60 65 63 66 77 67 96 68 61 69 62 70 76 72 97 73
REMARK SMILES IDX 64 74 48 75 49 76 57 77 50 78 52 79 58 80 51 81 53 82 54 83
REMARK SMILES IDX 55 84 56 85 80 86 81 87 89 88 82 89 84 90 90 91 83 92 85 93
REMARK SMILES IDX 86 94 87 95 88 96 65 97 66 98 74 99 67 100 69 101 75 102
REMARK SMILES IDX 68 103 70 104 71 105 72 106 73 107
REMARK H PARENT 7 24 95 60 63 71
REMARK Flexibility Score: inf
ROOT
ATOM      1  O   UNL A   1      40.048  29.744  28.900  1.00  0.00    -0.376 OA
ENDROOT
BRANCH   1   2
ATOM      2  C   UNL A   1      40.662  30.453  29.969  1.00  0.00     0.202 C 
BRANCH   2   3
ATOM      3  C   UNL A   1      39.881  31.522  30.756  1.00  0.00     0.261 C 
BRANCH   3   4
ATOM      4  O   UNL A   1      38.489  31.252  31.021  1.00  0.00    -0.463 OA
BRANCH   4   5
ATOM      5  C   UNL A   1      37.613  32.230  30.698  1.00  0.00     0.313 C 
ATOM      6  O   UNL A   1      37.112  32.993  31.524  1.00  0.00    -0.252 OA
BRANCH   5   7
ATOM      7  C   UNL A   1      37.241  32.337  29.219  1.00  0.00     0.126 C 
ATOM      8  C   UNL A   1      37.026  33.807  28.878  1.00  0.00     0.025 C 
BRANCH   7   9
ATOM      9  C   UNL A   1      36.151  31.462  28.602  1.00  0.00    -0.034 A 
ATOM     10  C   UNL A   1      34.200  29.722  27.415  1.00  0.00    -0.018 A 
ATOM     11  C   UNL A   1      33.931  31.082  27.656  1.00  0.00     0.009 A 
ATOM     12  C   UNL A   1      35.460  29.244  27.796  1.00  0.00     0.009 A 
ATOM     13  C   UNL A   1      34.888  31.939  28.234  1.00  0.00     0.005 A 
ATOM     14  C   UNL A   1      36.419  30.096  28.366  1.00  0.00     0.005 A 
BRANCH  10  15
ATOM     15  C   UNL A   1      33.234  28.846  26.719  1.00  0.00    -0.015 A 
ATOM     16  C   UNL A   1      32.321  27.814  24.711  1.00  0.00     0.133 A 
ATOM     17  C   UNL A   1      31.264  27.268  25.435  1.00  0.00     0.047 A 
ATOM     18  C   UNL A   1      33.295  28.605  25.333  1.00  0.00     0.056 A 
ATOM     19  C   UNL A   1      31.193  27.490  26.806  1.00  0.00     0.004 A 
ATOM     20  C   UNL A   1      32.168  28.271  27.438  1.00  0.00     0.009 A 
BRANCH  16  21
ATOM     21  O   UNL A   1      32.277  27.635  23.314  1.00  0.00    -0.410 OA
BRANCH  21  22
ATOM     22  C   UNL A   1      33.474  27.611  22.614  1.00  0.00     0.412 C 
ATOM     23  N   UNL A   1      33.856  26.352  22.232  1.00  0.00    -0.321 N 
ATOM     24  H   UNL A   1      34.694  26.287  21.721  1.00  0.00     0.167 HD
ATOM     25  O   UNL A   1      34.165  28.583  22.334  1.00  0.00    -0.224 OA
BRANCH  23  26
ATOM     26  C   UNL A   1      33.167  25.102  22.497  1.00  0.00     0.119 C 
BRANCH  26  27
ATOM     27  C   UNL A   1      33.792  24.341  23.669  1.00  0.00     0.021 C 
BRANCH  27  28
ATOM     28  C   UNL A   1      34.228  22.904  23.349  1.00  0.00     0.002 C 
BRANCH  28  29
ATOM     29  C   UNL A   1      33.297  21.799  23.861  1.00  0.00    -0.000 C 
BRANCH  29  30
ATOM     30  C   UNL A   1      33.871  20.914  24.972  1.00  0.00    -0.003 C 
ATOM     31  C   UNL A   1      33.849  21.575  26.342  1.00  0.00     0.004 C 
ENDBRANCH  29  30
ENDBRANCH  28  29
ENDBRANCH  27  28
ENDBRANCH  26  27
ENDBRANCH  23  26
ENDBRANCH  21  22
ENDBRANCH  16  21
ENDBRANCH  10  15
ENDBRANCH   7   9
ENDBRANCH   5   7
ENDBRANCH   4   5
ENDBRANCH   3   4
ENDBRANCH   2   3
ENDBRANCH   1   2
BRANCH   1  32
ATOM     32  C   UNL A   1      40.227  28.340  28.765  1.00  0.00     0.188 C 
BRANCH  32  33
ATOM     33  C   UNL A   1      40.865  27.729  27.508  1.00  0.00     0.188 C 
BRANCH  33  34
ATOM     34  O   UNL A   1      40.902  26.319  27.484  1.00  0.00    -0.377 OA
BRANCH  34  35
ATOM     35  C   UNL A   1      39.767  25.667  26.938  1.00  0.00     0.188 C 
BRANCH  35  36
ATOM     36  C   UNL A   1      39.820  24.129  26.890  1.00  0.00     0.188 C 
BRANCH  36  37
ATOM     37  O   UNL A   1      40.462  23.534  28.014  1.00  0.00    -0.376 OA
BRANCH  37  38
ATOM     38  C   UNL A   1      40.986  22.219  27.874  1.00  0.00     0.202 C 
BRANCH  38  39
ATOM     39  C   UNL A   1      41.793  21.882  26.607  1.00  0.00     0.261 C 
BRANCH  39  40
ATOM     40  O   UNL A   1      43.162  22.306  26.582  1.00  0.00    -0.460 OA
BRANCH  40  41
ATOM     41  C   UNL A   1      43.644  22.870  25.453  1.00  0.00     0.338 C 
ATOM     42  O   UNL A   1      43.397  22.553  24.311  1.00  0.00    -0.246 OA
BRANCH  41  43
ATOM     43  C   UNL A   1      44.352  24.110  25.854  1.00  0.00     0.060 A 
ATOM     44  C   UNL A   1      44.236  25.245  25.039  1.00  0.00     0.016 A 
ATOM     45  C   UNL A   1      45.108  24.156  27.027  1.00  0.00     0.016 A 
ATOM     46  C   UNL A   1      44.912  26.419  25.373  1.00  0.00     0.010 A 
ATOM     47  C   UNL A   1      45.806  25.326  27.345  1.00  0.00     0.010 A 
ATOM     48  C   UNL A   1      45.741  26.450  26.501  1.00  0.00    -0.014 A 
BRANCH  48  49
ATOM     49  C   UNL A   1      46.693  27.573  26.684  1.00  0.00     0.031 A 
ATOM     50  C   UNL A   1      46.178  28.847  27.299  1.00  0.00     0.074 A 
ATOM     51  C   UNL A   1      47.981  27.477  26.312  1.00  0.00     0.049 A 
ATOM     52  N   UNL A   1      46.797  29.979  27.505  1.00  0.00    -0.248 NA
ATOM     53  C   UNL A   1      44.772  28.841  27.739  1.00  0.00     0.031 C 
ATOM     54  C   UNL A   1      48.607  26.294  25.723  1.00  0.00     0.029 A 
ATOM     55  N   UNL A   1      48.991  28.410  26.350  1.00  0.00    -0.354 N 
ATOM     56  C   UNL A   1      45.849  30.831  28.062  1.00  0.00     0.074 A 
ATOM     57  C   UNL A   1      44.614  30.087  28.159  1.00  0.00     0.031 C 
ATOM     58  C   UNL A   1      49.884  26.585  25.419  1.00  0.00     0.029 A 
ATOM     59  C   UNL A   1      50.157  27.980  25.762  1.00  0.00     0.049 A 
ATOM     60  H   UNL A   1      48.887  29.299  26.759  1.00  0.00     0.167 HD
ATOM     61  C   UNL A   1      45.995  32.115  28.462  1.00  0.00     0.034 A 
ATOM     62  C   UNL A   1      51.299  28.648  25.501  1.00  0.00     0.034 A 
ATOM     63  C   UNL A   1      47.226  32.851  28.375  1.00  0.00     0.049 A 
ATOM     64  C   UNL A   1      51.426  30.091  25.922  1.00  0.00     0.074 A 
ATOM     65  C   UNL A   1      47.487  34.142  28.800  1.00  0.00     0.029 A 
ATOM     66  N   UNL A   1      48.396  32.372  27.807  1.00  0.00    -0.354 N 
ATOM     67  N   UNL A   1      50.558  30.850  26.550  1.00  0.00    -0.248 NA
ATOM     68  C   UNL A   1      52.701  30.763  25.628  1.00  0.00     0.031 C 
ATOM     69  C   UNL A   1      48.803  34.458  28.449  1.00  0.00     0.029 A 
ATOM     70  C   UNL A   1      49.377  33.348  27.852  1.00  0.00     0.049 A 
ATOM     71  H   UNL A   1      48.513  31.470  27.429  1.00  0.00     0.167 HD
ATOM     72  C   UNL A   1      51.195  32.070  26.759  1.00  0.00     0.074 A 
ATOM     73  C   UNL A   1      52.527  31.944  26.207  1.00  0.00     0.031 C 
ATOM     74  C   UNL A   1      50.717  33.195  27.346  1.00  0.00     0.034 A 
BRANCH  61  75
ATOM     75  C   UNL A   1      44.789  32.811  29.035  1.00  0.00     0.023 A 
ATOM     76  C   UNL A   1      43.915  33.523  28.188  1.00  0.00     0.012 A 
ATOM     77  C   UNL A   1      44.495  32.716  30.410  1.00  0.00     0.148 A 
ATOM     78  C   UNL A   1      42.785  34.155  28.704  1.00  0.00     0.002 A 
ATOM     79  C   UNL A   1      43.341  33.307  30.909  1.00  0.00     0.091 A 
ATOM     80  F   UNL A   1      45.350  32.055  31.203  1.00  0.00    -0.205 F 
ATOM     81  C   UNL A   1      42.492  34.037  30.061  1.00  0.00     0.022 A 
BRANCH  79  82
ATOM     82  S   UNL A   1      42.834  33.145  32.624  1.00  0.00     0.127 S 
ATOM     83  O   UNL A   1      41.551  33.849  32.620  1.00  0.00    -0.237 OA
ATOM     84  O   UNL A   1      42.731  31.694  32.777  1.00  0.00    -0.237 OA
ATOM     85  O   UNL A   1      43.884  33.768  33.416  1.00  0.00    -0.744 OA
ENDBRANCH  79  82
ENDBRANCH  61  75
BRANCH  62  86
ATOM     86  C   UNL A   1      52.427  27.961  24.808  1.00  0.00     0.023 A 
ATOM     87  C   UNL A   1      52.516  28.004  23.403  1.00  0.00     0.012 A 
ATOM     88  C   UNL A   1      53.409  27.261  25.536  1.00  0.00     0.148 A 
ATOM     89  C   UNL A   1      53.542  27.336  22.734  1.00  0.00     0.002 A 
ATOM     90  C   UNL A   1      54.461  26.646  24.867  1.00  0.00     0.091 A 
ATOM     91  F   UNL A   1      53.298  27.215  26.871  1.00  0.00    -0.205 F 
ATOM     92  C   UNL A   1      54.518  26.665  23.466  1.00  0.00     0.022 A 
BRANCH  90  93
ATOM     93  S   UNL A   1      55.829  25.865  25.730  1.00  0.00     0.127 S 
ATOM     94  O   UNL A   1      55.286  25.713  27.077  1.00  0.00    -0.237 OA
ATOM     95  O   UNL A   1      55.981  24.617  24.981  1.00  0.00    -0.237 OA
ATOM     96  O   UNL A   1      56.953  26.784  25.603  1.00  0.00    -0.744 OA
ENDBRANCH  90  93
ENDBRANCH  62  86
BRANCH  74  97
ATOM     97  C   UNL A   1      51.648  34.374  27.481  1.00  0.00     0.023 A 
ATOM     98  C   UNL A   1      52.424  34.535  28.646  1.00  0.00     0.012 A 
ATOM     99  C   UNL A   1      51.813  35.277  26.411  1.00  0.00     0.148 A 
ATOM    100  C   UNL A   1      53.325  35.594  28.756  1.00  0.00     0.002 A 
ATOM    101  C   UNL A   1      52.751  36.297  26.506  1.00  0.00     0.091 A 
ATOM    102  F   UNL A   1      51.055  35.117  25.317  1.00  0.00    -0.205 F 
ATOM    103  C   UNL A   1      53.498  36.466  27.684  1.00  0.00     0.022 A 
BRANCH 101 104
ATOM    104  S   UNL A   1      53.115  37.406  25.141  1.00  0.00     0.127 S 
ATOM    105  O   UNL A   1      52.192  36.927  24.113  1.00  0.00    -0.237 OA
ATOM    106  O   UNL A   1      52.774  38.712  25.705  1.00  0.00    -0.237 OA
ATOM    107  O   UNL A   1      54.529  37.227  24.841  1.00  0.00    -0.744 OA
ENDBRANCH 101 104
ENDBRANCH  74  97
ENDBRANCH  48  49
ENDBRANCH  41  43
ENDBRANCH  40  41
ENDBRANCH  39  40
ENDBRANCH  38  39
ENDBRANCH  37  38
ENDBRANCH  36  37
ENDBRANCH  35  36
ENDBRANCH  34  35
ENDBRANCH  33  34
ENDBRANCH  32  33
ENDBRANCH   1  32
TORSDOF 32
ENDMDL
MODEL 2
REMARK VINA RESULT:      -7.0      7.072      9.694
REMARK SMILES CCCCCCNC(=O)Oc1cccc(-c2ccc([C@@H](C)C(=O)OCCOCCOCCOCCOC(=O)c3ccc(-c4c5nc(c(-c6cccc(S(=O)(=O)[O-])c6F)c6ccc([nH]6)c(-c6cccc(S(=O)(=O)[O-])c6F)c6nc(c(-c7cccc(S(=O)(=O)[O-])c7F)c7ccc4[nH]7)C=C6)C=C5)cc3)cc2)c1
REMARK SMILES IDX 27 1 26 2 25 3 24 4 22 5 23 6 20 7 21 8 19 9 16 10 17 11
REMARK SMILES IDX 103 12 18 13 102 14 15 15 11 16 12 17 104 18 13 19 14 20
REMARK SMILES IDX 10 21 8 22 7 23 9 25 6 26 5 27 4 28 3 29 2 30 1 31 28 32
REMARK SMILES IDX 29 33 30 34 31 35 32 36 33 37 34 38 35 39 36 40 37 41 38 42
REMARK SMILES IDX 39 43 40 44 101 45 41 46 100 47 42 48 43 49 44 50 94 51
REMARK SMILES IDX 45 52 99 53 93 54 95 55 46 56 98 57 92 58 91 59 47 61 79 62
REMARK SMILES IDX 59 63 78 64 60 65 63 66 77 67 96 68 61 69 62 70 76 72 97 73
REMARK SMILES IDX 64 74 48 75 49 76 57 77 50 78 52 79 58 80 51 81 53 82 54 83
REMARK SMILES IDX 55 84 56 85 80 86 81 87 89 88 82 89 84 90 90 91 83 92 85 93
REMARK SMILES IDX 86 94 87 95 88 96 65 97 66 98 74 99 67 100 69 101 75 102
REMARK SMILES IDX 68 103 70 104 71 105 72 106 73 107
REMARK H PARENT 7 24 95 60 63 71
REMARK Flexibility Score: inf
ROOT
ATOM      1  O   UNL A   1      40.806  30.462  29.288  1.00  0.00    -0.376 OA
ENDROOT
BRANCH   1   2
ATOM      2  C   UNL A   1      41.125  31.312  30.382  1.00  0.00     0.202 C 
BRANCH   2   3
ATOM      3  C   UNL A   1      40.072  32.270  30.970  1.00  0.00     0.261 C 
BRANCH   3   4
ATOM      4  O   UNL A   1      38.762  31.724  31.225  1.00  0.00    -0.463 OA
BRANCH   4   5
ATOM      5  C   UNL A   1      37.713  32.414  30.723  1.00  0.00     0.313 C 
ATOM      6  O   UNL A   1      36.933  33.065  31.419  1.00  0.00    -0.252 OA
BRANCH   5   7
ATOM      7  C   UNL A   1      37.516  32.330  29.210  1.00  0.00     0.126 C 
ATOM      8  C   UNL A   1      37.485  33.746  28.645  1.00  0.00     0.025 C 
BRANCH   7   9
ATOM      9  C   UNL A   1      36.418  31.465  28.591  1.00  0.00    -0.034 A 
ATOM     10  C   UNL A   1      34.454  29.744  27.402  1.00  0.00    -0.018 A 
ATOM     11  C   UNL A   1      34.192  31.103  27.654  1.00  0.00     0.009 A 
ATOM     12  C   UNL A   1      35.713  29.257  27.772  1.00  0.00     0.009 A 
ATOM     13  C   UNL A   1      35.156  31.951  28.234  1.00  0.00     0.005 A 
ATOM     14  C   UNL A   1      36.679  30.100  28.344  1.00  0.00     0.005 A 
BRANCH  10  15
ATOM     15  C   UNL A   1      33.480  28.878  26.703  1.00  0.00    -0.015 A 
ATOM     16  C   UNL A   1      32.499  27.930  24.685  1.00  0.00     0.133 A 
ATOM     17  C   UNL A   1      31.495  27.312  25.427  1.00  0.00     0.047 A 
ATOM     18  C   UNL A   1      33.480  28.715  25.304  1.00  0.00     0.056 A 
ATOM     19  C   UNL A   1      31.484  27.457  26.810  1.00  0.00     0.004 A 
ATOM     20  C   UNL A   1      32.467  28.231  27.438  1.00  0.00     0.009 A 
BRANCH  16  21
ATOM     21  O   UNL A   1      32.392  27.826  23.285  1.00  0.00    -0.410 OA
BRANCH  21  22
ATOM     22  C   UNL A   1      33.547  27.612  22.549  1.00  0.00     0.412 C 
ATOM     23  N   UNL A   1      33.802  26.287  22.307  1.00  0.00    -0.321 N 
ATOM     24  H   UNL A   1      34.606  26.088  21.777  1.00  0.00     0.167 HD
ATOM     25  O   UNL A   1      34.306  28.478  22.128  1.00  0.00    -0.224 OA
BRANCH  23  26
ATOM     26  C   UNL A   1      33.022  25.145  22.745  1.00  0.00     0.119 C 
BRANCH  26  27
ATOM     27  C   UNL A   1      33.783  24.287  23.759  1.00  0.00     0.021 C 
BRANCH  27  28
ATOM     28  C   UNL A   1      34.982  23.518  23.186  1.00  0.00     0.002 C 
BRANCH  28  29
ATOM     29  C   UNL A   1      36.212  23.431  24.097  1.00  0.00    -0.000 C 
BRANCH  29  30
ATOM     30  C   UNL A   1      36.732  22.017  24.371  1.00  0.00    -0.003 C 
ATOM     31  C   UNL A   1      35.833  21.212  25.297  1.00  0.00     0.004 C 
ENDBRANCH  29  30
ENDBRANCH  28  29
ENDBRANCH  27  28
ENDBRANCH  26  27
ENDBRANCH  23  26
ENDBRANCH  21  22
ENDBRANCH  16  21
ENDBRANCH  10  15
ENDBRANCH   7   9
ENDBRANCH   5   7
ENDBRANCH   4   5
ENDBRANCH   3   4
ENDBRANCH   2   3
ENDBRANCH   1   2
BRANCH   1  32
ATOM     32  C   UNL A   1      41.481  29.223  29.112  1.00  0.00     0.188 C 
BRANCH  32  33
ATOM     33  C   UNL A   1      42.203  28.882  27.800  1.00  0.00     0.188 C 
BRANCH  33  34
ATOM     34  O   UNL A   1      42.081  27.540  27.385  1.00  0.00    -0.377 OA
BRANCH  34  35
ATOM     35  C   UNL A   1      41.000  27.242  26.517  1.00  0.00     0.188 C 
BRANCH  35  36
ATOM     36  C   UNL A   1      40.950  25.812  25.952  1.00  0.00     0.188 C 
BRANCH  36  37
ATOM     37  O   UNL A   1      40.990  24.792  26.947  1.00  0.00    -0.376 OA
BRANCH  37  38
ATOM     38  C   UNL A   1      41.788  23.640  26.701  1.00  0.00     0.202 C 
BRANCH  38  39
ATOM     39  C   UNL A   1      43.171  23.831  26.053  1.00  0.00     0.261 C 
BRANCH  39  40
ATOM     40  O   UNL A   1      44.279  24.028  26.942  1.00  0.00    -0.460 OA
BRANCH  40  41
ATOM     41  C   UNL A   1      44.676  25.291  27.210  1.00  0.00     0.338 C 
ATOM     42  O   UNL A   1      44.644  26.245  26.465  1.00  0.00    -0.246 OA
BRANCH  41  43
ATOM     43  C   UNL A   1      44.940  25.363  28.668  1.00  0.00     0.060 A 
ATOM     44  C   UNL A   1      43.862  25.227  29.555  1.00  0.00     0.016 A 
ATOM     45  C   UNL A   1      46.236  25.548  29.154  1.00  0.00     0.016 A 
ATOM     46  C   UNL A   1      44.072  25.318  30.931  1.00  0.00     0.010 A 
ATOM     47  C   UNL A   1      46.440  25.665  30.532  1.00  0.00     0.010 A 
ATOM     48  C   UNL A   1      45.354  25.588  31.425  1.00  0.00    -0.014 A 
BRANCH  48  49
ATOM     49  C   UNL A   1      45.527  25.993  32.842  1.00  0.00     0.031 A 
ATOM     50  C   UNL A   1      45.409  27.455  33.182  1.00  0.00     0.074 A 
ATOM     51  C   UNL A   1      45.787  25.095  33.808  1.00  0.00     0.049 A 
ATOM     52  N   UNL A   1      45.577  28.057  34.329  1.00  0.00    -0.248 NA
ATOM     53  C   UNL A   1      45.054  28.359  32.074  1.00  0.00     0.031 C 
ATOM     54  C   UNL A   1      45.907  23.652  33.613  1.00  0.00     0.029 A 
ATOM     55  N   UNL A   1      46.028  25.276  35.149  1.00  0.00    -0.354 N 
ATOM     56  C   UNL A   1      45.387  29.411  34.076  1.00  0.00     0.074 A 
ATOM     57  C   UNL A   1      45.094  29.543  32.667  1.00  0.00     0.031 C 
ATOM     58  C   UNL A   1      46.237  23.081  34.785  1.00  0.00     0.029 A 
ATOM     59  C   UNL A   1      46.382  24.120  35.804  1.00  0.00     0.049 A 
ATOM     60  H   UNL A   1      45.954  26.150  35.598  1.00  0.00     0.167 HD
ATOM     61  C   UNL A   1      45.446  30.452  34.940  1.00  0.00     0.034 A 
ATOM     62  C   UNL A   1      46.808  23.930  37.070  1.00  0.00     0.034 A 
ATOM     63  C   UNL A   1      45.727  30.319  36.342  1.00  0.00     0.049 A 
ATOM     64  C   UNL A   1      46.902  25.110  38.004  1.00  0.00     0.074 A 
ATOM     65  C   UNL A   1      45.760  31.308  37.309  1.00  0.00     0.029 A 
ATOM     66  N   UNL A   1      46.045  29.128  36.977  1.00  0.00    -0.354 N 
ATOM     67  N   UNL A   1      46.611  26.370  37.780  1.00  0.00    -0.248 NA
ATOM     68  C   UNL A   1      47.353  24.840  39.378  1.00  0.00     0.031 C 
ATOM     69  C   UNL A   1      46.141  30.722  38.520  1.00  0.00     0.029 A 
ATOM     70  C   UNL A   1      46.296  29.360  38.318  1.00  0.00     0.049 A 
ATOM     71  H   UNL A   1      46.086  28.248  36.538  1.00  0.00     0.167 HD
ATOM     72  C   UNL A   1      46.805  27.032  38.989  1.00  0.00     0.074 A 
ATOM     73  C   UNL A   1      47.223  26.030  39.948  1.00  0.00     0.031 C 
ATOM     74  C   UNL A   1      46.660  28.348  39.276  1.00  0.00     0.034 A 
BRANCH  61  75
ATOM     75  C   UNL A   1      45.199  31.832  34.390  1.00  0.00     0.023 A 
ATOM     76  C   UNL A   1      43.895  32.368  34.391  1.00  0.00     0.012 A 
ATOM     77  C   UNL A   1      46.270  32.617  33.921  1.00  0.00     0.148 A 
ATOM     78  C   UNL A   1      43.657  33.652  33.902  1.00  0.00     0.002 A 
ATOM     79  C   UNL A   1      46.032  33.913  33.481  1.00  0.00     0.091 A 
ATOM     80  F   UNL A   1      47.499  32.080  33.907  1.00  0.00    -0.205 F 
ATOM     81  C   UNL A   1      44.726  34.428  33.459  1.00  0.00     0.022 A 
BRANCH  79  82
ATOM     82  S   UNL A   1      47.351  35.019  32.967  1.00  0.00     0.127 S 
ATOM     83  O   UNL A   1      46.605  36.232  32.633  1.00  0.00    -0.237 OA
ATOM     84  O   UNL A   1      48.159  35.117  34.182  1.00  0.00    -0.237 OA
ATOM     85  O   UNL A   1      48.012  34.365  31.847  1.00  0.00    -0.744 OA
ENDBRANCH  79  82
ENDBRANCH  61  75
BRANCH  62  86
ATOM     86  C   UNL A   1      47.173  22.562  37.539  1.00  0.00     0.023 A 
ATOM     87  C   UNL A   1      46.191  21.733  38.114  1.00  0.00     0.012 A 
ATOM     88  C   UNL A   1      48.493  22.082  37.421  1.00  0.00     0.148 A 
ATOM     89  C   UNL A   1      46.521  20.465  38.594  1.00  0.00     0.002 A 
ATOM     90  C   UNL A   1      48.803  20.796  37.849  1.00  0.00     0.091 A 
ATOM     91  F   UNL A   1      49.418  22.892  36.889  1.00  0.00    -0.205 F 
ATOM     92  C   UNL A   1      47.824  19.994  38.453  1.00  0.00     0.022 A 
BRANCH  90  93
ATOM     93  S   UNL A   1      50.421  20.059  37.597  1.00  0.00     0.127 S 
ATOM     94  O   UNL A   1      50.357  19.670  36.190  1.00  0.00    -0.237 OA
ATOM     95  O   UNL A   1      51.311  21.185  37.885  1.00  0.00    -0.237 OA
ATOM     96  O   UNL A   1      50.509  18.962  38.551  1.00  0.00    -0.744 OA
ENDBRANCH  90  93
ENDBRANCH  62  86
BRANCH  74  97
ATOM     97  C   UNL A   1      46.899  28.794  40.698  1.00  0.00     0.023 A 
ATOM     98  C   UNL A   1      48.158  29.299  41.081  1.00  0.00     0.012 A 
ATOM     99  C   UNL A   1      45.844  28.789  41.632  1.00  0.00     0.148 A 
ATOM    100  C   UNL A   1      48.371  29.760  42.380  1.00  0.00     0.002 A 
ATOM    101  C   UNL A   1      46.048  29.300  42.908  1.00  0.00     0.091 A 
ATOM    102  F   UNL A   1      44.658  28.291  41.255  1.00  0.00    -0.205 F 
ATOM    103  C   UNL A   1      47.315  29.774  43.288  1.00  0.00     0.022 A 
BRANCH 101 104
ATOM    104  S   UNL A   1      44.723  29.450  44.112  1.00  0.00     0.127 S 
ATOM    105  O   UNL A   1      43.777  30.315  43.409  1.00  0.00    -0.237 OA
ATOM    106  O   UNL A   1      44.285  28.063  44.264  1.00  0.00    -0.237 OA
ATOM    107  O   UNL A   1      45.327  30.029  45.305  1.00  0.00    -0.744 OA
ENDBRANCH 101 104
ENDBRANCH  74  97
ENDBRANCH  48  49
ENDBRANCH  41  43
ENDBRANCH  40  41
ENDBRANCH  39  40
ENDBRANCH  38  39
ENDBRANCH  37  38
ENDBRANCH  36  37
ENDBRANCH  35  36
ENDBRANCH  34  35
ENDBRANCH  33  34
ENDBRANCH  32  33
ENDBRANCH   1  32
TORSDOF 32
ENDMDL
MODEL 3
REMARK VINA RESULT:      -7.0      9.210     16.943
REMARK SMILES CCCCCCNC(=O)Oc1cccc(-c2ccc([C@@H](C)C(=O)OCCOCCOCCOCCOC(=O)c3ccc(-c4c5nc(c(-c6cccc(S(=O)(=O)[O-])c6F)c6ccc([nH]6)c(-c6cccc(S(=O)(=O)[O-])c6F)c6nc(c(-c7cccc(S(=O)(=O)[O-])c7F)c7ccc4[nH]7)C=C6)C=C5)cc3)cc2)c1
REMARK SMILES IDX 27 1 26 2 25 3 24 4 22 5 23 6 20 7 21 8 19 9 16 10 17 11
REMARK SMILES IDX 103 12 18 13 102 14 15 15 11 16 12 17 104 18 13 19 14 20
REMARK SMILES IDX 10 21 8 22 7 23 9 25 6 26 5 27 4 28 3 29 2 30 1 31 28 32
REMARK SMILES IDX 29 33 30 34 31 35 32 36 33 37 34 38 35 39 36 40 37 41 38 42
REMARK SMILES IDX 39 43 40 44 101 45 41 46 100 47 42 48 43 49 44 50 94 51
REMARK SMILES IDX 45 52 99 53 93 54 95 55 46 56 98 57 92 58 91 59 47 61 79 62
REMARK SMILES IDX 59 63 78 64 60 65 63 66 77 67 96 68 61 69 62 70 76 72 97 73
REMARK SMILES IDX 64 74 48 75 49 76 57 77 50 78 52 79 58 80 51 81 53 82 54 83
REMARK SMILES IDX 55 84 56 85 80 86 81 87 89 88 82 89 84 90 90 91 83 92 85 93
REMARK SMILES IDX 86 94 87 95 88 96 65 97 66 98 74 99 67 100 69 101 75 102
REMARK SMILES IDX 68 103 70 104 71 105 72 106 73 107
REMARK H PARENT 7 24 95 60 63 71
REMARK Flexibility Score: inf
ROOT
ATOM      1  O   UNL A   1      39.931  33.416  30.043  1.00  0.00    -0.376 OA
ENDROOT
BRANCH   1   2
ATOM      2  C   UNL A   1      39.837  32.564  31.177  1.00  0.00     0.202 C 
BRANCH   2   3
ATOM      3  C   UNL A   1      41.087  31.862  31.742  1.00  0.00     0.261 C 
BRANCH   3   4
ATOM      4  O   UNL A   1      42.335  32.581  31.655  1.00  0.00    -0.463 OA
BRANCH   4   5
ATOM      5  C   UNL A   1      43.427  31.855  31.327  1.00  0.00     0.313 C 
ATOM      6  O   UNL A   1      43.863  31.766  30.179  1.00  0.00    -0.252 OA
BRANCH   5   7
ATOM      7  C   UNL A   1      44.104  31.105  32.473  1.00  0.00     0.126 C 
ATOM      8  C   UNL A   1      43.791  29.620  32.335  1.00  0.00     0.025 C 
BRANCH   7   9
ATOM      9  C   UNL A   1      43.966  31.565  33.924  1.00  0.00    -0.034 A 
ATOM     10  C   UNL A   1      43.600  32.342  36.663  1.00  0.00    -0.018 A 
ATOM     11  C   UNL A   1      44.386  33.101  35.777  1.00  0.00     0.009 A 
ATOM     12  C   UNL A   1      43.013  31.176  36.157  1.00  0.00     0.009 A 
ATOM     13  C   UNL A   1      44.565  32.724  34.431  1.00  0.00     0.005 A 
ATOM     14  C   UNL A   1      43.182  30.801  34.814  1.00  0.00     0.005 A 
BRANCH  10  15
ATOM     15  C   UNL A   1      43.331  32.789  38.046  1.00  0.00    -0.015 A 
ATOM     16  C   UNL A   1      43.692  34.281  39.937  1.00  0.00     0.133 A 
ATOM     17  C   UNL A   1      42.873  33.500  40.749  1.00  0.00     0.047 A 
ATOM     18  C   UNL A   1      43.935  33.934  38.602  1.00  0.00     0.056 A 
ATOM     19  C   UNL A   1      42.264  32.370  40.214  1.00  0.00     0.004 A 
ATOM     20  C   UNL A   1      42.492  32.021  38.878  1.00  0.00     0.009 A 
BRANCH  16  21
ATOM     21  O   UNL A   1      44.356  35.351  40.568  1.00  0.00    -0.410 OA
BRANCH  21  22
ATOM     22  C   UNL A   1      45.475  35.072  41.338  1.00  0.00     0.412 C 
ATOM     23  N   UNL A   1      46.650  35.464  40.754  1.00  0.00    -0.321 N 
ATOM     24  H   UNL A   1      47.470  35.297  41.271  1.00  0.00     0.167 HD
ATOM     25  O   UNL A   1      45.477  34.531  42.438  1.00  0.00    -0.224 OA
BRANCH  23  26
ATOM     26  C   UNL A   1      46.824  36.097  39.460  1.00  0.00     0.119 C 
BRANCH  26  27
ATOM     27  C   UNL A   1      47.030  37.608  39.584  1.00  0.00     0.021 C 
BRANCH  27  28
ATOM     28  C   UNL A   1      48.401  38.034  40.127  1.00  0.00     0.002 C 
BRANCH  28  29
ATOM     29  C   UNL A   1      48.423  39.343  40.923  1.00  0.00    -0.000 C 
BRANCH  29  30
ATOM     30  C   UNL A   1      47.444  39.416  42.099  1.00  0.00    -0.003 C 
ATOM     31  C   UNL A   1      47.552  38.234  43.050  1.00  0.00     0.004 C 
ENDBRANCH  29  30
ENDBRANCH  28  29
ENDBRANCH  27  28
ENDBRANCH  26  27
ENDBRANCH  23  26
ENDBRANCH  21  22
ENDBRANCH  16  21
ENDBRANCH  10  15
ENDBRANCH   7   9
ENDBRANCH   5   7
ENDBRANCH   4   5
ENDBRANCH   3   4
ENDBRANCH   2   3
ENDBRANCH   1   2
BRANCH   1  32
ATOM     32  C   UNL A   1      38.838  34.244  29.666  1.00  0.00     0.188 C 
BRANCH  32  33
ATOM     33  C   UNL A   1      37.705  33.719  28.771  1.00  0.00     0.188 C 
BRANCH  33  34
ATOM     34  O   UNL A   1      36.403  34.033  29.214  1.00  0.00    -0.377 OA
BRANCH  34  35
ATOM     35  C   UNL A   1      35.381  33.111  28.873  1.00  0.00     0.188 C 
BRANCH  35  36
ATOM     36  C   UNL A   1      35.769  31.989  27.895  1.00  0.00     0.188 C 
BRANCH  36  37
ATOM     37  O   UNL A   1      36.045  30.740  28.524  1.00  0.00    -0.376 OA
BRANCH  37  38
ATOM     38  C   UNL A   1      35.858  30.638  29.930  1.00  0.00     0.202 C 
BRANCH  38  39
ATOM     39  C   UNL A   1      36.753  29.666  30.720  1.00  0.00     0.261 C 
BRANCH  39  40
ATOM     40  O   UNL A   1      36.507  29.560  32.128  1.00  0.00    -0.460 OA
BRANCH  40  41
ATOM     41  C   UNL A   1      37.477  29.051  32.918  1.00  0.00     0.338 C 
ATOM     42  O   UNL A   1      37.956  27.940  32.869  1.00  0.00    -0.246 OA
BRANCH  41  43
ATOM     43  C   UNL A   1      38.027  30.177  33.712  1.00  0.00     0.060 A 
ATOM     44  C   UNL A   1      39.206  29.973  34.443  1.00  0.00     0.016 A 
ATOM     45  C   UNL A   1      37.395  31.422  33.723  1.00  0.00     0.016 A 
ATOM     46  C   UNL A   1      39.734  31.002  35.222  1.00  0.00     0.010 A 
ATOM     47  C   UNL A   1      37.911  32.444  34.526  1.00  0.00     0.010 A 
ATOM     48  C   UNL A   1      39.062  32.227  35.308  1.00  0.00    -0.014 A 
BRANCH  48  49
ATOM     49  C   UNL A   1      39.438  33.201  36.362  1.00  0.00     0.031 A 
ATOM     50  C   UNL A   1      40.496  34.222  36.040  1.00  0.00     0.074 A 
ATOM     51  C   UNL A   1      38.866  33.184  37.579  1.00  0.00     0.049 A 
ATOM     52  N   UNL A   1      41.033  35.133  36.808  1.00  0.00    -0.248 NA
ATOM     53  C   UNL A   1      41.019  34.212  34.663  1.00  0.00     0.031 C 
ATOM     54  C   UNL A   1      37.819  32.260  38.009  1.00  0.00     0.029 A 
ATOM     55  N   UNL A   1      39.113  33.957  38.689  1.00  0.00    -0.354 N 
ATOM     56  C   UNL A   1      41.982  35.778  36.022  1.00  0.00     0.074 A 
ATOM     57  C   UNL A   1      41.950  35.153  34.719  1.00  0.00     0.031 C 
ATOM     58  C   UNL A   1      37.539  32.494  39.304  1.00  0.00     0.029 A 
ATOM     59  C   UNL A   1      38.407  33.560  39.800  1.00  0.00     0.049 A 
ATOM     60  H   UNL A   1      39.735  34.720  38.687  1.00  0.00     0.167 HD
ATOM     61  C   UNL A   1      42.803  36.801  36.353  1.00  0.00     0.034 A 
ATOM     62  C   UNL A   1      38.481  33.987  41.078  1.00  0.00     0.034 A 
ATOM     63  C   UNL A   1      42.827  37.428  37.646  1.00  0.00     0.049 A 
ATOM     64  C   UNL A   1      39.431  35.105  41.431  1.00  0.00     0.074 A 
ATOM     65  C   UNL A   1      43.589  38.506  38.063  1.00  0.00     0.029 A 
ATOM     66  N   UNL A   1      42.074  37.024  38.736  1.00  0.00    -0.354 N 
ATOM     67  N   UNL A   1      40.242  35.780  40.652  1.00  0.00    -0.248 NA
ATOM     68  C   UNL A   1      39.455  35.541  42.836  1.00  0.00     0.031 C 
ATOM     69  C   UNL A   1      43.328  38.725  39.419  1.00  0.00     0.029 A 
ATOM     70  C   UNL A   1      42.366  37.816  39.832  1.00  0.00     0.049 A 
ATOM     71  H   UNL A   1      41.425  36.283  38.731  1.00  0.00     0.167 HD
ATOM     72  C   UNL A   1      40.840  36.743  41.460  1.00  0.00     0.074 A 
ATOM     73  C   UNL A   1      40.285  36.574  42.787  1.00  0.00     0.031 C 
ATOM     74  C   UNL A   1      41.770  37.674  41.136  1.00  0.00     0.034 A 
BRANCH  61  75
ATOM     75  C   UNL A   1      43.746  37.312  35.296  1.00  0.00     0.023 A 
ATOM     76  C   UNL A   1      43.290  38.225  34.324  1.00  0.00     0.012 A 
ATOM     77  C   UNL A   1      45.101  36.923  35.299  1.00  0.00     0.148 A 
ATOM     78  C   UNL A   1      44.159  38.719  33.352  1.00  0.00     0.002 A 
ATOM     79  C   UNL A   1      45.971  37.457  34.358  1.00  0.00     0.091 A 
ATOM     80  F   UNL A   1      45.510  36.036  36.217  1.00  0.00    -0.205 F 
ATOM     81  C   UNL A   1      45.500  38.344  33.376  1.00  0.00     0.022 A 
BRANCH  79  82
ATOM     82  S   UNL A   1      47.732  37.101  34.355  1.00  0.00     0.127 S 
ATOM     83  O   UNL A   1      48.213  38.002  33.307  1.00  0.00    -0.237 OA
ATOM     84  O   UNL A   1      48.124  37.482  35.712  1.00  0.00    -0.237 OA
ATOM     85  O   UNL A   1      47.856  35.681  34.060  1.00  0.00    -0.744 OA
ENDBRANCH  79  82
ENDBRANCH  61  75
BRANCH  62  86
ATOM     86  C   UNL A   1      37.624  33.363  42.126  1.00  0.00     0.023 A 
ATOM     87  C   UNL A   1      36.311  33.831  42.328  1.00  0.00     0.012 A 
ATOM     88  C   UNL A   1      38.107  32.309  42.927  1.00  0.00     0.148 A 
ATOM     89  C   UNL A   1      35.507  33.286  43.330  1.00  0.00     0.002 A 
ATOM     90  C   UNL A   1      37.281  31.731  43.884  1.00  0.00     0.091 A 
ATOM     91  F   UNL A   1      39.364  31.889  42.733  1.00  0.00    -0.205 F 
ATOM     92  C   UNL A   1      35.988  32.231  44.101  1.00  0.00     0.022 A 
BRANCH  90  93
ATOM     93  S   UNL A   1      37.769  30.290  44.838  1.00  0.00     0.127 S 
ATOM     94  O   UNL A   1      36.543  29.986  45.570  1.00  0.00    -0.237 OA
ATOM     95  O   UNL A   1      38.112  29.335  43.784  1.00  0.00    -0.237 OA
ATOM     96  O   UNL A   1      38.899  30.719  45.652  1.00  0.00    -0.744 OA
ENDBRANCH  90  93
ENDBRANCH  62  86
BRANCH  74  97
ATOM     97  C   UNL A   1      42.219  38.632  42.212  1.00  0.00     0.023 A 
ATOM     98  C   UNL A   1      43.334  38.322  43.016  1.00  0.00     0.012 A 
ATOM     99  C   UNL A   1      41.582  39.880  42.365  1.00  0.00     0.148 A 
ATOM    100  C   UNL A   1      43.786  39.225  43.978  1.00  0.00     0.002 A 
ATOM    101  C   UNL A   1      42.071  40.796  43.288  1.00  0.00     0.091 A 
ATOM    102  F   UNL A   1      40.514  40.151  41.602  1.00  0.00    -0.205 F 
ATOM    103  C   UNL A   1      43.165  40.465  44.105  1.00  0.00     0.022 A 
BRANCH 101 104
ATOM    104  S   UNL A   1      41.400  42.455  43.452  1.00  0.00     0.127 S 
ATOM    105  O   UNL A   1      40.041  42.181  43.917  1.00  0.00    -0.237 OA
ATOM    106  O   UNL A   1      42.281  43.046  44.459  1.00  0.00    -0.237 OA
ATOM    107  O   UNL A   1      41.496  43.062  42.132  1.00  0.00    -0.744 OA
ENDBRANCH 101 104
ENDBRANCH  74  97
ENDBRANCH  48  49
ENDBRANCH  41  43
ENDBRANCH  40  41
ENDBRANCH  39  40
ENDBRANCH  38  39
ENDBRANCH  37  38
ENDBRANCH  36  37
ENDBRANCH  35  36
ENDBRANCH  34  35
ENDBRANCH  33  34
ENDBRANCH  32  33
ENDBRANCH   1  32
TORSDOF 32
ENDMDL
