MODEL 1
REMARK VINA RESULT:      -9.2      0.000      0.000
REMARK SMILES CC(C)[C@H](NC(=O)[C@H](Cc1ccccc1)n1c(=O)[nH]c2ccccc2c1=O)C(=O)OCCOCCOCCOCCOC(=O)c1ccc(-c2c3nc(c(-c4cccc(S(=O)(=O)[O-])c4F)c4ccc([nH]4)c(-c4cccc(S(=O)(=O)[O-])c4F)c4nc(c(-c5cccc(S(=O)(=O)[O-])c5F)c5ccc2[nH]5)C=C4)C=C3)cc1
REMARK SMILES IDX 35 1 34 2 33 3 32 4 31 5 30 6 28 7 29 8 4 9 2 10 1 11 3 12
REMARK SMILES IDX 5 13 6 14 7 16 8 17 16 18 17 19 26 20 18 21 19 22 25 23
REMARK SMILES IDX 27 24 20 25 24 27 21 28 23 29 22 30 9 31 10 32 11 33 15 34
REMARK SMILES IDX 12 35 14 36 13 37 36 38 37 39 38 40 39 41 40 42 41 43 42 44
REMARK SMILES IDX 43 45 44 46 45 47 46 48 107 49 47 50 106 51 48 52 49 53
REMARK SMILES IDX 50 54 100 55 51 56 105 57 99 58 101 59 52 60 104 61 98 62
REMARK SMILES IDX 97 63 53 65 85 66 65 67 84 68 66 69 69 70 83 71 102 72 67 73
REMARK SMILES IDX 68 74 82 76 103 77 70 78 54 79 55 80 63 81 56 82 58 83 64 84
REMARK SMILES IDX 57 85 59 86 60 87 61 88 62 89 86 90 87 91 95 92 88 93 90 94
REMARK SMILES IDX 96 95 89 96 91 97 92 98 93 99 94 100 71 101 72 102 80 103
REMARK SMILES IDX 73 104 75 105 81 106 74 107 76 108 77 109 78 110 79 111
REMARK H PARENT 5 15 19 26 101 64 69 75
REMARK Flexibility Score: inf
ROOT
ATOM      1  C   UNL A   1      35.395  31.434  28.461  1.00  0.00     0.188 C 
ENDROOT
BRANCH   1   2
ATOM      2  C   UNL A   1      33.969  31.422  27.889  1.00  0.00     0.188 C 
BRANCH   2   3
ATOM      3  O   UNL A   1      33.689  30.284  27.096  1.00  0.00    -0.376 OA
BRANCH   3   4
ATOM      4  C   UNL A   1      32.348  30.018  26.753  1.00  0.00     0.202 C 
BRANCH   4   5
ATOM      5  C   UNL A   1      32.101  29.094  25.565  1.00  0.00     0.261 C 
BRANCH   5   6
ATOM      6  O   UNL A   1      31.221  27.981  25.803  1.00  0.00    -0.462 OA
BRANCH   6   7
ATOM      7  C   UNL A   1      31.575  27.089  26.763  1.00  0.00     0.328 C 
ATOM      8  O   UNL A   1      31.520  27.309  27.968  1.00  0.00    -0.250 OA
BRANCH   7   9
ATOM      9  C   UNL A   1      32.203  25.782  26.159  1.00  0.00     0.194 C 
BRANCH   9  10
ATOM     10  C   UNL A   1      31.923  24.240  27.013  1.00  0.00     0.017 C 
ATOM     11  C   UNL A   1      30.479  23.903  26.049  1.00  0.00     0.010 C 
ATOM     12  C   UNL A   1      33.341  22.769  27.803  1.00  0.00     0.010 C 
ENDBRANCH   9  10
BRANCH   9  13
ATOM     13  N   UNL A   1      33.488  25.848  25.450  1.00  0.00    -0.341 N 
ATOM     14  C   UNL A   1      33.738  25.535  24.141  1.00  0.00     0.244 C 
ATOM     15  H   UNL A   1      34.259  26.157  25.978  1.00  0.00     0.164 HD
ATOM     16  O   UNL A   1      34.907  25.477  23.776  1.00  0.00    -0.273 OA
BRANCH  14  17
ATOM     17  C   UNL A   1      32.536  25.078  23.339  1.00  0.00     0.189 C 
BRANCH  17  18
ATOM     18  N   UNL A   1      31.872  26.305  22.903  1.00  0.00    -0.247 N 
ATOM     19  C   UNL A   1      32.906  27.636  22.256  1.00  0.00     0.329 A 
ATOM     20  C   UNL A   1      30.141  26.295  23.187  1.00  0.00     0.264 A 
ATOM     21  O   UNL A   1      34.113  27.620  22.081  1.00  0.00    -0.248 OA
ATOM     22  N   UNL A   1      31.911  29.137  22.000  1.00  0.00    -0.307 N 
ATOM     23  C   UNL A   1      29.281  27.961  22.985  1.00  0.00     0.064 A 
ATOM     24  O   UNL A   1      29.518  25.254  23.328  1.00  0.00    -0.268 OA
ATOM     25  C   UNL A   1      30.148  29.308  22.376  1.00  0.00     0.055 A 
ATOM     26  H   UNL A   1      32.371  29.924  21.627  1.00  0.00     0.171 HD
ATOM     27  C   UNL A   1      27.971  28.087  23.361  1.00  0.00     0.016 A 
ATOM     28  C   UNL A   1      29.489  30.494  22.205  1.00  0.00     0.027 A 
ATOM     29  C   UNL A   1      27.424  29.364  23.178  1.00  0.00     0.001 A 
ATOM     30  C   UNL A   1      28.135  30.491  22.614  1.00  0.00     0.002 A 
ENDBRANCH  17  18
BRANCH  17  31
ATOM     31  C   UNL A   1      32.699  23.910  22.369  1.00  0.00     0.071 C 
BRANCH  31  32
ATOM     32  C   UNL A   1      32.723  22.521  22.934  1.00  0.00    -0.045 A 
ATOM     33  C   UNL A   1      33.361  22.268  24.152  1.00  0.00     0.004 A 
ATOM     34  C   UNL A   1      32.127  21.457  22.243  1.00  0.00     0.004 A 
ATOM     35  C   UNL A   1      33.344  20.987  24.700  1.00  0.00     0.000 A 
ATOM     36  C   UNL A   1      32.108  20.177  22.793  1.00  0.00     0.000 A 
ATOM     37  C   UNL A   1      32.706  19.945  24.029  1.00  0.00     0.000 A 
ENDBRANCH  31  32
ENDBRANCH  17  31
ENDBRANCH  14  17
ENDBRANCH   9  13
ENDBRANCH   7   9
ENDBRANCH   6   7
ENDBRANCH   5   6
ENDBRANCH   4   5
ENDBRANCH   3   4
ENDBRANCH   2   3
ENDBRANCH   1   2
BRANCH   1  38
ATOM     38  O   UNL A   1      35.775  32.422  29.402  1.00  0.00    -0.377 OA
BRANCH  38  39
ATOM     39  C   UNL A   1      36.402  32.017  30.608  1.00  0.00     0.188 C 
BRANCH  39  40
ATOM     40  C   UNL A   1      37.636  32.862  30.990  1.00  0.00     0.188 C 
BRANCH  40  41
ATOM     41  O   UNL A   1      37.979  33.129  32.348  1.00  0.00    -0.376 OA
BRANCH  41  42
ATOM     42  C   UNL A   1      37.010  33.045  33.377  1.00  0.00     0.202 C 
BRANCH  42  43
ATOM     43  C   UNL A   1      37.207  32.047  34.531  1.00  0.00     0.261 C 
BRANCH  43  44
ATOM     44  O   UNL A   1      38.416  32.175  35.281  1.00  0.00    -0.460 OA
BRANCH  44  45
ATOM     45  C   UNL A   1      38.929  31.009  35.728  1.00  0.00     0.338 C 
ATOM     46  O   UNL A   1      38.404  30.208  36.483  1.00  0.00    -0.246 OA
BRANCH  45  47
ATOM     47  C   UNL A   1      40.224  30.783  35.060  1.00  0.00     0.060 A 
ATOM     48  C   UNL A   1      40.641  31.716  34.107  1.00  0.00     0.016 A 
ATOM     49  C   UNL A   1      40.974  29.630  35.312  1.00  0.00     0.016 A 
ATOM     50  C   UNL A   1      41.785  31.471  33.356  1.00  0.00     0.010 A 
ATOM     51  C   UNL A   1      42.108  29.371  34.539  1.00  0.00     0.010 A 
ATOM     52  C   UNL A   1      42.483  30.268  33.524  1.00  0.00    -0.014 A 
BRANCH  52  53
ATOM     53  C   UNL A   1      43.454  29.885  32.476  1.00  0.00     0.031 A 
ATOM     54  C   UNL A   1      44.868  30.383  32.596  1.00  0.00     0.074 A 
ATOM     55  C   UNL A   1      43.104  29.037  31.494  1.00  0.00     0.049 A 
ATOM     56  N   UNL A   1      45.919  30.070  31.885  1.00  0.00    -0.248 NA
ATOM     57  C   UNL A   1      45.135  31.358  33.667  1.00  0.00     0.031 C 
ATOM     58  C   UNL A   1      41.764  28.494  31.284  1.00  0.00     0.029 A 
ATOM     59  N   UNL A   1      43.857  28.486  30.489  1.00  0.00    -0.354 N 
ATOM     60  C   UNL A   1      46.966  30.816  32.411  1.00  0.00     0.074 A 
ATOM     61  C   UNL A   1      46.423  31.611  33.489  1.00  0.00     0.031 C 
ATOM     62  C   UNL A   1      41.785  27.694  30.205  1.00  0.00     0.029 A 
ATOM     63  C   UNL A   1      43.137  27.675  29.647  1.00  0.00     0.049 A 
ATOM     64  H   UNL A   1      44.821  28.655  30.382  1.00  0.00     0.167 HD
ATOM     65  C   UNL A   1      48.267  30.825  32.040  1.00  0.00     0.034 A 
ATOM     66  C   UNL A   1      43.529  26.997  28.550  1.00  0.00     0.034 A 
ATOM     67  C   UNL A   1      48.802  30.024  30.974  1.00  0.00     0.049 A 
ATOM     68  C   UNL A   1      44.985  27.020  28.161  1.00  0.00     0.074 A 
ATOM     69  C   UNL A   1      50.112  29.929  30.539  1.00  0.00     0.029 A 
ATOM     70  N   UNL A   1      48.050  29.188  30.161  1.00  0.00    -0.354 N 
ATOM     71  N   UNL A   1      45.989  27.628  28.747  1.00  0.00    -0.248 NA
ATOM     72  C   UNL A   1      45.369  26.225  26.987  1.00  0.00     0.031 C 
ATOM     73  C   UNL A   1      50.147  29.056  29.446  1.00  0.00     0.029 A 
ATOM     74  C   UNL A   1      48.864  28.581  29.220  1.00  0.00     0.049 A 
ATOM     75  H   UNL A   1      47.079  29.047  30.242  1.00  0.00     0.167 HD
ATOM     76  C   UNL A   1      47.127  27.264  28.035  1.00  0.00     0.074 A 
ATOM     77  C   UNL A   1      46.690  26.360  26.990  1.00  0.00     0.031 C 
ATOM     78  C   UNL A   1      48.415  27.650  28.217  1.00  0.00     0.034 A 
BRANCH  65  79
ATOM     79  C   UNL A   1      49.204  31.722  32.807  1.00  0.00     0.023 A 
ATOM     80  C   UNL A   1      49.498  33.011  32.318  1.00  0.00     0.012 A 
ATOM     81  C   UNL A   1      49.762  31.303  34.030  1.00  0.00     0.148 A 
ATOM     82  C   UNL A   1      50.357  33.857  33.018  1.00  0.00     0.002 A 
ATOM     83  C   UNL A   1      50.583  32.169  34.744  1.00  0.00     0.091 A 
ATOM     84  F   UNL A   1      49.495  30.064  34.465  1.00  0.00    -0.205 F 
ATOM     85  C   UNL A   1      50.891  33.441  34.235  1.00  0.00     0.022 A 
BRANCH  83  86
ATOM     86  S   UNL A   1      51.256  31.752  36.357  1.00  0.00     0.127 S 
ATOM     87  O   UNL A   1      52.011  30.537  36.058  1.00  0.00    -0.237 OA
ATOM     88  O   UNL A   1      52.079  32.924  36.658  1.00  0.00    -0.237 OA
ATOM     89  O   UNL A   1      50.108  31.577  37.237  1.00  0.00    -0.744 OA
ENDBRANCH  83  86
ENDBRANCH  65  79
BRANCH  66  90
ATOM     90  C   UNL A   1      42.535  26.198  27.779  1.00  0.00     0.023 A 
ATOM     91  C   UNL A   1      41.698  26.834  26.841  1.00  0.00     0.012 A 
ATOM     92  C   UNL A   1      42.439  24.803  27.949  1.00  0.00     0.148 A 
ATOM     93  C   UNL A   1      40.763  26.101  26.110  1.00  0.00     0.002 A 
ATOM     94  C   UNL A   1      41.546  24.070  27.176  1.00  0.00     0.091 A 
ATOM     95  F   UNL A   1      43.230  24.219  28.860  1.00  0.00    -0.205 F 
ATOM     96  C   UNL A   1      40.695  24.718  26.269  1.00  0.00     0.022 A 
BRANCH  94  97
ATOM     97  S   UNL A   1      41.486  22.275  27.215  1.00  0.00     0.127 S 
ATOM     98  O   UNL A   1      41.769  21.936  25.823  1.00  0.00    -0.237 OA
ATOM     99  O   UNL A   1      42.561  21.958  28.157  1.00  0.00    -0.237 OA
ATOM    100  O   UNL A   1      40.154  21.933  27.693  1.00  0.00    -0.744 OA
ENDBRANCH  94  97
ENDBRANCH  66  90
BRANCH  78 101
ATOM    101  C   UNL A   1      49.451  27.074  27.286  1.00  0.00     0.023 A 
ATOM    102  C   UNL A   1      50.073  25.849  27.600  1.00  0.00     0.012 A 
ATOM    103  C   UNL A   1      49.771  27.720  26.076  1.00  0.00     0.148 A 
ATOM    104  C   UNL A   1      51.031  25.302  26.747  1.00  0.00     0.002 A 
ATOM    105  C   UNL A   1      50.689  27.143  25.207  1.00  0.00     0.091 A 
ATOM    106  F   UNL A   1      49.184  28.894  25.799  1.00  0.00    -0.205 F 
ATOM    107  C   UNL A   1      51.332  25.942  25.547  1.00  0.00     0.022 A 
BRANCH 105 108
ATOM    108  S   UNL A   1      51.058  27.853  23.598  1.00  0.00     0.127 S 
ATOM    109  O   UNL A   1      52.022  26.894  23.061  1.00  0.00    -0.237 OA
ATOM    110  O   UNL A   1      49.751  27.836  22.939  1.00  0.00    -0.237 OA
ATOM    111  O   UNL A   1      51.576  29.188  23.866  1.00  0.00    -0.744 OA
ENDBRANCH 105 108
ENDBRANCH  78 101
ENDBRANCH  52  53
ENDBRANCH  45  47
ENDBRANCH  44  45
ENDBRANCH  43  44
ENDBRANCH  42  43
ENDBRANCH  41  42
ENDBRANCH  40  41
ENDBRANCH  39  40
ENDBRANCH  38  39
ENDBRANCH   1  38
TORSDOF 29
ENDMDL
MODEL 2
REMARK VINA RESULT:      -8.9      2.499      7.486
REMARK SMILES CC(C)[C@H](NC(=O)[C@H](Cc1ccccc1)n1c(=O)[nH]c2ccccc2c1=O)C(=O)OCCOCCOCCOCCOC(=O)c1ccc(-c2c3nc(c(-c4cccc(S(=O)(=O)[O-])c4F)c4ccc([nH]4)c(-c4cccc(S(=O)(=O)[O-])c4F)c4nc(c(-c5cccc(S(=O)(=O)[O-])c5F)c5ccc2[nH]5)C=C4)C=C3)cc1
REMARK SMILES IDX 35 1 34 2 33 3 32 4 31 5 30 6 28 7 29 8 4 9 2 10 1 11 3 12
REMARK SMILES IDX 5 13 6 14 7 16 8 17 16 18 17 19 26 20 18 21 19 22 25 23
REMARK SMILES IDX 27 24 20 25 24 27 21 28 23 29 22 30 9 31 10 32 11 33 15 34
REMARK SMILES IDX 12 35 14 36 13 37 36 38 37 39 38 40 39 41 40 42 41 43 42 44
REMARK SMILES IDX 43 45 44 46 45 47 46 48 107 49 47 50 106 51 48 52 49 53
REMARK SMILES IDX 50 54 100 55 51 56 105 57 99 58 101 59 52 60 104 61 98 62
REMARK SMILES IDX 97 63 53 65 85 66 65 67 84 68 66 69 69 70 83 71 102 72 67 73
REMARK SMILES IDX 68 74 82 76 103 77 70 78 54 79 55 80 63 81 56 82 58 83 64 84
REMARK SMILES IDX 57 85 59 86 60 87 61 88 62 89 86 90 87 91 95 92 88 93 90 94
REMARK SMILES IDX 96 95 89 96 91 97 92 98 93 99 94 100 71 101 72 102 80 103
REMARK SMILES IDX 73 104 75 105 81 106 74 107 76 108 77 109 78 110 79 111
REMARK H PARENT 5 15 19 26 101 64 69 75
REMARK Flexibility Score: inf
ROOT
ATOM      1  C   UNL A   1      37.350  29.788  28.957  1.00  0.00     0.188 C 
ENDROOT
BRANCH   1   2
ATOM      2  C   UNL A   1      36.424  30.772  28.226  1.00  0.00     0.188 C 
BRANCH   2   3
ATOM      3  O   UNL A   1      35.051  30.448  28.342  1.00  0.00    -0.376 OA
BRANCH   3   4
ATOM      4  C   UNL A   1      34.376  29.967  27.202  1.00  0.00     0.202 C 
BRANCH   4   5
ATOM      5  C   UNL A   1      33.942  28.506  27.210  1.00  0.00     0.261 C 
BRANCH   5   6
ATOM      6  O   UNL A   1      32.839  28.170  26.349  1.00  0.00    -0.462 OA
BRANCH   6   7
ATOM      7  C   UNL A   1      32.030  27.148  26.728  1.00  0.00     0.328 C 
ATOM      8  O   UNL A   1      31.074  27.265  27.486  1.00  0.00    -0.250 OA
BRANCH   7   9
ATOM      9  C   UNL A   1      32.535  25.758  26.197  1.00  0.00     0.194 C 
BRANCH   9  10
ATOM     10  C   UNL A   1      32.094  24.294  27.116  1.00  0.00     0.017 C 
ATOM     11  C   UNL A   1      30.474  24.268  26.405  1.00  0.00     0.010 C 
ATOM     12  C   UNL A   1      33.296  22.557  27.694  1.00  0.00     0.010 C 
ENDBRANCH   9  10
BRANCH   9  13
ATOM     13  N   UNL A   1      33.830  25.666  25.509  1.00  0.00    -0.341 N 
ATOM     14  C   UNL A   1      34.081  25.159  24.263  1.00  0.00     0.244 C 
ATOM     15  H   UNL A   1      34.608  26.012  26.003  1.00  0.00     0.164 HD
ATOM     16  O   UNL A   1      35.251  24.997  23.932  1.00  0.00    -0.273 OA
BRANCH  14  17
ATOM     17  C   UNL A   1      32.869  24.646  23.511  1.00  0.00     0.189 C 
BRANCH  17  18
ATOM     18  N   UNL A   1      32.180  25.841  23.028  1.00  0.00    -0.247 N 
ATOM     19  C   UNL A   1      33.183  27.154  22.300  1.00  0.00     0.329 A 
ATOM     20  C   UNL A   1      30.454  25.820  23.342  1.00  0.00     0.264 A 
ATOM     21  O   UNL A   1      34.387  27.147  22.106  1.00  0.00    -0.248 OA
ATOM     22  N   UNL A   1      32.161  28.627  21.989  1.00  0.00    -0.307 N 
ATOM     23  C   UNL A   1      29.566  27.462  23.075  1.00  0.00     0.064 A 
ATOM     24  O   UNL A   1      29.849  24.778  23.543  1.00  0.00    -0.268 OA
ATOM     25  C   UNL A   1      30.402  28.790  22.387  1.00  0.00     0.055 A 
ATOM     26  H   UNL A   1      32.603  29.401  21.571  1.00  0.00     0.171 HD
ATOM     27  C   UNL A   1      28.260  27.587  23.466  1.00  0.00     0.016 A 
ATOM     28  C   UNL A   1      29.722  29.957  22.170  1.00  0.00     0.027 A 
ATOM     29  C   UNL A   1      27.691  28.845  23.232  1.00  0.00     0.001 A 
ATOM     30  C   UNL A   1      28.375  29.954  22.602  1.00  0.00     0.002 A 
ENDBRANCH  17  18
BRANCH  17  31
ATOM     31  C   UNL A   1      33.028  23.432  22.599  1.00  0.00     0.071 C 
BRANCH  31  32
ATOM     32  C   UNL A   1      33.136  22.079  23.236  1.00  0.00    -0.045 A 
ATOM     33  C   UNL A   1      34.181  21.800  24.120  1.00  0.00     0.004 A 
ATOM     34  C   UNL A   1      32.206  21.072  22.940  1.00  0.00     0.004 A 
ATOM     35  C   UNL A   1      34.256  20.558  24.748  1.00  0.00     0.000 A 
ATOM     36  C   UNL A   1      32.280  19.832  23.569  1.00  0.00     0.000 A 
ATOM     37  C   UNL A   1      33.299  19.580  24.485  1.00  0.00     0.000 A 
ENDBRANCH  31  32
ENDBRANCH  17  31
ENDBRANCH  14  17
ENDBRANCH   9  13
ENDBRANCH   7   9
ENDBRANCH   6   7
ENDBRANCH   5   6
ENDBRANCH   4   5
ENDBRANCH   3   4
ENDBRANCH   2   3
ENDBRANCH   1   2
BRANCH   1  38
ATOM     38  O   UNL A   1      38.643  29.516  28.447  1.00  0.00    -0.377 OA
BRANCH  38  39
ATOM     39  C   UNL A   1      39.306  28.330  28.851  1.00  0.00     0.188 C 
BRANCH  39  40
ATOM     40  C   UNL A   1      39.488  27.295  27.721  1.00  0.00     0.188 C 
BRANCH  40  41
ATOM     41  O   UNL A   1      40.099  26.026  27.947  1.00  0.00    -0.376 OA
BRANCH  41  42
ATOM     42  C   UNL A   1      39.318  24.848  28.054  1.00  0.00     0.202 C 
BRANCH  42  43
ATOM     43  C   UNL A   1      39.453  23.745  26.989  1.00  0.00     0.261 C 
BRANCH  43  44
ATOM     44  O   UNL A   1      40.201  22.589  27.366  1.00  0.00    -0.460 OA
BRANCH  44  45
ATOM     45  C   UNL A   1      41.162  22.227  26.489  1.00  0.00     0.338 C 
ATOM     46  O   UNL A   1      41.068  21.427  25.574  1.00  0.00    -0.246 OA
BRANCH  45  47
ATOM     47  C   UNL A   1      42.357  23.052  26.741  1.00  0.00     0.060 A 
ATOM     48  C   UNL A   1      43.263  22.613  27.712  1.00  0.00     0.016 A 
ATOM     49  C   UNL A   1      42.542  24.275  26.089  1.00  0.00     0.016 A 
ATOM     50  C   UNL A   1      44.329  23.426  28.078  1.00  0.00     0.010 A 
ATOM     51  C   UNL A   1      43.598  25.104  26.477  1.00  0.00     0.010 A 
ATOM     52  C   UNL A   1      44.461  24.700  27.509  1.00  0.00    -0.014 A 
BRANCH  52  53
ATOM     53  C   UNL A   1      45.366  25.660  28.177  1.00  0.00     0.031 A 
ATOM     54  C   UNL A   1      44.928  26.265  29.482  1.00  0.00     0.074 A 
ATOM     55  C   UNL A   1      46.588  25.912  27.678  1.00  0.00     0.049 A 
ATOM     56  N   UNL A   1      45.601  27.015  30.314  1.00  0.00    -0.248 NA
ATOM     57  C   UNL A   1      43.548  25.979  29.911  1.00  0.00     0.031 C 
ATOM     58  C   UNL A   1      47.114  25.380  26.423  1.00  0.00     0.029 A 
ATOM     59  N   UNL A   1      47.606  26.684  28.176  1.00  0.00    -0.354 N 
ATOM     60  C   UNL A   1      44.726  27.302  31.356  1.00  0.00     0.074 A 
ATOM     61  C   UNL A   1      43.468  26.661  31.044  1.00  0.00     0.031 C 
ATOM     62  C   UNL A   1      48.359  25.853  26.240  1.00  0.00     0.029 A 
ATOM     63  C   UNL A   1      48.711  26.724  27.361  1.00  0.00     0.049 A 
ATOM     64  H   UNL A   1      47.551  27.163  29.033  1.00  0.00     0.167 HD
ATOM     65  C   UNL A   1      44.956  28.020  32.479  1.00  0.00     0.034 A 
ATOM     66  C   UNL A   1      49.873  27.391  27.507  1.00  0.00     0.034 A 
ATOM     67  C   UNL A   1      46.213  28.646  32.787  1.00  0.00     0.049 A 
ATOM     68  C   UNL A   1      50.107  28.180  28.770  1.00  0.00     0.074 A 
ATOM     69  C   UNL A   1      46.564  29.366  33.913  1.00  0.00     0.029 A 
ATOM     70  N   UNL A   1      47.322  28.639  31.953  1.00  0.00    -0.354 N 
ATOM     71  N   UNL A   1      49.318  28.335  29.807  1.00  0.00    -0.248 NA
ATOM     72  C   UNL A   1      51.408  28.848  28.903  1.00  0.00     0.031 C 
ATOM     73  C   UNL A   1      47.879  29.818  33.750  1.00  0.00     0.029 A 
ATOM     74  C   UNL A   1      48.357  29.351  32.535  1.00  0.00     0.049 A 
ATOM     75  H   UNL A   1      47.367  28.193  31.077  1.00  0.00     0.167 HD
ATOM     76  C   UNL A   1      50.037  29.088  30.728  1.00  0.00     0.074 A 
ATOM     77  C   UNL A   1      51.337  29.334  30.136  1.00  0.00     0.031 C 
ATOM     78  C   UNL A   1      49.658  29.547  31.947  1.00  0.00     0.034 A 
BRANCH  65  79
ATOM     79  C   UNL A   1      43.825  28.153  33.464  1.00  0.00     0.023 A 
ATOM     80  C   UNL A   1      42.999  29.295  33.435  1.00  0.00     0.012 A 
ATOM     81  C   UNL A   1      43.555  27.130  34.394  1.00  0.00     0.148 A 
ATOM     82  C   UNL A   1      41.943  29.432  34.334  1.00  0.00     0.002 A 
ATOM     83  C   UNL A   1      42.474  27.253  35.258  1.00  0.00     0.091 A 
ATOM     84  F   UNL A   1      44.368  26.064  34.427  1.00  0.00    -0.205 F 
ATOM     85  C   UNL A   1      41.674  28.407  35.238  1.00  0.00     0.022 A 
BRANCH  83  86
ATOM     86  S   UNL A   1      42.001  25.955  36.406  1.00  0.00     0.127 S 
ATOM     87  O   UNL A   1      40.836  26.547  37.062  1.00  0.00    -0.237 OA
ATOM     88  O   UNL A   1      41.693  24.844  35.504  1.00  0.00    -0.237 OA
ATOM     89  O   UNL A   1      43.159  25.736  37.262  1.00  0.00    -0.744 OA
ENDBRANCH  83  86
ENDBRANCH  65  79
BRANCH  66  90
ATOM     90  C   UNL A   1      50.922  27.292  26.453  1.00  0.00     0.023 A 
ATOM     91  C   UNL A   1      51.002  28.276  25.449  1.00  0.00     0.012 A 
ATOM     92  C   UNL A   1      51.860  26.241  26.461  1.00  0.00     0.148 A 
ATOM     93  C   UNL A   1      51.978  28.199  24.455  1.00  0.00     0.002 A 
ATOM     94  C   UNL A   1      52.866  26.203  25.502  1.00  0.00     0.091 A 
ATOM     95  F   UNL A   1      51.756  25.304  27.414  1.00  0.00    -0.205 F 
ATOM     96  C   UNL A   1      52.917  27.170  24.488  1.00  0.00     0.022 A 
BRANCH  94  97
ATOM     97  S   UNL A   1      54.195  24.995  25.549  1.00  0.00     0.127 S 
ATOM     98  O   UNL A   1      55.033  25.428  24.434  1.00  0.00    -0.237 OA
ATOM     99  O   UNL A   1      54.768  25.227  26.876  1.00  0.00    -0.237 OA
ATOM    100  O   UNL A   1      53.556  23.696  25.394  1.00  0.00    -0.744 OA
ENDBRANCH  94  97
ENDBRANCH  66  90
BRANCH  78 101
ATOM    101  C   UNL A   1      50.669  30.338  32.738  1.00  0.00     0.023 A 
ATOM    102  C   UNL A   1      50.707  31.742  32.623  1.00  0.00     0.012 A 
ATOM    103  C   UNL A   1      51.548  29.695  33.631  1.00  0.00     0.148 A 
ATOM    104  C   UNL A   1      51.634  32.488  33.351  1.00  0.00     0.002 A 
ATOM    105  C   UNL A   1      52.435  30.449  34.391  1.00  0.00     0.091 A 
ATOM    106  F   UNL A   1      51.512  28.356  33.716  1.00  0.00    -0.205 F 
ATOM    107  C   UNL A   1      52.491  31.843  34.240  1.00  0.00     0.022 A 
BRANCH 105 108
ATOM    108  S   UNL A   1      53.501  29.705  35.630  1.00  0.00     0.127 S 
ATOM    109  O   UNL A   1      53.867  30.863  36.444  1.00  0.00    -0.237 OA
ATOM    110  O   UNL A   1      52.603  28.756  36.290  1.00  0.00    -0.237 OA
ATOM    111  O   UNL A   1      54.591  29.082  34.890  1.00  0.00    -0.744 OA
ENDBRANCH 105 108
ENDBRANCH  78 101
ENDBRANCH  52  53
ENDBRANCH  45  47
ENDBRANCH  44  45
ENDBRANCH  43  44
ENDBRANCH  42  43
ENDBRANCH  41  42
ENDBRANCH  40  41
ENDBRANCH  39  40
ENDBRANCH  38  39
ENDBRANCH   1  38
TORSDOF 29
ENDMDL
MODEL 3
REMARK VINA RESULT:      -8.8      4.868      7.361
REMARK SMILES CC(C)[C@H](NC(=O)[C@H](Cc1ccccc1)n1c(=O)[nH]c2ccccc2c1=O)C(=O)OCCOCCOCCOCCOC(=O)c1ccc(-c2c3nc(c(-c4cccc(S(=O)(=O)[O-])c4F)c4ccc([nH]4)c(-c4cccc(S(=O)(=O)[O-])c4F)c4nc(c(-c5cccc(S(=O)(=O)[O-])c5F)c5ccc2[nH]5)C=C4)C=C3)cc1
REMARK SMILES IDX 35 1 34 2 33 3 32 4 31 5 30 6 28 7 29 8 4 9 2 10 1 11 3 12
REMARK SMILES IDX 5 13 6 14 7 16 8 17 16 18 17 19 26 20 18 21 19 22 25 23
REMARK SMILES IDX 27 24 20 25 24 27 21 28 23 29 22 30 9 31 10 32 11 33 15 34
REMARK SMILES IDX 12 35 14 36 13 37 36 38 37 39 38 40 39 41 40 42 41 43 42 44
REMARK SMILES IDX 43 45 44 46 45 47 46 48 107 49 47 50 106 51 48 52 49 53
REMARK SMILES IDX 50 54 100 55 51 56 105 57 99 58 101 59 52 60 104 61 98 62
REMARK SMILES IDX 97 63 53 65 85 66 65 67 84 68 66 69 69 70 83 71 102 72 67 73
REMARK SMILES IDX 68 74 82 76 103 77 70 78 54 79 55 80 63 81 56 82 58 83 64 84
REMARK SMILES IDX 57 85 59 86 60 87 61 88 62 89 86 90 87 91 95 92 88 93 90 94
REMARK SMILES IDX 96 95 89 96 91 97 92 98 93 99 94 100 71 101 72 102 80 103
REMARK SMILES IDX 73 104 75 105 81 106 74 107 76 108 77 109 78 110 79 111
REMARK H PARENT 5 15 19 26 101 64 69 75
REMARK Flexibility Score: inf
ROOT
ATOM      1  C   UNL A   1      35.773  30.872  28.142  1.00  0.00     0.188 C 
ENDROOT
BRANCH   1   2
ATOM      2  C   UNL A   1      34.331  31.118  27.676  1.00  0.00     0.188 C 
BRANCH   2   3
ATOM      3  O   UNL A   1      33.811  30.073  26.875  1.00  0.00    -0.376 OA
BRANCH   3   4
ATOM      4  C   UNL A   1      32.418  30.017  26.665  1.00  0.00     0.202 C 
BRANCH   4   5
ATOM      5  C   UNL A   1      31.918  29.136  25.525  1.00  0.00     0.261 C 
BRANCH   5   6
ATOM      6  O   UNL A   1      31.066  28.040  25.902  1.00  0.00    -0.462 OA
BRANCH   6   7
ATOM      7  C   UNL A   1      31.518  27.184  26.853  1.00  0.00     0.328 C 
ATOM      8  O   UNL A   1      31.516  27.421  28.055  1.00  0.00    -0.250 OA
BRANCH   7   9
ATOM      9  C   UNL A   1      32.182  25.902  26.234  1.00  0.00     0.194 C 
BRANCH   9  10
ATOM     10  C   UNL A   1      31.926  24.339  27.056  1.00  0.00     0.017 C 
ATOM     11  C   UNL A   1      30.394  24.082  26.209  1.00  0.00     0.010 C 
ATOM     12  C   UNL A   1      33.356  22.798  27.668  1.00  0.00     0.010 C 
ENDBRANCH   9  10
BRANCH   9  13
ATOM     13  N   UNL A   1      33.474  26.010  25.543  1.00  0.00    -0.341 N 
ATOM     14  C   UNL A   1      33.757  25.688  24.242  1.00  0.00     0.244 C 
ATOM     15  H   UNL A   1      34.224  26.356  26.077  1.00  0.00     0.164 HD
ATOM     16  O   UNL A   1      34.933  25.671  23.896  1.00  0.00    -0.273 OA
BRANCH  14  17
ATOM     17  C   UNL A   1      32.587  25.171  23.429  1.00  0.00     0.189 C 
BRANCH  17  18
ATOM     18  N   UNL A   1      31.886  26.365  22.959  1.00  0.00    -0.247 N 
ATOM     19  C   UNL A   1      32.878  27.707  22.272  1.00  0.00     0.329 A 
ATOM     20  C   UNL A   1      30.156  26.311  23.247  1.00  0.00     0.264 A 
ATOM     21  O   UNL A   1      34.085  27.723  22.096  1.00  0.00    -0.248 OA
ATOM     22  N   UNL A   1      31.838  29.170  21.975  1.00  0.00    -0.307 N 
ATOM     23  C   UNL A   1      29.246  27.944  22.998  1.00  0.00     0.064 A 
ATOM     24  O   UNL A   1      29.565  25.256  23.419  1.00  0.00    -0.268 OA
ATOM     25  C   UNL A   1      30.071  29.298  22.349  1.00  0.00     0.055 A 
ATOM     26  H   UNL A   1      32.274  29.959  21.579  1.00  0.00     0.171 HD
ATOM     27  C   UNL A   1      27.932  28.041  23.373  1.00  0.00     0.016 A 
ATOM     28  C   UNL A   1      29.376  30.458  22.145  1.00  0.00     0.027 A 
ATOM     29  C   UNL A   1      27.347  29.294  23.154  1.00  0.00     0.001 A 
ATOM     30  C   UNL A   1      28.023  30.426  22.556  1.00  0.00     0.002 A 
ENDBRANCH  17  18
BRANCH  17  31
ATOM     31  C   UNL A   1      32.809  23.992  22.485  1.00  0.00     0.071 C 
BRANCH  31  32
ATOM     32  C   UNL A   1      32.950  22.625  23.084  1.00  0.00    -0.045 A 
ATOM     33  C   UNL A   1      32.062  21.606  22.727  1.00  0.00     0.004 A 
ATOM     34  C   UNL A   1      33.957  22.354  24.021  1.00  0.00     0.004 A 
ATOM     35  C   UNL A   1      32.221  20.323  23.248  1.00  0.00     0.000 A 
ATOM     36  C   UNL A   1      34.116  21.071  24.539  1.00  0.00     0.000 A 
ATOM     37  C   UNL A   1      33.255  20.052  24.142  1.00  0.00     0.000 A 
ENDBRANCH  31  32
ENDBRANCH  17  31
ENDBRANCH  14  17
ENDBRANCH   9  13
ENDBRANCH   7   9
ENDBRANCH   6   7
ENDBRANCH   5   6
ENDBRANCH   4   5
ENDBRANCH   3   4
ENDBRANCH   2   3
ENDBRANCH   1   2
BRANCH   1  38
ATOM     38  O   UNL A   1      36.382  31.757  29.065  1.00  0.00    -0.377 OA
BRANCH  38  39
ATOM     39  C   UNL A   1      37.079  31.218  30.177  1.00  0.00     0.188 C 
BRANCH  39  40
ATOM     40  C   UNL A   1      38.421  31.917  30.478  1.00  0.00     0.188 C 
BRANCH  40  41
ATOM     41  O   UNL A   1      38.831  32.231  31.807  1.00  0.00    -0.376 OA
BRANCH  41  42
ATOM     42  C   UNL A   1      37.880  32.529  32.814  1.00  0.00     0.202 C 
BRANCH  42  43
ATOM     43  C   UNL A   1      37.847  31.692  34.104  1.00  0.00     0.261 C 
BRANCH  43  44
ATOM     44  O   UNL A   1      38.885  31.945  35.051  1.00  0.00    -0.460 OA
BRANCH  44  45
ATOM     45  C   UNL A   1      39.707  30.899  35.280  1.00  0.00     0.338 C 
ATOM     46  O   UNL A   1      39.448  29.871  35.883  1.00  0.00    -0.246 OA
BRANCH  45  47
ATOM     47  C   UNL A   1      40.980  31.142  34.578  1.00  0.00     0.060 A 
ATOM     48  C   UNL A   1      41.881  32.045  35.148  1.00  0.00     0.016 A 
ATOM     49  C   UNL A   1      41.245  30.550  33.339  1.00  0.00     0.016 A 
ATOM     50  C   UNL A   1      43.028  32.408  34.452  1.00  0.00     0.010 A 
ATOM     51  C   UNL A   1      42.384  30.935  32.628  1.00  0.00     0.010 A 
ATOM     52  C   UNL A   1      43.249  31.904  33.164  1.00  0.00    -0.014 A 
BRANCH  52  53
ATOM     53  C   UNL A   1      44.262  32.582  32.326  1.00  0.00     0.031 A 
ATOM     54  C   UNL A   1      45.541  31.852  32.021  1.00  0.00     0.074 A 
ATOM     55  C   UNL A   1      44.006  33.780  31.773  1.00  0.00     0.049 A 
ATOM     56  N   UNL A   1      46.506  32.179  31.204  1.00  0.00    -0.248 NA
ATOM     57  C   UNL A   1      45.756  30.576  32.725  1.00  0.00     0.031 C 
ATOM     58  C   UNL A   1      42.801  34.574  32.000  1.00  0.00     0.029 A 
ATOM     59  N   UNL A   1      44.752  34.532  30.904  1.00  0.00    -0.354 N 
ATOM     60  C   UNL A   1      47.448  31.161  31.304  1.00  0.00     0.074 A 
ATOM     61  C   UNL A   1      46.947  30.213  32.275  1.00  0.00     0.031 C 
ATOM     62  C   UNL A   1      42.895  35.715  31.296  1.00  0.00     0.029 A 
ATOM     63  C   UNL A   1      44.168  35.731  30.576  1.00  0.00     0.049 A 
ATOM     64  H   UNL A   1      45.623  34.243  30.549  1.00  0.00     0.167 HD
ATOM     65  C   UNL A   1      48.615  31.021  30.636  1.00  0.00     0.034 A 
ATOM     66  C   UNL A   1      44.614  36.727  29.785  1.00  0.00     0.034 A 
ATOM     67  C   UNL A   1      49.101  31.962  29.665  1.00  0.00     0.049 A 
ATOM     68  C   UNL A   1      45.916  36.543  29.047  1.00  0.00     0.074 A 
ATOM     69  C   UNL A   1      50.253  31.898  28.903  1.00  0.00     0.029 A 
ATOM     70  N   UNL A   1      48.467  33.151  29.333  1.00  0.00    -0.354 N 
ATOM     71  N   UNL A   1      46.733  35.517  29.053  1.00  0.00    -0.248 NA
ATOM     72  C   UNL A   1      46.334  37.636  28.159  1.00  0.00     0.031 C 
ATOM     73  C   UNL A   1      50.330  33.062  28.130  1.00  0.00     0.029 A 
ATOM     74  C   UNL A   1      49.208  33.836  28.385  1.00  0.00     0.049 A 
ATOM     75  H   UNL A   1      47.615  33.462  29.715  1.00  0.00     0.167 HD
ATOM     76  C   UNL A   1      47.742  35.823  28.148  1.00  0.00     0.074 A 
ATOM     77  C   UNL A   1      47.418  37.122  27.591  1.00  0.00     0.031 C 
ATOM     78  C   UNL A   1      48.845  35.107  27.813  1.00  0.00     0.034 A 
BRANCH  65  79
ATOM     79  C   UNL A   1      49.440  29.793  30.925  1.00  0.00     0.023 A 
ATOM     80  C   UNL A   1      50.428  29.833  31.930  1.00  0.00     0.012 A 
ATOM     81  C   UNL A   1      49.210  28.591  30.229  1.00  0.00     0.148 A 
ATOM     82  C   UNL A   1      51.195  28.705  32.215  1.00  0.00     0.002 A 
ATOM     83  C   UNL A   1      49.949  27.458  30.549  1.00  0.00     0.091 A 
ATOM     84  F   UNL A   1      48.287  28.580  29.257  1.00  0.00    -0.205 F 
ATOM     85  C   UNL A   1      50.950  27.516  31.533  1.00  0.00     0.022 A 
BRANCH  83  86
ATOM     86  S   UNL A   1      49.654  25.862  29.780  1.00  0.00     0.127 S 
ATOM     87  O   UNL A   1      49.977  26.142  28.382  1.00  0.00    -0.237 OA
ATOM     88  O   UNL A   1      50.620  25.005  30.469  1.00  0.00    -0.237 OA
ATOM     89  O   UNL A   1      48.259  25.539  30.050  1.00  0.00    -0.744 OA
ENDBRANCH  83  86
ENDBRANCH  65  79
BRANCH  66  90
ATOM     90  C   UNL A   1      43.793  37.958  29.609  1.00  0.00     0.023 A 
ATOM     91  C   UNL A   1      42.861  38.035  28.557  1.00  0.00     0.012 A 
ATOM     92  C   UNL A   1      43.912  39.041  30.502  1.00  0.00     0.148 A 
ATOM     93  C   UNL A   1      42.083  39.180  28.379  1.00  0.00     0.002 A 
ATOM     94  C   UNL A   1      43.094  40.155  30.354  1.00  0.00     0.091 A 
ATOM     95  F   UNL A   1      44.819  38.957  31.485  1.00  0.00    -0.205 F 
ATOM     96  C   UNL A   1      42.191  40.234  29.283  1.00  0.00     0.022 A 
BRANCH  94  97
ATOM     97  S   UNL A   1      43.068  41.497  31.548  1.00  0.00     0.127 S 
ATOM     98  O   UNL A   1      42.084  41.018  32.515  1.00  0.00    -0.237 OA
ATOM     99  O   UNL A   1      44.451  41.501  32.028  1.00  0.00    -0.237 OA
ATOM    100  O   UNL A   1      42.693  42.687  30.798  1.00  0.00    -0.744 OA
ENDBRANCH  94  97
ENDBRANCH  66  90
BRANCH  78 101
ATOM    101  C   UNL A   1      49.768  35.695  26.776  1.00  0.00     0.023 A 
ATOM    102  C   UNL A   1      49.566  35.407  25.412  1.00  0.00     0.012 A 
ATOM    103  C   UNL A   1      50.804  36.573  27.149  1.00  0.00     0.148 A 
ATOM    104  C   UNL A   1      50.409  35.946  24.440  1.00  0.00     0.002 A 
ATOM    105  C   UNL A   1      51.609  37.147  26.172  1.00  0.00     0.091 A 
ATOM    106  F   UNL A   1      50.995  36.824  28.453  1.00  0.00    -0.205 F 
ATOM    107  C   UNL A   1      51.423  36.823  24.819  1.00  0.00     0.022 A 
BRANCH 105 108
ATOM    108  S   UNL A   1      52.872  38.361  26.568  1.00  0.00     0.127 S 
ATOM    109  O   UNL A   1      53.861  37.546  27.271  1.00  0.00    -0.237 OA
ATOM    110  O   UNL A   1      53.292  38.823  25.244  1.00  0.00    -0.237 OA
ATOM    111  O   UNL A   1      52.204  39.377  27.372  1.00  0.00    -0.744 OA
ENDBRANCH 105 108
ENDBRANCH  78 101
ENDBRANCH  52  53
ENDBRANCH  45  47
ENDBRANCH  44  45
ENDBRANCH  43  44
ENDBRANCH  42  43
ENDBRANCH  41  42
ENDBRANCH  40  41
ENDBRANCH  39  40
ENDBRANCH  38  39
ENDBRANCH   1  38
TORSDOF 29
ENDMDL
