MODEL 1
REMARK VINA RESULT:     -11.3      0.000      0.000
REMARK SMILES Cc1ccc([C@@]23C[C@@H]4C[C@@H](C[C@@](C(=O)N5CCC(C(=O)OCCOCCOCCOCCOC(=O)c6ccc(-c7c8nc(c(-c9cccc(S(=O)(=O)[O-])c9F)c9ccc([nH]9)c(-c9cccc(S(=O)(=O)[O-])c9F)c9nc(c(-c%10cccc(S(=O)(=O)[O-])c%10F)c%10ccc7[nH]%10)C=C9)C=C8)cc6)CC5)(C4)C2)C3)cc1
REMARK SMILES IDX 28 1 27 2 26 3 25 4 24 5 23 6 22 7 21 8 19 9 20 10 18 11
REMARK SMILES IDX 13 12 14 13 15 14 16 15 100 16 17 17 99 18 12 19 6 20 7 21
REMARK SMILES IDX 102 22 103 23 8 24 10 25 9 26 101 27 11 28 5 29 1 30 2 31
REMARK SMILES IDX 3 32 105 33 4 34 104 35 29 36 30 37 31 38 32 39 33 40 34 41
REMARK SMILES IDX 35 42 36 43 37 44 98 45 38 46 97 47 39 48 40 49 41 50 91 51
REMARK SMILES IDX 42 52 96 53 90 54 92 55 43 56 95 57 89 58 88 59 44 61 76 62
REMARK SMILES IDX 56 63 75 64 57 65 60 66 74 67 93 68 58 69 59 70 73 72 94 73
REMARK SMILES IDX 61 74 45 75 46 76 54 77 47 78 49 79 55 80 48 81 50 82 51 83
REMARK SMILES IDX 52 84 53 85 77 86 78 87 86 88 79 89 81 90 87 91 80 92 82 93
REMARK SMILES IDX 83 94 84 95 85 96 62 97 63 98 71 99 64 100 66 101 72 102
REMARK SMILES IDX 65 103 67 104 68 105 69 106 70 107
REMARK H PARENT 92 60 60 71
REMARK Flexibility Score: inf
ROOT
ATOM      1  C   UNL A   1      30.427  26.332  25.872  1.00  0.00     0.188 C 
ENDROOT
BRANCH   1   2
ATOM      2  O   UNL A   1      30.256  26.054  24.476  1.00  0.00    -0.377 OA
BRANCH   2   3
ATOM      3  C   UNL A   1      29.019  26.406  23.869  1.00  0.00     0.188 C 
BRANCH   3   4
ATOM      4  C   UNL A   1      28.851  27.758  23.141  1.00  0.00     0.188 C 
BRANCH   4   5
ATOM      5  O   UNL A   1      29.778  28.150  22.150  1.00  0.00    -0.376 OA
BRANCH   5   6
ATOM      6  C   UNL A   1      30.428  29.389  22.376  1.00  0.00     0.202 C 
BRANCH   6   7
ATOM      7  C   UNL A   1      31.889  29.398  22.787  1.00  0.00     0.261 C 
BRANCH   7   8
ATOM      8  O   UNL A   1      32.365  28.074  23.013  1.00  0.00    -0.463 OA
BRANCH   8   9
ATOM      9  C   UNL A   1      33.491  27.740  22.360  1.00  0.00     0.309 C 
ATOM     10  O   UNL A   1      34.393  28.479  22.032  1.00  0.00    -0.252 OA
BRANCH   9  11
ATOM     11  C   UNL A   1      33.579  26.249  22.251  1.00  0.00     0.103 C 
ATOM     12  C   UNL A   1      32.382  22.296  22.819  1.00  0.00     0.228 C 
ATOM     13  O   UNL A   1      31.438  21.928  22.116  1.00  0.00    -0.274 OA
ATOM     14  N   UNL A   1      33.084  23.471  22.546  1.00  0.00    -0.342 N 
ATOM     15  C   UNL A   1      32.952  24.104  21.227  1.00  0.00     0.120 C 
ATOM     16  C   UNL A   1      33.977  24.182  23.464  1.00  0.00     0.120 C 
ATOM     17  C   UNL A   1      32.551  25.574  21.352  1.00  0.00     0.037 C 
ATOM     18  C   UNL A   1      33.517  25.596  23.625  1.00  0.00     0.037 C 
BRANCH  12  19
ATOM     19  C   UNL A   1      32.912  21.378  23.942  1.00  0.00     0.051 C 
ATOM     20  C   UNL A   1      35.073  21.082  25.322  1.00  0.00    -0.003 C 
ATOM     21  C   UNL A   1      34.161  21.219  26.577  1.00  0.00     0.015 C 
ATOM     22  C   UNL A   1      34.372  21.805  24.174  1.00  0.00     0.028 C 
ATOM     23  C   UNL A   1      35.134  19.598  24.883  1.00  0.00     0.015 C 
ATOM     24  C   UNL A   1      32.762  20.612  26.336  1.00  0.00    -0.009 C 
ATOM     25  C   UNL A   1      33.710  19.057  24.607  1.00  0.00    -0.009 C 
ATOM     26  C   UNL A   1      32.902  19.144  25.912  1.00  0.00     0.007 C 
ATOM     27  C   UNL A   1      32.038  21.373  25.216  1.00  0.00     0.020 C 
ATOM     28  C   UNL A   1      33.004  19.890  23.505  1.00  0.00     0.020 C 
BRANCH  20  29
ATOM     29  C   UNL A   1      36.459  21.713  25.582  1.00  0.00    -0.042 A 
ATOM     30  C   UNL A   1      40.349  23.426  26.495  1.00  0.00     0.044 C 
ATOM     31  C   UNL A   1      39.017  22.819  26.174  1.00  0.00    -0.051 A 
ATOM     32  C   UNL A   1      37.872  23.599  26.289  1.00  0.00     0.004 A 
ATOM     33  C   UNL A   1      38.885  21.489  25.765  1.00  0.00     0.004 A 
ATOM     34  C   UNL A   1      36.622  23.057  25.987  1.00  0.00     0.004 A 
ATOM     35  C   UNL A   1      37.624  20.943  25.475  1.00  0.00     0.004 A 
ENDBRANCH  20  29
ENDBRANCH  12  19
ENDBRANCH   9  11
ENDBRANCH   8   9
ENDBRANCH   7   8
ENDBRANCH   6   7
ENDBRANCH   5   6
ENDBRANCH   4   5
ENDBRANCH   3   4
ENDBRANCH   2   3
ENDBRANCH   1   2
BRANCH   1  36
ATOM     36  C   UNL A   1      31.671  27.106  26.286  1.00  0.00     0.188 C 
BRANCH  36  37
ATOM     37  O   UNL A   1      31.347  28.492  26.206  1.00  0.00    -0.376 OA
BRANCH  37  38
ATOM     38  C   UNL A   1      31.933  29.346  27.170  1.00  0.00     0.202 C 
BRANCH  38  39
ATOM     39  C   UNL A   1      32.192  30.750  26.637  1.00  0.00     0.261 C 
BRANCH  39  40
ATOM     40  O   UNL A   1      33.531  31.161  27.008  1.00  0.00    -0.460 OA
BRANCH  40  41
ATOM     41  C   UNL A   1      33.671  32.328  27.700  1.00  0.00     0.338 C 
ATOM     42  O   UNL A   1      32.859  33.237  27.630  1.00  0.00    -0.246 OA
BRANCH  41  43
ATOM     43  C   UNL A   1      34.878  32.348  28.583  1.00  0.00     0.060 A 
ATOM     44  C   UNL A   1      36.145  32.629  28.059  1.00  0.00     0.016 A 
ATOM     45  C   UNL A   1      34.796  31.966  29.911  1.00  0.00     0.016 A 
ATOM     46  C   UNL A   1      37.312  32.302  28.776  1.00  0.00     0.010 A 
ATOM     47  C   UNL A   1      35.948  31.548  30.567  1.00  0.00     0.010 A 
ATOM     48  C   UNL A   1      37.224  31.631  29.982  1.00  0.00    -0.014 A 
BRANCH  48  49
ATOM     49  C   UNL A   1      38.349  30.957  30.684  1.00  0.00     0.031 A 
ATOM     50  C   UNL A   1      38.868  29.678  30.083  1.00  0.00     0.074 A 
ATOM     51  C   UNL A   1      39.132  31.706  31.512  1.00  0.00     0.049 A 
ATOM     52  N   UNL A   1      39.966  29.069  30.390  1.00  0.00    -0.248 NA
ATOM     53  C   UNL A   1      38.141  28.980  29.018  1.00  0.00     0.031 C 
ATOM     54  C   UNL A   1      40.594  31.639  31.596  1.00  0.00     0.029 A 
ATOM     55  N   UNL A   1      38.855  32.783  32.361  1.00  0.00    -0.354 N 
ATOM     56  C   UNL A   1      40.249  28.151  29.382  1.00  0.00     0.074 A 
ATOM     57  C   UNL A   1      39.029  28.061  28.625  1.00  0.00     0.031 C 
ATOM     58  C   UNL A   1      41.076  32.591  32.401  1.00  0.00     0.029 A 
ATOM     59  C   UNL A   1      39.965  32.993  33.203  1.00  0.00     0.049 A 
ATOM     60  H   UNL A   1      38.022  33.306  32.369  1.00  0.00     0.167 HD
ATOM     61  C   UNL A   1      41.529  27.694  29.204  1.00  0.00     0.034 A 
ATOM     62  C   UNL A   1      39.992  32.755  34.549  1.00  0.00     0.034 A 
ATOM     63  C   UNL A   1      42.416  28.078  30.350  1.00  0.00     0.049 A 
ATOM     64  C   UNL A   1      40.771  31.464  34.922  1.00  0.00     0.074 A 
ATOM     65  C   UNL A   1      43.682  28.637  30.472  1.00  0.00     0.029 A 
ATOM     66  N   UNL A   1      41.917  28.042  31.660  1.00  0.00    -0.354 N 
ATOM     67  N   UNL A   1      41.442  30.701  34.079  1.00  0.00    -0.248 NA
ATOM     68  C   UNL A   1      40.876  30.947  36.279  1.00  0.00     0.031 C 
ATOM     69  C   UNL A   1      43.869  29.049  31.831  1.00  0.00     0.029 A 
ATOM     70  C   UNL A   1      42.764  28.655  32.572  1.00  0.00     0.049 A 
ATOM     71  H   UNL A   1      41.060  27.626  31.906  1.00  0.00     0.167 HD
ATOM     72  C   UNL A   1      41.933  29.570  34.693  1.00  0.00     0.074 A 
ATOM     73  C   UNL A   1      41.615  29.836  36.092  1.00  0.00     0.031 C 
ATOM     74  C   UNL A   1      42.509  28.506  34.014  1.00  0.00     0.034 A 
BRANCH  61  75
ATOM     75  C   UNL A   1      42.083  27.059  27.891  1.00  0.00     0.023 A 
ATOM     76  C   UNL A   1      41.786  27.728  26.678  1.00  0.00     0.012 A 
ATOM     77  C   UNL A   1      42.778  25.820  27.725  1.00  0.00     0.148 A 
ATOM     78  C   UNL A   1      42.099  27.210  25.409  1.00  0.00     0.002 A 
ATOM     79  C   UNL A   1      43.172  25.344  26.455  1.00  0.00     0.091 A 
ATOM     80  F   UNL A   1      43.009  25.034  28.780  1.00  0.00    -0.205 F 
ATOM     81  C   UNL A   1      42.805  26.025  25.294  1.00  0.00     0.022 A 
BRANCH  79  82
ATOM     82  S   UNL A   1      44.193  23.867  26.197  1.00  0.00     0.127 S 
ATOM     83  O   UNL A   1      45.551  24.391  26.341  1.00  0.00    -0.237 OA
ATOM     84  O   UNL A   1      43.765  22.997  27.294  1.00  0.00    -0.237 OA
ATOM     85  O   UNL A   1      43.862  23.369  24.867  1.00  0.00    -0.744 OA
ENDBRANCH  79  82
ENDBRANCH  61  75
BRANCH  62  86
ATOM     86  C   UNL A   1      38.899  33.516  35.243  1.00  0.00     0.023 A 
ATOM     87  C   UNL A   1      37.852  32.663  35.697  1.00  0.00     0.012 A 
ATOM     88  C   UNL A   1      39.281  34.587  36.058  1.00  0.00     0.148 A 
ATOM     89  C   UNL A   1      37.506  32.635  37.052  1.00  0.00     0.002 A 
ATOM     90  C   UNL A   1      38.930  34.558  37.410  1.00  0.00     0.091 A 
ATOM     91  F   UNL A   1      40.132  35.493  35.561  1.00  0.00    -0.205 F 
ATOM     92  C   UNL A   1      38.103  33.540  37.922  1.00  0.00     0.022 A 
BRANCH  90  93
ATOM     93  S   UNL A   1      39.817  35.597  38.577  1.00  0.00     0.127 S 
ATOM     94  O   UNL A   1      39.396  36.935  38.186  1.00  0.00    -0.237 OA
ATOM     95  O   UNL A   1      39.298  35.136  39.864  1.00  0.00    -0.237 OA
ATOM     96  O   UNL A   1      41.215  35.260  38.347  1.00  0.00    -0.744 OA
ENDBRANCH  90  93
ENDBRANCH  62  86
BRANCH  74  97
ATOM     97  C   UNL A   1      42.870  27.113  34.598  1.00  0.00     0.023 A 
ATOM     98  C   UNL A   1      41.908  26.204  35.061  1.00  0.00     0.012 A 
ATOM     99  C   UNL A   1      44.219  26.626  34.617  1.00  0.00     0.148 A 
ATOM    100  C   UNL A   1      42.223  24.896  35.457  1.00  0.00     0.002 A 
ATOM    101  C   UNL A   1      44.526  25.307  34.954  1.00  0.00     0.091 A 
ATOM    102  F   UNL A   1      45.242  27.444  34.350  1.00  0.00    -0.205 F 
ATOM    103  C   UNL A   1      43.524  24.436  35.370  1.00  0.00     0.022 A 
BRANCH 101 104
ATOM    104  S   UNL A   1      46.189  24.625  34.824  1.00  0.00     0.127 S 
ATOM    105  O   UNL A   1      46.848  25.240  35.975  1.00  0.00    -0.237 OA
ATOM    106  O   UNL A   1      45.937  23.190  34.963  1.00  0.00    -0.237 OA
ATOM    107  O   UNL A   1      46.699  25.028  33.522  1.00  0.00    -0.744 OA
ENDBRANCH 101 104
ENDBRANCH  74  97
ENDBRANCH  48  49
ENDBRANCH  41  43
ENDBRANCH  40  41
ENDBRANCH  39  40
ENDBRANCH  38  39
ENDBRANCH  37  38
ENDBRANCH  36  37
ENDBRANCH   1  36
TORSDOF 25
ENDMDL
MODEL 2
REMARK VINA RESULT:     -10.5      5.126     11.471
REMARK SMILES Cc1ccc([C@@]23C[C@@H]4C[C@@H](C[C@@](C(=O)N5CCC(C(=O)OCCOCCOCCOCCOC(=O)c6ccc(-c7c8nc(c(-c9cccc(S(=O)(=O)[O-])c9F)c9ccc([nH]9)c(-c9cccc(S(=O)(=O)[O-])c9F)c9nc(c(-c%10cccc(S(=O)(=O)[O-])c%10F)c%10ccc7[nH]%10)C=C9)C=C8)cc6)CC5)(C4)C2)C3)cc1
REMARK SMILES IDX 28 1 27 2 26 3 25 4 24 5 23 6 22 7 21 8 19 9 20 10 18 11
REMARK SMILES IDX 13 12 14 13 15 14 16 15 100 16 17 17 99 18 12 19 6 20 7 21
REMARK SMILES IDX 102 22 103 23 8 24 10 25 9 26 101 27 11 28 5 29 1 30 2 31
REMARK SMILES IDX 3 32 105 33 4 34 104 35 29 36 30 37 31 38 32 39 33 40 34 41
REMARK SMILES IDX 35 42 36 43 37 44 98 45 38 46 97 47 39 48 40 49 41 50 91 51
REMARK SMILES IDX 42 52 96 53 90 54 92 55 43 56 95 57 89 58 88 59 44 61 76 62
REMARK SMILES IDX 56 63 75 64 57 65 60 66 74 67 93 68 58 69 59 70 73 72 94 73
REMARK SMILES IDX 61 74 45 75 46 76 54 77 47 78 49 79 55 80 48 81 50 82 51 83
REMARK SMILES IDX 52 84 53 85 77 86 78 87 86 88 79 89 81 90 87 91 80 92 82 93
REMARK SMILES IDX 83 94 84 95 85 96 62 97 63 98 71 99 64 100 66 101 72 102
REMARK SMILES IDX 65 103 67 104 68 105 69 106 70 107
REMARK H PARENT 92 60 60 71
REMARK Flexibility Score: inf
ROOT
ATOM      1  C   UNL A   1      43.082  28.421  30.075  1.00  0.00     0.188 C 
ENDROOT
BRANCH   1   2
ATOM      2  O   UNL A   1      43.132  27.015  29.798  1.00  0.00    -0.377 OA
BRANCH   2   3
ATOM      3  C   UNL A   1      42.688  26.568  28.524  1.00  0.00     0.188 C 
BRANCH   3   4
ATOM      4  C   UNL A   1      41.384  25.754  28.379  1.00  0.00     0.188 C 
BRANCH   4   5
ATOM      5  O   UNL A   1      40.359  26.203  27.517  1.00  0.00    -0.376 OA
BRANCH   5   6
ATOM      6  C   UNL A   1      39.995  25.306  26.481  1.00  0.00     0.202 C 
BRANCH   6   7
ATOM      7  C   UNL A   1      39.355  23.977  26.841  1.00  0.00     0.261 C 
BRANCH   7   8
ATOM      8  O   UNL A   1      38.018  23.905  26.354  1.00  0.00    -0.463 OA
BRANCH   8   9
ATOM      9  C   UNL A   1      37.724  22.818  25.619  1.00  0.00     0.309 C 
ATOM     10  O   UNL A   1      38.342  21.777  25.572  1.00  0.00    -0.252 OA
BRANCH   9  11
ATOM     11  C   UNL A   1      36.379  22.996  24.984  1.00  0.00     0.103 C 
ATOM     12  C   UNL A   1      33.377  24.980  22.878  1.00  0.00     0.228 C 
ATOM     13  O   UNL A   1      33.560  25.067  21.662  1.00  0.00    -0.274 OA
ATOM     14  N   UNL A   1      34.122  24.105  23.670  1.00  0.00    -0.342 N 
ATOM     15  C   UNL A   1      34.883  23.022  23.034  1.00  0.00     0.120 C 
ATOM     16  C   UNL A   1      34.242  24.143  25.130  1.00  0.00     0.120 C 
ATOM     17  C   UNL A   1      36.351  23.045  23.462  1.00  0.00     0.037 C 
ATOM     18  C   UNL A   1      35.684  24.242  25.517  1.00  0.00     0.037 C 
BRANCH  12  19
ATOM     19  C   UNL A   1      32.203  25.736  23.539  1.00  0.00     0.051 C 
ATOM     20  C   UNL A   1      31.864  27.691  25.190  1.00  0.00    -0.003 C 
ATOM     21  C   UNL A   1      30.968  28.326  24.085  1.00  0.00     0.015 C 
ATOM     22  C   UNL A   1      32.850  26.758  24.490  1.00  0.00     0.028 C 
ATOM     23  C   UNL A   1      31.005  26.766  26.087  1.00  0.00     0.015 C 
ATOM     24  C   UNL A   1      30.209  27.252  23.277  1.00  0.00    -0.009 C 
ATOM     25  C   UNL A   1      30.308  25.679  25.233  1.00  0.00    -0.009 C 
ATOM     26  C   UNL A   1      29.379  26.381  24.229  1.00  0.00     0.007 C 
ATOM     27  C   UNL A   1      31.202  26.345  22.533  1.00  0.00     0.020 C 
ATOM     28  C   UNL A   1      31.350  24.825  24.464  1.00  0.00     0.020 C 
BRANCH  20  29
ATOM     29  C   UNL A   1      32.626  28.785  25.970  1.00  0.00    -0.042 A 
ATOM     30  C   UNL A   1      34.721  31.774  28.331  1.00  0.00     0.044 C 
ATOM     31  C   UNL A   1      34.015  30.734  27.516  1.00  0.00    -0.051 A 
ATOM     32  C   UNL A   1      32.700  30.956  27.125  1.00  0.00     0.004 A 
ATOM     33  C   UNL A   1      34.635  29.540  27.137  1.00  0.00     0.004 A 
ATOM     34  C   UNL A   1      32.026  30.005  26.358  1.00  0.00     0.004 A 
ATOM     35  C   UNL A   1      33.950  28.578  26.377  1.00  0.00     0.004 A 
ENDBRANCH  20  29
ENDBRANCH  12  19
ENDBRANCH   9  11
ENDBRANCH   8   9
ENDBRANCH   7   8
ENDBRANCH   6   7
ENDBRANCH   5   6
ENDBRANCH   4   5
ENDBRANCH   3   4
ENDBRANCH   2   3
ENDBRANCH   1   2
BRANCH   1  36
ATOM     36  C   UNL A   1      42.235  28.875  31.257  1.00  0.00     0.188 C 
BRANCH  36  37
ATOM     37  O   UNL A   1      41.288  29.814  30.756  1.00  0.00    -0.376 OA
BRANCH  37  38
ATOM     38  C   UNL A   1      40.290  29.318  29.884  1.00  0.00     0.202 C 
BRANCH  38  39
ATOM     39  C   UNL A   1      39.345  28.336  30.566  1.00  0.00     0.261 C 
BRANCH  39  40
ATOM     40  O   UNL A   1      38.168  29.047  31.025  1.00  0.00    -0.460 OA
BRANCH  40  41
ATOM     41  C   UNL A   1      37.943  29.106  32.369  1.00  0.00     0.338 C 
ATOM     42  O   UNL A   1      37.488  28.166  33.003  1.00  0.00    -0.246 OA
BRANCH  41  43
ATOM     43  C   UNL A   1      38.360  30.406  32.980  1.00  0.00     0.060 A 
ATOM     44  C   UNL A   1      37.781  31.610  32.567  1.00  0.00     0.016 A 
ATOM     45  C   UNL A   1      39.415  30.466  33.873  1.00  0.00     0.016 A 
ATOM     46  C   UNL A   1      38.397  32.844  32.854  1.00  0.00     0.010 A 
ATOM     47  C   UNL A   1      40.074  31.676  34.061  1.00  0.00     0.010 A 
ATOM     48  C   UNL A   1      39.625  32.878  33.487  1.00  0.00    -0.014 A 
BRANCH  48  49
ATOM     49  C   UNL A   1      40.524  34.061  33.574  1.00  0.00     0.031 A 
ATOM     50  C   UNL A   1      40.401  34.929  34.798  1.00  0.00     0.074 A 
ATOM     51  C   UNL A   1      41.670  34.055  32.836  1.00  0.00     0.049 A 
ATOM     52  N   UNL A   1      41.226  35.849  35.179  1.00  0.00    -0.248 NA
ATOM     53  C   UNL A   1      39.281  34.785  35.732  1.00  0.00     0.031 C 
ATOM     54  C   UNL A   1      42.987  34.499  33.301  1.00  0.00     0.029 A 
ATOM     55  N   UNL A   1      41.982  33.538  31.574  1.00  0.00    -0.354 N 
ATOM     56  C   UNL A   1      40.949  36.154  36.509  1.00  0.00     0.074 A 
ATOM     57  C   UNL A   1      39.667  35.551  36.758  1.00  0.00     0.031 C 
ATOM     58  C   UNL A   1      43.933  34.242  32.392  1.00  0.00     0.029 A 
ATOM     59  C   UNL A   1      43.225  34.060  31.164  1.00  0.00     0.049 A 
ATOM     60  H   UNL A   1      41.424  32.914  31.056  1.00  0.00     0.167 HD
ATOM     61  C   UNL A   1      41.906  36.742  37.295  1.00  0.00     0.034 A 
ATOM     62  C   UNL A   1      43.410  34.955  30.147  1.00  0.00     0.034 A 
ATOM     63  C   UNL A   1      43.069  37.224  36.481  1.00  0.00     0.049 A 
ATOM     64  C   UNL A   1      43.700  36.395  30.652  1.00  0.00     0.074 A 
ATOM     65  C   UNL A   1      44.450  37.126  36.582  1.00  0.00     0.029 A 
ATOM     66  N   UNL A   1      42.846  37.810  35.227  1.00  0.00    -0.354 N 
ATOM     67  N   UNL A   1      43.866  36.750  31.912  1.00  0.00    -0.248 NA
ATOM     68  C   UNL A   1      43.853  37.544  29.771  1.00  0.00     0.031 C 
ATOM     69  C   UNL A   1      45.028  37.529  35.335  1.00  0.00     0.029 A 
ATOM     70  C   UNL A   1      44.015  37.974  34.498  1.00  0.00     0.049 A 
ATOM     71  H   UNL A   1      41.957  38.077  34.899  1.00  0.00     0.167 HD
ATOM     72  C   UNL A   1      43.999  38.114  32.047  1.00  0.00     0.074 A 
ATOM     73  C   UNL A   1      44.071  38.539  30.653  1.00  0.00     0.031 C 
ATOM     74  C   UNL A   1      43.996  38.778  33.265  1.00  0.00     0.034 A 
BRANCH  61  75
ATOM     75  C   UNL A   1      41.926  36.722  38.856  1.00  0.00     0.023 A 
ATOM     76  C   UNL A   1      42.767  35.765  39.475  1.00  0.00     0.012 A 
ATOM     77  C   UNL A   1      41.125  37.479  39.767  1.00  0.00     0.148 A 
ATOM     78  C   UNL A   1      42.792  35.536  40.862  1.00  0.00     0.002 A 
ATOM     79  C   UNL A   1      41.216  37.311  41.166  1.00  0.00     0.091 A 
ATOM     80  F   UNL A   1      40.203  38.327  39.304  1.00  0.00    -0.205 F 
ATOM     81  C   UNL A   1      42.028  36.316  41.712  1.00  0.00     0.022 A 
BRANCH  79  82
ATOM     82  S   UNL A   1      40.348  38.351  42.372  1.00  0.00     0.127 S 
ATOM     83  O   UNL A   1      39.311  38.984  41.556  1.00  0.00    -0.237 OA
ATOM     84  O   UNL A   1      39.841  37.364  43.327  1.00  0.00    -0.237 OA
ATOM     85  O   UNL A   1      41.346  39.263  42.918  1.00  0.00    -0.744 OA
ENDBRANCH  79  82
ENDBRANCH  61  75
BRANCH  62  86
ATOM     86  C   UNL A   1      42.834  34.426  28.866  1.00  0.00     0.023 A 
ATOM     87  C   UNL A   1      41.894  35.326  28.285  1.00  0.00     0.012 A 
ATOM     88  C   UNL A   1      43.697  33.729  28.014  1.00  0.00     0.148 A 
ATOM     89  C   UNL A   1      42.091  35.806  26.986  1.00  0.00     0.002 A 
ATOM     90  C   UNL A   1      43.888  34.209  26.715  1.00  0.00     0.091 A 
ATOM     91  F   UNL A   1      44.453  32.754  28.533  1.00  0.00    -0.205 F 
ATOM     92  C   UNL A   1      43.138  35.295  26.227  1.00  0.00     0.022 A 
BRANCH  90  93
ATOM     93  S   UNL A   1      45.336  33.692  25.786  1.00  0.00     0.127 S 
ATOM     94  O   UNL A   1      45.170  32.246  25.729  1.00  0.00    -0.237 OA
ATOM     95  O   UNL A   1      45.154  34.386  24.512  1.00  0.00    -0.237 OA
ATOM     96  O   UNL A   1      46.452  34.190  26.578  1.00  0.00    -0.744 OA
ENDBRANCH  90  93
ENDBRANCH  62  86
BRANCH  74  97
ATOM     97  C   UNL A   1      43.907  40.312  33.490  1.00  0.00     0.023 A 
ATOM     98  C   UNL A   1      42.699  41.023  33.456  1.00  0.00     0.012 A 
ATOM     99  C   UNL A   1      45.058  41.094  33.841  1.00  0.00     0.148 A 
ATOM    100  C   UNL A   1      42.603  42.380  33.797  1.00  0.00     0.002 A 
ATOM    101  C   UNL A   1      44.954  42.428  34.238  1.00  0.00     0.091 A 
ATOM    102  F   UNL A   1      46.286  40.573  33.758  1.00  0.00    -0.205 F 
ATOM    103  C   UNL A   1      43.722  43.073  34.221  1.00  0.00     0.022 A 
BRANCH 101 104
ATOM    104  S   UNL A   1      46.359  43.380  34.843  1.00  0.00     0.127 S 
ATOM    105  O   UNL A   1      45.695  44.554  35.409  1.00  0.00    -0.237 OA
ATOM    106  O   UNL A   1      46.934  42.470  35.835  1.00  0.00    -0.237 OA
ATOM    107  O   UNL A   1      47.211  43.637  33.691  1.00  0.00    -0.744 OA
ENDBRANCH 101 104
ENDBRANCH  74  97
ENDBRANCH  48  49
ENDBRANCH  41  43
ENDBRANCH  40  41
ENDBRANCH  39  40
ENDBRANCH  38  39
ENDBRANCH  37  38
ENDBRANCH  36  37
ENDBRANCH   1  36
TORSDOF 25
ENDMDL
MODEL 3
REMARK VINA RESULT:     -10.4      1.591      2.075
REMARK SMILES Cc1ccc([C@@]23C[C@@H]4C[C@@H](C[C@@](C(=O)N5CCC(C(=O)OCCOCCOCCOCCOC(=O)c6ccc(-c7c8nc(c(-c9cccc(S(=O)(=O)[O-])c9F)c9ccc([nH]9)c(-c9cccc(S(=O)(=O)[O-])c9F)c9nc(c(-c%10cccc(S(=O)(=O)[O-])c%10F)c%10ccc7[nH]%10)C=C9)C=C8)cc6)CC5)(C4)C2)C3)cc1
REMARK SMILES IDX 28 1 27 2 26 3 25 4 24 5 23 6 22 7 21 8 19 9 20 10 18 11
REMARK SMILES IDX 13 12 14 13 15 14 16 15 100 16 17 17 99 18 12 19 6 20 7 21
REMARK SMILES IDX 102 22 103 23 8 24 10 25 9 26 101 27 11 28 5 29 1 30 2 31
REMARK SMILES IDX 3 32 105 33 4 34 104 35 29 36 30 37 31 38 32 39 33 40 34 41
REMARK SMILES IDX 35 42 36 43 37 44 98 45 38 46 97 47 39 48 40 49 41 50 91 51
REMARK SMILES IDX 42 52 96 53 90 54 92 55 43 56 95 57 89 58 88 59 44 61 76 62
REMARK SMILES IDX 56 63 75 64 57 65 60 66 74 67 93 68 58 69 59 70 73 72 94 73
REMARK SMILES IDX 61 74 45 75 46 76 54 77 47 78 49 79 55 80 48 81 50 82 51 83
REMARK SMILES IDX 52 84 53 85 77 86 78 87 86 88 79 89 81 90 87 91 80 92 82 93
REMARK SMILES IDX 83 94 84 95 85 96 62 97 63 98 71 99 64 100 66 101 72 102
REMARK SMILES IDX 65 103 67 104 68 105 69 106 70 107
REMARK H PARENT 92 60 60 71
REMARK Flexibility Score: inf
ROOT
ATOM      1  C   UNL A   1      30.872  26.786  26.568  1.00  0.00     0.188 C 
ENDROOT
BRANCH   1   2
ATOM      2  O   UNL A   1      31.001  26.832  25.141  1.00  0.00    -0.377 OA
BRANCH   2   3
ATOM      3  C   UNL A   1      29.917  26.355  24.354  1.00  0.00     0.188 C 
BRANCH   3   4
ATOM      4  C   UNL A   1      29.027  27.332  23.556  1.00  0.00     0.188 C 
BRANCH   4   5
ATOM      5  O   UNL A   1      29.604  28.200  22.602  1.00  0.00    -0.376 OA
BRANCH   5   6
ATOM      6  C   UNL A   1      30.276  29.330  23.132  1.00  0.00     0.202 C 
BRANCH   6   7
ATOM      7  C   UNL A   1      31.777  29.459  22.940  1.00  0.00     0.261 C 
BRANCH   7   8
ATOM      8  O   UNL A   1      32.300  28.341  22.230  1.00  0.00    -0.463 OA
BRANCH   8   9
ATOM      9  C   UNL A   1      33.518  27.924  22.616  1.00  0.00     0.309 C 
ATOM     10  O   UNL A   1      34.382  28.583  23.151  1.00  0.00    -0.252 OA
BRANCH   9  11
ATOM     11  C   UNL A   1      33.605  26.436  22.465  1.00  0.00     0.103 C 
ATOM     12  C   UNL A   1      32.412  22.469  22.937  1.00  0.00     0.228 C 
ATOM     13  O   UNL A   1      31.461  22.121  22.233  1.00  0.00    -0.274 OA
ATOM     14  N   UNL A   1      33.111  23.651  22.689  1.00  0.00    -0.342 N 
ATOM     15  C   UNL A   1      32.966  24.320  21.389  1.00  0.00     0.120 C 
ATOM     16  C   UNL A   1      34.015  24.336  23.617  1.00  0.00     0.120 C 
ATOM     17  C   UNL A   1      32.567  25.786  21.559  1.00  0.00     0.037 C 
ATOM     18  C   UNL A   1      33.557  25.745  23.822  1.00  0.00     0.037 C 
BRANCH  12  19
ATOM     19  C   UNL A   1      32.953  21.520  24.029  1.00  0.00     0.051 C 
ATOM     20  C   UNL A   1      35.144  21.159  25.346  1.00  0.00    -0.003 C 
ATOM     21  C   UNL A   1      34.267  21.288  26.627  1.00  0.00     0.015 C 
ATOM     22  C   UNL A   1      34.427  21.916  24.230  1.00  0.00     0.028 C 
ATOM     23  C   UNL A   1      35.165  19.683  24.878  1.00  0.00     0.015 C 
ATOM     24  C   UNL A   1      32.851  20.712  26.411  1.00  0.00    -0.009 C 
ATOM     25  C   UNL A   1      33.725  19.173  24.629  1.00  0.00    -0.009 C 
ATOM     26  C   UNL A   1      32.953  19.250  25.956  1.00  0.00     0.007 C 
ATOM     27  C   UNL A   1      32.113  21.507  25.324  1.00  0.00     0.020 C 
ATOM     28  C   UNL A   1      33.007  20.040  23.562  1.00  0.00     0.020 C 
BRANCH  20  29
ATOM     29  C   UNL A   1      36.547  21.760  25.581  1.00  0.00    -0.042 A 
ATOM     30  C   UNL A   1      40.488  23.389  26.426  1.00  0.00     0.044 C 
ATOM     31  C   UNL A   1      39.138  22.811  26.129  1.00  0.00    -0.051 A 
ATOM     32  C   UNL A   1      38.013  23.617  26.256  1.00  0.00     0.004 A 
ATOM     33  C   UNL A   1      38.970  21.482  25.730  1.00  0.00     0.004 A 
ATOM     34  C   UNL A   1      36.747  23.102  25.975  1.00  0.00     0.004 A 
ATOM     35  C   UNL A   1      37.693  20.963  25.462  1.00  0.00     0.004 A 
ENDBRANCH  20  29
ENDBRANCH  12  19
ENDBRANCH   9  11
ENDBRANCH   8   9
ENDBRANCH   7   8
ENDBRANCH   6   7
ENDBRANCH   5   6
ENDBRANCH   4   5
ENDBRANCH   3   4
ENDBRANCH   2   3
ENDBRANCH   1   2
BRANCH   1  36
ATOM     36  C   UNL A   1      31.442  27.954  27.363  1.00  0.00     0.188 C 
BRANCH  36  37
ATOM     37  O   UNL A   1      31.926  28.905  26.418  1.00  0.00    -0.376 OA
BRANCH  37  38
ATOM     38  C   UNL A   1      31.607  30.263  26.653  1.00  0.00     0.202 C 
BRANCH  38  39
ATOM     39  C   UNL A   1      32.838  31.161  26.695  1.00  0.00     0.261 C 
BRANCH  39  40
ATOM     40  O   UNL A   1      33.785  30.629  27.654  1.00  0.00    -0.460 OA
BRANCH  40  41
ATOM     41  C   UNL A   1      34.990  31.255  27.776  1.00  0.00     0.338 C 
ATOM     42  O   UNL A   1      35.136  32.449  27.569  1.00  0.00    -0.246 OA
BRANCH  41  43
ATOM     43  C   UNL A   1      36.083  30.345  28.237  1.00  0.00     0.060 A 
ATOM     44  C   UNL A   1      36.023  29.729  29.491  1.00  0.00     0.016 A 
ATOM     45  C   UNL A   1      37.240  30.188  27.493  1.00  0.00     0.016 A 
ATOM     46  C   UNL A   1      37.176  29.177  30.082  1.00  0.00     0.010 A 
ATOM     47  C   UNL A   1      38.395  29.740  28.124  1.00  0.00     0.010 A 
ATOM     48  C   UNL A   1      38.405  29.302  29.460  1.00  0.00    -0.014 A 
BRANCH  48  49
ATOM     49  C   UNL A   1      39.727  29.053  30.094  1.00  0.00     0.031 A 
ATOM     50  C   UNL A   1      40.490  27.836  29.640  1.00  0.00     0.074 A 
ATOM     51  C   UNL A   1      40.374  30.106  30.669  1.00  0.00     0.049 A 
ATOM     52  N   UNL A   1      41.731  27.567  29.882  1.00  0.00    -0.248 NA
ATOM     53  C   UNL A   1      39.860  26.799  28.818  1.00  0.00     0.031 C 
ATOM     54  C   UNL A   1      41.806  30.395  30.553  1.00  0.00     0.029 A 
ATOM     55  N   UNL A   1      39.920  31.233  31.363  1.00  0.00    -0.354 N 
ATOM     56  C   UNL A   1      42.134  26.563  29.006  1.00  0.00     0.074 A 
ATOM     57  C   UNL A   1      40.908  26.051  28.456  1.00  0.00     0.031 C 
ATOM     58  C   UNL A   1      42.110  31.569  31.116  1.00  0.00     0.029 A 
ATOM     59  C   UNL A   1      41.018  31.851  31.993  1.00  0.00     0.049 A 
ATOM     60  H   UNL A   1      38.987  31.542  31.406  1.00  0.00     0.167 HD
ATOM     61  C   UNL A   1      43.464  26.388  28.723  1.00  0.00     0.034 A 
ATOM     62  C   UNL A   1      41.239  31.889  33.342  1.00  0.00     0.034 A 
ATOM     63  C   UNL A   1      44.335  27.179  29.653  1.00  0.00     0.049 A 
ATOM     64  C   UNL A   1      42.350  30.908  33.803  1.00  0.00     0.074 A 
ATOM     65  C   UNL A   1      45.424  28.026  29.500  1.00  0.00     0.029 A 
ATOM     66  N   UNL A   1      43.994  27.281  31.009  1.00  0.00    -0.354 N 
ATOM     67  N   UNL A   1      43.106  30.173  33.008  1.00  0.00    -0.248 NA
ATOM     68  C   UNL A   1      42.717  30.700  35.197  1.00  0.00     0.031 C 
ATOM     69  C   UNL A   1      45.635  28.724  30.734  1.00  0.00     0.029 A 
ATOM     70  C   UNL A   1      44.745  28.236  31.679  1.00  0.00     0.049 A 
ATOM     71  H   UNL A   1      43.298  26.733  31.440  1.00  0.00     0.167 HD
ATOM     72  C   UNL A   1      43.924  29.324  33.720  1.00  0.00     0.074 A 
ATOM     73  C   UNL A   1      43.690  29.774  35.089  1.00  0.00     0.031 C 
ATOM     74  C   UNL A   1      44.679  28.312  33.147  1.00  0.00     0.034 A 
BRANCH  61  75
ATOM     75  C   UNL A   1      44.028  25.657  27.465  1.00  0.00     0.023 A 
ATOM     76  C   UNL A   1      44.591  26.468  26.449  1.00  0.00     0.012 A 
ATOM     77  C   UNL A   1      43.967  24.266  27.140  1.00  0.00     0.148 A 
ATOM     78  C   UNL A   1      45.016  25.970  25.204  1.00  0.00     0.002 A 
ATOM     79  C   UNL A   1      44.476  23.754  25.926  1.00  0.00     0.091 A 
ATOM     80  F   UNL A   1      43.348  23.412  27.961  1.00  0.00    -0.205 F 
ATOM     81  C   UNL A   1      44.972  24.612  24.945  1.00  0.00     0.022 A 
BRANCH  79  82
ATOM     82  S   UNL A   1      44.571  21.987  25.531  1.00  0.00     0.127 S 
ATOM     83  O   UNL A   1      44.289  21.966  24.096  1.00  0.00    -0.237 OA
ATOM     84  O   UNL A   1      45.958  21.665  25.875  1.00  0.00    -0.237 OA
ATOM     85  O   UNL A   1      43.574  21.326  26.365  1.00  0.00    -0.744 OA
ENDBRANCH  79  82
ENDBRANCH  61  75
BRANCH  62  86
ATOM     86  C   UNL A   1      40.063  32.496  34.052  1.00  0.00     0.023 A 
ATOM     87  C   UNL A   1      39.428  31.573  34.932  1.00  0.00     0.012 A 
ATOM     88  C   UNL A   1      40.180  33.828  34.463  1.00  0.00     0.148 A 
ATOM     89  C   UNL A   1      39.301  31.872  36.292  1.00  0.00     0.002 A 
ATOM     90  C   UNL A   1      40.049  34.125  35.822  1.00  0.00     0.091 A 
ATOM     91  F   UNL A   1      40.609  34.733  33.573  1.00  0.00    -0.205 F 
ATOM     92  C   UNL A   1      39.682  33.129  36.747  1.00  0.00     0.022 A 
BRANCH  90  93
ATOM     93  S   UNL A   1      40.698  35.675  36.457  1.00  0.00     0.127 S 
ATOM     94  O   UNL A   1      39.763  36.650  35.912  1.00  0.00    -0.237 OA
ATOM     95  O   UNL A   1      40.616  35.480  37.903  1.00  0.00    -0.237 OA
ATOM     96  O   UNL A   1      42.059  35.718  35.940  1.00  0.00    -0.744 OA
ENDBRANCH  90  93
ENDBRANCH  62  86
BRANCH  74  97
ATOM     97  C   UNL A   1      45.436  27.178  33.892  1.00  0.00     0.023 A 
ATOM     98  C   UNL A   1      44.784  26.146  34.582  1.00  0.00     0.012 A 
ATOM     99  C   UNL A   1      46.865  27.063  33.844  1.00  0.00     0.148 A 
ATOM    100  C   UNL A   1      45.462  25.050  35.133  1.00  0.00     0.002 A 
ATOM    101  C   UNL A   1      47.535  25.943  34.340  1.00  0.00     0.091 A 
ATOM    102  F   UNL A   1      47.613  28.057  33.354  1.00  0.00    -0.205 F 
ATOM    103  C   UNL A   1      46.831  24.930  34.982  1.00  0.00     0.022 A 
BRANCH 101 104
ATOM    104  S   UNL A   1      49.309  25.698  34.142  1.00  0.00     0.127 S 
ATOM    105  O   UNL A   1      49.642  24.969  35.365  1.00  0.00    -0.237 OA
ATOM    106  O   UNL A   1      49.367  24.894  32.920  1.00  0.00    -0.237 OA
ATOM    107  O   UNL A   1      49.899  27.023  34.023  1.00  0.00    -0.744 OA
ENDBRANCH 101 104
ENDBRANCH  74  97
ENDBRANCH  48  49
ENDBRANCH  41  43
ENDBRANCH  40  41
ENDBRANCH  39  40
ENDBRANCH  38  39
ENDBRANCH  37  38
ENDBRANCH  36  37
ENDBRANCH   1  36
TORSDOF 25
ENDMDL
