MODEL 1
REMARK VINA RESULT:      -9.7      0.000      0.000
REMARK SMILES O=C(OCCOCCOCCOCCOC(=O)[C@H]1Cc2c([nH]c3ccccc23)[C@H](c2c[nH]c3ccccc23)[NH2+]1)c1ccc(-c2c3nc(c(-c4cccc(S(=O)(=O)[O-])c4F)c4ccc([nH]4)c(-c4cccc(S(=O)(=O)[O-])c4F)c4nc(c(-c5cccc(S(=O)(=O)[O-])c5F)c5ccc2[nH]5)C=C4)C=C3)cc1
REMARK SMILES IDX 8 1 7 2 6 3 5 4 4 5 3 6 2 7 1 8 40 9 41 10 102 11 42 12
REMARK SMILES IDX 101 13 43 14 44 15 45 16 95 17 46 18 100 19 94 20 96 21
REMARK SMILES IDX 47 22 99 23 93 24 92 25 48 27 80 28 60 29 79 30 61 31 64 32
REMARK SMILES IDX 78 33 97 34 62 35 63 36 77 38 98 39 65 40 49 41 50 42 58 43
REMARK SMILES IDX 51 44 53 45 59 46 52 47 54 48 55 49 56 50 57 51 81 52 82 53
REMARK SMILES IDX 90 54 83 55 85 56 91 57 84 58 86 59 87 60 88 61 89 62 66 63
REMARK SMILES IDX 67 64 75 65 68 66 70 67 76 68 69 69 71 70 72 71 73 72 74 73
REMARK SMILES IDX 9 74 10 75 11 76 12 77 13 78 14 79 15 80 16 81 17 82 18 83
REMARK SMILES IDX 19 84 39 85 20 86 29 87 21 90 28 91 22 92 23 93 27 94 24 96
REMARK SMILES IDX 26 97 25 98 30 99 31 100 38 101 32 102 33 103 37 104 34 106
REMARK SMILES IDX 36 107 35 108
REMARK H PARENT 96 26 64 37 39 88 39 89 22 95 32 105
REMARK Flexibility Score: inf
ROOT
ATOM      1  C   UNL A   1      39.392  28.273  29.171  1.00  0.00     0.188 C 
ENDROOT
BRANCH   1   2
ATOM      2  C   UNL A   1      38.376  28.611  28.105  1.00  0.00     0.188 C 
BRANCH   2   3
ATOM      3  O   UNL A   1      37.342  29.372  28.686  1.00  0.00    -0.376 OA
BRANCH   3   4
ATOM      4  C   UNL A   1      36.058  29.494  28.127  1.00  0.00     0.202 C 
BRANCH   4   5
ATOM      5  C   UNL A   1      35.505  30.873  27.850  1.00  0.00     0.261 C 
BRANCH   5   6
ATOM      6  O   UNL A   1      34.861  31.626  28.914  1.00  0.00    -0.460 OA
BRANCH   6   7
ATOM      7  C   UNL A   1      35.184  32.310  30.028  1.00  0.00     0.338 C 
ATOM      8  O   UNL A   1      34.289  32.580  30.827  1.00  0.00    -0.246 OA
BRANCH   7   9
ATOM      9  C   UNL A   1      36.563  32.718  30.382  1.00  0.00     0.060 A 
ATOM     10  C   UNL A   1      37.490  31.880  30.975  1.00  0.00     0.016 A 
ATOM     11  C   UNL A   1      37.001  33.987  29.987  1.00  0.00     0.016 A 
ATOM     12  C   UNL A   1      38.696  32.339  31.448  1.00  0.00     0.010 A 
ATOM     13  C   UNL A   1      38.282  34.430  30.333  1.00  0.00     0.010 A 
ATOM     14  C   UNL A   1      39.089  33.632  31.154  1.00  0.00    -0.014 A 
BRANCH  14  15
ATOM     15  C   UNL A   1      40.218  34.162  31.930  1.00  0.00     0.031 A 
ATOM     16  C   UNL A   1      41.427  34.594  31.155  1.00  0.00     0.074 A 
ATOM     17  C   UNL A   1      40.070  34.439  33.238  1.00  0.00     0.049 A 
ATOM     18  N   UNL A   1      42.574  35.030  31.588  1.00  0.00    -0.248 NA
ATOM     19  C   UNL A   1      41.327  34.533  29.683  1.00  0.00     0.031 C 
ATOM     20  C   UNL A   1      38.847  34.220  34.021  1.00  0.00     0.029 A 
ATOM     21  N   UNL A   1      40.935  35.005  34.132  1.00  0.00    -0.354 N 
ATOM     22  C   UNL A   1      43.358  35.195  30.454  1.00  0.00     0.074 A 
ATOM     23  C   UNL A   1      42.555  34.848  29.310  1.00  0.00     0.031 C 
ATOM     24  C   UNL A   1      39.035  34.671  35.270  1.00  0.00     0.029 A 
ATOM     25  C   UNL A   1      40.417  35.109  35.402  1.00  0.00     0.049 A 
ATOM     26  H   UNL A   1      41.840  35.308  33.891  1.00  0.00     0.167 HD
ATOM     27  C   UNL A   1      44.648  35.588  30.390  1.00  0.00     0.034 A 
ATOM     28  C   UNL A   1      41.024  35.467  36.547  1.00  0.00     0.034 A 
ATOM     29  C   UNL A   1      45.394  35.961  31.555  1.00  0.00     0.049 A 
ATOM     30  C   UNL A   1      42.479  35.840  36.459  1.00  0.00     0.074 A 
ATOM     31  C   UNL A   1      46.720  36.327  31.655  1.00  0.00     0.029 A 
ATOM     32  N   UNL A   1      44.856  36.014  32.836  1.00  0.00    -0.354 N 
ATOM     33  N   UNL A   1      43.242  35.935  35.394  1.00  0.00    -0.248 NA
ATOM     34  C   UNL A   1      43.157  36.160  37.718  1.00  0.00     0.031 C 
ATOM     35  C   UNL A   1      46.994  36.564  33.008  1.00  0.00     0.029 A 
ATOM     36  C   UNL A   1      45.825  36.399  33.739  1.00  0.00     0.049 A 
ATOM     37  H   UNL A   1      43.921  35.806  33.065  1.00  0.00     0.167 HD
ATOM     38  C   UNL A   1      44.481  36.361  35.848  1.00  0.00     0.074 A 
ATOM     39  C   UNL A   1      44.357  36.521  37.285  1.00  0.00     0.031 C 
ATOM     40  C   UNL A   1      45.624  36.591  35.154  1.00  0.00     0.034 A 
BRANCH  27  41
ATOM     41  C   UNL A   1      45.317  35.530  29.045  1.00  0.00     0.023 A 
ATOM     42  C   UNL A   1      45.308  36.643  28.179  1.00  0.00     0.012 A 
ATOM     43  C   UNL A   1      45.916  34.328  28.618  1.00  0.00     0.148 A 
ATOM     44  C   UNL A   1      45.844  36.544  26.893  1.00  0.00     0.002 A 
ATOM     45  C   UNL A   1      46.492  34.252  27.358  1.00  0.00     0.091 A 
ATOM     46  F   UNL A   1      45.879  33.271  29.441  1.00  0.00    -0.205 F 
ATOM     47  C   UNL A   1      46.442  35.353  26.486  1.00  0.00     0.022 A 
BRANCH  45  48
ATOM     48  S   UNL A   1      47.342  32.786  26.767  1.00  0.00     0.127 S 
ATOM     49  O   UNL A   1      46.247  32.029  26.167  1.00  0.00    -0.237 OA
ATOM     50  O   UNL A   1      48.294  33.350  25.815  1.00  0.00    -0.237 OA
ATOM     51  O   UNL A   1      47.949  32.170  27.946  1.00  0.00    -0.744 OA
ENDBRANCH  45  48
ENDBRANCH  27  41
BRANCH  28  52
ATOM     52  C   UNL A   1      40.285  35.457  37.842  1.00  0.00     0.023 A 
ATOM     53  C   UNL A   1      39.813  36.664  38.391  1.00  0.00     0.012 A 
ATOM     54  C   UNL A   1      40.040  34.252  38.534  1.00  0.00     0.148 A 
ATOM     55  C   UNL A   1      39.142  36.676  39.616  1.00  0.00     0.002 A 
ATOM     56  C   UNL A   1      39.322  34.264  39.724  1.00  0.00     0.091 A 
ATOM     57  F   UNL A   1      40.510  33.111  38.010  1.00  0.00    -0.205 F 
ATOM     58  C   UNL A   1      38.889  35.477  40.278  1.00  0.00     0.022 A 
BRANCH  56  59
ATOM     59  S   UNL A   1      38.846  32.759  40.583  1.00  0.00     0.127 S 
ATOM     60  O   UNL A   1      40.130  32.273  41.071  1.00  0.00    -0.237 OA
ATOM     61  O   UNL A   1      37.942  33.269  41.612  1.00  0.00    -0.237 OA
ATOM     62  O   UNL A   1      38.194  31.923  39.575  1.00  0.00    -0.744 OA
ENDBRANCH  56  59
ENDBRANCH  28  52
BRANCH  40  63
ATOM     63  C   UNL A   1      46.797  37.110  35.932  1.00  0.00     0.023 A 
ATOM     64  C   UNL A   1      47.739  36.217  36.477  1.00  0.00     0.012 A 
ATOM     65  C   UNL A   1      47.000  38.498  36.043  1.00  0.00     0.148 A 
ATOM     66  C   UNL A   1      48.852  36.703  37.157  1.00  0.00     0.002 A 
ATOM     67  C   UNL A   1      48.141  38.974  36.668  1.00  0.00     0.091 A 
ATOM     68  F   UNL A   1      46.074  39.324  35.533  1.00  0.00    -0.205 F 
ATOM     69  C   UNL A   1      49.061  38.080  37.239  1.00  0.00     0.022 A 
BRANCH  67  70
ATOM     70  S   UNL A   1      48.543  40.721  36.708  1.00  0.00     0.127 S 
ATOM     71  O   UNL A   1      49.944  40.695  37.122  1.00  0.00    -0.237 OA
ATOM     72  O   UNL A   1      48.322  41.123  35.318  1.00  0.00    -0.237 OA
ATOM     73  O   UNL A   1      47.619  41.324  37.662  1.00  0.00    -0.744 OA
ENDBRANCH  67  70
ENDBRANCH  40  63
ENDBRANCH  14  15
ENDBRANCH   7   9
ENDBRANCH   6   7
ENDBRANCH   5   6
ENDBRANCH   4   5
ENDBRANCH   3   4
ENDBRANCH   2   3
ENDBRANCH   1   2
BRANCH   1  74
ATOM     74  O   UNL A   1      39.942  26.971  29.098  1.00  0.00    -0.377 OA
BRANCH  74  75
ATOM     75  C   UNL A   1      41.109  26.627  28.352  1.00  0.00     0.188 C 
BRANCH  75  76
ATOM     76  C   UNL A   1      40.980  25.686  27.156  1.00  0.00     0.188 C 
BRANCH  76  77
ATOM     77  O   UNL A   1      41.660  24.468  27.354  1.00  0.00    -0.376 OA
BRANCH  77  78
ATOM     78  C   UNL A   1      41.179  23.328  26.648  1.00  0.00     0.202 C 
BRANCH  78  79
ATOM     79  C   UNL A   1      39.875  22.589  27.050  1.00  0.00     0.261 C 
BRANCH  79  80
ATOM     80  O   UNL A   1      38.610  23.086  26.531  1.00  0.00    -0.459 OA
BRANCH  80  81
ATOM     81  C   UNL A   1      37.901  22.190  25.796  1.00  0.00     0.365 C 
ATOM     82  O   UNL A   1      38.441  21.193  25.308  1.00  0.00    -0.245 OA
BRANCH  81  83
ATOM     83  C   UNL A   1      36.376  22.435  25.535  1.00  0.00     0.298 C 
ATOM     84  C   UNL A   1      35.764  23.851  25.485  1.00  0.00     0.115 C 
ATOM     85  N   UNL A   1      35.970  21.583  24.370  1.00  0.00    -0.323 N 
ATOM     86  C   UNL A   1      34.318  23.802  25.144  1.00  0.00    -0.006 A 
ATOM     87  C   UNL A   1      34.512  21.410  24.233  1.00  0.00     0.264 C 
ATOM     88  H   UNL A   1      36.392  20.661  24.484  1.00  0.00     0.347 HD
ATOM     89  H   UNL A   1      36.290  22.060  23.528  1.00  0.00     0.347 HD
ATOM     90  C   UNL A   1      33.781  22.685  24.549  1.00  0.00     0.083 A 
ATOM     91  C   UNL A   1      33.267  24.717  25.427  1.00  0.00     0.003 A 
ATOM     92  N   UNL A   1      32.464  22.970  24.287  1.00  0.00    -0.353 N 
ATOM     93  C   UNL A   1      32.120  24.194  24.830  1.00  0.00     0.046 A 
ATOM     94  C   UNL A   1      33.170  25.933  26.138  1.00  0.00     0.010 A 
ATOM     95  H   UNL A   1      31.853  22.386  23.784  1.00  0.00     0.166 HD
ATOM     96  C   UNL A   1      30.891  24.869  24.852  1.00  0.00     0.026 A 
ATOM     97  C   UNL A   1      31.939  26.599  26.201  1.00  0.00     0.001 A 
ATOM     98  C   UNL A   1      30.822  26.082  25.549  1.00  0.00     0.002 A 
BRANCH  87  99
ATOM     99  C   UNL A   1      33.966  20.190  24.973  1.00  0.00     0.041 A 
ATOM    100  C   UNL A   1      33.391  20.297  26.235  1.00  0.00     0.093 A 
ATOM    101  C   UNL A   1      33.839  18.783  24.622  1.00  0.00     0.009 A 
ATOM    102  N   UNL A   1      32.966  19.070  26.650  1.00  0.00    -0.361 N 
ATOM    103  C   UNL A   1      33.207  18.129  25.685  1.00  0.00     0.046 A 
ATOM    104  C   UNL A   1      34.165  17.966  23.516  1.00  0.00     0.011 A 
ATOM    105  H   UNL A   1      32.546  18.886  27.521  1.00  0.00     0.166 HD
ATOM    106  C   UNL A   1      32.904  16.757  25.684  1.00  0.00     0.026 A 
ATOM    107  C   UNL A   1      33.879  16.597  23.489  1.00  0.00     0.001 A 
ATOM    108  C   UNL A   1      33.251  16.000  24.565  1.00  0.00     0.002 A 
ENDBRANCH  87  99
ENDBRANCH  81  83
ENDBRANCH  80  81
ENDBRANCH  79  80
ENDBRANCH  78  79
ENDBRANCH  77  78
ENDBRANCH  76  77
ENDBRANCH  75  76
ENDBRANCH  74  75
ENDBRANCH   1  74
TORSDOF 24
ENDMDL
MODEL 2
REMARK VINA RESULT:      -9.4      8.767     15.253
REMARK SMILES O=C(OCCOCCOCCOCCOC(=O)[C@H]1Cc2c([nH]c3ccccc23)[C@H](c2c[nH]c3ccccc23)[NH2+]1)c1ccc(-c2c3nc(c(-c4cccc(S(=O)(=O)[O-])c4F)c4ccc([nH]4)c(-c4cccc(S(=O)(=O)[O-])c4F)c4nc(c(-c5cccc(S(=O)(=O)[O-])c5F)c5ccc2[nH]5)C=C4)C=C3)cc1
REMARK SMILES IDX 8 1 7 2 6 3 5 4 4 5 3 6 2 7 1 8 40 9 41 10 102 11 42 12
REMARK SMILES IDX 101 13 43 14 44 15 45 16 95 17 46 18 100 19 94 20 96 21
REMARK SMILES IDX 47 22 99 23 93 24 92 25 48 27 80 28 60 29 79 30 61 31 64 32
REMARK SMILES IDX 78 33 97 34 62 35 63 36 77 38 98 39 65 40 49 41 50 42 58 43
REMARK SMILES IDX 51 44 53 45 59 46 52 47 54 48 55 49 56 50 57 51 81 52 82 53
REMARK SMILES IDX 90 54 83 55 85 56 91 57 84 58 86 59 87 60 88 61 89 62 66 63
REMARK SMILES IDX 67 64 75 65 68 66 70 67 76 68 69 69 71 70 72 71 73 72 74 73
REMARK SMILES IDX 9 74 10 75 11 76 12 77 13 78 14 79 15 80 16 81 17 82 18 83
REMARK SMILES IDX 19 84 39 85 20 86 29 87 21 90 28 91 22 92 23 93 27 94 24 96
REMARK SMILES IDX 26 97 25 98 30 99 31 100 38 101 32 102 33 103 37 104 34 106
REMARK SMILES IDX 36 107 35 108
REMARK H PARENT 96 26 64 37 39 88 39 89 22 95 32 105
REMARK Flexibility Score: inf
ROOT
ATOM      1  C   UNL A   1      51.171  27.167  39.613  1.00  0.00     0.188 C 
ENDROOT
BRANCH   1   2
ATOM      2  C   UNL A   1      51.141  25.701  39.246  1.00  0.00     0.188 C 
BRANCH   2   3
ATOM      3  O   UNL A   1      51.015  25.586  37.847  1.00  0.00    -0.376 OA
BRANCH   3   4
ATOM      4  C   UNL A   1      49.983  24.866  37.217  1.00  0.00     0.202 C 
BRANCH   4   5
ATOM      5  C   UNL A   1      49.680  25.139  35.762  1.00  0.00     0.261 C 
BRANCH   5   6
ATOM      6  O   UNL A   1      48.599  26.041  35.401  1.00  0.00    -0.460 OA
BRANCH   6   7
ATOM      7  C   UNL A   1      48.086  27.230  35.773  1.00  0.00     0.338 C 
ATOM      8  O   UNL A   1      48.774  27.968  36.476  1.00  0.00    -0.246 OA
BRANCH   7   9
ATOM      9  C   UNL A   1      46.760  27.733  35.346  1.00  0.00     0.060 A 
ATOM     10  C   UNL A   1      45.580  27.024  35.489  1.00  0.00     0.016 A 
ATOM     11  C   UNL A   1      46.668  29.049  34.880  1.00  0.00     0.016 A 
ATOM     12  C   UNL A   1      44.400  27.444  34.925  1.00  0.00     0.010 A 
ATOM     13  C   UNL A   1      45.444  29.554  34.429  1.00  0.00     0.010 A 
ATOM     14  C   UNL A   1      44.331  28.706  34.364  1.00  0.00    -0.014 A 
BRANCH  14  15
ATOM     15  C   UNL A   1      43.163  28.978  33.514  1.00  0.00     0.031 A 
ATOM     16  C   UNL A   1      42.122  29.900  34.075  1.00  0.00     0.074 A 
ATOM     17  C   UNL A   1      43.155  28.588  32.227  1.00  0.00     0.049 A 
ATOM     18  N   UNL A   1      40.974  30.253  33.572  1.00  0.00    -0.248 NA
ATOM     19  C   UNL A   1      42.418  30.518  35.383  1.00  0.00     0.031 C 
ATOM     20  C   UNL A   1      44.231  27.846  31.557  1.00  0.00     0.029 A 
ATOM     21  N   UNL A   1      42.235  28.796  31.239  1.00  0.00    -0.354 N 
ATOM     22  C   UNL A   1      40.375  31.045  34.543  1.00  0.00     0.074 A 
ATOM     23  C   UNL A   1      41.291  31.154  35.650  1.00  0.00     0.031 C 
ATOM     24  C   UNL A   1      43.916  27.685  30.263  1.00  0.00     0.029 A 
ATOM     25  C   UNL A   1      42.579  28.216  30.041  1.00  0.00     0.049 A 
ATOM     26  H   UNL A   1      41.406  29.311  31.372  1.00  0.00     0.167 HD
ATOM     27  C   UNL A   1      39.151  31.614  34.507  1.00  0.00     0.034 A 
ATOM     28  C   UNL A   1      41.858  28.087  28.914  1.00  0.00     0.034 A 
ATOM     29  C   UNL A   1      38.291  31.510  33.365  1.00  0.00     0.049 A 
ATOM     30  C   UNL A   1      40.473  28.674  28.920  1.00  0.00     0.074 A 
ATOM     31  C   UNL A   1      37.007  31.984  33.201  1.00  0.00     0.029 A 
ATOM     32  N   UNL A   1      38.649  30.877  32.180  1.00  0.00    -0.354 N 
ATOM     33  N   UNL A   1      39.878  29.370  29.862  1.00  0.00    -0.248 NA
ATOM     34  C   UNL A   1      39.662  28.470  27.717  1.00  0.00     0.031 C 
ATOM     35  C   UNL A   1      36.573  31.603  31.926  1.00  0.00     0.029 A 
ATOM     36  C   UNL A   1      37.608  30.940  31.278  1.00  0.00     0.049 A 
ATOM     37  H   UNL A   1      39.518  30.447  32.010  1.00  0.00     0.167 HD
ATOM     38  C   UNL A   1      38.636  29.719  29.353  1.00  0.00     0.074 A 
ATOM     39  C   UNL A   1      38.575  29.169  28.011  1.00  0.00     0.031 C 
ATOM     40  C   UNL A   1      37.629  30.417  29.935  1.00  0.00     0.034 A 
BRANCH  27  41
ATOM     41  C   UNL A   1      38.672  32.292  35.760  1.00  0.00     0.023 A 
ATOM     42  C   UNL A   1      38.896  33.668  35.975  1.00  0.00     0.012 A 
ATOM     43  C   UNL A   1      38.037  31.532  36.762  1.00  0.00     0.148 A 
ATOM     44  C   UNL A   1      38.536  34.264  37.185  1.00  0.00     0.002 A 
ATOM     45  C   UNL A   1      37.637  32.141  37.943  1.00  0.00     0.091 A 
ATOM     46  F   UNL A   1      37.869  30.218  36.555  1.00  0.00    -0.205 F 
ATOM     47  C   UNL A   1      37.901  33.503  38.165  1.00  0.00     0.022 A 
BRANCH  45  48
ATOM     48  S   UNL A   1      36.755  31.264  39.237  1.00  0.00     0.127 S 
ATOM     49  O   UNL A   1      35.511  32.023  39.316  1.00  0.00    -0.237 OA
ATOM     50  O   UNL A   1      36.625  29.927  38.664  1.00  0.00    -0.237 OA
ATOM     51  O   UNL A   1      37.604  31.339  40.425  1.00  0.00    -0.744 OA
ENDBRANCH  45  48
ENDBRANCH  27  41
BRANCH  28  52
ATOM     52  C   UNL A   1      42.406  27.362  27.731  1.00  0.00     0.023 A 
ATOM     53  C   UNL A   1      43.078  28.073  26.720  1.00  0.00     0.012 A 
ATOM     54  C   UNL A   1      42.270  25.963  27.605  1.00  0.00     0.148 A 
ATOM     55  C   UNL A   1      43.575  27.414  25.593  1.00  0.00     0.002 A 
ATOM     56  C   UNL A   1      42.816  25.305  26.509  1.00  0.00     0.091 A 
ATOM     57  F   UNL A   1      41.613  25.299  28.566  1.00  0.00    -0.205 F 
ATOM     58  C   UNL A   1      43.452  26.031  25.491  1.00  0.00     0.022 A 
BRANCH  56  59
ATOM     59  S   UNL A   1      42.812  23.515  26.354  1.00  0.00     0.127 S 
ATOM     60  O   UNL A   1      43.737  23.120  27.408  1.00  0.00    -0.237 OA
ATOM     61  O   UNL A   1      41.409  23.192  26.605  1.00  0.00    -0.237 OA
ATOM     62  O   UNL A   1      43.254  23.239  24.987  1.00  0.00    -0.744 OA
ENDBRANCH  56  59
ENDBRANCH  28  52
BRANCH  40  63
ATOM     63  C   UNL A   1      36.416  30.685  29.094  1.00  0.00     0.023 A 
ATOM     64  C   UNL A   1      35.712  29.619  28.502  1.00  0.00     0.012 A 
ATOM     65  C   UNL A   1      35.933  32.001  28.967  1.00  0.00     0.148 A 
ATOM     66  C   UNL A   1      34.559  29.867  27.761  1.00  0.00     0.002 A 
ATOM     67  C   UNL A   1      34.752  32.233  28.281  1.00  0.00     0.091 A 
ATOM     68  F   UNL A   1      36.637  32.998  29.524  1.00  0.00    -0.205 F 
ATOM     69  C   UNL A   1      34.072  31.170  27.663  1.00  0.00     0.022 A 
BRANCH  67  70
ATOM     70  S   UNL A   1      33.996  33.857  28.213  1.00  0.00     0.127 S 
ATOM     71  O   UNL A   1      34.022  34.257  29.618  1.00  0.00    -0.237 OA
ATOM     72  O   UNL A   1      34.919  34.594  27.349  1.00  0.00    -0.237 OA
ATOM     73  O   UNL A   1      32.669  33.659  27.642  1.00  0.00    -0.744 OA
ENDBRANCH  67  70
ENDBRANCH  40  63
ENDBRANCH  14  15
ENDBRANCH   7   9
ENDBRANCH   6   7
ENDBRANCH   5   6
ENDBRANCH   4   5
ENDBRANCH   3   4
ENDBRANCH   2   3
ENDBRANCH   1   2
BRANCH   1  74
ATOM     74  O   UNL A   1      49.938  27.712  40.045  1.00  0.00    -0.377 OA
BRANCH  74  75
ATOM     75  C   UNL A   1      48.795  26.939  40.409  1.00  0.00     0.188 C 
BRANCH  75  76
ATOM     76  C   UNL A   1      47.437  27.284  39.802  1.00  0.00     0.188 C 
BRANCH  76  77
ATOM     77  O   UNL A   1      46.832  26.178  39.173  1.00  0.00    -0.376 OA
BRANCH  77  78
ATOM     78  C   UNL A   1      45.419  26.219  38.995  1.00  0.00     0.202 C 
BRANCH  78  79
ATOM     79  C   UNL A   1      44.560  24.934  38.854  1.00  0.00     0.261 C 
BRANCH  79  80
ATOM     80  O   UNL A   1      45.171  23.756  38.258  1.00  0.00    -0.459 OA
BRANCH  80  81
ATOM     81  C   UNL A   1      45.655  22.850  39.148  1.00  0.00     0.365 C 
ATOM     82  O   UNL A   1      45.242  22.812  40.310  1.00  0.00    -0.245 OA
BRANCH  81  83
ATOM     83  C   UNL A   1      46.780  21.854  38.705  1.00  0.00     0.298 C 
ATOM     84  C   UNL A   1      47.780  22.185  37.577  1.00  0.00     0.115 C 
ATOM     85  N   UNL A   1      47.448  21.340  39.945  1.00  0.00    -0.323 N 
ATOM     86  C   UNL A   1      48.787  21.104  37.415  1.00  0.00    -0.006 A 
ATOM     87  C   UNL A   1      48.261  20.129  39.730  1.00  0.00     0.264 C 
ATOM     88  H   UNL A   1      46.725  21.123  40.632  1.00  0.00     0.347 HD
ATOM     89  H   UNL A   1      48.085  22.070  40.262  1.00  0.00     0.347 HD
ATOM     90  C   UNL A   1      49.003  20.196  38.424  1.00  0.00     0.083 A 
ATOM     91  C   UNL A   1      49.566  20.725  36.286  1.00  0.00     0.003 A 
ATOM     92  N   UNL A   1      50.033  19.387  38.015  1.00  0.00    -0.353 N 
ATOM     93  C   UNL A   1      50.381  19.674  36.708  1.00  0.00     0.046 A 
ATOM     94  C   UNL A   1      49.656  21.161  34.947  1.00  0.00     0.010 A 
ATOM     95  H   UNL A   1      50.462  18.700  38.573  1.00  0.00     0.166 HD
ATOM     96  C   UNL A   1      51.334  19.084  35.867  1.00  0.00     0.026 A 
ATOM     97  C   UNL A   1      50.578  20.554  34.084  1.00  0.00     0.001 A 
ATOM     98  C   UNL A   1      51.419  19.543  34.547  1.00  0.00     0.002 A 
BRANCH  87  99
ATOM     99  C   UNL A   1      47.488  18.826  39.928  1.00  0.00     0.041 A 
ATOM    100  C   UNL A   1      47.700  18.010  41.033  1.00  0.00     0.093 A 
ATOM    101  C   UNL A   1      46.422  18.174  39.179  1.00  0.00     0.009 A 
ATOM    102  N   UNL A   1      46.865  16.934  40.974  1.00  0.00    -0.361 N 
ATOM    103  C   UNL A   1      46.062  17.011  39.868  1.00  0.00     0.046 A 
ATOM    104  C   UNL A   1      45.689  18.430  37.999  1.00  0.00     0.011 A 
ATOM    105  H   UNL A   1      46.843  16.202  41.633  1.00  0.00     0.166 HD
ATOM    106  C   UNL A   1      45.047  16.138  39.442  1.00  0.00     0.026 A 
ATOM    107  C   UNL A   1      44.676  17.577  37.548  1.00  0.00     0.001 A 
ATOM    108  C   UNL A   1      44.358  16.441  38.267  1.00  0.00     0.002 A 
ENDBRANCH  87  99
ENDBRANCH  81  83
ENDBRANCH  80  81
ENDBRANCH  79  80
ENDBRANCH  78  79
ENDBRANCH  77  78
ENDBRANCH  76  77
ENDBRANCH  75  76
ENDBRANCH  74  75
ENDBRANCH   1  74
TORSDOF 24
ENDMDL
MODEL 3
REMARK VINA RESULT:      -9.3     11.167     14.044
REMARK SMILES O=C(OCCOCCOCCOCCOC(=O)[C@H]1Cc2c([nH]c3ccccc23)[C@H](c2c[nH]c3ccccc23)[NH2+]1)c1ccc(-c2c3nc(c(-c4cccc(S(=O)(=O)[O-])c4F)c4ccc([nH]4)c(-c4cccc(S(=O)(=O)[O-])c4F)c4nc(c(-c5cccc(S(=O)(=O)[O-])c5F)c5ccc2[nH]5)C=C4)C=C3)cc1
REMARK SMILES IDX 8 1 7 2 6 3 5 4 4 5 3 6 2 7 1 8 40 9 41 10 102 11 42 12
REMARK SMILES IDX 101 13 43 14 44 15 45 16 95 17 46 18 100 19 94 20 96 21
REMARK SMILES IDX 47 22 99 23 93 24 92 25 48 27 80 28 60 29 79 30 61 31 64 32
REMARK SMILES IDX 78 33 97 34 62 35 63 36 77 38 98 39 65 40 49 41 50 42 58 43
REMARK SMILES IDX 51 44 53 45 59 46 52 47 54 48 55 49 56 50 57 51 81 52 82 53
REMARK SMILES IDX 90 54 83 55 85 56 91 57 84 58 86 59 87 60 88 61 89 62 66 63
REMARK SMILES IDX 67 64 75 65 68 66 70 67 76 68 69 69 71 70 72 71 73 72 74 73
REMARK SMILES IDX 9 74 10 75 11 76 12 77 13 78 14 79 15 80 16 81 17 82 18 83
REMARK SMILES IDX 19 84 39 85 20 86 29 87 21 90 28 91 22 92 23 93 27 94 24 96
REMARK SMILES IDX 26 97 25 98 30 99 31 100 38 101 32 102 33 103 37 104 34 106
REMARK SMILES IDX 36 107 35 108
REMARK H PARENT 96 26 64 37 39 88 39 89 22 95 32 105
REMARK Flexibility Score: inf
ROOT
ATOM      1  C   UNL A   1      47.765  20.531  38.750  1.00  0.00     0.188 C 
ENDROOT
BRANCH   1   2
ATOM      2  C   UNL A   1      46.401  20.826  38.170  1.00  0.00     0.188 C 
BRANCH   2   3
ATOM      3  O   UNL A   1      46.108  19.862  37.184  1.00  0.00    -0.376 OA
BRANCH   3   4
ATOM      4  C   UNL A   1      45.986  20.162  35.816  1.00  0.00     0.202 C 
BRANCH   4   5
ATOM      5  C   UNL A   1      46.756  21.331  35.248  1.00  0.00     0.261 C 
BRANCH   5   6
ATOM      6  O   UNL A   1      46.045  22.491  34.734  1.00  0.00    -0.460 OA
BRANCH   6   7
ATOM      7  C   UNL A   1      44.926  23.200  34.976  1.00  0.00     0.338 C 
ATOM      8  O   UNL A   1      43.992  22.638  35.545  1.00  0.00    -0.246 OA
BRANCH   7   9
ATOM      9  C   UNL A   1      44.765  24.635  34.647  1.00  0.00     0.060 A 
ATOM     10  C   UNL A   1      43.544  25.282  34.585  1.00  0.00     0.016 A 
ATOM     11  C   UNL A   1      45.916  25.417  34.509  1.00  0.00     0.016 A 
ATOM     12  C   UNL A   1      43.418  26.564  34.108  1.00  0.00     0.010 A 
ATOM     13  C   UNL A   1      45.814  26.768  34.160  1.00  0.00     0.010 A 
ATOM     14  C   UNL A   1      44.556  27.309  33.863  1.00  0.00    -0.014 A 
BRANCH  14  15
ATOM     15  C   UNL A   1      44.376  28.535  33.074  1.00  0.00     0.031 A 
ATOM     16  C   UNL A   1      44.314  28.375  31.584  1.00  0.00     0.074 A 
ATOM     17  C   UNL A   1      44.068  29.694  33.682  1.00  0.00     0.049 A 
ATOM     18  N   UNL A   1      44.229  29.286  30.658  1.00  0.00    -0.248 NA
ATOM     19  C   UNL A   1      44.343  26.993  31.064  1.00  0.00     0.031 C 
ATOM     20  C   UNL A   1      43.922  29.881  35.132  1.00  0.00     0.029 A 
ATOM     21  N   UNL A   1      43.777  30.924  33.162  1.00  0.00    -0.354 N 
ATOM     22  C   UNL A   1      44.299  28.596  29.455  1.00  0.00     0.074 A 
ATOM     23  C   UNL A   1      44.397  27.191  29.758  1.00  0.00     0.031 C 
ATOM     24  C   UNL A   1      43.545  31.145  35.378  1.00  0.00     0.029 A 
ATOM     25  C   UNL A   1      43.527  31.877  34.121  1.00  0.00     0.049 A 
ATOM     26  H   UNL A   1      43.749  31.109  32.195  1.00  0.00     0.167 HD
ATOM     27  C   UNL A   1      44.297  29.108  28.206  1.00  0.00     0.034 A 
ATOM     28  C   UNL A   1      43.360  33.204  33.984  1.00  0.00     0.034 A 
ATOM     29  C   UNL A   1      44.156  30.511  27.954  1.00  0.00     0.049 A 
ATOM     30  C   UNL A   1      43.425  33.759  32.588  1.00  0.00     0.074 A 
ATOM     31  C   UNL A   1      44.190  31.184  26.750  1.00  0.00     0.029 A 
ATOM     32  N   UNL A   1      43.949  31.461  28.948  1.00  0.00    -0.354 N 
ATOM     33  N   UNL A   1      43.556  33.115  31.450  1.00  0.00    -0.248 NA
ATOM     34  C   UNL A   1      43.316  35.214  32.448  1.00  0.00     0.031 C 
ATOM     35  C   UNL A   1      44.042  32.549  27.022  1.00  0.00     0.029 A 
ATOM     36  C   UNL A   1      43.861  32.718  28.389  1.00  0.00     0.049 A 
ATOM     37  H   UNL A   1      43.876  31.264  29.910  1.00  0.00     0.167 HD
ATOM     38  C   UNL A   1      43.507  34.080  30.456  1.00  0.00     0.074 A 
ATOM     39  C   UNL A   1      43.318  35.352  31.130  1.00  0.00     0.031 C 
ATOM     40  C   UNL A   1      43.619  33.942  29.111  1.00  0.00     0.034 A 
BRANCH  27  41
ATOM     41  C   UNL A   1      44.547  28.153  27.072  1.00  0.00     0.023 A 
ATOM     42  C   UNL A   1      43.489  27.427  26.484  1.00  0.00     0.012 A 
ATOM     43  C   UNL A   1      45.865  27.937  26.623  1.00  0.00     0.148 A 
ATOM     44  C   UNL A   1      43.748  26.470  25.501  1.00  0.00     0.002 A 
ATOM     45  C   UNL A   1      46.108  27.020  25.611  1.00  0.00     0.091 A 
ATOM     46  F   UNL A   1      46.859  28.607  27.221  1.00  0.00    -0.205 F 
ATOM     47  C   UNL A   1      45.055  26.272  25.060  1.00  0.00     0.022 A 
BRANCH  45  48
ATOM     48  S   UNL A   1      47.745  26.740  24.929  1.00  0.00     0.127 S 
ATOM     49  O   UNL A   1      47.494  25.653  23.989  1.00  0.00    -0.237 OA
ATOM     50  O   UNL A   1      48.042  28.030  24.313  1.00  0.00    -0.237 OA
ATOM     51  O   UNL A   1      48.600  26.394  26.064  1.00  0.00    -0.744 OA
ENDBRANCH  45  48
ENDBRANCH  27  41
BRANCH  28  52
ATOM     52  C   UNL A   1      43.155  34.078  35.176  1.00  0.00     0.023 A 
ATOM     53  C   UNL A   1      44.262  34.507  35.931  1.00  0.00     0.012 A 
ATOM     54  C   UNL A   1      41.864  34.493  35.564  1.00  0.00     0.148 A 
ATOM     55  C   UNL A   1      44.087  35.303  37.065  1.00  0.00     0.002 A 
ATOM     56  C   UNL A   1      41.700  35.332  36.660  1.00  0.00     0.091 A 
ATOM     57  F   UNL A   1      40.815  34.063  34.847  1.00  0.00    -0.205 F 
ATOM     58  C   UNL A   1      42.809  35.723  37.425  1.00  0.00     0.022 A 
BRANCH  56  59
ATOM     59  S   UNL A   1      40.106  36.019  37.124  1.00  0.00     0.127 S 
ATOM     60  O   UNL A   1      40.466  36.886  38.238  1.00  0.00    -0.237 OA
ATOM     61  O   UNL A   1      39.707  36.713  35.901  1.00  0.00    -0.237 OA
ATOM     62  O   UNL A   1      39.267  34.870  37.461  1.00  0.00    -0.744 OA
ENDBRANCH  56  59
ENDBRANCH  28  52
BRANCH  40  63
ATOM     63  C   UNL A   1      43.462  35.186  28.287  1.00  0.00     0.023 A 
ATOM     64  C   UNL A   1      42.179  35.670  27.967  1.00  0.00     0.012 A 
ATOM     65  C   UNL A   1      44.602  35.917  27.905  1.00  0.00     0.148 A 
ATOM     66  C   UNL A   1      42.036  36.850  27.243  1.00  0.00     0.002 A 
ATOM     67  C   UNL A   1      44.450  37.122  27.239  1.00  0.00     0.091 A 
ATOM     68  F   UNL A   1      45.812  35.420  28.206  1.00  0.00    -0.205 F 
ATOM     69  C   UNL A   1      43.170  37.583  26.893  1.00  0.00     0.022 A 
BRANCH  67  70
ATOM     70  S   UNL A   1      45.847  38.182  26.862  1.00  0.00     0.127 S 
ATOM     71  O   UNL A   1      46.413  38.413  28.189  1.00  0.00    -0.237 OA
ATOM     72  O   UNL A   1      46.657  37.329  25.990  1.00  0.00    -0.237 OA
ATOM     73  O   UNL A   1      45.292  39.358  26.204  1.00  0.00    -0.744 OA
ENDBRANCH  67  70
ENDBRANCH  40  63
ENDBRANCH  14  15
ENDBRANCH   7   9
ENDBRANCH   6   7
ENDBRANCH   5   6
ENDBRANCH   4   5
ENDBRANCH   3   4
ENDBRANCH   2   3
ENDBRANCH   1   2
BRANCH   1  74
ATOM     74  O   UNL A   1      47.772  19.727  39.914  1.00  0.00    -0.377 OA
BRANCH  74  75
ATOM     75  C   UNL A   1      48.916  19.510  40.740  1.00  0.00     0.188 C 
BRANCH  75  76
ATOM     76  C   UNL A   1      48.876  18.406  41.794  1.00  0.00     0.188 C 
BRANCH  76  77
ATOM     77  O   UNL A   1      49.163  18.885  43.088  1.00  0.00    -0.376 OA
BRANCH  77  78
ATOM     78  C   UNL A   1      48.364  18.395  44.160  1.00  0.00     0.202 C 
BRANCH  78  79
ATOM     79  C   UNL A   1      48.945  17.506  45.292  1.00  0.00     0.261 C 
BRANCH  79  80
ATOM     80  O   UNL A   1      48.385  16.178  45.484  1.00  0.00    -0.459 OA
BRANCH  80  81
ATOM     81  C   UNL A   1      47.148  16.154  46.048  1.00  0.00     0.365 C 
ATOM     82  O   UNL A   1      46.959  16.575  47.193  1.00  0.00    -0.245 OA
BRANCH  81  83
ATOM     83  C   UNL A   1      45.943  15.554  45.247  1.00  0.00     0.298 C 
ATOM     84  C   UNL A   1      45.283  14.213  45.631  1.00  0.00     0.115 C 
ATOM     85  N   UNL A   1      44.947  16.653  45.030  1.00  0.00    -0.323 N 
ATOM     86  C   UNL A   1      44.116  13.917  44.759  1.00  0.00    -0.006 A 
ATOM     87  C   UNL A   1      43.948  16.359  43.987  1.00  0.00     0.264 C 
ATOM     88  H   UNL A   1      45.454  17.496  44.759  1.00  0.00     0.347 HD
ATOM     89  H   UNL A   1      44.436  16.767  45.904  1.00  0.00     0.347 HD
ATOM     90  C   UNL A   1      43.511  14.921  44.041  1.00  0.00     0.083 A 
ATOM     91  C   UNL A   1      43.511  12.678  44.408  1.00  0.00     0.003 A 
ATOM     92  N   UNL A   1      42.431  14.361  43.408  1.00  0.00    -0.353 N 
ATOM     93  C   UNL A   1      42.419  12.991  43.597  1.00  0.00     0.046 A 
ATOM     94  C   UNL A   1      43.785  11.322  44.687  1.00  0.00     0.010 A 
ATOM     95  H   UNL A   1      41.760  14.862  42.892  1.00  0.00     0.166 HD
ATOM     96  C   UNL A   1      41.545  12.010  43.110  1.00  0.00     0.026 A 
ATOM     97  C   UNL A   1      42.941  10.328  44.175  1.00  0.00     0.001 A 
ATOM     98  C   UNL A   1      41.826  10.672  43.414  1.00  0.00     0.002 A 
BRANCH  87  99
ATOM     99  C   UNL A   1      44.362  16.821  42.591  1.00  0.00     0.041 A 
ATOM    100  C   UNL A   1      45.332  17.799  42.401  1.00  0.00     0.093 A 
ATOM    101  C   UNL A   1      43.981  16.406  41.248  1.00  0.00     0.009 A 
ATOM    102  N   UNL A   1      45.525  17.999  41.067  1.00  0.00    -0.361 N 
ATOM    103  C   UNL A   1      44.732  17.155  40.337  1.00  0.00     0.046 A 
ATOM    104  C   UNL A   1      43.097  15.464  40.675  1.00  0.00     0.011 A 
ATOM    105  H   UNL A   1      46.147  18.658  40.681  1.00  0.00     0.166 HD
ATOM    106  C   UNL A   1      44.637  17.006  38.943  1.00  0.00     0.026 A 
ATOM    107  C   UNL A   1      42.979  15.296  39.291  1.00  0.00     0.001 A 
ATOM    108  C   UNL A   1      43.746  16.061  38.434  1.00  0.00     0.002 A 
ENDBRANCH  87  99
ENDBRANCH  81  83
ENDBRANCH  80  81
ENDBRANCH  79  80
ENDBRANCH  78  79
ENDBRANCH  77  78
ENDBRANCH  76  77
ENDBRANCH  75  76
ENDBRANCH  74  75
ENDBRANCH   1  74
TORSDOF 24
ENDMDL
