MODEL 1
REMARK VINA RESULT:      -8.7      0.000      0.000
REMARK SMILES CC(C)[C@H](C(=O)OCCOCCOCCOCCOC(=O)c1ccc(-c2c3nc(c(-c4cccc(S(=O)(=O)[O-])c4F)c4ccc([nH]4)c(-c4cccc(S(=O)(=O)[O-])c4F)c4nc(c(-c5cccc(S(=O)(=O)[O-])c5F)c5ccc2[nH]5)C=C4)C=C3)cc1)N1C(=O)/C(=C/c2ccccc2Cl)SC1=S
REMARK SMILES IDX 14 1 13 2 12 3 11 4 10 5 9 6 8 7 7 8 5 9 6 10 4 11 2 12 1 13
REMARK SMILES IDX 3 14 85 15 86 16 98 17 87 18 88 19 97 20 99 21 89 22 90 23
REMARK SMILES IDX 91 24 95 25 92 26 94 27 96 28 93 29 15 30 16 31 17 32 18 33
REMARK SMILES IDX 19 34 20 35 21 36 22 37 23 38 84 39 24 40 83 41 25 42 26 43
REMARK SMILES IDX 27 44 77 45 28 46 82 47 76 48 78 49 29 50 81 51 75 52 74 53
REMARK SMILES IDX 30 55 62 56 42 57 61 58 43 59 46 60 60 61 79 62 44 63 45 64
REMARK SMILES IDX 59 66 80 67 47 68 31 69 32 70 40 71 33 72 35 73 41 74 34 75
REMARK SMILES IDX 36 76 37 77 38 78 39 79 63 80 64 81 72 82 65 83 67 84 73 85
REMARK SMILES IDX 66 86 68 87 69 88 70 89 71 90 48 91 49 92 57 93 50 94 52 95
REMARK SMILES IDX 58 96 51 97 53 98 54 99 55 100 56 101
REMARK H PARENT 78 54 46 65
REMARK Flexibility Score: inf
ROOT
ATOM      1  C   UNL A   1      35.367  32.976  28.437  1.00  0.00     0.188 C 
ENDROOT
BRANCH   1   2
ATOM      2  O   UNL A   1      36.420  32.109  28.034  1.00  0.00    -0.377 OA
BRANCH   2   3
ATOM      3  C   UNL A   1      36.542  30.913  28.782  1.00  0.00     0.188 C 
BRANCH   3   4
ATOM      4  C   UNL A   1      35.809  29.730  28.124  1.00  0.00     0.188 C 
BRANCH   4   5
ATOM      5  O   UNL A   1      34.505  29.923  27.604  1.00  0.00    -0.376 OA
BRANCH   5   6
ATOM      6  C   UNL A   1      33.821  28.979  26.793  1.00  0.00     0.202 C 
BRANCH   6   7
ATOM      7  C   UNL A   1      33.311  29.195  25.356  1.00  0.00     0.261 C 
BRANCH   7   8
ATOM      8  O   UNL A   1      31.949  28.893  25.085  1.00  0.00    -0.462 OA
BRANCH   8   9
ATOM      9  C   UNL A   1      31.652  28.474  23.831  1.00  0.00     0.329 C 
ATOM     10  O   UNL A   1      32.197  28.889  22.820  1.00  0.00    -0.250 OA
BRANCH   9  11
ATOM     11  C   UNL A   1      30.653  27.300  23.921  1.00  0.00     0.204 C 
BRANCH  11  12
ATOM     12  C   UNL A   1      29.259  27.429  23.240  1.00  0.00     0.017 C 
ATOM     13  C   UNL A   1      28.143  26.657  23.951  1.00  0.00     0.010 C 
ATOM     14  C   UNL A   1      28.791  28.841  22.912  1.00  0.00     0.010 C 
ENDBRANCH  11  12
BRANCH  11  15
ATOM     15  N   UNL A   1      31.360  25.999  23.889  1.00  0.00    -0.278 N 
ATOM     16  C   UNL A   1      31.581  25.336  25.095  1.00  0.00     0.267 C 
ATOM     17  C   UNL A   1      31.940  25.425  22.770  1.00  0.00     0.149 C 
ATOM     18  O   UNL A   1      31.169  25.663  26.201  1.00  0.00    -0.268 OA
ATOM     19  C   UNL A   1      32.445  24.149  24.887  1.00  0.00     0.081 C 
ATOM     20  S   UNL A   1      32.671  23.886  23.207  1.00  0.00    -0.054 SA
ATOM     21  S   UNL A   1      32.031  25.966  21.194  1.00  0.00    -0.052 S 
ATOM     22  C   UNL A   1      33.005  23.461  25.895  1.00  0.00     0.031 C 
BRANCH  22  23
ATOM     23  C   UNL A   1      33.962  22.368  25.662  1.00  0.00    -0.006 A 
ATOM     24  C   UNL A   1      33.460  21.089  25.388  1.00  0.00     0.010 A 
ATOM     25  C   UNL A   1      35.350  22.587  25.584  1.00  0.00     0.048 A 
ATOM     26  C   UNL A   1      34.322  20.063  24.990  1.00  0.00     0.001 A 
ATOM     27  C   UNL A   1      36.205  21.564  25.171  1.00  0.00     0.021 A 
ATOM     28  Cl  UNL A   1      36.058  24.120  25.971  1.00  0.00    -0.084 Cl
ATOM     29  C   UNL A   1      35.688  20.307  24.862  1.00  0.00     0.002 A 
ENDBRANCH  22  23
ENDBRANCH  11  15
ENDBRANCH   9  11
ENDBRANCH   8   9
ENDBRANCH   7   8
ENDBRANCH   6   7
ENDBRANCH   5   6
ENDBRANCH   4   5
ENDBRANCH   3   4
ENDBRANCH   2   3
ENDBRANCH   1   2
BRANCH   1  30
ATOM     30  C   UNL A   1      35.462  33.618  29.839  1.00  0.00     0.188 C 
BRANCH  30  31
ATOM     31  O   UNL A   1      35.511  32.676  30.906  1.00  0.00    -0.376 OA
BRANCH  31  32
ATOM     32  C   UNL A   1      35.891  33.131  32.194  1.00  0.00     0.202 C 
BRANCH  32  33
ATOM     33  C   UNL A   1      36.156  32.041  33.243  1.00  0.00     0.261 C 
BRANCH  33  34
ATOM     34  O   UNL A   1      37.506  31.563  33.311  1.00  0.00    -0.460 OA
BRANCH  34  35
ATOM     35  C   UNL A   1      37.818  30.500  32.535  1.00  0.00     0.338 C 
ATOM     36  O   UNL A   1      37.108  29.548  32.282  1.00  0.00    -0.246 OA
BRANCH  35  37
ATOM     37  C   UNL A   1      39.103  30.792  31.866  1.00  0.00     0.060 A 
ATOM     38  C   UNL A   1      40.181  31.227  32.649  1.00  0.00     0.016 A 
ATOM     39  C   UNL A   1      39.243  30.645  30.484  1.00  0.00     0.016 A 
ATOM     40  C   UNL A   1      41.388  31.567  32.042  1.00  0.00     0.010 A 
ATOM     41  C   UNL A   1      40.447  31.007  29.875  1.00  0.00     0.010 A 
ATOM     42  C   UNL A   1      41.506  31.514  30.648  1.00  0.00    -0.014 A 
BRANCH  42  43
ATOM     43  C   UNL A   1      42.648  32.196  29.996  1.00  0.00     0.031 A 
ATOM     44  C   UNL A   1      43.856  31.372  29.638  1.00  0.00     0.074 A 
ATOM     45  C   UNL A   1      42.607  33.506  29.699  1.00  0.00     0.049 A 
ATOM     46  N   UNL A   1      44.969  31.739  29.061  1.00  0.00    -0.248 NA
ATOM     47  C   UNL A   1      43.799  29.939  29.979  1.00  0.00     0.031 C 
ATOM     48  C   UNL A   1      41.490  34.404  29.983  1.00  0.00     0.029 A 
ATOM     49  N   UNL A   1      43.547  34.311  29.105  1.00  0.00    -0.354 N 
ATOM     50  C   UNL A   1      45.754  30.594  28.994  1.00  0.00     0.074 A 
ATOM     51  C   UNL A   1      44.998  29.523  29.603  1.00  0.00     0.031 C 
ATOM     52  C   UNL A   1      41.820  35.646  29.586  1.00  0.00     0.029 A 
ATOM     53  C   UNL A   1      43.177  35.634  29.042  1.00  0.00     0.049 A 
ATOM     54  H   UNL A   1      44.404  33.974  28.758  1.00  0.00     0.167 HD
ATOM     55  C   UNL A   1      46.988  30.442  28.460  1.00  0.00     0.034 A 
ATOM     56  C   UNL A   1      43.866  36.710  28.612  1.00  0.00     0.034 A 
ATOM     57  C   UNL A   1      47.734  31.505  27.845  1.00  0.00     0.049 A 
ATOM     58  C   UNL A   1      45.252  36.520  28.052  1.00  0.00     0.074 A 
ATOM     59  C   UNL A   1      48.977  31.446  27.239  1.00  0.00     0.029 A 
ATOM     60  N   UNL A   1      47.317  32.826  27.774  1.00  0.00    -0.354 N 
ATOM     61  N   UNL A   1      45.938  35.413  27.893  1.00  0.00    -0.248 NA
ATOM     62  C   UNL A   1      45.948  37.726  27.577  1.00  0.00     0.031 C 
ATOM     63  C   UNL A   1      49.326  32.738  26.836  1.00  0.00     0.029 A 
ATOM     64  C   UNL A   1      48.283  33.594  27.149  1.00  0.00     0.049 A 
ATOM     65  H   UNL A   1      46.460  33.165  28.118  1.00  0.00     0.167 HD
ATOM     66  C   UNL A   1      47.123  35.782  27.265  1.00  0.00     0.074 A 
ATOM     67  C   UNL A   1      47.054  37.214  27.055  1.00  0.00     0.031 C 
ATOM     68  C   UNL A   1      48.179  35.010  26.903  1.00  0.00     0.034 A 
BRANCH  55  69
ATOM     69  C   UNL A   1      47.607  29.069  28.510  1.00  0.00     0.023 A 
ATOM     70  C   UNL A   1      47.415  28.172  27.439  1.00  0.00     0.012 A 
ATOM     71  C   UNL A   1      48.411  28.684  29.599  1.00  0.00     0.148 A 
ATOM     72  C   UNL A   1      47.990  26.901  27.467  1.00  0.00     0.002 A 
ATOM     73  C   UNL A   1      49.020  27.435  29.598  1.00  0.00     0.091 A 
ATOM     74  F   UNL A   1      48.560  29.541  30.619  1.00  0.00    -0.205 F 
ATOM     75  C   UNL A   1      48.799  26.538  28.539  1.00  0.00     0.022 A 
BRANCH  73  76
ATOM     76  S   UNL A   1      50.144  26.904  30.892  1.00  0.00     0.127 S 
ATOM     77  O   UNL A   1      49.515  27.478  32.082  1.00  0.00    -0.237 OA
ATOM     78  O   UNL A   1      50.053  25.447  30.798  1.00  0.00    -0.237 OA
ATOM     79  O   UNL A   1      51.446  27.456  30.548  1.00  0.00    -0.744 OA
ENDBRANCH  73  76
ENDBRANCH  55  69
BRANCH  56  80
ATOM     80  C   UNL A   1      43.249  38.065  28.672  1.00  0.00     0.023 A 
ATOM     81  C   UNL A   1      43.414  38.860  29.823  1.00  0.00     0.012 A 
ATOM     82  C   UNL A   1      42.499  38.570  27.591  1.00  0.00     0.148 A 
ATOM     83  C   UNL A   1      42.815  40.118  29.911  1.00  0.00     0.002 A 
ATOM     84  C   UNL A   1      41.953  39.846  27.663  1.00  0.00     0.091 A 
ATOM     85  F   UNL A   1      42.338  37.792  26.512  1.00  0.00    -0.205 F 
ATOM     86  C   UNL A   1      42.093  40.614  28.828  1.00  0.00     0.022 A 
BRANCH  84  87
ATOM     87  S   UNL A   1      41.116  40.615  26.273  1.00  0.00     0.127 S 
ATOM     88  O   UNL A   1      42.190  41.404  25.676  1.00  0.00    -0.237 OA
ATOM     89  O   UNL A   1      40.699  39.450  25.492  1.00  0.00    -0.237 OA
ATOM     90  O   UNL A   1      40.017  41.379  26.846  1.00  0.00    -0.744 OA
ENDBRANCH  84  87
ENDBRANCH  56  80
BRANCH  68  91
ATOM     91  C   UNL A   1      49.330  35.682  26.197  1.00  0.00     0.023 A 
ATOM     92  C   UNL A   1      49.469  35.564  24.800  1.00  0.00     0.012 A 
ATOM     93  C   UNL A   1      50.237  36.487  26.916  1.00  0.00     0.148 A 
ATOM     94  C   UNL A   1      50.519  36.200  24.136  1.00  0.00     0.002 A 
ATOM     95  C   UNL A   1      51.246  37.162  26.240  1.00  0.00     0.091 A 
ATOM     96  F   UNL A   1      50.098  36.576  28.246  1.00  0.00    -0.205 F 
ATOM     97  C   UNL A   1      51.398  37.007  24.853  1.00  0.00     0.022 A 
BRANCH  95  98
ATOM     98  S   UNL A   1      52.362  38.302  27.066  1.00  0.00     0.127 S 
ATOM     99  O   UNL A   1      51.426  39.251  27.668  1.00  0.00    -0.237 OA
ATOM    100  O   UNL A   1      53.046  37.430  28.021  1.00  0.00    -0.237 OA
ATOM    101  O   UNL A   1      53.221  38.849  26.024  1.00  0.00    -0.744 OA
ENDBRANCH  95  98
ENDBRANCH  68  91
ENDBRANCH  42  43
ENDBRANCH  35  37
ENDBRANCH  34  35
ENDBRANCH  33  34
ENDBRANCH  32  33
ENDBRANCH  31  32
ENDBRANCH  30  31
ENDBRANCH   1  30
TORSDOF 26
ENDMDL
MODEL 2
REMARK VINA RESULT:      -8.5      7.491     13.293
REMARK SMILES CC(C)[C@H](C(=O)OCCOCCOCCOCCOC(=O)c1ccc(-c2c3nc(c(-c4cccc(S(=O)(=O)[O-])c4F)c4ccc([nH]4)c(-c4cccc(S(=O)(=O)[O-])c4F)c4nc(c(-c5cccc(S(=O)(=O)[O-])c5F)c5ccc2[nH]5)C=C4)C=C3)cc1)N1C(=O)/C(=C/c2ccccc2Cl)SC1=S
REMARK SMILES IDX 14 1 13 2 12 3 11 4 10 5 9 6 8 7 7 8 5 9 6 10 4 11 2 12 1 13
REMARK SMILES IDX 3 14 85 15 86 16 98 17 87 18 88 19 97 20 99 21 89 22 90 23
REMARK SMILES IDX 91 24 95 25 92 26 94 27 96 28 93 29 15 30 16 31 17 32 18 33
REMARK SMILES IDX 19 34 20 35 21 36 22 37 23 38 84 39 24 40 83 41 25 42 26 43
REMARK SMILES IDX 27 44 77 45 28 46 82 47 76 48 78 49 29 50 81 51 75 52 74 53
REMARK SMILES IDX 30 55 62 56 42 57 61 58 43 59 46 60 60 61 79 62 44 63 45 64
REMARK SMILES IDX 59 66 80 67 47 68 31 69 32 70 40 71 33 72 35 73 41 74 34 75
REMARK SMILES IDX 36 76 37 77 38 78 39 79 63 80 64 81 72 82 65 83 67 84 73 85
REMARK SMILES IDX 66 86 68 87 69 88 70 89 71 90 48 91 49 92 57 93 50 94 52 95
REMARK SMILES IDX 58 96 51 97 53 98 54 99 55 100 56 101
REMARK H PARENT 78 54 46 65
REMARK Flexibility Score: inf
ROOT
ATOM      1  C   UNL A   1      36.043  32.353  33.246  1.00  0.00     0.188 C 
ENDROOT
BRANCH   1   2
ATOM      2  O   UNL A   1      36.606  32.538  34.540  1.00  0.00    -0.377 OA
BRANCH   2   3
ATOM      3  C   UNL A   1      37.724  31.722  34.838  1.00  0.00     0.188 C 
BRANCH   3   4
ATOM      4  C   UNL A   1      38.488  32.203  36.084  1.00  0.00     0.188 C 
BRANCH   4   5
ATOM      5  O   UNL A   1      38.280  31.547  37.323  1.00  0.00    -0.376 OA
BRANCH   5   6
ATOM      6  C   UNL A   1      37.461  32.054  38.368  1.00  0.00     0.202 C 
BRANCH   6   7
ATOM      7  C   UNL A   1      37.735  33.297  39.234  1.00  0.00     0.261 C 
BRANCH   7   8
ATOM      8  O   UNL A   1      39.085  33.715  39.384  1.00  0.00    -0.462 OA
BRANCH   8   9
ATOM      9  C   UNL A   1      39.355  34.563  40.405  1.00  0.00     0.329 C 
ATOM     10  O   UNL A   1      38.847  35.665  40.537  1.00  0.00    -0.250 OA
BRANCH   9  11
ATOM     11  C   UNL A   1      40.264  33.842  41.425  1.00  0.00     0.204 C 
BRANCH  11  12
ATOM     12  C   UNL A   1      41.693  34.394  41.698  1.00  0.00     0.017 C 
ATOM     13  C   UNL A   1      41.802  35.919  41.601  1.00  0.00     0.010 C 
ATOM     14  C   UNL A   1      42.383  33.901  42.964  1.00  0.00     0.010 C 
ENDBRANCH  11  12
BRANCH  11  15
ATOM     15  N   UNL A   1      39.470  33.294  42.548  1.00  0.00    -0.278 N 
ATOM     16  C   UNL A   1      39.052  31.966  42.477  1.00  0.00     0.267 C 
ATOM     17  C   UNL A   1      38.991  34.021  43.625  1.00  0.00     0.149 C 
ATOM     18  O   UNL A   1      39.348  31.146  41.617  1.00  0.00    -0.268 OA
ATOM     19  C   UNL A   1      38.132  31.648  43.596  1.00  0.00     0.081 C 
ATOM     20  S   UNL A   1      38.096  32.958  44.704  1.00  0.00    -0.054 SA
ATOM     21  S   UNL A   1      39.136  35.641  43.994  1.00  0.00    -0.052 S 
ATOM     22  C   UNL A   1      37.401  30.524  43.651  1.00  0.00     0.031 C 
BRANCH  22  23
ATOM     23  C   UNL A   1      36.400  30.289  44.703  1.00  0.00    -0.006 A 
ATOM     24  C   UNL A   1      36.807  29.649  45.881  1.00  0.00     0.010 A 
ATOM     25  C   UNL A   1      35.088  30.791  44.618  1.00  0.00     0.048 A 
ATOM     26  C   UNL A   1      35.940  29.562  46.973  1.00  0.00     0.001 A 
ATOM     27  C   UNL A   1      34.230  30.715  45.717  1.00  0.00     0.021 A 
ATOM     28  Cl  UNL A   1      34.484  31.535  43.176  1.00  0.00    -0.084 Cl
ATOM     29  C   UNL A   1      34.661  30.112  46.897  1.00  0.00     0.002 A 
ENDBRANCH  22  23
ENDBRANCH  11  15
ENDBRANCH   9  11
ENDBRANCH   8   9
ENDBRANCH   7   8
ENDBRANCH   6   7
ENDBRANCH   5   6
ENDBRANCH   4   5
ENDBRANCH   3   4
ENDBRANCH   2   3
ENDBRANCH   1   2
BRANCH   1  30
ATOM     30  C   UNL A   1      34.641  32.945  32.981  1.00  0.00     0.188 C 
BRANCH  30  31
ATOM     31  O   UNL A   1      34.175  32.755  31.648  1.00  0.00    -0.376 OA
BRANCH  31  32
ATOM     32  C   UNL A   1      34.980  33.220  30.578  1.00  0.00     0.202 C 
BRANCH  32  33
ATOM     33  C   UNL A   1      34.339  33.171  29.183  1.00  0.00     0.261 C 
BRANCH  33  34
ATOM     34  O   UNL A   1      35.080  32.454  28.186  1.00  0.00    -0.460 OA
BRANCH  34  35
ATOM     35  C   UNL A   1      34.821  31.132  28.066  1.00  0.00     0.338 C 
ATOM     36  O   UNL A   1      33.815  30.624  27.616  1.00  0.00    -0.246 OA
BRANCH  35  37
ATOM     37  C   UNL A   1      36.066  30.398  28.380  1.00  0.00     0.060 A 
ATOM     38  C   UNL A   1      36.115  29.643  29.559  1.00  0.00     0.016 A 
ATOM     39  C   UNL A   1      37.170  30.458  27.527  1.00  0.00     0.016 A 
ATOM     40  C   UNL A   1      37.292  28.987  29.915  1.00  0.00     0.010 A 
ATOM     41  C   UNL A   1      38.355  29.819  27.897  1.00  0.00     0.010 A 
ATOM     42  C   UNL A   1      38.433  29.121  29.115  1.00  0.00    -0.014 A 
BRANCH  42  43
ATOM     43  C   UNL A   1      39.749  28.722  29.666  1.00  0.00     0.031 A 
ATOM     44  C   UNL A   1      40.492  27.602  28.987  1.00  0.00     0.074 A 
ATOM     45  C   UNL A   1      40.290  29.354  30.721  1.00  0.00     0.049 A 
ATOM     46  N   UNL A   1      41.654  27.081  29.279  1.00  0.00    -0.248 NA
ATOM     47  C   UNL A   1      39.832  26.986  27.822  1.00  0.00     0.031 C 
ATOM     48  C   UNL A   1      39.674  30.459  31.452  1.00  0.00     0.029 A 
ATOM     49  N   UNL A   1      41.479  29.139  31.371  1.00  0.00    -0.354 N 
ATOM     50  C   UNL A   1      41.853  26.062  28.354  1.00  0.00     0.074 A 
ATOM     51  C   UNL A   1      40.685  26.027  27.502  1.00  0.00     0.031 C 
ATOM     52  C   UNL A   1      40.482  30.810  32.470  1.00  0.00     0.029 A 
ATOM     53  C   UNL A   1      41.657  29.940  32.474  1.00  0.00     0.049 A 
ATOM     54  H   UNL A   1      42.142  28.473  31.076  1.00  0.00     0.167 HD
ATOM     55  C   UNL A   1      42.918  25.239  28.216  1.00  0.00     0.034 A 
ATOM     56  C   UNL A   1      42.645  29.951  33.391  1.00  0.00     0.034 A 
ATOM     57  C   UNL A   1      44.082  25.282  29.058  1.00  0.00     0.049 A 
ATOM     58  C   UNL A   1      43.805  29.001  33.234  1.00  0.00     0.074 A 
ATOM     59  C   UNL A   1      45.232  24.517  28.975  1.00  0.00     0.029 A 
ATOM     60  N   UNL A   1      44.238  26.124  30.148  1.00  0.00    -0.354 N 
ATOM     61  N   UNL A   1      44.032  28.119  32.290  1.00  0.00    -0.248 NA
ATOM     62  C   UNL A   1      44.865  29.073  34.251  1.00  0.00     0.031 C 
ATOM     63  C   UNL A   1      46.067  24.871  30.039  1.00  0.00     0.029 A 
ATOM     64  C   UNL A   1      45.458  25.889  30.757  1.00  0.00     0.049 A 
ATOM     65  H   UNL A   1      43.578  26.792  30.444  1.00  0.00     0.167 HD
ATOM     66  C   UNL A   1      45.275  27.562  32.576  1.00  0.00     0.074 A 
ATOM     67  C   UNL A   1      45.761  28.222  33.771  1.00  0.00     0.031 C 
ATOM     68  C   UNL A   1      45.949  26.587  31.917  1.00  0.00     0.034 A 
BRANCH  55  69
ATOM     69  C   UNL A   1      42.875  24.222  27.105  1.00  0.00     0.023 A 
ATOM     70  C   UNL A   1      43.519  24.492  25.880  1.00  0.00     0.012 A 
ATOM     71  C   UNL A   1      42.231  22.983  27.290  1.00  0.00     0.148 A 
ATOM     72  C   UNL A   1      43.496  23.557  24.845  1.00  0.00     0.002 A 
ATOM     73  C   UNL A   1      42.254  22.037  26.272  1.00  0.00     0.091 A 
ATOM     74  F   UNL A   1      41.603  22.757  28.451  1.00  0.00    -0.205 F 
ATOM     75  C   UNL A   1      42.874  22.328  25.045  1.00  0.00     0.022 A 
BRANCH  73  76
ATOM     76  S   UNL A   1      41.552  20.396  26.460  1.00  0.00     0.127 S 
ATOM     77  O   UNL A   1      42.080  19.998  27.765  1.00  0.00    -0.237 OA
ATOM     78  O   UNL A   1      40.116  20.674  26.443  1.00  0.00    -0.237 OA
ATOM     79  O   UNL A   1      42.035  19.618  25.329  1.00  0.00    -0.744 OA
ENDBRANCH  73  76
ENDBRANCH  55  69
BRANCH  56  80
ATOM     80  C   UNL A   1      42.596  30.910  34.530  1.00  0.00     0.023 A 
ATOM     81  C   UNL A   1      42.043  30.508  35.762  1.00  0.00     0.012 A 
ATOM     82  C   UNL A   1      43.097  32.221  34.399  1.00  0.00     0.148 A 
ATOM     83  C   UNL A   1      41.958  31.402  36.830  1.00  0.00     0.002 A 
ATOM     84  C   UNL A   1      43.061  33.089  35.483  1.00  0.00     0.091 A 
ATOM     85  F   UNL A   1      43.604  32.590  33.214  1.00  0.00    -0.205 F 
ATOM     86  C   UNL A   1      42.475  32.689  36.693  1.00  0.00     0.022 A 
BRANCH  84  87
ATOM     87  S   UNL A   1      43.814  34.717  35.439  1.00  0.00     0.127 S 
ATOM     88  O   UNL A   1      45.191  34.401  35.067  1.00  0.00    -0.237 OA
ATOM     89  O   UNL A   1      43.030  35.382  34.397  1.00  0.00    -0.237 OA
ATOM     90  O   UNL A   1      43.634  35.274  36.773  1.00  0.00    -0.744 OA
ENDBRANCH  84  87
ENDBRANCH  56  80
BRANCH  68  91
ATOM     91  C   UNL A   1      47.312  26.202  32.438  1.00  0.00     0.023 A 
ATOM     92  C   UNL A   1      48.455  26.919  32.032  1.00  0.00     0.012 A 
ATOM     93  C   UNL A   1      47.447  25.166  33.385  1.00  0.00     0.148 A 
ATOM     94  C   UNL A   1      49.715  26.582  32.526  1.00  0.00     0.002 A 
ATOM     95  C   UNL A   1      48.698  24.874  33.914  1.00  0.00     0.091 A 
ATOM     96  F   UNL A   1      46.351  24.485  33.749  1.00  0.00    -0.205 F 
ATOM     97  C   UNL A   1      49.835  25.570  33.474  1.00  0.00     0.022 A 
BRANCH  95  98
ATOM     98  S   UNL A   1      48.934  23.655  35.214  1.00  0.00     0.127 S 
ATOM     99  O   UNL A   1      50.389  23.516  35.230  1.00  0.00    -0.237 OA
ATOM    100  O   UNL A   1      48.373  24.335  36.381  1.00  0.00    -0.237 OA
ATOM    101  O   UNL A   1      48.197  22.471  34.792  1.00  0.00    -0.744 OA
ENDBRANCH  95  98
ENDBRANCH  68  91
ENDBRANCH  42  43
ENDBRANCH  35  37
ENDBRANCH  34  35
ENDBRANCH  33  34
ENDBRANCH  32  33
ENDBRANCH  31  32
ENDBRANCH  30  31
ENDBRANCH   1  30
TORSDOF 26
ENDMDL
MODEL 3
REMARK VINA RESULT:      -8.5      7.776     13.437
REMARK SMILES CC(C)[C@H](C(=O)OCCOCCOCCOCCOC(=O)c1ccc(-c2c3nc(c(-c4cccc(S(=O)(=O)[O-])c4F)c4ccc([nH]4)c(-c4cccc(S(=O)(=O)[O-])c4F)c4nc(c(-c5cccc(S(=O)(=O)[O-])c5F)c5ccc2[nH]5)C=C4)C=C3)cc1)N1C(=O)/C(=C/c2ccccc2Cl)SC1=S
REMARK SMILES IDX 14 1 13 2 12 3 11 4 10 5 9 6 8 7 7 8 5 9 6 10 4 11 2 12 1 13
REMARK SMILES IDX 3 14 85 15 86 16 98 17 87 18 88 19 97 20 99 21 89 22 90 23
REMARK SMILES IDX 91 24 95 25 92 26 94 27 96 28 93 29 15 30 16 31 17 32 18 33
REMARK SMILES IDX 19 34 20 35 21 36 22 37 23 38 84 39 24 40 83 41 25 42 26 43
REMARK SMILES IDX 27 44 77 45 28 46 82 47 76 48 78 49 29 50 81 51 75 52 74 53
REMARK SMILES IDX 30 55 62 56 42 57 61 58 43 59 46 60 60 61 79 62 44 63 45 64
REMARK SMILES IDX 59 66 80 67 47 68 31 69 32 70 40 71 33 72 35 73 41 74 34 75
REMARK SMILES IDX 36 76 37 77 38 78 39 79 63 80 64 81 72 82 65 83 67 84 73 85
REMARK SMILES IDX 66 86 68 87 69 88 70 89 71 90 48 91 49 92 57 93 50 94 52 95
REMARK SMILES IDX 58 96 51 97 53 98 54 99 55 100 56 101
REMARK H PARENT 78 54 46 65
REMARK Flexibility Score: inf
ROOT
ATOM      1  C   UNL A   1      35.650  32.892  33.707  1.00  0.00     0.188 C 
ENDROOT
BRANCH   1   2
ATOM      2  O   UNL A   1      36.268  33.471  34.850  1.00  0.00    -0.377 OA
BRANCH   2   3
ATOM      3  C   UNL A   1      37.504  34.119  34.610  1.00  0.00     0.188 C 
BRANCH   3   4
ATOM      4  C   UNL A   1      38.448  34.054  35.823  1.00  0.00     0.188 C 
BRANCH   4   5
ATOM      5  O   UNL A   1      38.721  32.800  36.425  1.00  0.00    -0.376 OA
BRANCH   5   6
ATOM      6  C   UNL A   1      38.119  32.344  37.629  1.00  0.00     0.202 C 
BRANCH   6   7
ATOM      7  C   UNL A   1      38.490  32.763  39.063  1.00  0.00     0.261 C 
BRANCH   7   8
ATOM      8  O   UNL A   1      37.474  32.702  40.054  1.00  0.00    -0.462 OA
BRANCH   8   9
ATOM      9  C   UNL A   1      37.769  33.224  41.269  1.00  0.00     0.329 C 
ATOM     10  O   UNL A   1      38.326  34.298  41.439  1.00  0.00    -0.250 OA
BRANCH   9  11
ATOM     11  C   UNL A   1      37.149  32.327  42.362  1.00  0.00     0.204 C 
BRANCH  11  12
ATOM     12  C   UNL A   1      38.074  31.413  43.216  1.00  0.00     0.017 C 
ATOM     13  C   UNL A   1      37.322  30.486  44.176  1.00  0.00     0.010 C 
ATOM     14  C   UNL A   1      39.140  30.628  42.460  1.00  0.00     0.010 C 
ENDBRANCH  11  12
BRANCH  11  15
ATOM     15  N   UNL A   1      35.995  32.998  43.006  1.00  0.00    -0.278 N 
ATOM     16  C   UNL A   1      34.727  32.800  42.461  1.00  0.00     0.267 C 
ATOM     17  C   UNL A   1      36.071  33.914  44.041  1.00  0.00     0.149 C 
ATOM     18  O   UNL A   1      34.429  32.044  41.545  1.00  0.00    -0.268 OA
ATOM     19  C   UNL A   1      33.732  33.678  43.124  1.00  0.00     0.081 C 
ATOM     20  S   UNL A   1      34.454  34.450  44.476  1.00  0.00    -0.054 SA
ATOM     21  S   UNL A   1      37.392  34.529  44.854  1.00  0.00    -0.052 S 
ATOM     22  C   UNL A   1      32.489  33.866  42.655  1.00  0.00     0.031 C 
BRANCH  22  23
ATOM     23  C   UNL A   1      31.563  34.839  43.254  1.00  0.00    -0.006 A 
ATOM     24  C   UNL A   1      31.402  36.082  42.625  1.00  0.00     0.010 A 
ATOM     25  C   UNL A   1      30.748  34.522  44.356  1.00  0.00     0.048 A 
ATOM     26  C   UNL A   1      30.409  36.966  43.055  1.00  0.00     0.001 A 
ATOM     27  C   UNL A   1      29.747  35.402  44.771  1.00  0.00     0.021 A 
ATOM     28  Cl  UNL A   1      30.927  33.037  45.229  1.00  0.00    -0.084 Cl
ATOM     29  C   UNL A   1      29.570  36.617  44.112  1.00  0.00     0.002 A 
ENDBRANCH  22  23
ENDBRANCH  11  15
ENDBRANCH   9  11
ENDBRANCH   8   9
ENDBRANCH   7   8
ENDBRANCH   6   7
ENDBRANCH   5   6
ENDBRANCH   4   5
ENDBRANCH   3   4
ENDBRANCH   2   3
ENDBRANCH   1   2
BRANCH   1  30
ATOM     30  C   UNL A   1      34.222  33.359  33.348  1.00  0.00     0.188 C 
BRANCH  30  31
ATOM     31  O   UNL A   1      33.911  33.257  31.961  1.00  0.00    -0.376 OA
BRANCH  31  32
ATOM     32  C   UNL A   1      34.839  33.772  31.021  1.00  0.00     0.202 C 
BRANCH  32  33
ATOM     33  C   UNL A   1      34.357  33.834  29.564  1.00  0.00     0.261 C 
BRANCH  33  34
ATOM     34  O   UNL A   1      35.093  33.028  28.634  1.00  0.00    -0.460 OA
BRANCH  34  35
ATOM     35  C   UNL A   1      34.813  31.705  28.615  1.00  0.00     0.338 C 
ATOM     36  O   UNL A   1      33.759  31.187  28.303  1.00  0.00    -0.246 OA
BRANCH  35  37
ATOM     37  C   UNL A   1      36.077  30.972  28.837  1.00  0.00     0.060 A 
ATOM     38  C   UNL A   1      36.064  29.865  29.696  1.00  0.00     0.016 A 
ATOM     39  C   UNL A   1      37.259  31.374  28.212  1.00  0.00     0.016 A 
ATOM     40  C   UNL A   1      37.250  29.187  29.973  1.00  0.00     0.010 A 
ATOM     41  C   UNL A   1      38.450  30.707  28.509  1.00  0.00     0.010 A 
ATOM     42  C   UNL A   1      38.456  29.642  29.427  1.00  0.00    -0.014 A 
BRANCH  42  43
ATOM     43  C   UNL A   1      39.733  29.147  29.990  1.00  0.00     0.031 A 
ATOM     44  C   UNL A   1      40.420  28.002  29.293  1.00  0.00     0.074 A 
ATOM     45  C   UNL A   1      40.291  29.714  31.073  1.00  0.00     0.049 A 
ATOM     46  N   UNL A   1      41.540  27.402  29.591  1.00  0.00    -0.248 NA
ATOM     47  C   UNL A   1      39.746  27.461  28.098  1.00  0.00     0.031 C 
ATOM     48  C   UNL A   1      39.730  30.835  31.824  1.00  0.00     0.029 A 
ATOM     49  N   UNL A   1      41.451  29.407  31.738  1.00  0.00    -0.354 N 
ATOM     50  C   UNL A   1      41.695  26.398  28.641  1.00  0.00     0.074 A 
ATOM     51  C   UNL A   1      40.545  26.460  27.766  1.00  0.00     0.031 C 
ATOM     52  C   UNL A   1      40.536  31.106  32.867  1.00  0.00     0.029 A 
ATOM     53  C   UNL A   1      41.655  30.165  32.867  1.00  0.00     0.049 A 
ATOM     54  H   UNL A   1      42.078  28.710  31.436  1.00  0.00     0.167 HD
ATOM     55  C   UNL A   1      42.710  25.514  28.499  1.00  0.00     0.034 A 
ATOM     56  C   UNL A   1      42.623  30.089  33.802  1.00  0.00     0.034 A 
ATOM     57  C   UNL A   1      43.857  25.462  29.363  1.00  0.00     0.049 A 
ATOM     58  C   UNL A   1      43.725  29.073  33.640  1.00  0.00     0.074 A 
ATOM     59  C   UNL A   1      44.959  24.629  29.280  1.00  0.00     0.029 A 
ATOM     60  N   UNL A   1      44.042  26.262  30.480  1.00  0.00    -0.354 N 
ATOM     61  N   UNL A   1      43.916  28.205  32.675  1.00  0.00    -0.248 NA
ATOM     62  C   UNL A   1      44.767  29.051  34.677  1.00  0.00     0.031 C 
ATOM     63  C   UNL A   1      45.792  24.901  30.369  1.00  0.00     0.029 A 
ATOM     64  C   UNL A   1      45.233  25.934  31.104  1.00  0.00     0.049 A 
ATOM     65  H   UNL A   1      43.419  26.961  30.783  1.00  0.00     0.167 HD
ATOM     66  C   UNL A   1      45.116  27.564  32.968  1.00  0.00     0.074 A 
ATOM     67  C   UNL A   1      45.618  28.159  34.190  1.00  0.00     0.031 C 
ATOM     68  C   UNL A   1      45.743  26.568  32.293  1.00  0.00     0.034 A 
BRANCH  55  69
ATOM     69  C   UNL A   1      42.626  24.534  27.358  1.00  0.00     0.023 A 
ATOM     70  C   UNL A   1      43.376  24.756  26.185  1.00  0.00     0.012 A 
ATOM     71  C   UNL A   1      41.838  23.372  27.466  1.00  0.00     0.148 A 
ATOM     72  C   UNL A   1      43.316  23.852  25.124  1.00  0.00     0.002 A 
ATOM     73  C   UNL A   1      41.822  22.452  26.425  1.00  0.00     0.091 A 
ATOM     74  F   UNL A   1      41.113  23.193  28.579  1.00  0.00    -0.205 F 
ATOM     75  C   UNL A   1      42.550  22.697  25.249  1.00  0.00     0.022 A 
BRANCH  73  76
ATOM     76  S   UNL A   1      40.931  20.897  26.521  1.00  0.00     0.127 S 
ATOM     77  O   UNL A   1      39.656  21.249  25.894  1.00  0.00    -0.237 OA
ATOM     78  O   UNL A   1      41.777  20.010  25.723  1.00  0.00    -0.237 OA
ATOM     79  O   UNL A   1      40.858  20.560  27.935  1.00  0.00    -0.744 OA
ENDBRANCH  73  76
ENDBRANCH  55  69
BRANCH  56  80
ATOM     80  C   UNL A   1      42.611  31.017  34.968  1.00  0.00     0.023 A 
ATOM     81  C   UNL A   1      41.954  30.641  36.156  1.00  0.00     0.012 A 
ATOM     82  C   UNL A   1      43.249  32.272  34.904  1.00  0.00     0.148 A 
ATOM     83  C   UNL A   1      41.902  31.511  37.246  1.00  0.00     0.002 A 
ATOM     84  C   UNL A   1      43.242  33.110  36.013  1.00  0.00     0.091 A 
ATOM     85  F   UNL A   1      43.854  32.619  33.760  1.00  0.00    -0.205 F 
ATOM     86  C   UNL A   1      42.554  32.741  37.178  1.00  0.00     0.022 A 
BRANCH  84  87
ATOM     87  S   UNL A   1      44.159  34.653  36.060  1.00  0.00     0.127 S 
ATOM     88  O   UNL A   1      43.316  35.527  35.248  1.00  0.00    -0.237 OA
ATOM     89  O   UNL A   1      44.162  34.956  37.492  1.00  0.00    -0.237 OA
ATOM     90  O   UNL A   1      45.472  34.351  35.507  1.00  0.00    -0.744 OA
ENDBRANCH  84  87
ENDBRANCH  56  80
BRANCH  68  91
ATOM     91  C   UNL A   1      47.068  26.084  32.828  1.00  0.00     0.023 A 
ATOM     92  C   UNL A   1      48.256  26.769  32.505  1.00  0.00     0.012 A 
ATOM     93  C   UNL A   1      47.124  24.983  33.708  1.00  0.00     0.148 A 
ATOM     94  C   UNL A   1      49.482  26.341  33.013  1.00  0.00     0.002 A 
ATOM     95  C   UNL A   1      48.341  24.598  34.254  1.00  0.00     0.091 A 
ATOM     96  F   UNL A   1      45.986  24.334  33.994  1.00  0.00    -0.205 F 
ATOM     97  C   UNL A   1      49.523  25.265  33.895  1.00  0.00     0.022 A 
BRANCH  95  98
ATOM     98  S   UNL A   1      48.477  23.288  35.476  1.00  0.00     0.127 S 
ATOM     99  O   UNL A   1      48.001  22.128  34.723  1.00  0.00    -0.237 OA
ATOM    100  O   UNL A   1      49.911  23.281  35.765  1.00  0.00    -0.237 OA
ATOM    101  O   UNL A   1      47.637  23.694  36.595  1.00  0.00    -0.744 OA
ENDBRANCH  95  98
ENDBRANCH  68  91
ENDBRANCH  42  43
ENDBRANCH  35  37
ENDBRANCH  34  35
ENDBRANCH  33  34
ENDBRANCH  32  33
ENDBRANCH  31  32
ENDBRANCH  30  31
ENDBRANCH   1  30
TORSDOF 26
ENDMDL
