MODEL 1
REMARK VINA RESULT:      -8.2      0.000      0.000
REMARK SMILES O=C(COc1cccc(C(=O)OCCOCCOCCOCCOC(=O)c2ccc(-c3c4nc(c(-c5cccc(S(=O)(=O)[O-])c5F)c5ccc([nH]5)c(-c5cccc(S(=O)(=O)[O-])c5F)c5nc(c(-c6cccc(S(=O)(=O)[O-])c6F)c6ccc3[nH]6)C=C5)C=C4)cc2)c1)NCCc1cccs1
REMARK SMILES IDX 16 1 15 2 14 3 13 4 12 5 10 6 11 7 9 8 5 9 6 10 90 11 7 12
REMARK SMILES IDX 8 13 4 14 3 15 2 16 1 17 91 18 92 20 93 21 94 22 95 23 98 24
REMARK SMILES IDX 96 25 97 26 17 27 18 28 19 29 20 30 21 31 22 32 23 33 24 34
REMARK SMILES IDX 25 35 26 36 27 37 28 38 89 39 29 40 88 41 30 42 31 43 32 44
REMARK SMILES IDX 82 45 33 46 87 47 81 48 83 49 34 50 86 51 80 52 79 53 35 55
REMARK SMILES IDX 67 56 47 57 66 58 48 59 51 60 65 61 84 62 49 63 50 64 64 66
REMARK SMILES IDX 85 67 52 68 36 69 37 70 45 71 38 72 40 73 46 74 39 75 41 76
REMARK SMILES IDX 42 77 43 78 44 79 68 80 69 81 77 82 70 83 72 84 78 85 71 86
REMARK SMILES IDX 73 87 74 88 75 89 76 90 53 91 54 92 62 93 55 94 57 95 63 96
REMARK SMILES IDX 56 97 58 98 59 99 60 100 61 101
REMARK H PARENT 91 19 83 54 51 65
REMARK Flexibility Score: inf
ROOT
ATOM      1  C   UNL A   1      42.600  18.718  26.715  1.00  0.00     0.188 C 
ENDROOT
BRANCH   1   2
ATOM      2  O   UNL A   1      42.108  20.040  26.633  1.00  0.00    -0.376 OA
BRANCH   2   3
ATOM      3  C   UNL A   1      40.720  20.284  26.745  1.00  0.00     0.202 C 
BRANCH   3   4
ATOM      4  C   UNL A   1      40.212  21.716  26.551  1.00  0.00     0.261 C 
BRANCH   4   5
ATOM      5  O   UNL A   1      38.892  21.836  26.016  1.00  0.00    -0.460 OA
BRANCH   5   6
ATOM      6  C   UNL A   1      38.228  23.003  26.179  1.00  0.00     0.338 C 
ATOM      7  O   UNL A   1      38.636  24.010  26.733  1.00  0.00    -0.246 OA
BRANCH   6   8
ATOM      8  C   UNL A   1      37.001  22.915  25.346  1.00  0.00     0.063 A 
ATOM      9  C   UNL A   1      34.787  21.978  25.001  1.00  0.00     0.120 A 
ATOM     10  C   UNL A   1      34.840  22.396  23.669  1.00  0.00     0.046 A 
ATOM     11  C   UNL A   1      35.872  22.243  25.835  1.00  0.00     0.062 A 
ATOM     12  C   UNL A   1      35.950  23.095  23.183  1.00  0.00     0.005 A 
ATOM     13  C   UNL A   1      37.033  23.360  24.022  1.00  0.00     0.016 A 
BRANCH   9  14
ATOM     14  O   UNL A   1      33.689  21.240  25.354  1.00  0.00    -0.484 OA
BRANCH  14  15
ATOM     15  C   UNL A   1      33.042  21.605  26.574  1.00  0.00     0.329 C 
BRANCH  15  16
ATOM     16  C   UNL A   1      32.287  22.937  26.581  1.00  0.00     0.257 C 
ATOM     17  O   UNL A   1      32.142  23.586  27.613  1.00  0.00    -0.271 OA
ATOM     18  N   UNL A   1      31.740  23.284  25.369  1.00  0.00    -0.353 N 
ATOM     19  H   UNL A   1      32.001  22.770  24.571  1.00  0.00     0.163 HD
BRANCH  18  20
ATOM     20  C   UNL A   1      30.793  24.376  25.214  1.00  0.00     0.121 C 
BRANCH  20  21
ATOM     21  C   UNL A   1      31.386  25.610  24.535  1.00  0.00     0.068 C 
BRANCH  21  22
ATOM     22  C   UNL A   1      31.497  26.804  25.450  1.00  0.00     0.006 A 
ATOM     23  C   UNL A   1      31.331  26.884  26.821  1.00  0.00     0.015 A 
ATOM     24  S   UNL A   1      31.918  28.328  24.784  1.00  0.00    -0.149 S 
ATOM     25  C   UNL A   1      31.518  28.209  27.314  1.00  0.00     0.012 A 
ATOM     26  C   UNL A   1      31.852  29.089  26.311  1.00  0.00     0.065 A 
ENDBRANCH  21  22
ENDBRANCH  20  21
ENDBRANCH  18  20
ENDBRANCH  15  16
ENDBRANCH  14  15
ENDBRANCH   9  14
ENDBRANCH   6   8
ENDBRANCH   5   6
ENDBRANCH   4   5
ENDBRANCH   3   4
ENDBRANCH   2   3
ENDBRANCH   1   2
BRANCH   1  27
ATOM     27  C   UNL A   1      43.645  18.345  25.634  1.00  0.00     0.188 C 
BRANCH  27  28
ATOM     28  O   UNL A   1      44.297  19.328  24.837  1.00  0.00    -0.377 OA
BRANCH  28  29
ATOM     29  C   UNL A   1      45.543  19.874  25.253  1.00  0.00     0.188 C 
BRANCH  29  30
ATOM     30  C   UNL A   1      46.078  21.142  24.550  1.00  0.00     0.188 C 
BRANCH  30  31
ATOM     31  O   UNL A   1      46.545  22.143  25.441  1.00  0.00    -0.376 OA
BRANCH  31  32
ATOM     32  C   UNL A   1      46.091  23.467  25.236  1.00  0.00     0.202 C 
BRANCH  32  33
ATOM     33  C   UNL A   1      44.689  23.659  24.636  1.00  0.00     0.261 C 
BRANCH  33  34
ATOM     34  O   UNL A   1      43.635  23.965  25.561  1.00  0.00    -0.460 OA
BRANCH  34  35
ATOM     35  C   UNL A   1      43.112  25.208  25.500  1.00  0.00     0.338 C 
ATOM     36  O   UNL A   1      42.526  25.710  24.556  1.00  0.00    -0.246 OA
BRANCH  35  37
ATOM     37  C   UNL A   1      43.189  25.798  26.851  1.00  0.00     0.060 A 
ATOM     38  C   UNL A   1      42.225  25.432  27.800  1.00  0.00     0.016 A 
ATOM     39  C   UNL A   1      44.196  26.709  27.176  1.00  0.00     0.016 A 
ATOM     40  C   UNL A   1      42.230  26.028  29.058  1.00  0.00     0.010 A 
ATOM     41  C   UNL A   1      44.190  27.319  28.433  1.00  0.00     0.010 A 
ATOM     42  C   UNL A   1      43.173  27.021  29.356  1.00  0.00    -0.014 A 
BRANCH  42  43
ATOM     43  C   UNL A   1      42.932  27.893  30.530  1.00  0.00     0.031 A 
ATOM     44  C   UNL A   1      43.703  27.616  31.793  1.00  0.00     0.074 A 
ATOM     45  C   UNL A   1      42.096  28.943  30.464  1.00  0.00     0.049 A 
ATOM     46  N   UNL A   1      43.706  28.269  32.925  1.00  0.00    -0.248 NA
ATOM     47  C   UNL A   1      44.596  26.445  31.774  1.00  0.00     0.031 C 
ATOM     48  C   UNL A   1      41.302  29.321  29.298  1.00  0.00     0.029 A 
ATOM     49  N   UNL A   1      41.773  29.879  31.413  1.00  0.00    -0.354 N 
ATOM     50  C   UNL A   1      44.573  27.573  33.761  1.00  0.00     0.074 A 
ATOM     51  C   UNL A   1      45.066  26.439  33.012  1.00  0.00     0.031 C 
ATOM     52  C   UNL A   1      40.565  30.402  29.607  1.00  0.00     0.029 A 
ATOM     53  C   UNL A   1      40.822  30.778  30.997  1.00  0.00     0.049 A 
ATOM     54  H   UNL A   1      42.184  29.905  32.308  1.00  0.00     0.167 HD
ATOM     55  C   UNL A   1      44.939  27.858  35.032  1.00  0.00     0.034 A 
ATOM     56  C   UNL A   1      40.217  31.778  31.668  1.00  0.00     0.034 A 
ATOM     57  C   UNL A   1      44.454  28.991  35.774  1.00  0.00     0.049 A 
ATOM     58  C   UNL A   1      40.627  32.065  33.089  1.00  0.00     0.074 A 
ATOM     59  C   UNL A   1      44.795  29.391  37.054  1.00  0.00     0.029 A 
ATOM     60  N   UNL A   1      43.509  29.893  35.311  1.00  0.00    -0.354 N 
ATOM     61  N   UNL A   1      41.529  31.467  33.830  1.00  0.00    -0.248 NA
ATOM     62  C   UNL A   1      39.963  33.196  33.754  1.00  0.00     0.031 C 
ATOM     63  C   UNL A   1      44.023  30.512  37.381  1.00  0.00     0.029 A 
ATOM     64  C   UNL A   1      43.243  30.843  36.284  1.00  0.00     0.049 A 
ATOM     65  H   UNL A   1      43.089  29.865  34.421  1.00  0.00     0.167 HD
ATOM     66  C   UNL A   1      41.570  32.171  35.029  1.00  0.00     0.074 A 
ATOM     67  C   UNL A   1      40.617  33.255  34.905  1.00  0.00     0.031 C 
ATOM     68  C   UNL A   1      42.322  31.940  36.135  1.00  0.00     0.034 A 
BRANCH  55  69
ATOM     69  C   UNL A   1      45.911  26.922  35.702  1.00  0.00     0.023 A 
ATOM     70  C   UNL A   1      47.298  27.091  35.517  1.00  0.00     0.012 A 
ATOM     71  C   UNL A   1      45.448  25.888  36.539  1.00  0.00     0.148 A 
ATOM     72  C   UNL A   1      48.208  26.222  36.122  1.00  0.00     0.002 A 
ATOM     73  C   UNL A   1      46.361  25.059  37.180  1.00  0.00     0.091 A 
ATOM     74  F   UNL A   1      44.125  25.726  36.682  1.00  0.00    -0.205 F 
ATOM     75  C   UNL A   1      47.740  25.215  36.960  1.00  0.00     0.022 A 
BRANCH  73  76
ATOM     76  S   UNL A   1      45.860  23.785  38.342  1.00  0.00     0.127 S 
ATOM     77  O   UNL A   1      45.624  22.650  37.452  1.00  0.00    -0.237 OA
ATOM     78  O   UNL A   1      47.048  23.660  39.188  1.00  0.00    -0.237 OA
ATOM     79  O   UNL A   1      44.681  24.302  39.022  1.00  0.00    -0.744 OA
ENDBRANCH  73  76
ENDBRANCH  55  69
BRANCH  56  80
ATOM     80  C   UNL A   1      39.177  32.604  30.994  1.00  0.00     0.023 A 
ATOM     81  C   UNL A   1      39.556  33.704  30.199  1.00  0.00     0.012 A 
ATOM     82  C   UNL A   1      37.810  32.296  31.134  1.00  0.00     0.148 A 
ATOM     83  C   UNL A   1      38.592  34.502  29.583  1.00  0.00     0.002 A 
ATOM     84  C   UNL A   1      36.858  33.060  30.471  1.00  0.00     0.091 A 
ATOM     85  F   UNL A   1      37.471  31.254  31.906  1.00  0.00    -0.205 F 
ATOM     86  C   UNL A   1      37.244  34.174  29.711  1.00  0.00     0.022 A 
BRANCH  84  87
ATOM     87  S   UNL A   1      35.113  32.639  30.474  1.00  0.00     0.127 S 
ATOM     88  O   UNL A   1      35.054  31.601  29.448  1.00  0.00    -0.237 OA
ATOM     89  O   UNL A   1      34.925  32.164  31.845  1.00  0.00    -0.237 OA
ATOM     90  O   UNL A   1      34.408  33.875  30.161  1.00  0.00    -0.744 OA
ENDBRANCH  84  87
ENDBRANCH  56  80
BRANCH  68  91
ATOM     91  C   UNL A   1      42.189  32.910  37.284  1.00  0.00     0.023 A 
ATOM     92  C   UNL A   1      41.253  32.674  38.312  1.00  0.00     0.012 A 
ATOM     93  C   UNL A   1      43.025  34.042  37.362  1.00  0.00     0.148 A 
ATOM     94  C   UNL A   1      41.112  33.578  39.365  1.00  0.00     0.002 A 
ATOM     95  C   UNL A   1      42.920  34.907  38.445  1.00  0.00     0.091 A 
ATOM     96  F   UNL A   1      43.901  34.261  36.370  1.00  0.00    -0.205 F 
ATOM     97  C   UNL A   1      41.951  34.688  39.437  1.00  0.00     0.022 A 
BRANCH  95  98
ATOM     98  S   UNL A   1      44.029  36.301  38.669  1.00  0.00     0.127 S 
ATOM     99  O   UNL A   1      43.699  36.729  40.028  1.00  0.00    -0.237 OA
ATOM    100  O   UNL A   1      45.346  35.676  38.531  1.00  0.00    -0.237 OA
ATOM    101  O   UNL A   1      43.700  37.249  37.615  1.00  0.00    -0.744 OA
ENDBRANCH  95  98
ENDBRANCH  68  91
ENDBRANCH  42  43
ENDBRANCH  35  37
ENDBRANCH  34  35
ENDBRANCH  33  34
ENDBRANCH  32  33
ENDBRANCH  31  32
ENDBRANCH  30  31
ENDBRANCH  29  30
ENDBRANCH  28  29
ENDBRANCH  27  28
ENDBRANCH   1  27
TORSDOF 29
ENDMDL
MODEL 2
REMARK VINA RESULT:      -7.5      3.575      5.467
REMARK SMILES O=C(COc1cccc(C(=O)OCCOCCOCCOCCOC(=O)c2ccc(-c3c4nc(c(-c5cccc(S(=O)(=O)[O-])c5F)c5ccc([nH]5)c(-c5cccc(S(=O)(=O)[O-])c5F)c5nc(c(-c6cccc(S(=O)(=O)[O-])c6F)c6ccc3[nH]6)C=C5)C=C4)cc2)c1)NCCc1cccs1
REMARK SMILES IDX 16 1 15 2 14 3 13 4 12 5 10 6 11 7 9 8 5 9 6 10 90 11 7 12
REMARK SMILES IDX 8 13 4 14 3 15 2 16 1 17 91 18 92 20 93 21 94 22 95 23 98 24
REMARK SMILES IDX 96 25 97 26 17 27 18 28 19 29 20 30 21 31 22 32 23 33 24 34
REMARK SMILES IDX 25 35 26 36 27 37 28 38 89 39 29 40 88 41 30 42 31 43 32 44
REMARK SMILES IDX 82 45 33 46 87 47 81 48 83 49 34 50 86 51 80 52 79 53 35 55
REMARK SMILES IDX 67 56 47 57 66 58 48 59 51 60 65 61 84 62 49 63 50 64 64 66
REMARK SMILES IDX 85 67 52 68 36 69 37 70 45 71 38 72 40 73 46 74 39 75 41 76
REMARK SMILES IDX 42 77 43 78 44 79 68 80 69 81 77 82 70 83 72 84 78 85 71 86
REMARK SMILES IDX 73 87 74 88 75 89 76 90 53 91 54 92 62 93 55 94 57 95 63 96
REMARK SMILES IDX 56 97 58 98 59 99 60 100 61 101
REMARK H PARENT 91 19 83 54 51 65
REMARK Flexibility Score: inf
ROOT
ATOM      1  C   UNL A   1      42.581  19.220  26.244  1.00  0.00     0.188 C 
ENDROOT
BRANCH   1   2
ATOM      2  O   UNL A   1      41.954  20.478  26.393  1.00  0.00    -0.376 OA
BRANCH   2   3
ATOM      3  C   UNL A   1      40.544  20.563  26.443  1.00  0.00     0.202 C 
BRANCH   3   4
ATOM      4  C   UNL A   1      39.901  21.946  26.582  1.00  0.00     0.261 C 
BRANCH   4   5
ATOM      5  O   UNL A   1      38.704  22.149  25.828  1.00  0.00    -0.460 OA
BRANCH   5   6
ATOM      6  C   UNL A   1      37.998  23.286  26.020  1.00  0.00     0.338 C 
ATOM      7  O   UNL A   1      38.382  24.305  26.571  1.00  0.00    -0.246 OA
BRANCH   6   8
ATOM      8  C   UNL A   1      36.751  23.155  25.224  1.00  0.00     0.063 A 
ATOM      9  C   UNL A   1      34.426  22.466  25.104  1.00  0.00     0.120 A 
ATOM     10  C   UNL A   1      34.502  22.520  23.710  1.00  0.00     0.046 A 
ATOM     11  C   UNL A   1      35.555  22.786  25.856  1.00  0.00     0.062 A 
ATOM     12  C   UNL A   1      35.683  22.918  23.075  1.00  0.00     0.005 A 
ATOM     13  C   UNL A   1      36.811  23.240  23.830  1.00  0.00     0.016 A 
BRANCH   9  14
ATOM     14  O   UNL A   1      33.248  21.995  25.622  1.00  0.00    -0.484 OA
BRANCH  14  15
ATOM     15  C   UNL A   1      32.705  22.718  26.727  1.00  0.00     0.329 C 
BRANCH  15  16
ATOM     16  C   UNL A   1      31.722  23.845  26.397  1.00  0.00     0.257 C 
ATOM     17  O   UNL A   1      31.122  24.451  27.280  1.00  0.00    -0.271 OA
ATOM     18  N   UNL A   1      31.528  24.050  25.053  1.00  0.00    -0.353 N 
ATOM     19  H   UNL A   1      32.132  23.603  24.417  1.00  0.00     0.163 HD
BRANCH  18  20
ATOM     20  C   UNL A   1      30.471  24.899  24.528  1.00  0.00     0.121 C 
BRANCH  20  21
ATOM     21  C   UNL A   1      30.901  25.744  23.330  1.00  0.00     0.068 C 
BRANCH  21  22
ATOM     22  C   UNL A   1      30.703  27.225  23.538  1.00  0.00     0.006 A 
ATOM     23  C   UNL A   1      29.817  28.092  22.925  1.00  0.00     0.015 A 
ATOM     24  S   UNL A   1      31.656  28.036  24.711  1.00  0.00    -0.149 S 
ATOM     25  C   UNL A   1      29.949  29.430  23.400  1.00  0.00     0.012 A 
ATOM     26  C   UNL A   1      30.907  29.535  24.381  1.00  0.00     0.065 A 
ENDBRANCH  21  22
ENDBRANCH  20  21
ENDBRANCH  18  20
ENDBRANCH  15  16
ENDBRANCH  14  15
ENDBRANCH   9  14
ENDBRANCH   6   8
ENDBRANCH   5   6
ENDBRANCH   4   5
ENDBRANCH   3   4
ENDBRANCH   2   3
ENDBRANCH   1   2
BRANCH   1  27
ATOM     27  C   UNL A   1      43.642  19.151  25.119  1.00  0.00     0.188 C 
BRANCH  27  28
ATOM     28  O   UNL A   1      44.207  20.319  24.535  1.00  0.00    -0.377 OA
BRANCH  28  29
ATOM     29  C   UNL A   1      45.235  21.033  25.212  1.00  0.00     0.188 C 
BRANCH  29  30
ATOM     30  C   UNL A   1      45.783  22.334  24.587  1.00  0.00     0.188 C 
BRANCH  30  31
ATOM     31  O   UNL A   1      46.606  23.093  25.459  1.00  0.00    -0.376 OA
BRANCH  31  32
ATOM     32  C   UNL A   1      46.424  24.496  25.476  1.00  0.00     0.202 C 
BRANCH  32  33
ATOM     33  C   UNL A   1      44.985  25.033  25.442  1.00  0.00     0.261 C 
BRANCH  33  34
ATOM     34  O   UNL A   1      44.375  25.307  26.712  1.00  0.00    -0.460 OA
BRANCH  34  35
ATOM     35  C   UNL A   1      44.491  26.566  27.185  1.00  0.00     0.338 C 
ATOM     36  O   UNL A   1      44.272  27.600  26.576  1.00  0.00    -0.246 OA
BRANCH  35  37
ATOM     37  C   UNL A   1      44.735  26.483  28.638  1.00  0.00     0.060 A 
ATOM     38  C   UNL A   1      43.667  26.148  29.481  1.00  0.00     0.016 A 
ATOM     39  C   UNL A   1      46.002  26.742  29.166  1.00  0.00     0.016 A 
ATOM     40  C   UNL A   1      43.851  26.134  30.861  1.00  0.00     0.010 A 
ATOM     41  C   UNL A   1      46.181  26.745  30.552  1.00  0.00     0.010 A 
ATOM     42  C   UNL A   1      45.091  26.495  31.404  1.00  0.00    -0.014 A 
BRANCH  42  43
ATOM     43  C   UNL A   1      45.159  26.837  32.844  1.00  0.00     0.031 A 
ATOM     44  C   UNL A   1      45.613  25.773  33.808  1.00  0.00     0.074 A 
ATOM     45  C   UNL A   1      44.882  28.076  33.284  1.00  0.00     0.049 A 
ATOM     46  N   UNL A   1      45.804  25.849  35.098  1.00  0.00    -0.248 NA
ATOM     47  C   UNL A   1      45.894  24.445  33.236  1.00  0.00     0.031 C 
ATOM     48  C   UNL A   1      44.443  29.193  32.451  1.00  0.00     0.029 A 
ATOM     49  N   UNL A   1      44.924  28.595  34.554  1.00  0.00    -0.354 N 
ATOM     50  C   UNL A   1      46.197  24.576  35.497  1.00  0.00     0.074 A 
ATOM     51  C   UNL A   1      46.202  23.743  34.315  1.00  0.00     0.031 C 
ATOM     52  C   UNL A   1      44.237  30.264  33.236  1.00  0.00     0.029 A 
ATOM     53  C   UNL A   1      44.510  29.903  34.627  1.00  0.00     0.049 A 
ATOM     54  H   UNL A   1      45.224  28.080  35.337  1.00  0.00     0.167 HD
ATOM     55  C   UNL A   1      46.538  24.139  36.732  1.00  0.00     0.034 A 
ATOM     56  C   UNL A   1      44.353  30.707  35.697  1.00  0.00     0.034 A 
ATOM     57  C   UNL A   1      46.541  24.970  37.906  1.00  0.00     0.049 A 
ATOM     58  C   UNL A   1      44.721  30.194  37.064  1.00  0.00     0.074 A 
ATOM     59  C   UNL A   1      46.909  24.634  39.197  1.00  0.00     0.029 A 
ATOM     60  N   UNL A   1      46.137  26.296  37.937  1.00  0.00    -0.354 N 
ATOM     61  N   UNL A   1      45.196  29.021  37.411  1.00  0.00    -0.248 NA
ATOM     62  C   UNL A   1      44.570  31.132  38.187  1.00  0.00     0.031 C 
ATOM     63  C   UNL A   1      46.687  25.746  40.017  1.00  0.00     0.029 A 
ATOM     64  C   UNL A   1      46.234  26.791  39.227  1.00  0.00     0.049 A 
ATOM     65  H   UNL A   1      45.828  26.810  37.157  1.00  0.00     0.167 HD
ATOM     66  C   UNL A   1      45.439  29.094  38.779  1.00  0.00     0.074 A 
ATOM     67  C   UNL A   1      45.078  30.435  39.192  1.00  0.00     0.031 C 
ATOM     68  C   UNL A   1      45.910  28.138  39.620  1.00  0.00     0.034 A 
BRANCH  55  69
ATOM     69  C   UNL A   1      46.933  22.692  36.873  1.00  0.00     0.023 A 
ATOM     70  C   UNL A   1      45.953  21.714  37.141  1.00  0.00     0.012 A 
ATOM     71  C   UNL A   1      48.275  22.297  36.713  1.00  0.00     0.148 A 
ATOM     72  C   UNL A   1      46.309  20.372  37.287  1.00  0.00     0.002 A 
ATOM     73  C   UNL A   1      48.615  20.953  36.807  1.00  0.00     0.091 A 
ATOM     74  F   UNL A   1      49.197  23.243  36.484  1.00  0.00    -0.205 F 
ATOM     75  C   UNL A   1      47.635  19.992  37.110  1.00  0.00     0.022 A 
BRANCH  73  76
ATOM     76  S   UNL A   1      50.281  20.353  36.514  1.00  0.00     0.127 S 
ATOM     77  O   UNL A   1      50.314  19.153  37.349  1.00  0.00    -0.237 OA
ATOM     78  O   UNL A   1      50.264  20.094  35.075  1.00  0.00    -0.237 OA
ATOM     79  O   UNL A   1      51.174  21.426  36.929  1.00  0.00    -0.744 OA
ENDBRANCH  73  76
ENDBRANCH  55  69
BRANCH  56  80
ATOM     80  C   UNL A   1      43.849  32.097  35.515  1.00  0.00     0.023 A 
ATOM     81  C   UNL A   1      42.465  32.356  35.554  1.00  0.00     0.012 A 
ATOM     82  C   UNL A   1      44.743  33.166  35.310  1.00  0.00     0.148 A 
ATOM     83  C   UNL A   1      41.978  33.649  35.359  1.00  0.00     0.002 A 
ATOM     84  C   UNL A   1      44.255  34.459  35.175  1.00  0.00     0.091 A 
ATOM     85  F   UNL A   1      46.055  32.894  35.263  1.00  0.00    -0.205 F 
ATOM     86  C   UNL A   1      42.873  34.701  35.180  1.00  0.00     0.022 A 
BRANCH  84  87
ATOM     87  S   UNL A   1      45.334  35.890  35.067  1.00  0.00     0.127 S 
ATOM     88  O   UNL A   1      44.372  36.983  34.956  1.00  0.00    -0.237 OA
ATOM     89  O   UNL A   1      46.046  35.820  36.344  1.00  0.00    -0.237 OA
ATOM     90  O   UNL A   1      46.172  35.665  33.897  1.00  0.00    -0.744 OA
ENDBRANCH  84  87
ENDBRANCH  56  80
BRANCH  68  91
ATOM     91  C   UNL A   1      46.119  28.522  41.064  1.00  0.00     0.023 A 
ATOM     92  C   UNL A   1      45.109  28.283  42.019  1.00  0.00     0.012 A 
ATOM     93  C   UNL A   1      47.340  29.087  41.482  1.00  0.00     0.148 A 
ATOM     94  C   UNL A   1      45.290  28.654  43.351  1.00  0.00     0.002 A 
ATOM     95  C   UNL A   1      47.536  29.401  42.822  1.00  0.00     0.091 A 
ATOM     96  F   UNL A   1      48.287  29.323  40.561  1.00  0.00    -0.205 F 
ATOM     97  C   UNL A   1      46.505  29.203  43.755  1.00  0.00     0.022 A 
BRANCH  95  98
ATOM     98  S   UNL A   1      49.104  30.013  43.445  1.00  0.00     0.127 S 
ATOM     99  O   UNL A   1      49.980  28.862  43.231  1.00  0.00    -0.237 OA
ATOM    100  O   UNL A   1      49.367  31.150  42.561  1.00  0.00    -0.237 OA
ATOM    101  O   UNL A   1      48.871  30.374  44.836  1.00  0.00    -0.744 OA
ENDBRANCH  95  98
ENDBRANCH  68  91
ENDBRANCH  42  43
ENDBRANCH  35  37
ENDBRANCH  34  35
ENDBRANCH  33  34
ENDBRANCH  32  33
ENDBRANCH  31  32
ENDBRANCH  30  31
ENDBRANCH  29  30
ENDBRANCH  28  29
ENDBRANCH  27  28
ENDBRANCH   1  27
TORSDOF 29
ENDMDL
MODEL 3
REMARK VINA RESULT:      -6.9      3.393      4.889
REMARK SMILES O=C(COc1cccc(C(=O)OCCOCCOCCOCCOC(=O)c2ccc(-c3c4nc(c(-c5cccc(S(=O)(=O)[O-])c5F)c5ccc([nH]5)c(-c5cccc(S(=O)(=O)[O-])c5F)c5nc(c(-c6cccc(S(=O)(=O)[O-])c6F)c6ccc3[nH]6)C=C5)C=C4)cc2)c1)NCCc1cccs1
REMARK SMILES IDX 16 1 15 2 14 3 13 4 12 5 10 6 11 7 9 8 5 9 6 10 90 11 7 12
REMARK SMILES IDX 8 13 4 14 3 15 2 16 1 17 91 18 92 20 93 21 94 22 95 23 98 24
REMARK SMILES IDX 96 25 97 26 17 27 18 28 19 29 20 30 21 31 22 32 23 33 24 34
REMARK SMILES IDX 25 35 26 36 27 37 28 38 89 39 29 40 88 41 30 42 31 43 32 44
REMARK SMILES IDX 82 45 33 46 87 47 81 48 83 49 34 50 86 51 80 52 79 53 35 55
REMARK SMILES IDX 67 56 47 57 66 58 48 59 51 60 65 61 84 62 49 63 50 64 64 66
REMARK SMILES IDX 85 67 52 68 36 69 37 70 45 71 38 72 40 73 46 74 39 75 41 76
REMARK SMILES IDX 42 77 43 78 44 79 68 80 69 81 77 82 70 83 72 84 78 85 71 86
REMARK SMILES IDX 73 87 74 88 75 89 76 90 53 91 54 92 62 93 55 94 57 95 63 96
REMARK SMILES IDX 56 97 58 98 59 99 60 100 61 101
REMARK H PARENT 91 19 83 54 51 65
REMARK Flexibility Score: inf
ROOT
ATOM      1  C   UNL A   1      42.529  19.625  26.438  1.00  0.00     0.188 C 
ENDROOT
BRANCH   1   2
ATOM      2  O   UNL A   1      41.889  20.877  26.591  1.00  0.00    -0.376 OA
BRANCH   2   3
ATOM      3  C   UNL A   1      40.478  20.946  26.644  1.00  0.00     0.202 C 
BRANCH   3   4
ATOM      4  C   UNL A   1      39.820  22.319  26.813  1.00  0.00     0.261 C 
BRANCH   4   5
ATOM      5  O   UNL A   1      38.768  22.617  25.892  1.00  0.00    -0.460 OA
BRANCH   5   6
ATOM      6  C   UNL A   1      37.957  23.668  26.148  1.00  0.00     0.338 C 
ATOM      7  O   UNL A   1      38.254  24.702  26.724  1.00  0.00    -0.246 OA
BRANCH   6   8
ATOM      8  C   UNL A   1      36.704  23.436  25.385  1.00  0.00     0.063 A 
ATOM      9  C   UNL A   1      34.404  22.656  25.356  1.00  0.00     0.120 A 
ATOM     10  C   UNL A   1      34.457  22.616  23.960  1.00  0.00     0.046 A 
ATOM     11  C   UNL A   1      35.532  23.069  26.063  1.00  0.00     0.062 A 
ATOM     12  C   UNL A   1      35.612  23.012  23.278  1.00  0.00     0.005 A 
ATOM     13  C   UNL A   1      36.739  23.427  23.988  1.00  0.00     0.016 A 
BRANCH   9  14
ATOM     14  O   UNL A   1      33.253  22.181  25.926  1.00  0.00    -0.484 OA
BRANCH  14  15
ATOM     15  C   UNL A   1      32.629  23.022  26.896  1.00  0.00     0.329 C 
BRANCH  15  16
ATOM     16  C   UNL A   1      31.788  24.185  26.360  1.00  0.00     0.257 C 
ATOM     17  O   UNL A   1      31.501  25.147  27.067  1.00  0.00    -0.271 OA
ATOM     18  N   UNL A   1      31.339  24.012  25.073  1.00  0.00    -0.353 N 
ATOM     19  H   UNL A   1      31.711  23.271  24.541  1.00  0.00     0.163 HD
BRANCH  18  20
ATOM     20  C   UNL A   1      30.341  24.874  24.463  1.00  0.00     0.121 C 
BRANCH  20  21
ATOM     21  C   UNL A   1      30.861  25.660  23.260  1.00  0.00     0.068 C 
BRANCH  21  22
ATOM     22  C   UNL A   1      30.705  27.153  23.404  1.00  0.00     0.006 A 
ATOM     23  C   UNL A   1      30.035  28.052  22.594  1.00  0.00     0.015 A 
ATOM     24  S   UNL A   1      31.402  27.937  24.761  1.00  0.00    -0.149 S 
ATOM     25  C   UNL A   1      30.128  29.391  23.077  1.00  0.00     0.012 A 
ATOM     26  C   UNL A   1      30.835  29.466  24.254  1.00  0.00     0.065 A 
ENDBRANCH  21  22
ENDBRANCH  20  21
ENDBRANCH  18  20
ENDBRANCH  15  16
ENDBRANCH  14  15
ENDBRANCH   9  14
ENDBRANCH   6   8
ENDBRANCH   5   6
ENDBRANCH   4   5
ENDBRANCH   3   4
ENDBRANCH   2   3
ENDBRANCH   1   2
BRANCH   1  27
ATOM     27  C   UNL A   1      43.523  19.545  25.253  1.00  0.00     0.188 C 
BRANCH  27  28
ATOM     28  O   UNL A   1      44.022  20.707  24.600  1.00  0.00    -0.377 OA
BRANCH  28  29
ATOM     29  C   UNL A   1      45.101  21.440  25.168  1.00  0.00     0.188 C 
BRANCH  29  30
ATOM     30  C   UNL A   1      45.708  22.617  24.375  1.00  0.00     0.188 C 
BRANCH  30  31
ATOM     31  O   UNL A   1      46.663  23.374  25.103  1.00  0.00    -0.376 OA
BRANCH  31  32
ATOM     32  C   UNL A   1      46.529  24.783  25.094  1.00  0.00     0.202 C 
BRANCH  32  33
ATOM     33  C   UNL A   1      45.110  25.368  25.165  1.00  0.00     0.261 C 
BRANCH  33  34
ATOM     34  O   UNL A   1      44.562  25.558  26.478  1.00  0.00    -0.460 OA
BRANCH  34  35
ATOM     35  C   UNL A   1      44.475  26.829  26.924  1.00  0.00     0.338 C 
ATOM     36  O   UNL A   1      43.934  27.766  26.361  1.00  0.00    -0.246 OA
BRANCH  35  37
ATOM     37  C   UNL A   1      44.970  26.856  28.314  1.00  0.00     0.060 A 
ATOM     38  C   UNL A   1      44.417  25.964  29.243  1.00  0.00     0.016 A 
ATOM     39  C   UNL A   1      45.964  27.758  28.701  1.00  0.00     0.016 A 
ATOM     40  C   UNL A   1      44.813  26.017  30.576  1.00  0.00     0.010 A 
ATOM     41  C   UNL A   1      46.347  27.823  30.043  1.00  0.00     0.010 A 
ATOM     42  C   UNL A   1      45.731  26.989  30.993  1.00  0.00    -0.014 A 
BRANCH  42  43
ATOM     43  C   UNL A   1      45.849  27.273  32.443  1.00  0.00     0.031 A 
ATOM     44  C   UNL A   1      46.893  26.529  33.232  1.00  0.00     0.074 A 
ATOM     45  C   UNL A   1      45.092  28.211  33.037  1.00  0.00     0.049 A 
ATOM     46  N   UNL A   1      47.221  26.644  34.491  1.00  0.00    -0.248 NA
ATOM     47  C   UNL A   1      47.676  25.520  32.498  1.00  0.00     0.031 C 
ATOM     48  C   UNL A   1      44.057  29.005  32.381  1.00  0.00     0.029 A 
ATOM     49  N   UNL A   1      45.078  28.643  34.340  1.00  0.00    -0.354 N 
ATOM     50  C   UNL A   1      48.224  25.705  34.708  1.00  0.00     0.074 A 
ATOM     51  C   UNL A   1      48.440  25.017  33.455  1.00  0.00     0.031 C 
ATOM     52  C   UNL A   1      43.492  29.818  33.291  1.00  0.00     0.029 A 
ATOM     53  C   UNL A   1      44.112  29.586  34.595  1.00  0.00     0.049 A 
ATOM     54  H   UNL A   1      45.701  28.310  35.025  1.00  0.00     0.167 HD
ATOM     55  C   UNL A   1      48.915  25.446  35.842  1.00  0.00     0.034 A 
ATOM     56  C   UNL A   1      43.761  30.179  35.753  1.00  0.00     0.034 A 
ATOM     57  C   UNL A   1      48.705  26.136  37.087  1.00  0.00     0.049 A 
ATOM     58  C   UNL A   1      44.531  29.861  37.008  1.00  0.00     0.074 A 
ATOM     59  C   UNL A   1      49.381  25.975  38.284  1.00  0.00     0.029 A 
ATOM     60  N   UNL A   1      47.734  27.101  37.301  1.00  0.00    -0.354 N 
ATOM     61  N   UNL A   1      45.550  29.052  37.173  1.00  0.00    -0.248 NA
ATOM     62  C   UNL A   1      44.129  30.573  38.230  1.00  0.00     0.031 C 
ATOM     63  C   UNL A   1      48.789  26.815  39.234  1.00  0.00     0.029 A 
ATOM     64  C   UNL A   1      47.782  27.538  38.615  1.00  0.00     0.049 A 
ATOM     65  H   UNL A   1      47.104  27.429  36.621  1.00  0.00     0.167 HD
ATOM     66  C   UNL A   1      45.936  29.187  38.503  1.00  0.00     0.074 A 
ATOM     67  C   UNL A   1      45.053  30.174  39.092  1.00  0.00     0.031 C 
ATOM     68  C   UNL A   1      46.925  28.549  39.179  1.00  0.00     0.034 A 
BRANCH  55  69
ATOM     69  C   UNL A   1      49.962  24.364  35.787  1.00  0.00     0.023 A 
ATOM     70  C   UNL A   1      51.315  24.698  35.573  1.00  0.00     0.012 A 
ATOM     71  C   UNL A   1      49.607  23.014  35.975  1.00  0.00     0.148 A 
ATOM     72  C   UNL A   1      52.291  23.704  35.506  1.00  0.00     0.002 A 
ATOM     73  C   UNL A   1      50.592  22.033  35.960  1.00  0.00     0.091 A 
ATOM     74  F   UNL A   1      48.313  22.712  36.152  1.00  0.00    -0.205 F 
ATOM     75  C   UNL A   1      51.932  22.375  35.710  1.00  0.00     0.022 A 
BRANCH  73  76
ATOM     76  S   UNL A   1      50.241  20.304  36.294  1.00  0.00     0.127 S 
ATOM     77  O   UNL A   1      48.915  20.385  36.904  1.00  0.00    -0.237 OA
ATOM     78  O   UNL A   1      50.261  19.724  34.951  1.00  0.00    -0.237 OA
ATOM     79  O   UNL A   1      51.305  19.841  37.174  1.00  0.00    -0.744 OA
ENDBRANCH  73  76
ENDBRANCH  55  69
BRANCH  56  80
ATOM     80  C   UNL A   1      42.639  31.160  35.776  1.00  0.00     0.023 A 
ATOM     81  C   UNL A   1      42.910  32.540  35.702  1.00  0.00     0.012 A 
ATOM     82  C   UNL A   1      41.303  30.724  35.863  1.00  0.00     0.148 A 
ATOM     83  C   UNL A   1      41.871  33.471  35.749  1.00  0.00     0.002 A 
ATOM     84  C   UNL A   1      40.271  31.653  35.850  1.00  0.00     0.091 A 
ATOM     85  F   UNL A   1      41.070  29.407  35.946  1.00  0.00    -0.205 F 
ATOM     86  C   UNL A   1      40.553  33.027  35.813  1.00  0.00     0.022 A 
BRANCH  84  87
ATOM     87  S   UNL A   1      38.542  31.173  35.801  1.00  0.00     0.127 S 
ATOM     88  O   UNL A   1      37.871  32.442  36.068  1.00  0.00    -0.237 OA
ATOM     89  O   UNL A   1      38.411  30.680  34.430  1.00  0.00    -0.237 OA
ATOM     90  O   UNL A   1      38.388  30.150  36.828  1.00  0.00    -0.744 OA
ENDBRANCH  84  87
ENDBRANCH  56  80
BRANCH  68  91
ATOM     91  C   UNL A   1      47.147  28.937  40.621  1.00  0.00     0.023 A 
ATOM     92  C   UNL A   1      46.502  28.231  41.657  1.00  0.00     0.012 A 
ATOM     93  C   UNL A   1      48.030  29.985  40.949  1.00  0.00     0.148 A 
ATOM     94  C   UNL A   1      46.688  28.599  42.990  1.00  0.00     0.002 A 
ATOM     95  C   UNL A   1      48.256  30.308  42.282  1.00  0.00     0.091 A 
ATOM     96  F   UNL A   1      48.625  30.658  39.953  1.00  0.00    -0.205 F 
ATOM     97  C   UNL A   1      47.571  29.630  43.303  1.00  0.00     0.022 A 
BRANCH  95  98
ATOM     98  S   UNL A   1      49.454  31.550  42.777  1.00  0.00     0.127 S 
ATOM     99  O   UNL A   1      50.683  31.038  42.171  1.00  0.00    -0.237 OA
ATOM    100  O   UNL A   1      48.925  32.762  42.149  1.00  0.00    -0.237 OA
ATOM    101  O   UNL A   1      49.434  31.570  44.233  1.00  0.00    -0.744 OA
ENDBRANCH  95  98
ENDBRANCH  68  91
ENDBRANCH  42  43
ENDBRANCH  35  37
ENDBRANCH  34  35
ENDBRANCH  33  34
ENDBRANCH  32  33
ENDBRANCH  31  32
ENDBRANCH  30  31
ENDBRANCH  29  30
ENDBRANCH  28  29
ENDBRANCH  27  28
ENDBRANCH   1  27
TORSDOF 29
ENDMDL
