MODEL 1
REMARK VINA RESULT:      -9.8      0.000      0.000
REMARK SMILES Cc1cc(Br)cc2c1O[C@H](C(F)(F)F)C(C(=O)OCCOCCOCCOCCOC(=O)c1ccc(-c3c4nc(c(-c5cccc(S(=O)(=O)[O-])c5F)c5ccc([nH]5)c(-c5cccc(S(=O)(=O)[O-])c5F)c5nc(c(-c6cccc(S(=O)(=O)[O-])c6F)c6ccc3[nH]6)C=C5)C=C4)cc1)=C2
REMARK SMILES IDX 25 1 24 2 23 3 22 4 21 5 20 6 19 7 18 8 16 9 17 10 15 11
REMARK SMILES IDX 1 12 2 13 3 14 8 15 4 16 7 17 9 18 5 19 6 20 96 21 10 22
REMARK SMILES IDX 11 23 12 24 13 25 14 26 26 27 27 28 28 29 29 30 30 31 31 32
REMARK SMILES IDX 32 33 33 34 34 35 95 36 35 37 94 38 36 39 37 40 38 41 88 42
REMARK SMILES IDX 39 43 93 44 87 45 89 46 40 47 92 48 86 49 85 50 41 52 73 53
REMARK SMILES IDX 53 54 72 55 54 56 57 57 71 58 90 59 55 60 56 61 70 63 91 64
REMARK SMILES IDX 58 65 42 66 43 67 51 68 44 69 46 70 52 71 45 72 47 73 48 74
REMARK SMILES IDX 49 75 50 76 74 77 75 78 83 79 76 80 78 81 84 82 77 83 79 84
REMARK SMILES IDX 80 85 81 86 82 87 59 88 60 89 68 90 61 91 63 92 69 93 62 94
REMARK SMILES IDX 64 95 65 96 66 97 67 98
REMARK H PARENT 89 51 57 62
REMARK Flexibility Score: inf
ROOT
ATOM      1  C   UNL A   1      38.377  21.066  25.364  1.00  0.00     0.188 C 
ENDROOT
BRANCH   1   2
ATOM      2  O   UNL A   1      37.407  21.839  24.655  1.00  0.00    -0.377 OA
BRANCH   2   3
ATOM      3  C   UNL A   1      36.234  22.229  25.348  1.00  0.00     0.188 C 
BRANCH   3   4
ATOM      4  C   UNL A   1      34.960  21.562  24.796  1.00  0.00     0.188 C 
BRANCH   4   5
ATOM      5  O   UNL A   1      34.052  21.141  25.796  1.00  0.00    -0.376 OA
BRANCH   5   6
ATOM      6  C   UNL A   1      32.699  20.837  25.495  1.00  0.00     0.202 C 
BRANCH   6   7
ATOM      7  C   UNL A   1      31.564  21.873  25.367  1.00  0.00     0.261 C 
BRANCH   7   8
ATOM      8  O   UNL A   1      31.924  23.253  25.355  1.00  0.00    -0.460 OA
BRANCH   8   9
ATOM      9  C   UNL A   1      32.052  23.862  24.164  1.00  0.00     0.338 C 
ATOM     10  O   UNL A   1      32.223  23.330  23.081  1.00  0.00    -0.246 OA
BRANCH   9  11
ATOM     11  C   UNL A   1      31.751  25.296  24.368  1.00  0.00     0.087 C 
ATOM     12  C   UNL A   1      31.782  30.224  25.754  1.00  0.00     0.048 C 
ATOM     13  C   UNL A   1      30.991  29.384  24.789  1.00  0.00    -0.007 A 
ATOM     14  C   UNL A   1      30.112  30.007  23.889  1.00  0.00     0.023 A 
ATOM     15  C   UNL A   1      31.191  27.997  24.703  1.00  0.00     0.130 A 
ATOM     16  C   UNL A   1      29.419  29.247  22.949  1.00  0.00     0.019 A 
ATOM     17  C   UNL A   1      30.530  27.249  23.723  1.00  0.00     0.019 A 
ATOM     18  O   UNL A   1      32.060  27.445  25.600  1.00  0.00    -0.475 OA
ATOM     19  Br  UNL A   1      28.239  30.097  21.740  1.00  0.00    -0.051 Br
ATOM     20  C   UNL A   1      29.617  27.871  22.865  1.00  0.00     0.027 A 
ATOM     21  C   UNL A   1      30.846  25.843  23.547  1.00  0.00     0.027 C 
ATOM     22  C   UNL A   1      32.400  26.034  25.513  1.00  0.00     0.316 C 
BRANCH  22  23
ATOM     23  C   UNL A   1      33.930  25.923  25.475  1.00  0.00     0.430 C 
ATOM     24  F   UNL A   1      34.516  26.993  26.058  1.00  0.00    -0.167 F 
ATOM     25  F   UNL A   1      34.375  24.820  26.117  1.00  0.00    -0.167 F 
ATOM     26  F   UNL A   1      34.383  25.857  24.199  1.00  0.00    -0.167 F 
ENDBRANCH  22  23
ENDBRANCH   9  11
ENDBRANCH   8   9
ENDBRANCH   7   8
ENDBRANCH   6   7
ENDBRANCH   5   6
ENDBRANCH   4   5
ENDBRANCH   3   4
ENDBRANCH   2   3
ENDBRANCH   1   2
BRANCH   1  27
ATOM     27  C   UNL A   1      38.444  19.525  25.231  1.00  0.00     0.188 C 
BRANCH  27  28
ATOM     28  O   UNL A   1      39.697  18.955  25.595  1.00  0.00    -0.376 OA
BRANCH  28  29
ATOM     29  C   UNL A   1      40.717  19.832  26.047  1.00  0.00     0.202 C 
BRANCH  29  30
ATOM     30  C   UNL A   1      42.140  19.261  26.043  1.00  0.00     0.261 C 
BRANCH  30  31
ATOM     31  O   UNL A   1      42.864  19.407  24.814  1.00  0.00    -0.460 OA
BRANCH  31  32
ATOM     32  C   UNL A   1      44.115  19.911  24.884  1.00  0.00     0.338 C 
ATOM     33  O   UNL A   1      45.138  19.402  24.455  1.00  0.00    -0.246 OA
BRANCH  32  34
ATOM     34  C   UNL A   1      44.010  21.292  25.394  1.00  0.00     0.060 A 
ATOM     35  C   UNL A   1      43.678  22.323  24.505  1.00  0.00     0.016 A 
ATOM     36  C   UNL A   1      44.219  21.562  26.749  1.00  0.00     0.016 A 
ATOM     37  C   UNL A   1      43.591  23.637  24.965  1.00  0.00     0.010 A 
ATOM     38  C   UNL A   1      44.156  22.881  27.202  1.00  0.00     0.010 A 
ATOM     39  C   UNL A   1      43.878  23.927  26.305  1.00  0.00    -0.014 A 
BRANCH  39  40
ATOM     40  C   UNL A   1      44.108  25.332  26.716  1.00  0.00     0.031 A 
ATOM     41  C   UNL A   1      45.494  25.895  26.555  1.00  0.00     0.074 A 
ATOM     42  C   UNL A   1      43.116  26.096  27.210  1.00  0.00     0.049 A 
ATOM     43  N   UNL A   1      45.950  27.076  26.872  1.00  0.00    -0.248 NA
ATOM     44  C   UNL A   1      46.501  25.002  25.953  1.00  0.00     0.031 C 
ATOM     45  C   UNL A   1      41.730  25.671  27.390  1.00  0.00     0.029 A 
ATOM     46  N   UNL A   1      43.137  27.390  27.669  1.00  0.00    -0.354 N 
ATOM     47  C   UNL A   1      47.296  27.065  26.526  1.00  0.00     0.074 A 
ATOM     48  C   UNL A   1      47.591  25.755  25.992  1.00  0.00     0.031 C 
ATOM     49  C   UNL A   1      41.035  26.682  27.941  1.00  0.00     0.029 A 
ATOM     50  C   UNL A   1      41.931  27.814  28.178  1.00  0.00     0.049 A 
ATOM     51  H   UNL A   1      43.938  27.962  27.636  1.00  0.00     0.167 HD
ATOM     52  C   UNL A   1      48.202  28.064  26.627  1.00  0.00     0.034 A 
ATOM     53  C   UNL A   1      41.599  28.973  28.782  1.00  0.00     0.034 A 
ATOM     54  C   UNL A   1      47.904  29.370  27.144  1.00  0.00     0.049 A 
ATOM     55  C   UNL A   1      42.645  30.052  28.932  1.00  0.00     0.074 A 
ATOM     56  C   UNL A   1      48.752  30.457  27.262  1.00  0.00     0.029 A 
ATOM     57  N   UNL A   1      46.673  29.765  27.639  1.00  0.00    -0.354 N 
ATOM     58  N   UNL A   1      43.887  30.064  28.510  1.00  0.00    -0.248 NA
ATOM     59  C   UNL A   1      42.237  31.288  29.617  1.00  0.00     0.031 C 
ATOM     60  C   UNL A   1      48.040  31.500  27.858  1.00  0.00     0.029 A 
ATOM     61  C   UNL A   1      46.740  31.075  28.077  1.00  0.00     0.049 A 
ATOM     62  H   UNL A   1      45.869  29.197  27.674  1.00  0.00     0.167 HD
ATOM     63  C   UNL A   1      44.397  31.314  28.849  1.00  0.00     0.074 A 
ATOM     64  C   UNL A   1      43.322  32.042  29.489  1.00  0.00     0.031 C 
ATOM     65  C   UNL A   1      45.646  31.809  28.664  1.00  0.00     0.034 A 
BRANCH  52  66
ATOM     66  C   UNL A   1      49.601  27.800  26.136  1.00  0.00     0.023 A 
ATOM     67  C   UNL A   1      49.877  27.876  24.756  1.00  0.00     0.012 A 
ATOM     68  C   UNL A   1      50.653  27.576  27.044  1.00  0.00     0.148 A 
ATOM     69  C   UNL A   1      51.180  27.717  24.286  1.00  0.00     0.002 A 
ATOM     70  C   UNL A   1      51.955  27.467  26.571  1.00  0.00     0.091 A 
ATOM     71  F   UNL A   1      50.362  27.485  28.349  1.00  0.00    -0.205 F 
ATOM     72  C   UNL A   1      52.219  27.527  25.193  1.00  0.00     0.022 A 
BRANCH  70  73
ATOM     73  S   UNL A   1      53.374  27.308  27.660  1.00  0.00     0.127 S 
ATOM     74  O   UNL A   1      54.454  27.070  26.704  1.00  0.00    -0.237 OA
ATOM     75  O   UNL A   1      53.410  28.620  28.306  1.00  0.00    -0.237 OA
ATOM     76  O   UNL A   1      53.080  26.195  28.551  1.00  0.00    -0.744 OA
ENDBRANCH  70  73
ENDBRANCH  52  66
BRANCH  53  77
ATOM     77  C   UNL A   1      40.204  29.194  29.260  1.00  0.00     0.023 A 
ATOM     78  C   UNL A   1      39.203  29.559  28.338  1.00  0.00     0.012 A 
ATOM     79  C   UNL A   1      39.857  29.032  30.616  1.00  0.00     0.148 A 
ATOM     80  C   UNL A   1      37.891  29.781  28.760  1.00  0.00     0.002 A 
ATOM     81  C   UNL A   1      38.536  29.196  31.019  1.00  0.00     0.091 A 
ATOM     82  F   UNL A   1      40.826  28.706  31.484  1.00  0.00    -0.205 F 
ATOM     83  C   UNL A   1      37.555  29.588  30.096  1.00  0.00     0.022 A 
BRANCH  81  84
ATOM     84  S   UNL A   1      37.984  28.842  32.692  1.00  0.00     0.127 S 
ATOM     85  O   UNL A   1      36.629  29.385  32.683  1.00  0.00    -0.237 OA
ATOM     86  O   UNL A   1      38.065  27.381  32.728  1.00  0.00    -0.237 OA
ATOM     87  O   UNL A   1      38.928  29.519  33.571  1.00  0.00    -0.744 OA
ENDBRANCH  81  84
ENDBRANCH  53  77
BRANCH  65  88
ATOM     88  C   UNL A   1      45.937  33.213  29.135  1.00  0.00     0.023 A 
ATOM     89  C   UNL A   1      46.559  33.415  30.381  1.00  0.00     0.012 A 
ATOM     90  C   UNL A   1      45.707  34.318  28.289  1.00  0.00     0.148 A 
ATOM     91  C   UNL A   1      46.927  34.696  30.791  1.00  0.00     0.002 A 
ATOM     92  C   UNL A   1      46.126  35.584  28.680  1.00  0.00     0.091 A 
ATOM     93  F   UNL A   1      45.103  34.106  27.111  1.00  0.00    -0.205 F 
ATOM     94  C   UNL A   1      46.724  35.777  29.936  1.00  0.00     0.022 A 
BRANCH  92  95
ATOM     95  S   UNL A   1      46.010  37.018  27.605  1.00  0.00     0.127 S 
ATOM     96  O   UNL A   1      45.960  38.114  28.572  1.00  0.00    -0.237 OA
ATOM     97  O   UNL A   1      47.256  36.935  26.843  1.00  0.00    -0.237 OA
ATOM     98  O   UNL A   1      44.801  36.832  26.813  1.00  0.00    -0.744 OA
ENDBRANCH  92  95
ENDBRANCH  65  88
ENDBRANCH  39  40
ENDBRANCH  32  34
ENDBRANCH  31  32
ENDBRANCH  30  31
ENDBRANCH  29  30
ENDBRANCH  28  29
ENDBRANCH  27  28
ENDBRANCH   1  27
TORSDOF 24
ENDMDL
MODEL 2
REMARK VINA RESULT:      -9.7      2.650      3.499
REMARK SMILES Cc1cc(Br)cc2c1O[C@H](C(F)(F)F)C(C(=O)OCCOCCOCCOCCOC(=O)c1ccc(-c3c4nc(c(-c5cccc(S(=O)(=O)[O-])c5F)c5ccc([nH]5)c(-c5cccc(S(=O)(=O)[O-])c5F)c5nc(c(-c6cccc(S(=O)(=O)[O-])c6F)c6ccc3[nH]6)C=C5)C=C4)cc1)=C2
REMARK SMILES IDX 25 1 24 2 23 3 22 4 21 5 20 6 19 7 18 8 16 9 17 10 15 11
REMARK SMILES IDX 1 12 2 13 3 14 8 15 4 16 7 17 9 18 5 19 6 20 96 21 10 22
REMARK SMILES IDX 11 23 12 24 13 25 14 26 26 27 27 28 28 29 29 30 30 31 31 32
REMARK SMILES IDX 32 33 33 34 34 35 95 36 35 37 94 38 36 39 37 40 38 41 88 42
REMARK SMILES IDX 39 43 93 44 87 45 89 46 40 47 92 48 86 49 85 50 41 52 73 53
REMARK SMILES IDX 53 54 72 55 54 56 57 57 71 58 90 59 55 60 56 61 70 63 91 64
REMARK SMILES IDX 58 65 42 66 43 67 51 68 44 69 46 70 52 71 45 72 47 73 48 74
REMARK SMILES IDX 49 75 50 76 74 77 75 78 83 79 76 80 78 81 84 82 77 83 79 84
REMARK SMILES IDX 80 85 81 86 82 87 59 88 60 89 68 90 61 91 63 92 69 93 62 94
REMARK SMILES IDX 64 95 65 96 66 97 67 98
REMARK H PARENT 89 51 57 62
REMARK Flexibility Score: inf
ROOT
ATOM      1  C   UNL A   1      36.438  22.325  25.660  1.00  0.00     0.188 C 
ENDROOT
BRANCH   1   2
ATOM      2  O   UNL A   1      35.323  23.074  26.147  1.00  0.00    -0.377 OA
BRANCH   2   3
ATOM      3  C   UNL A   1      34.156  23.126  25.343  1.00  0.00     0.188 C 
BRANCH   3   4
ATOM      4  C   UNL A   1      32.999  23.891  26.014  1.00  0.00     0.188 C 
BRANCH   4   5
ATOM      5  O   UNL A   1      33.361  25.171  26.498  1.00  0.00    -0.376 OA
BRANCH   5   6
ATOM      6  C   UNL A   1      34.035  26.114  25.678  1.00  0.00     0.202 C 
BRANCH   6   7
ATOM      7  C   UNL A   1      34.134  26.045  24.141  1.00  0.00     0.261 C 
BRANCH   7   8
ATOM      8  O   UNL A   1      33.653  27.161  23.395  1.00  0.00    -0.460 OA
BRANCH   8   9
ATOM      9  C   UNL A   1      32.957  26.917  22.272  1.00  0.00     0.338 C 
ATOM     10  O   UNL A   1      33.295  26.212  21.337  1.00  0.00    -0.246 OA
BRANCH   9  11
ATOM     11  C   UNL A   1      31.610  27.501  22.452  1.00  0.00     0.087 C 
ATOM     12  C   UNL A   1      26.675  28.359  23.509  1.00  0.00     0.048 C 
ATOM     13  C   UNL A   1      27.856  29.209  23.129  1.00  0.00    -0.007 A 
ATOM     14  C   UNL A   1      27.747  30.607  23.178  1.00  0.00     0.023 A 
ATOM     15  C   UNL A   1      29.099  28.630  22.824  1.00  0.00     0.130 A 
ATOM     16  C   UNL A   1      28.851  31.407  22.888  1.00  0.00     0.019 A 
ATOM     17  C   UNL A   1      30.215  29.439  22.584  1.00  0.00     0.019 A 
ATOM     18  O   UNL A   1      29.149  27.266  22.796  1.00  0.00    -0.475 OA
ATOM     19  Br  UNL A   1      28.691  33.290  22.958  1.00  0.00    -0.051 Br
ATOM     20  C   UNL A   1      30.082  30.831  22.584  1.00  0.00     0.027 A 
ATOM     21  C   UNL A   1      31.524  28.836  22.410  1.00  0.00     0.027 C 
ATOM     22  C   UNL A   1      30.419  26.587  22.589  1.00  0.00     0.316 C 
BRANCH  22  23
ATOM     23  C   UNL A   1      30.598  25.575  23.729  1.00  0.00     0.430 C 
ATOM     24  F   UNL A   1      29.457  24.888  23.962  1.00  0.00    -0.167 F 
ATOM     25  F   UNL A   1      31.565  24.670  23.457  1.00  0.00    -0.167 F 
ATOM     26  F   UNL A   1      30.941  26.196  24.884  1.00  0.00    -0.167 F 
ENDBRANCH  22  23
ENDBRANCH   9  11
ENDBRANCH   8   9
ENDBRANCH   7   8
ENDBRANCH   6   7
ENDBRANCH   5   6
ENDBRANCH   4   5
ENDBRANCH   3   4
ENDBRANCH   2   3
ENDBRANCH   1   2
BRANCH   1  27
ATOM     27  C   UNL A   1      36.306  20.835  25.262  1.00  0.00     0.188 C 
BRANCH  27  28
ATOM     28  O   UNL A   1      37.415  20.320  24.532  1.00  0.00    -0.376 OA
BRANCH  28  29
ATOM     29  C   UNL A   1      38.296  19.433  25.203  1.00  0.00     0.202 C 
BRANCH  29  30
ATOM     30  C   UNL A   1      39.717  19.957  25.443  1.00  0.00     0.261 C 
BRANCH  30  31
ATOM     31  O   UNL A   1      40.048  20.255  26.806  1.00  0.00    -0.460 OA
BRANCH  31  32
ATOM     32  C   UNL A   1      41.341  20.519  27.090  1.00  0.00     0.338 C 
ATOM     33  O   UNL A   1      42.300  19.791  26.893  1.00  0.00    -0.246 OA
BRANCH  32  34
ATOM     34  C   UNL A   1      41.426  21.935  27.499  1.00  0.00     0.060 A 
ATOM     35  C   UNL A   1      40.752  22.904  26.743  1.00  0.00     0.016 A 
ATOM     36  C   UNL A   1      42.153  22.300  28.634  1.00  0.00     0.016 A 
ATOM     37  C   UNL A   1      40.833  24.248  27.103  1.00  0.00     0.010 A 
ATOM     38  C   UNL A   1      42.254  23.650  28.978  1.00  0.00     0.010 A 
ATOM     39  C   UNL A   1      41.625  24.631  28.193  1.00  0.00    -0.014 A 
BRANCH  39  40
ATOM     40  C   UNL A   1      41.978  26.059  28.376  1.00  0.00     0.031 A 
ATOM     41  C   UNL A   1      43.354  26.503  27.959  1.00  0.00     0.074 A 
ATOM     42  C   UNL A   1      41.103  26.944  28.888  1.00  0.00     0.049 A 
ATOM     43  N   UNL A   1      43.905  27.683  28.050  1.00  0.00    -0.248 NA
ATOM     44  C   UNL A   1      44.223  25.476  27.357  1.00  0.00     0.031 C 
ATOM     45  C   UNL A   1      39.736  26.638  29.304  1.00  0.00     0.029 A 
ATOM     46  N   UNL A   1      41.249  28.282  29.159  1.00  0.00    -0.354 N 
ATOM     47  C   UNL A   1      45.188  27.538  27.536  1.00  0.00     0.074 A 
ATOM     48  C   UNL A   1      45.343  26.155  27.150  1.00  0.00     0.031 C 
ATOM     49  C   UNL A   1      39.173  27.755  29.798  1.00  0.00     0.029 A 
ATOM     50  C   UNL A   1      40.148  28.846  29.760  1.00  0.00     0.049 A 
ATOM     51  H   UNL A   1      42.064  28.790  28.944  1.00  0.00     0.167 HD
ATOM     52  C   UNL A   1      46.147  28.480  27.380  1.00  0.00     0.034 A 
ATOM     53  C   UNL A   1      39.959  30.092  30.240  1.00  0.00     0.034 A 
ATOM     54  C   UNL A   1      45.987  29.858  27.750  1.00  0.00     0.049 A 
ATOM     55  C   UNL A   1      41.066  31.110  30.103  1.00  0.00     0.074 A 
ATOM     56  C   UNL A   1      46.894  30.893  27.606  1.00  0.00     0.029 A 
ATOM     57  N   UNL A   1      44.857  30.394  28.344  1.00  0.00    -0.354 N 
ATOM     58  N   UNL A   1      42.237  30.986  29.524  1.00  0.00    -0.248 NA
ATOM     59  C   UNL A   1      40.817  32.448  30.661  1.00  0.00     0.031 C 
ATOM     60  C   UNL A   1      46.323  32.048  28.143  1.00  0.00     0.029 A 
ATOM     61  C   UNL A   1      45.047  31.743  28.587  1.00  0.00     0.049 A 
ATOM     62  H   UNL A   1      44.039  29.890  28.560  1.00  0.00     0.167 HD
ATOM     63  C   UNL A   1      42.849  32.233  29.620  1.00  0.00     0.074 A 
ATOM     64  C   UNL A   1      41.909  33.106  30.290  1.00  0.00     0.031 C 
ATOM     65  C   UNL A   1      44.082  32.616  29.207  1.00  0.00     0.034 A 
BRANCH  52  66
ATOM     66  C   UNL A   1      47.449  28.064  26.750  1.00  0.00     0.023 A 
ATOM     67  C   UNL A   1      48.538  27.714  27.575  1.00  0.00     0.012 A 
ATOM     68  C   UNL A   1      47.563  27.925  25.354  1.00  0.00     0.148 A 
ATOM     69  C   UNL A   1      49.727  27.247  27.016  1.00  0.00     0.002 A 
ATOM     70  C   UNL A   1      48.734  27.414  24.808  1.00  0.00     0.091 A 
ATOM     71  F   UNL A   1      46.523  28.286  24.590  1.00  0.00    -0.205 F 
ATOM     72  C   UNL A   1      49.820  27.084  25.637  1.00  0.00     0.022 A 
BRANCH  70  73
ATOM     73  S   UNL A   1      48.925  27.082  23.054  1.00  0.00     0.127 S 
ATOM     74  O   UNL A   1      50.379  26.990  22.928  1.00  0.00    -0.237 OA
ATOM     75  O   UNL A   1      48.218  25.810  22.906  1.00  0.00    -0.237 OA
ATOM     76  O   UNL A   1      48.314  28.207  22.360  1.00  0.00    -0.744 OA
ENDBRANCH  70  73
ENDBRANCH  52  66
BRANCH  53  77
ATOM     77  C   UNL A   1      38.656  30.465  30.862  1.00  0.00     0.023 A 
ATOM     78  C   UNL A   1      38.427  30.174  32.222  1.00  0.00     0.012 A 
ATOM     79  C   UNL A   1      37.649  31.118  30.125  1.00  0.00     0.148 A 
ATOM     80  C   UNL A   1      37.213  30.503  32.827  1.00  0.00     0.002 A 
ATOM     81  C   UNL A   1      36.466  31.497  30.749  1.00  0.00     0.091 A 
ATOM     82  F   UNL A   1      37.875  31.368  28.827  1.00  0.00    -0.205 F 
ATOM     83  C   UNL A   1      36.238  31.175  32.096  1.00  0.00     0.022 A 
BRANCH  81  84
ATOM     84  S   UNL A   1      35.209  32.481  29.924  1.00  0.00     0.127 S 
ATOM     85  O   UNL A   1      35.969  33.659  29.516  1.00  0.00    -0.237 OA
ATOM     86  O   UNL A   1      34.808  31.595  28.831  1.00  0.00    -0.237 OA
ATOM     87  O   UNL A   1      34.173  32.714  30.921  1.00  0.00    -0.744 OA
ENDBRANCH  81  84
ENDBRANCH  53  77
BRANCH  65  88
ATOM     88  C   UNL A   1      44.503  34.046  29.441  1.00  0.00     0.023 A 
ATOM     89  C   UNL A   1      45.127  34.401  30.652  1.00  0.00     0.012 A 
ATOM     90  C   UNL A   1      44.392  35.006  28.413  1.00  0.00     0.148 A 
ATOM     91  C   UNL A   1      45.613  35.693  30.848  1.00  0.00     0.002 A 
ATOM     92  C   UNL A   1      44.928  36.276  28.595  1.00  0.00     0.091 A 
ATOM     93  F   UNL A   1      43.785  34.653  27.271  1.00  0.00    -0.205 F 
ATOM     94  C   UNL A   1      45.526  36.624  29.817  1.00  0.00     0.022 A 
BRANCH  92  95
ATOM     95  S   UNL A   1      44.965  37.508  27.288  1.00  0.00     0.127 S 
ATOM     96  O   UNL A   1      45.765  38.568  27.900  1.00  0.00    -0.237 OA
ATOM     97  O   UNL A   1      45.634  36.788  26.204  1.00  0.00    -0.237 OA
ATOM     98  O   UNL A   1      43.575  37.854  27.020  1.00  0.00    -0.744 OA
ENDBRANCH  92  95
ENDBRANCH  65  88
ENDBRANCH  39  40
ENDBRANCH  32  34
ENDBRANCH  31  32
ENDBRANCH  30  31
ENDBRANCH  29  30
ENDBRANCH  28  29
ENDBRANCH  27  28
ENDBRANCH   1  27
TORSDOF 24
ENDMDL
MODEL 3
REMARK VINA RESULT:      -9.5      2.016      2.459
REMARK SMILES Cc1cc(Br)cc2c1O[C@H](C(F)(F)F)C(C(=O)OCCOCCOCCOCCOC(=O)c1ccc(-c3c4nc(c(-c5cccc(S(=O)(=O)[O-])c5F)c5ccc([nH]5)c(-c5cccc(S(=O)(=O)[O-])c5F)c5nc(c(-c6cccc(S(=O)(=O)[O-])c6F)c6ccc3[nH]6)C=C5)C=C4)cc1)=C2
REMARK SMILES IDX 25 1 24 2 23 3 22 4 21 5 20 6 19 7 18 8 16 9 17 10 15 11
REMARK SMILES IDX 1 12 2 13 3 14 8 15 4 16 7 17 9 18 5 19 6 20 96 21 10 22
REMARK SMILES IDX 11 23 12 24 13 25 14 26 26 27 27 28 28 29 29 30 30 31 31 32
REMARK SMILES IDX 32 33 33 34 34 35 95 36 35 37 94 38 36 39 37 40 38 41 88 42
REMARK SMILES IDX 39 43 93 44 87 45 89 46 40 47 92 48 86 49 85 50 41 52 73 53
REMARK SMILES IDX 53 54 72 55 54 56 57 57 71 58 90 59 55 60 56 61 70 63 91 64
REMARK SMILES IDX 58 65 42 66 43 67 51 68 44 69 46 70 52 71 45 72 47 73 48 74
REMARK SMILES IDX 49 75 50 76 74 77 75 78 83 79 76 80 78 81 84 82 77 83 79 84
REMARK SMILES IDX 80 85 81 86 82 87 59 88 60 89 68 90 61 91 63 92 69 93 62 94
REMARK SMILES IDX 64 95 65 96 66 97 67 98
REMARK H PARENT 89 51 57 62
REMARK Flexibility Score: inf
ROOT
ATOM      1  C   UNL A   1      38.619  21.014  25.391  1.00  0.00     0.188 C 
ENDROOT
BRANCH   1   2
ATOM      2  O   UNL A   1      37.544  21.808  24.887  1.00  0.00    -0.377 OA
BRANCH   2   3
ATOM      3  C   UNL A   1      36.503  22.163  25.781  1.00  0.00     0.188 C 
BRANCH   3   4
ATOM      4  C   UNL A   1      35.219  21.338  25.567  1.00  0.00     0.188 C 
BRANCH   4   5
ATOM      5  O   UNL A   1      34.098  21.825  26.280  1.00  0.00    -0.376 OA
BRANCH   5   6
ATOM      6  C   UNL A   1      32.771  21.512  25.886  1.00  0.00     0.202 C 
BRANCH   6   7
ATOM      7  C   UNL A   1      31.764  22.513  25.285  1.00  0.00     0.261 C 
BRANCH   7   8
ATOM      8  O   UNL A   1      32.053  23.904  25.416  1.00  0.00    -0.460 OA
BRANCH   8   9
ATOM      9  C   UNL A   1      32.502  24.560  24.332  1.00  0.00     0.338 C 
ATOM     10  O   UNL A   1      32.840  24.075  23.267  1.00  0.00    -0.246 OA
BRANCH   9  11
ATOM     11  C   UNL A   1      32.328  26.007  24.590  1.00  0.00     0.087 C 
ATOM     12  C   UNL A   1      30.562  30.792  25.026  1.00  0.00     0.048 C 
ATOM     13  C   UNL A   1      31.786  30.052  25.490  1.00  0.00    -0.007 A 
ATOM     14  C   UNL A   1      32.670  30.671  26.388  1.00  0.00     0.023 A 
ATOM     15  C   UNL A   1      32.009  28.714  25.122  1.00  0.00     0.130 A 
ATOM     16  C   UNL A   1      33.775  29.975  26.875  1.00  0.00     0.019 A 
ATOM     17  C   UNL A   1      33.092  28.007  25.655  1.00  0.00     0.019 A 
ATOM     18  O   UNL A   1      31.115  28.161  24.251  1.00  0.00    -0.475 OA
ATOM     19  Br  UNL A   1      34.958  30.819  28.084  1.00  0.00    -0.051 Br
ATOM     20  C   UNL A   1      33.995  28.650  26.508  1.00  0.00     0.027 A 
ATOM     21  C   UNL A   1      33.236  26.588  25.384  1.00  0.00     0.027 C 
ATOM     22  C   UNL A   1      31.215  26.753  23.900  1.00  0.00     0.316 C 
BRANCH  22  23
ATOM     23  C   UNL A   1      29.846  26.110  24.155  1.00  0.00     0.430 C 
ATOM     24  F   UNL A   1      28.839  26.908  23.732  1.00  0.00    -0.167 F 
ATOM     25  F   UNL A   1      29.715  24.925  23.518  1.00  0.00    -0.167 F 
ATOM     26  F   UNL A   1      29.653  25.881  25.477  1.00  0.00    -0.167 F 
ENDBRANCH  22  23
ENDBRANCH   9  11
ENDBRANCH   8   9
ENDBRANCH   7   8
ENDBRANCH   6   7
ENDBRANCH   5   6
ENDBRANCH   4   5
ENDBRANCH   3   4
ENDBRANCH   2   3
ENDBRANCH   1   2
BRANCH   1  27
ATOM     27  C   UNL A   1      38.632  19.474  25.239  1.00  0.00     0.188 C 
BRANCH  27  28
ATOM     28  O   UNL A   1      39.850  18.852  25.640  1.00  0.00    -0.376 OA
BRANCH  28  29
ATOM     29  C   UNL A   1      40.919  19.692  26.045  1.00  0.00     0.202 C 
BRANCH  29  30
ATOM     30  C   UNL A   1      42.318  19.065  25.994  1.00  0.00     0.261 C 
BRANCH  30  31
ATOM     31  O   UNL A   1      42.974  19.114  24.720  1.00  0.00    -0.460 OA
BRANCH  31  32
ATOM     32  C   UNL A   1      44.238  19.586  24.688  1.00  0.00     0.338 C 
ATOM     33  O   UNL A   1      45.218  19.035  24.213  1.00  0.00    -0.246 OA
BRANCH  32  34
ATOM     34  C   UNL A   1      44.200  20.987  25.151  1.00  0.00     0.060 A 
ATOM     35  C   UNL A   1      44.060  22.013  24.206  1.00  0.00     0.016 A 
ATOM     36  C   UNL A   1      44.284  21.284  26.513  1.00  0.00     0.016 A 
ATOM     37  C   UNL A   1      44.040  23.344  24.621  1.00  0.00     0.010 A 
ATOM     38  C   UNL A   1      44.288  22.618  26.925  1.00  0.00     0.010 A 
ATOM     39  C   UNL A   1      44.203  23.653  25.978  1.00  0.00    -0.014 A 
BRANCH  39  40
ATOM     40  C   UNL A   1      44.510  25.047  26.378  1.00  0.00     0.031 A 
ATOM     41  C   UNL A   1      45.926  25.530  26.215  1.00  0.00     0.074 A 
ATOM     42  C   UNL A   1      43.562  25.868  26.865  1.00  0.00     0.049 A 
ATOM     43  N   UNL A   1      46.446  26.687  26.524  1.00  0.00    -0.248 NA
ATOM     44  C   UNL A   1      46.883  24.578  25.623  1.00  0.00     0.031 C 
ATOM     45  C   UNL A   1      42.154  25.523  27.045  1.00  0.00     0.029 A 
ATOM     46  N   UNL A   1      43.654  27.163  27.313  1.00  0.00    -0.354 N 
ATOM     47  C   UNL A   1      47.790  26.598  26.181  1.00  0.00     0.074 A 
ATOM     48  C   UNL A   1      48.012  25.270  25.658  1.00  0.00     0.031 C 
ATOM     49  C   UNL A   1      41.516  26.575  27.586  1.00  0.00     0.029 A 
ATOM     50  C   UNL A   1      42.473  27.657  27.817  1.00  0.00     0.049 A 
ATOM     51  H   UNL A   1      44.485  27.689  27.277  1.00  0.00     0.167 HD
ATOM     52  C   UNL A   1      48.751  27.546  26.276  1.00  0.00     0.034 A 
ATOM     53  C   UNL A   1      42.205  28.837  28.411  1.00  0.00     0.034 A 
ATOM     54  C   UNL A   1      48.525  28.870  26.782  1.00  0.00     0.049 A 
ATOM     55  C   UNL A   1      43.309  29.858  28.554  1.00  0.00     0.074 A 
ATOM     56  C   UNL A   1      49.431  29.910  26.892  1.00  0.00     0.029 A 
ATOM     57  N   UNL A   1      47.316  29.338  27.272  1.00  0.00    -0.354 N 
ATOM     58  N   UNL A   1      44.551  29.797  28.135  1.00  0.00    -0.248 NA
ATOM     59  C   UNL A   1      42.969  31.120  29.229  1.00  0.00     0.031 C 
ATOM     60  C   UNL A   1      48.777  30.995  27.479  1.00  0.00     0.029 A 
ATOM     61  C   UNL A   1      47.456  30.646  27.699  1.00  0.00     0.049 A 
ATOM     62  H   UNL A   1      46.482  28.816  27.309  1.00  0.00     0.167 HD
ATOM     63  C   UNL A   1      45.129  31.020  28.465  1.00  0.00     0.074 A 
ATOM     64  C   UNL A   1      44.095  31.812  29.097  1.00  0.00     0.031 C 
ATOM     65  C   UNL A   1      46.404  31.443  28.279  1.00  0.00     0.034 A 
BRANCH  52  66
ATOM     66  C   UNL A   1      50.133  27.201  25.789  1.00  0.00     0.023 A 
ATOM     67  C   UNL A   1      51.037  26.564  26.664  1.00  0.00     0.012 A 
ATOM     68  C   UNL A   1      50.500  27.418  24.448  1.00  0.00     0.148 A 
ATOM     69  C   UNL A   1      52.293  26.161  26.212  1.00  0.00     0.002 A 
ATOM     70  C   UNL A   1      51.735  26.971  23.994  1.00  0.00     0.091 A 
ATOM     71  F   UNL A   1      49.633  28.046  23.642  1.00  0.00    -0.205 F 
ATOM     72  C   UNL A   1      52.636  26.351  24.876  1.00  0.00     0.022 A 
BRANCH  70  73
ATOM     73  S   UNL A   1      52.238  27.087  22.274  1.00  0.00     0.127 S 
ATOM     74  O   UNL A   1      53.353  26.142  22.228  1.00  0.00    -0.237 OA
ATOM     75  O   UNL A   1      51.033  26.642  21.574  1.00  0.00    -0.237 OA
ATOM     76  O   UNL A   1      52.598  28.479  22.050  1.00  0.00    -0.744 OA
ENDBRANCH  70  73
ENDBRANCH  52  66
BRANCH  53  77
ATOM     77  C   UNL A   1      40.823  29.140  28.885  1.00  0.00     0.023 A 
ATOM     78  C   UNL A   1      39.832  29.498  27.951  1.00  0.00     0.012 A 
ATOM     79  C   UNL A   1      40.480  29.060  30.249  1.00  0.00     0.148 A 
ATOM     80  C   UNL A   1      38.533  29.795  28.367  1.00  0.00     0.002 A 
ATOM     81  C   UNL A   1      39.171  29.299  30.650  1.00  0.00     0.091 A 
ATOM     82  F   UNL A   1      41.441  28.739  31.127  1.00  0.00    -0.205 F 
ATOM     83  C   UNL A   1      38.199  29.684  29.714  1.00  0.00     0.022 A 
BRANCH  81  84
ATOM     84  S   UNL A   1      38.617  29.052  32.342  1.00  0.00     0.127 S 
ATOM     85  O   UNL A   1      38.946  30.335  32.956  1.00  0.00    -0.237 OA
ATOM     86  O   UNL A   1      37.187  28.806  32.153  1.00  0.00    -0.237 OA
ATOM     87  O   UNL A   1      39.366  27.906  32.839  1.00  0.00    -0.744 OA
ENDBRANCH  81  84
ENDBRANCH  53  77
BRANCH  65  88
ATOM     88  C   UNL A   1      46.771  32.832  28.739  1.00  0.00     0.023 A 
ATOM     89  C   UNL A   1      47.347  33.016  30.010  1.00  0.00     0.012 A 
ATOM     90  C   UNL A   1      46.662  33.933  27.864  1.00  0.00     0.148 A 
ATOM     91  C   UNL A   1      47.785  34.276  30.416  1.00  0.00     0.002 A 
ATOM     92  C   UNL A   1      47.151  35.175  28.254  1.00  0.00     0.091 A 
ATOM     93  F   UNL A   1      46.101  33.741  26.662  1.00  0.00    -0.205 F 
ATOM     94  C   UNL A   1      47.700  35.350  29.534  1.00  0.00     0.022 A 
BRANCH  92  95
ATOM     95  S   UNL A   1      47.189  36.591  27.149  1.00  0.00     0.127 S 
ATOM     96  O   UNL A   1      45.846  37.142  27.323  1.00  0.00    -0.237 OA
ATOM     97  O   UNL A   1      48.260  37.404  27.726  1.00  0.00    -0.237 OA
ATOM     98  O   UNL A   1      47.476  36.061  25.822  1.00  0.00    -0.744 OA
ENDBRANCH  92  95
ENDBRANCH  65  88
ENDBRANCH  39  40
ENDBRANCH  32  34
ENDBRANCH  31  32
ENDBRANCH  30  31
ENDBRANCH  29  30
ENDBRANCH  28  29
ENDBRANCH  27  28
ENDBRANCH   1  27
TORSDOF 24
ENDMDL
