MODEL 1
REMARK VINA RESULT:      -9.0      0.000      0.000
REMARK SMILES CC(C)C[C@H](CNC(=O)N[C@@H]1CCC[C@@H](C)[C@H]1C)C(=O)OCCOCCOCCOCCOC(=O)c1ccc(-c2c3nc(c(-c4cccc(S(=O)(=O)[O-])c4F)c4ccc([nH]4)c(-c4cccc(S(=O)(=O)[O-])c4F)c4nc(c(-c5cccc(S(=O)(=O)[O-])c5F)c5ccc2[nH]5)C=C4)C=C3)cc1
REMARK SMILES IDX 27 1 26 2 25 3 24 4 23 5 22 6 21 7 19 8 20 9 5 10 4 11 2 12
REMARK SMILES IDX 1 13 3 14 6 15 7 16 8 17 9 19 10 20 11 22 12 23 17 24 13 25
REMARK SMILES IDX 15 26 18 27 14 28 16 29 28 30 29 31 30 32 31 33 32 34 33 35
REMARK SMILES IDX 34 36 35 37 36 38 37 39 98 40 38 41 97 42 39 43 40 44 41 45
REMARK SMILES IDX 91 46 42 47 96 48 90 49 92 50 43 51 95 52 89 53 88 54 44 56
REMARK SMILES IDX 76 57 56 58 75 59 57 60 60 61 74 62 93 63 58 64 59 65 73 67
REMARK SMILES IDX 94 68 61 69 45 70 46 71 54 72 47 73 49 74 55 75 48 76 50 77
REMARK SMILES IDX 51 78 52 79 53 80 77 81 78 82 86 83 79 84 81 85 87 86 80 87
REMARK SMILES IDX 82 88 83 89 84 90 85 91 62 92 63 93 71 94 64 95 66 96 72 97
REMARK SMILES IDX 65 98 67 99 68 100 69 101 70 102
REMARK H PARENT 7 18 10 21 92 55 60 66
REMARK Flexibility Score: inf
ROOT
ATOM      1  O   UNL A   1      33.277  31.151  26.864  1.00  0.00    -0.377 OA
ENDROOT
BRANCH   1   2
ATOM      2  C   UNL A   1      33.702  29.832  26.595  1.00  0.00     0.188 C 
BRANCH   2   3
ATOM      3  C   UNL A   1      33.320  29.160  25.268  1.00  0.00     0.188 C 
BRANCH   3   4
ATOM      4  O   UNL A   1      32.042  29.372  24.716  1.00  0.00    -0.376 OA
BRANCH   4   5
ATOM      5  C   UNL A   1      31.386  28.554  23.759  1.00  0.00     0.202 C 
BRANCH   5   6
ATOM      6  C   UNL A   1      31.040  27.062  23.856  1.00  0.00     0.261 C 
BRANCH   6   7
ATOM      7  O   UNL A   1      32.125  26.153  23.819  1.00  0.00    -0.463 OA
BRANCH   7   8
ATOM      8  C   UNL A   1      32.231  25.415  24.943  1.00  0.00     0.310 C 
ATOM      9  O   UNL A   1      32.167  25.871  26.084  1.00  0.00    -0.252 OA
BRANCH   8  10
ATOM     10  C   UNL A   1      32.343  23.934  24.688  1.00  0.00     0.119 C 
BRANCH  10  11
ATOM     11  C   UNL A   1      33.808  23.544  24.475  1.00  0.00     0.020 C 
BRANCH  11  12
ATOM     12  C   UNL A   1      34.792  24.039  25.548  1.00  0.00    -0.017 C 
ATOM     13  C   UNL A   1      34.687  23.259  26.869  1.00  0.00     0.007 C 
ATOM     14  C   UNL A   1      36.212  23.882  25.008  1.00  0.00     0.007 C 
ENDBRANCH  11  12
ENDBRANCH  10  11
BRANCH  10  15
ATOM     15  C   UNL A   1      31.242  23.268  23.810  1.00  0.00     0.133 C 
BRANCH  15  16
ATOM     16  N   UNL A   1      31.606  22.385  22.683  1.00  0.00    -0.337 N 
ATOM     17  C   UNL A   1      31.925  21.145  22.314  1.00  0.00     0.315 C 
ATOM     18  H   UNL A   1      31.616  22.941  21.870  1.00  0.00     0.165 HD
ATOM     19  O   UNL A   1      31.852  20.949  21.090  1.00  0.00    -0.249 OA
ATOM     20  N   UNL A   1      32.338  20.080  23.003  1.00  0.00    -0.335 N 
ATOM     21  H   UNL A   1      32.718  19.429  22.370  1.00  0.00     0.165 HD
BRANCH  20  22
ATOM     22  C   UNL A   1      32.437  19.515  24.370  1.00  0.00     0.087 C 
ATOM     23  C   UNL A   1      33.374  20.272  25.263  1.00  0.00     0.025 C 
ATOM     24  C   UNL A   1      32.808  17.975  24.447  1.00  0.00     0.011 C 
ATOM     25  C   UNL A   1      34.776  20.081  24.735  1.00  0.00     0.002 C 
ATOM     26  C   UNL A   1      34.304  17.679  24.107  1.00  0.00    -0.009 C 
ATOM     27  C   UNL A   1      32.464  17.441  25.855  1.00  0.00     0.010 C 
ATOM     28  C   UNL A   1      35.269  18.666  24.759  1.00  0.00     0.004 C 
ATOM     29  C   UNL A   1      34.825  16.291  24.518  1.00  0.00     0.008 C 
ENDBRANCH  20  22
ENDBRANCH  15  16
ENDBRANCH  10  15
ENDBRANCH   8  10
ENDBRANCH   7   8
ENDBRANCH   6   7
ENDBRANCH   5   6
ENDBRANCH   4   5
ENDBRANCH   3   4
ENDBRANCH   2   3
ENDBRANCH   1   2
BRANCH   1  30
ATOM     30  C   UNL A   1      33.636  31.762  28.095  1.00  0.00     0.188 C 
BRANCH  30  31
ATOM     31  C   UNL A   1      33.986  33.268  28.184  1.00  0.00     0.188 C 
BRANCH  31  32
ATOM     32  O   UNL A   1      33.721  33.900  29.423  1.00  0.00    -0.376 OA
BRANCH  32  33
ATOM     33  C   UNL A   1      33.296  35.256  29.375  1.00  0.00     0.202 C 
BRANCH  33  34
ATOM     34  C   UNL A   1      32.880  35.904  30.708  1.00  0.00     0.261 C 
BRANCH  34  35
ATOM     35  O   UNL A   1      32.978  35.057  31.862  1.00  0.00    -0.460 OA
BRANCH  35  36
ATOM     36  C   UNL A   1      33.967  35.357  32.738  1.00  0.00     0.338 C 
ATOM     37  O   UNL A   1      33.917  36.144  33.654  1.00  0.00    -0.246 OA
BRANCH  36  38
ATOM     38  C   UNL A   1      35.060  34.385  32.529  1.00  0.00     0.060 A 
ATOM     39  C   UNL A   1      34.943  33.118  33.115  1.00  0.00     0.016 A 
ATOM     40  C   UNL A   1      36.190  34.728  31.786  1.00  0.00     0.016 A 
ATOM     41  C   UNL A   1      35.985  32.204  33.006  1.00  0.00     0.010 A 
ATOM     42  C   UNL A   1      37.251  33.825  31.707  1.00  0.00     0.010 A 
ATOM     43  C   UNL A   1      37.169  32.584  32.363  1.00  0.00    -0.014 A 
BRANCH  43  44
ATOM     44  C   UNL A   1      38.397  31.809  32.646  1.00  0.00     0.031 A 
ATOM     45  C   UNL A   1      39.117  32.097  33.936  1.00  0.00     0.074 A 
ATOM     46  C   UNL A   1      38.838  30.853  31.814  1.00  0.00     0.049 A 
ATOM     47  N   UNL A   1      40.201  31.555  34.422  1.00  0.00    -0.248 NA
ATOM     48  C   UNL A   1      38.528  33.140  34.796  1.00  0.00     0.031 C 
ATOM     49  C   UNL A   1      38.205  30.464  30.557  1.00  0.00     0.029 A 
ATOM     50  N   UNL A   1      39.941  30.043  31.906  1.00  0.00    -0.354 N 
ATOM     51  C   UNL A   1      40.445  32.214  35.621  1.00  0.00     0.074 A 
ATOM     52  C   UNL A   1      39.404  33.202  35.785  1.00  0.00     0.031 C 
ATOM     53  C   UNL A   1      38.944  29.500  29.980  1.00  0.00     0.029 A 
ATOM     54  C   UNL A   1      40.112  29.226  30.815  1.00  0.00     0.049 A 
ATOM     55  H   UNL A   1      40.551  30.047  32.678  1.00  0.00     0.167 HD
ATOM     56  C   UNL A   1      41.443  32.011  36.511  1.00  0.00     0.034 A 
ATOM     57  C   UNL A   1      41.112  28.371  30.522  1.00  0.00     0.034 A 
ATOM     58  C   UNL A   1      42.473  31.025  36.345  1.00  0.00     0.049 A 
ATOM     59  C   UNL A   1      42.238  28.192  31.509  1.00  0.00     0.074 A 
ATOM     60  C   UNL A   1      43.511  30.711  37.202  1.00  0.00     0.029 A 
ATOM     61  N   UNL A   1      42.610  30.209  35.231  1.00  0.00    -0.354 N 
ATOM     62  N   UNL A   1      42.407  28.751  32.683  1.00  0.00    -0.248 NA
ATOM     63  C   UNL A   1      43.294  27.237  31.143  1.00  0.00     0.031 C 
ATOM     64  C   UNL A   1      44.303  29.735  36.586  1.00  0.00     0.029 A 
ATOM     65  C   UNL A   1      43.726  29.403  35.370  1.00  0.00     0.049 A 
ATOM     66  H   UNL A   1      42.003  30.205  34.456  1.00  0.00     0.167 HD
ATOM     67  C   UNL A   1      43.560  28.181  33.217  1.00  0.00     0.074 A 
ATOM     68  C   UNL A   1      44.041  27.226  32.239  1.00  0.00     0.031 C 
ATOM     69  C   UNL A   1      44.164  28.424  34.407  1.00  0.00     0.034 A 
BRANCH  56  70
ATOM     70  C   UNL A   1      41.466  32.892  37.735  1.00  0.00     0.023 A 
ATOM     71  C   UNL A   1      40.881  32.450  38.940  1.00  0.00     0.012 A 
ATOM     72  C   UNL A   1      42.076  34.160  37.688  1.00  0.00     0.148 A 
ATOM     73  C   UNL A   1      40.858  33.276  40.062  1.00  0.00     0.002 A 
ATOM     74  C   UNL A   1      42.096  34.955  38.826  1.00  0.00     0.091 A 
ATOM     75  F   UNL A   1      42.603  34.575  36.527  1.00  0.00    -0.205 F 
ATOM     76  C   UNL A   1      41.473  34.524  40.009  1.00  0.00     0.022 A 
BRANCH  74  77
ATOM     77  S   UNL A   1      42.937  36.541  38.879  1.00  0.00     0.127 S 
ATOM     78  O   UNL A   1      42.898  36.849  40.309  1.00  0.00    -0.237 OA
ATOM     79  O   UNL A   1      44.265  36.201  38.365  1.00  0.00    -0.237 OA
ATOM     80  O   UNL A   1      42.166  37.433  38.025  1.00  0.00    -0.744 OA
ENDBRANCH  74  77
ENDBRANCH  56  70
BRANCH  57  81
ATOM     81  C   UNL A   1      41.073  27.587  29.256  1.00  0.00     0.023 A 
ATOM     82  C   UNL A   1      40.210  26.479  29.151  1.00  0.00     0.012 A 
ATOM     83  C   UNL A   1      41.873  27.943  28.154  1.00  0.00     0.148 A 
ATOM     84  C   UNL A   1      40.163  25.723  27.979  1.00  0.00     0.002 A 
ATOM     85  C   UNL A   1      41.782  27.219  26.971  1.00  0.00     0.091 A 
ATOM     86  F   UNL A   1      42.695  28.995  28.280  1.00  0.00    -0.205 F 
ATOM     87  C   UNL A   1      40.941  26.098  26.887  1.00  0.00     0.022 A 
BRANCH  85  88
ATOM     88  S   UNL A   1      42.656  27.690  25.475  1.00  0.00     0.127 S 
ATOM     89  O   UNL A   1      42.492  26.499  24.645  1.00  0.00    -0.237 OA
ATOM     90  O   UNL A   1      41.887  28.856  25.039  1.00  0.00    -0.237 OA
ATOM     91  O   UNL A   1      44.021  27.983  25.889  1.00  0.00    -0.744 OA
ENDBRANCH  85  88
ENDBRANCH  57  81
BRANCH  69  92
ATOM     92  C   UNL A   1      45.379  27.603  34.759  1.00  0.00     0.023 A 
ATOM     93  C   UNL A   1      46.674  28.116  34.545  1.00  0.00     0.012 A 
ATOM     94  C   UNL A   1      45.229  26.343  35.375  1.00  0.00     0.148 A 
ATOM     95  C   UNL A   1      47.798  27.371  34.902  1.00  0.00     0.002 A 
ATOM     96  C   UNL A   1      46.351  25.633  35.780  1.00  0.00     0.091 A 
ATOM     97  F   UNL A   1      43.989  25.865  35.557  1.00  0.00    -0.205 F 
ATOM     98  C   UNL A   1      47.637  26.136  35.530  1.00  0.00     0.022 A 
BRANCH  96  99
ATOM     99  S   UNL A   1      46.235  24.087  36.688  1.00  0.00     0.127 S 
ATOM    100  O   UNL A   1      46.738  24.476  38.004  1.00  0.00    -0.237 OA
ATOM    101  O   UNL A   1      44.800  23.808  36.642  1.00  0.00    -0.237 OA
ATOM    102  O   UNL A   1      47.060  23.131  35.961  1.00  0.00    -0.744 OA
ENDBRANCH  96  99
ENDBRANCH  69  92
ENDBRANCH  43  44
ENDBRANCH  36  38
ENDBRANCH  35  36
ENDBRANCH  34  35
ENDBRANCH  33  34
ENDBRANCH  32  33
ENDBRANCH  31  32
ENDBRANCH  30  31
ENDBRANCH   1  30
TORSDOF 28
ENDMDL
MODEL 2
REMARK VINA RESULT:      -8.5      4.102      8.932
REMARK SMILES CC(C)C[C@H](CNC(=O)N[C@@H]1CCC[C@@H](C)[C@H]1C)C(=O)OCCOCCOCCOCCOC(=O)c1ccc(-c2c3nc(c(-c4cccc(S(=O)(=O)[O-])c4F)c4ccc([nH]4)c(-c4cccc(S(=O)(=O)[O-])c4F)c4nc(c(-c5cccc(S(=O)(=O)[O-])c5F)c5ccc2[nH]5)C=C4)C=C3)cc1
REMARK SMILES IDX 27 1 26 2 25 3 24 4 23 5 22 6 21 7 19 8 20 9 5 10 4 11 2 12
REMARK SMILES IDX 1 13 3 14 6 15 7 16 8 17 9 19 10 20 11 22 12 23 17 24 13 25
REMARK SMILES IDX 15 26 18 27 14 28 16 29 28 30 29 31 30 32 31 33 32 34 33 35
REMARK SMILES IDX 34 36 35 37 36 38 37 39 98 40 38 41 97 42 39 43 40 44 41 45
REMARK SMILES IDX 91 46 42 47 96 48 90 49 92 50 43 51 95 52 89 53 88 54 44 56
REMARK SMILES IDX 76 57 56 58 75 59 57 60 60 61 74 62 93 63 58 64 59 65 73 67
REMARK SMILES IDX 94 68 61 69 45 70 46 71 54 72 47 73 49 74 55 75 48 76 50 77
REMARK SMILES IDX 51 78 52 79 53 80 77 81 78 82 86 83 79 84 81 85 87 86 80 87
REMARK SMILES IDX 82 88 83 89 84 90 85 91 62 92 63 93 71 94 64 95 66 96 72 97
REMARK SMILES IDX 65 98 67 99 68 100 69 101 70 102
REMARK H PARENT 7 18 10 21 92 55 60 66
REMARK Flexibility Score: inf
ROOT
ATOM      1  O   UNL A   1      31.642  29.293  26.229  1.00  0.00    -0.377 OA
ENDROOT
BRANCH   1   2
ATOM      2  C   UNL A   1      31.415  29.840  24.947  1.00  0.00     0.188 C 
BRANCH   2   3
ATOM      3  C   UNL A   1      31.524  28.945  23.703  1.00  0.00     0.188 C 
BRANCH   3   4
ATOM      4  O   UNL A   1      30.362  28.595  22.987  1.00  0.00    -0.376 OA
BRANCH   4   5
ATOM      5  C   UNL A   1      29.203  27.964  23.508  1.00  0.00     0.202 C 
BRANCH   5   6
ATOM      6  C   UNL A   1      28.921  26.464  23.664  1.00  0.00     0.261 C 
BRANCH   6   7
ATOM      7  O   UNL A   1      28.886  25.956  24.986  1.00  0.00    -0.463 OA
BRANCH   7   8
ATOM      8  C   UNL A   1      30.106  25.894  25.558  1.00  0.00     0.310 C 
ATOM      9  O   UNL A   1      30.485  26.626  26.471  1.00  0.00    -0.252 OA
BRANCH   8  10
ATOM     10  C   UNL A   1      30.962  24.765  25.042  1.00  0.00     0.119 C 
BRANCH  10  11
ATOM     11  C   UNL A   1      31.204  24.931  23.539  1.00  0.00     0.020 C 
BRANCH  11  12
ATOM     12  C   UNL A   1      32.632  25.331  23.135  1.00  0.00    -0.017 C 
ATOM     13  C   UNL A   1      33.553  25.583  24.341  1.00  0.00     0.007 C 
ATOM     14  C   UNL A   1      33.231  24.200  22.302  1.00  0.00     0.007 C 
ENDBRANCH  11  12
ENDBRANCH  10  11
BRANCH  10  15
ATOM     15  C   UNL A   1      30.702  23.342  25.619  1.00  0.00     0.133 C 
BRANCH  15  16
ATOM     16  N   UNL A   1      31.510  22.822  26.742  1.00  0.00    -0.337 N 
ATOM     17  C   UNL A   1      32.727  22.468  27.151  1.00  0.00     0.315 C 
ATOM     18  H   UNL A   1      30.896  22.680  27.499  1.00  0.00     0.165 HD
ATOM     19  O   UNL A   1      32.831  22.355  28.383  1.00  0.00    -0.249 OA
ATOM     20  N   UNL A   1      33.850  22.180  26.490  1.00  0.00    -0.335 N 
ATOM     21  H   UNL A   1      34.462  21.717  27.106  1.00  0.00     0.165 HD
BRANCH  20  22
ATOM     22  C   UNL A   1      34.515  22.300  25.171  1.00  0.00     0.087 C 
ATOM     23  C   UNL A   1      34.334  21.094  24.299  1.00  0.00     0.025 C 
ATOM     24  C   UNL A   1      36.059  22.657  25.216  1.00  0.00     0.011 C 
ATOM     25  C   UNL A   1      35.082  19.945  24.932  1.00  0.00     0.002 C 
ATOM     26  C   UNL A   1      36.960  21.465  25.675  1.00  0.00    -0.009 C 
ATOM     27  C   UNL A   1      36.505  23.157  23.823  1.00  0.00     0.010 C 
ATOM     28  C   UNL A   1      36.565  20.139  25.030  1.00  0.00     0.004 C 
ATOM     29  C   UNL A   1      38.464  21.609  25.387  1.00  0.00     0.008 C 
ENDBRANCH  20  22
ENDBRANCH  15  16
ENDBRANCH  10  15
ENDBRANCH   8  10
ENDBRANCH   7   8
ENDBRANCH   6   7
ENDBRANCH   5   6
ENDBRANCH   4   5
ENDBRANCH   3   4
ENDBRANCH   2   3
ENDBRANCH   1   2
BRANCH   1  30
ATOM     30  C   UNL A   1      32.234  30.102  27.236  1.00  0.00     0.188 C 
BRANCH  30  31
ATOM     31  C   UNL A   1      33.590  30.815  27.013  1.00  0.00     0.188 C 
BRANCH  31  32
ATOM     32  O   UNL A   1      34.517  30.745  28.081  1.00  0.00    -0.376 OA
BRANCH  32  33
ATOM     33  C   UNL A   1      35.694  29.978  27.862  1.00  0.00     0.202 C 
BRANCH  33  34
ATOM     34  C   UNL A   1      36.954  30.397  28.641  1.00  0.00     0.261 C 
BRANCH  34  35
ATOM     35  O   UNL A   1      37.513  29.390  29.495  1.00  0.00    -0.460 OA
BRANCH  35  36
ATOM     36  C   UNL A   1      37.261  29.527  30.819  1.00  0.00     0.338 C 
ATOM     37  O   UNL A   1      36.191  29.737  31.342  1.00  0.00    -0.246 OA
BRANCH  36  38
ATOM     38  C   UNL A   1      38.488  29.147  31.549  1.00  0.00     0.060 A 
ATOM     39  C   UNL A   1      39.524  30.086  31.644  1.00  0.00     0.016 A 
ATOM     40  C   UNL A   1      38.622  27.876  32.110  1.00  0.00     0.016 A 
ATOM     41  C   UNL A   1      40.723  29.738  32.256  1.00  0.00     0.010 A 
ATOM     42  C   UNL A   1      39.838  27.515  32.692  1.00  0.00     0.010 A 
ATOM     43  C   UNL A   1      40.906  28.429  32.715  1.00  0.00    -0.014 A 
BRANCH  43  44
ATOM     44  C   UNL A   1      42.290  27.951  32.930  1.00  0.00     0.031 A 
ATOM     45  C   UNL A   1      43.093  27.581  31.713  1.00  0.00     0.074 A 
ATOM     46  C   UNL A   1      42.835  27.888  34.155  1.00  0.00     0.049 A 
ATOM     47  N   UNL A   1      44.322  27.148  31.627  1.00  0.00    -0.248 NA
ATOM     48  C   UNL A   1      42.413  27.721  30.412  1.00  0.00     0.031 C 
ATOM     49  C   UNL A   1      42.165  28.254  35.401  1.00  0.00     0.029 A 
ATOM     50  N   UNL A   1      44.083  27.477  34.546  1.00  0.00    -0.354 N 
ATOM     51  C   UNL A   1      44.549  26.929  30.274  1.00  0.00     0.074 A 
ATOM     52  C   UNL A   1      43.331  27.266  29.575  1.00  0.00     0.031 C 
ATOM     53  C   UNL A   1      43.006  28.029  36.426  1.00  0.00     0.029 A 
ATOM     54  C   UNL A   1      44.259  27.481  35.908  1.00  0.00     0.049 A 
ATOM     55  H   UNL A   1      44.785  27.204  33.912  1.00  0.00     0.167 HD
ATOM     56  C   UNL A   1      45.675  26.493  29.664  1.00  0.00     0.034 A 
ATOM     57  C   UNL A   1      45.308  27.069  36.647  1.00  0.00     0.034 A 
ATOM     58  C   UNL A   1      46.885  26.162  30.363  1.00  0.00     0.049 A 
ATOM     59  C   UNL A   1      46.537  26.545  35.948  1.00  0.00     0.074 A 
ATOM     60  C   UNL A   1      48.095  25.745  29.840  1.00  0.00     0.029 A 
ATOM     61  N   UNL A   1      47.030  26.187  31.742  1.00  0.00    -0.354 N 
ATOM     62  N   UNL A   1      46.776  26.433  34.664  1.00  0.00    -0.248 NA
ATOM     63  C   UNL A   1      47.656  26.122  36.804  1.00  0.00     0.031 C 
ATOM     64  C   UNL A   1      48.959  25.475  30.907  1.00  0.00     0.029 A 
ATOM     65  C   UNL A   1      48.304  25.776  32.091  1.00  0.00     0.049 A 
ATOM     66  H   UNL A   1      46.329  26.458  32.379  1.00  0.00     0.167 HD
ATOM     67  C   UNL A   1      48.086  25.974  34.555  1.00  0.00     0.074 A 
ATOM     68  C   UNL A   1      48.590  25.839  35.906  1.00  0.00     0.031 C 
ATOM     69  C   UNL A   1      48.806  25.692  33.440  1.00  0.00     0.034 A 
BRANCH  56  70
ATOM     70  C   UNL A   1      45.632  26.336  28.165  1.00  0.00     0.023 A 
ATOM     71  C   UNL A   1      45.839  27.452  27.328  1.00  0.00     0.012 A 
ATOM     72  C   UNL A   1      45.390  25.075  27.587  1.00  0.00     0.148 A 
ATOM     73  C   UNL A   1      45.755  27.325  25.942  1.00  0.00     0.002 A 
ATOM     74  C   UNL A   1      45.361  24.947  26.205  1.00  0.00     0.091 A 
ATOM     75  F   UNL A   1      45.168  24.031  28.399  1.00  0.00    -0.205 F 
ATOM     76  C   UNL A   1      45.526  26.071  25.380  1.00  0.00     0.022 A 
BRANCH  74  77
ATOM     77  S   UNL A   1      45.157  23.359  25.389  1.00  0.00     0.127 S 
ATOM     78  O   UNL A   1      46.185  22.554  26.049  1.00  0.00    -0.237 OA
ATOM     79  O   UNL A   1      43.783  23.006  25.746  1.00  0.00    -0.237 OA
ATOM     80  O   UNL A   1      45.371  23.607  23.970  1.00  0.00    -0.744 OA
ENDBRANCH  74  77
ENDBRANCH  56  70
BRANCH  57  81
ATOM     81  C   UNL A   1      45.260  27.174  38.132  1.00  0.00     0.023 A 
ATOM     82  C   UNL A   1      44.705  26.122  38.886  1.00  0.00     0.012 A 
ATOM     83  C   UNL A   1      45.776  28.301  38.800  1.00  0.00     0.148 A 
ATOM     84  C   UNL A   1      44.640  26.202  40.278  1.00  0.00     0.002 A 
ATOM     85  C   UNL A   1      45.758  28.351  40.188  1.00  0.00     0.091 A 
ATOM     86  F   UNL A   1      46.291  29.295  38.061  1.00  0.00    -0.205 F 
ATOM     87  C   UNL A   1      45.174  27.311  40.928  1.00  0.00     0.022 A 
BRANCH  85  88
ATOM     88  S   UNL A   1      46.523  29.680  41.122  1.00  0.00     0.127 S 
ATOM     89  O   UNL A   1      45.673  30.817  40.776  1.00  0.00    -0.237 OA
ATOM     90  O   UNL A   1      46.378  29.196  42.496  1.00  0.00    -0.237 OA
ATOM     91  O   UNL A   1      47.897  29.757  40.647  1.00  0.00    -0.744 OA
ENDBRANCH  85  88
ENDBRANCH  57  81
BRANCH  69  92
ATOM     92  C   UNL A   1      50.243  25.269  33.619  1.00  0.00     0.023 A 
ATOM     93  C   UNL A   1      51.256  26.235  33.777  1.00  0.00     0.012 A 
ATOM     94  C   UNL A   1      50.573  23.901  33.704  1.00  0.00     0.148 A 
ATOM     95  C   UNL A   1      52.580  25.845  33.977  1.00  0.00     0.002 A 
ATOM     96  C   UNL A   1      51.883  23.522  33.960  1.00  0.00     0.091 A 
ATOM     97  F   UNL A   1      49.597  22.996  33.535  1.00  0.00    -0.205 F 
ATOM     98  C   UNL A   1      52.892  24.490  34.080  1.00  0.00     0.022 A 
BRANCH  96  99
ATOM     99  S   UNL A   1      52.356  21.807  34.214  1.00  0.00     0.127 S 
ATOM    100  O   UNL A   1      51.277  21.324  35.073  1.00  0.00    -0.237 OA
ATOM    101  O   UNL A   1      52.336  21.276  32.851  1.00  0.00    -0.237 OA
ATOM    102  O   UNL A   1      53.677  21.841  34.829  1.00  0.00    -0.744 OA
ENDBRANCH  96  99
ENDBRANCH  69  92
ENDBRANCH  43  44
ENDBRANCH  36  38
ENDBRANCH  35  36
ENDBRANCH  34  35
ENDBRANCH  33  34
ENDBRANCH  32  33
ENDBRANCH  31  32
ENDBRANCH  30  31
ENDBRANCH   1  30
TORSDOF 28
ENDMDL
MODEL 3
REMARK VINA RESULT:      -8.3      3.008      9.603
REMARK SMILES CC(C)C[C@H](CNC(=O)N[C@@H]1CCC[C@@H](C)[C@H]1C)C(=O)OCCOCCOCCOCCOC(=O)c1ccc(-c2c3nc(c(-c4cccc(S(=O)(=O)[O-])c4F)c4ccc([nH]4)c(-c4cccc(S(=O)(=O)[O-])c4F)c4nc(c(-c5cccc(S(=O)(=O)[O-])c5F)c5ccc2[nH]5)C=C4)C=C3)cc1
REMARK SMILES IDX 27 1 26 2 25 3 24 4 23 5 22 6 21 7 19 8 20 9 5 10 4 11 2 12
REMARK SMILES IDX 1 13 3 14 6 15 7 16 8 17 9 19 10 20 11 22 12 23 17 24 13 25
REMARK SMILES IDX 15 26 18 27 14 28 16 29 28 30 29 31 30 32 31 33 32 34 33 35
REMARK SMILES IDX 34 36 35 37 36 38 37 39 98 40 38 41 97 42 39 43 40 44 41 45
REMARK SMILES IDX 91 46 42 47 96 48 90 49 92 50 43 51 95 52 89 53 88 54 44 56
REMARK SMILES IDX 76 57 56 58 75 59 57 60 60 61 74 62 93 63 58 64 59 65 73 67
REMARK SMILES IDX 94 68 61 69 45 70 46 71 54 72 47 73 49 74 55 75 48 76 50 77
REMARK SMILES IDX 51 78 52 79 53 80 77 81 78 82 86 83 79 84 81 85 87 86 80 87
REMARK SMILES IDX 82 88 83 89 84 90 85 91 62 92 63 93 71 94 64 95 66 96 72 97
REMARK SMILES IDX 65 98 67 99 68 100 69 101 70 102
REMARK H PARENT 7 18 10 21 92 55 60 66
REMARK Flexibility Score: inf
ROOT
ATOM      1  O   UNL A   1      40.903  20.317  27.481  1.00  0.00    -0.377 OA
ENDROOT
BRANCH   1   2
ATOM      2  C   UNL A   1      39.907  20.420  26.485  1.00  0.00     0.188 C 
BRANCH   2   3
ATOM      3  C   UNL A   1      39.627  21.775  25.819  1.00  0.00     0.188 C 
BRANCH   3   4
ATOM      4  O   UNL A   1      39.366  22.908  26.615  1.00  0.00    -0.376 OA
BRANCH   4   5
ATOM      5  C   UNL A   1      38.106  23.527  26.822  1.00  0.00     0.202 C 
BRANCH   5   6
ATOM      6  C   UNL A   1      37.027  23.862  25.784  1.00  0.00     0.261 C 
BRANCH   6   7
ATOM      7  O   UNL A   1      37.383  23.708  24.421  1.00  0.00    -0.463 OA
BRANCH   7   8
ATOM      8  C   UNL A   1      36.372  23.240  23.662  1.00  0.00     0.310 C 
ATOM      9  O   UNL A   1      36.469  22.963  22.467  1.00  0.00    -0.252 OA
BRANCH   8  10
ATOM     10  C   UNL A   1      35.102  22.986  24.433  1.00  0.00     0.119 C 
BRANCH  10  11
ATOM     11  C   UNL A   1      34.793  21.486  24.463  1.00  0.00     0.020 C 
BRANCH  11  12
ATOM     12  C   UNL A   1      34.244  20.946  25.793  1.00  0.00    -0.017 C 
ATOM     13  C   UNL A   1      34.067  22.038  26.862  1.00  0.00     0.007 C 
ATOM     14  C   UNL A   1      32.883  20.308  25.528  1.00  0.00     0.007 C 
ENDBRANCH  11  12
ENDBRANCH  10  11
BRANCH  10  15
ATOM     15  C   UNL A   1      33.934  24.000  24.252  1.00  0.00     0.133 C 
BRANCH  15  16
ATOM     16  N   UNL A   1      33.803  24.789  23.010  1.00  0.00    -0.337 N 
ATOM     17  C   UNL A   1      33.094  25.712  22.361  1.00  0.00     0.315 C 
ATOM     18  H   UNL A   1      34.544  24.524  22.418  1.00  0.00     0.165 HD
ATOM     19  O   UNL A   1      33.679  26.199  21.380  1.00  0.00    -0.249 OA
ATOM     20  N   UNL A   1      31.862  26.193  22.544  1.00  0.00    -0.335 N 
ATOM     21  H   UNL A   1      31.590  26.667  21.726  1.00  0.00     0.165 HD
BRANCH  20  22
ATOM     22  C   UNL A   1      30.753  26.276  23.523  1.00  0.00     0.087 C 
ATOM     23  C   UNL A   1      29.818  27.420  23.271  1.00  0.00     0.025 C 
ATOM     24  C   UNL A   1      31.191  26.314  25.047  1.00  0.00     0.011 C 
ATOM     25  C   UNL A   1      30.571  28.703  23.530  1.00  0.00     0.002 C 
ATOM     26  C   UNL A   1      31.812  27.681  25.481  1.00  0.00    -0.009 C 
ATOM     27  C   UNL A   1      29.971  25.976  25.933  1.00  0.00     0.010 C 
ATOM     28  C   UNL A   1      31.039  28.883  24.943  1.00  0.00     0.004 C 
ATOM     29  C   UNL A   1      31.909  27.923  26.997  1.00  0.00     0.008 C 
ENDBRANCH  20  22
ENDBRANCH  15  16
ENDBRANCH  10  15
ENDBRANCH   8  10
ENDBRANCH   7   8
ENDBRANCH   6   7
ENDBRANCH   5   6
ENDBRANCH   4   5
ENDBRANCH   3   4
ENDBRANCH   2   3
ENDBRANCH   1   2
BRANCH   1  30
ATOM     30  C   UNL A   1      42.042  19.501  27.245  1.00  0.00     0.188 C 
BRANCH  30  31
ATOM     31  C   UNL A   1      42.702  19.412  25.847  1.00  0.00     0.188 C 
BRANCH  31  32
ATOM     32  O   UNL A   1      43.114  20.638  25.271  1.00  0.00    -0.376 OA
BRANCH  32  33
ATOM     33  C   UNL A   1      44.386  21.137  25.663  1.00  0.00     0.202 C 
BRANCH  33  34
ATOM     34  C   UNL A   1      44.398  22.284  26.690  1.00  0.00     0.261 C 
BRANCH  34  35
ATOM     35  O   UNL A   1      44.525  23.603  26.139  1.00  0.00    -0.460 OA
BRANCH  35  36
ATOM     36  C   UNL A   1      43.373  24.196  25.744  1.00  0.00     0.338 C 
ATOM     37  O   UNL A   1      42.662  23.871  24.822  1.00  0.00    -0.246 OA
BRANCH  36  38
ATOM     38  C   UNL A   1      43.000  25.182  26.780  1.00  0.00     0.060 A 
ATOM     39  C   UNL A   1      43.531  26.475  26.688  1.00  0.00     0.016 A 
ATOM     40  C   UNL A   1      42.159  24.827  27.835  1.00  0.00     0.016 A 
ATOM     41  C   UNL A   1      43.266  27.407  27.686  1.00  0.00     0.010 A 
ATOM     42  C   UNL A   1      41.922  25.751  28.854  1.00  0.00     0.010 A 
ATOM     43  C   UNL A   1      42.520  27.022  28.805  1.00  0.00    -0.014 A 
BRANCH  43  44
ATOM     44  C   UNL A   1      42.631  27.840  30.033  1.00  0.00     0.031 A 
ATOM     45  C   UNL A   1      41.699  29.013  30.172  1.00  0.00     0.074 A 
ATOM     46  C   UNL A   1      43.494  27.532  31.013  1.00  0.00     0.049 A 
ATOM     47  N   UNL A   1      41.586  29.874  31.147  1.00  0.00    -0.248 NA
ATOM     48  C   UNL A   1      40.764  29.242  29.056  1.00  0.00     0.031 C 
ATOM     49  C   UNL A   1      44.420  26.401  31.005  1.00  0.00     0.029 A 
ATOM     50  N   UNL A   1      43.738  28.162  32.207  1.00  0.00    -0.354 N 
ATOM     51  C   UNL A   1      40.599  30.767  30.747  1.00  0.00     0.074 A 
ATOM     52  C   UNL A   1      40.151  30.350  29.438  1.00  0.00     0.031 C 
ATOM     53  C   UNL A   1      45.148  26.429  32.134  1.00  0.00     0.029 A 
ATOM     54  C   UNL A   1      44.758  27.593  32.929  1.00  0.00     0.049 A 
ATOM     55  H   UNL A   1      43.230  28.947  32.516  1.00  0.00     0.167 HD
ATOM     56  C   UNL A   1      40.102  31.835  31.412  1.00  0.00     0.034 A 
ATOM     57  C   UNL A   1      45.321  27.985  34.089  1.00  0.00     0.034 A 
ATOM     58  C   UNL A   1      40.548  32.243  32.714  1.00  0.00     0.049 A 
ATOM     59  C   UNL A   1      44.781  29.204  34.793  1.00  0.00     0.074 A 
ATOM     60  C   UNL A   1      40.089  33.288  33.494  1.00  0.00     0.029 A 
ATOM     61  N   UNL A   1      41.578  31.637  33.420  1.00  0.00    -0.354 N 
ATOM     62  N   UNL A   1      43.783  29.983  34.451  1.00  0.00    -0.248 NA
ATOM     63  C   UNL A   1      45.424  29.577  36.061  1.00  0.00     0.031 C 
ATOM     64  C   UNL A   1      40.872  33.342  34.652  1.00  0.00     0.029 A 
ATOM     65  C   UNL A   1      41.782  32.297  34.618  1.00  0.00     0.049 A 
ATOM     66  H   UNL A   1      42.089  30.853  33.111  1.00  0.00     0.167 HD
ATOM     67  C   UNL A   1      43.647  30.908  35.483  1.00  0.00     0.074 A 
ATOM     68  C   UNL A   1      44.661  30.583  36.465  1.00  0.00     0.031 C 
ATOM     69  C   UNL A   1      42.765  31.931  35.607  1.00  0.00     0.034 A 
BRANCH  56  70
ATOM     70  C   UNL A   1      39.030  32.640  30.723  1.00  0.00     0.023 A 
ATOM     71  C   UNL A   1      39.381  33.721  29.887  1.00  0.00     0.012 A 
ATOM     72  C   UNL A   1      37.671  32.319  30.902  1.00  0.00     0.148 A 
ATOM     73  C   UNL A   1      38.395  34.499  29.282  1.00  0.00     0.002 A 
ATOM     74  C   UNL A   1      36.697  33.066  30.253  1.00  0.00     0.091 A 
ATOM     75  F   UNL A   1      37.355  31.306  31.722  1.00  0.00    -0.205 F 
ATOM     76  C   UNL A   1      37.054  34.167  29.457  1.00  0.00     0.022 A 
BRANCH  74  77
ATOM     77  S   UNL A   1      34.949  32.662  30.350  1.00  0.00     0.127 S 
ATOM     78  O   UNL A   1      34.806  32.310  31.763  1.00  0.00    -0.237 OA
ATOM     79  O   UNL A   1      34.321  33.928  29.971  1.00  0.00    -0.237 OA
ATOM     80  O   UNL A   1      34.736  31.573  29.408  1.00  0.00    -0.744 OA
ENDBRANCH  74  77
ENDBRANCH  56  70
BRANCH  57  81
ATOM     81  C   UNL A   1      46.434  27.191  34.681  1.00  0.00     0.023 A 
ATOM     82  C   UNL A   1      47.767  27.536  34.388  1.00  0.00     0.012 A 
ATOM     83  C   UNL A   1      46.177  26.110  35.547  1.00  0.00     0.148 A 
ATOM     84  C   UNL A   1      48.826  26.801  34.924  1.00  0.00     0.002 A 
ATOM     85  C   UNL A   1      47.237  25.417  36.119  1.00  0.00     0.091 A 
ATOM     86  F   UNL A   1      44.900  25.793  35.804  1.00  0.00    -0.205 F 
ATOM     87  C   UNL A   1      48.561  25.749  35.795  1.00  0.00     0.022 A 
BRANCH  85  88
ATOM     88  S   UNL A   1      47.002  24.122  37.342  1.00  0.00     0.127 S 
ATOM     89  O   UNL A   1      46.521  24.882  38.493  1.00  0.00    -0.237 OA
ATOM     90  O   UNL A   1      45.996  23.282  36.692  1.00  0.00    -0.237 OA
ATOM     91  O   UNL A   1      48.305  23.493  37.507  1.00  0.00    -0.744 OA
ENDBRANCH  85  88
ENDBRANCH  57  81
BRANCH  69  92
ATOM     92  C   UNL A   1      42.803  32.742  36.878  1.00  0.00     0.023 A 
ATOM     93  C   UNL A   1      43.602  33.899  36.963  1.00  0.00     0.012 A 
ATOM     94  C   UNL A   1      41.980  32.390  37.968  1.00  0.00     0.148 A 
ATOM     95  C   UNL A   1      43.612  34.669  38.126  1.00  0.00     0.002 A 
ATOM     96  C   UNL A   1      41.952  33.192  39.100  1.00  0.00     0.091 A 
ATOM     97  F   UNL A   1      41.238  31.276  37.875  1.00  0.00    -0.205 F 
ATOM     98  C   UNL A   1      42.779  34.323  39.189  1.00  0.00     0.022 A 
BRANCH  96  99
ATOM     99  S   UNL A   1      40.834  32.882  40.472  1.00  0.00     0.127 S 
ATOM    100  O   UNL A   1      41.407  31.672  41.056  1.00  0.00    -0.237 OA
ATOM    101  O   UNL A   1      40.997  34.089  41.283  1.00  0.00    -0.237 OA
ATOM    102  O   UNL A   1      39.510  32.725  39.883  1.00  0.00    -0.744 OA
ENDBRANCH  96  99
ENDBRANCH  69  92
ENDBRANCH  43  44
ENDBRANCH  36  38
ENDBRANCH  35  36
ENDBRANCH  34  35
ENDBRANCH  33  34
ENDBRANCH  32  33
ENDBRANCH  31  32
ENDBRANCH  30  31
ENDBRANCH   1  30
TORSDOF 28
ENDMDL
