MODEL 1
REMARK VINA RESULT:      -8.8      0.000      0.000
REMARK SMILES Cc1ccc(S(=O)(=O)Nc2ccc(Cl)c(C(=O)OCCOCCOCCOCCOC(=O)c3ccc(-c4c5nc(c(-c6cccc(S(=O)(=O)[O-])c6F)c6ccc([nH]6)c(-c6cccc(S(=O)(=O)[O-])c6F)c6nc(c(-c7cccc(S(=O)(=O)[O-])c7F)c7ccc4[nH]7)C=C6)C=C5)cc3)c2)cc1Cl
REMARK SMILES IDX 24 1 23 2 22 3 21 4 20 5 19 6 18 7 16 8 17 9 15 10 10 11
REMARK SMILES IDX 11 12 96 13 12 14 13 15 14 16 9 17 6 19 7 20 8 21 5 22 1 23
REMARK SMILES IDX 2 24 3 25 98 26 4 27 97 28 99 29 25 30 26 31 27 32 28 33
REMARK SMILES IDX 29 34 30 35 31 36 32 37 33 38 34 39 95 40 35 41 94 42 36 43
REMARK SMILES IDX 37 44 38 45 88 46 39 47 93 48 87 49 89 50 40 51 92 52 86 53
REMARK SMILES IDX 85 54 41 56 73 57 53 58 72 59 54 60 57 61 71 62 90 63 55 64
REMARK SMILES IDX 56 65 70 67 91 68 58 69 42 70 43 71 51 72 44 73 46 74 52 75
REMARK SMILES IDX 45 76 47 77 48 78 49 79 50 80 74 81 75 82 83 83 76 84 78 85
REMARK SMILES IDX 84 86 77 87 79 88 80 89 81 90 82 91 59 92 60 93 68 94 61 95
REMARK SMILES IDX 63 96 69 97 62 98 64 99 65 100 66 101 67 102
REMARK H PARENT 9 18 89 55 57 66
REMARK Flexibility Score: inf
ROOT
ATOM      1  O   UNL A   1      38.692  21.736  25.342  1.00  0.00    -0.377 OA
ENDROOT
BRANCH   1   2
ATOM      2  C   UNL A   1      37.470  21.025  25.372  1.00  0.00     0.188 C 
BRANCH   2   3
ATOM      3  C   UNL A   1      36.293  21.735  24.672  1.00  0.00     0.188 C 
BRANCH   3   4
ATOM      4  O   UNL A   1      36.430  23.138  24.555  1.00  0.00    -0.376 OA
BRANCH   4   5
ATOM      5  C   UNL A   1      35.637  24.047  25.300  1.00  0.00     0.202 C 
BRANCH   5   6
ATOM      6  C   UNL A   1      34.668  23.669  26.433  1.00  0.00     0.261 C 
BRANCH   6   7
ATOM      7  O   UNL A   1      33.453  24.400  26.506  1.00  0.00    -0.460 OA
BRANCH   7   8
ATOM      8  C   UNL A   1      32.308  23.708  26.670  1.00  0.00     0.339 C 
ATOM      9  O   UNL A   1      31.947  23.122  27.666  1.00  0.00    -0.246 OA
BRANCH   8  10
ATOM     10  C   UNL A   1      31.528  23.854  25.413  1.00  0.00     0.080 A 
ATOM     11  C   UNL A   1      30.101  25.284  24.085  1.00  0.00     0.050 A 
ATOM     12  C   UNL A   1      30.282  24.446  22.985  1.00  0.00     0.028 A 
ATOM     13  C   UNL A   1      30.616  24.917  25.321  1.00  0.00     0.044 A 
ATOM     14  C   UNL A   1      31.061  23.291  23.111  1.00  0.00     0.023 A 
ATOM     15  C   UNL A   1      31.724  23.014  24.313  1.00  0.00     0.055 A 
ATOM     16  Cl  UNL A   1      32.700  21.592  24.362  1.00  0.00    -0.083 Cl
BRANCH  11  17
ATOM     17  N   UNL A   1      29.402  26.519  23.958  1.00  0.00    -0.280 N 
ATOM     18  H   UNL A   1      28.469  26.581  24.265  1.00  0.00     0.180 HD
BRANCH  17  19
ATOM     19  S   UNL A   1      30.164  27.905  23.278  1.00  0.00     0.261 S 
ATOM     20  O   UNL A   1      29.145  28.929  23.298  1.00  0.00    -0.201 OA
ATOM     21  O   UNL A   1      30.727  27.445  22.024  1.00  0.00    -0.201 OA
BRANCH  19  22
ATOM     22  C   UNL A   1      31.534  28.447  24.282  1.00  0.00     0.089 A 
ATOM     23  C   UNL A   1      34.560  29.320  27.218  1.00  0.00     0.046 C 
ATOM     24  C   UNL A   1      33.539  29.102  26.136  1.00  0.00    -0.032 A 
ATOM     25  C   UNL A   1      33.721  28.045  25.233  1.00  0.00     0.006 A 
ATOM     26  C   UNL A   1      32.418  29.930  25.975  1.00  0.00     0.045 A 
ATOM     27  C   UNL A   1      32.748  27.753  24.272  1.00  0.00     0.022 A 
ATOM     28  C   UNL A   1      31.398  29.586  25.081  1.00  0.00     0.043 A 
ATOM     29  Cl  UNL A   1      32.264  31.397  26.870  1.00  0.00    -0.084 Cl
ENDBRANCH  19  22
ENDBRANCH  17  19
ENDBRANCH  11  17
ENDBRANCH   8  10
ENDBRANCH   7   8
ENDBRANCH   6   7
ENDBRANCH   5   6
ENDBRANCH   4   5
ENDBRANCH   3   4
ENDBRANCH   2   3
ENDBRANCH   1   2
BRANCH   1  30
ATOM     30  C   UNL A   1      39.566  21.649  26.467  1.00  0.00     0.188 C 
BRANCH  30  31
ATOM     31  C   UNL A   1      40.280  22.892  27.053  1.00  0.00     0.188 C 
BRANCH  31  32
ATOM     32  O   UNL A   1      41.273  22.619  28.030  1.00  0.00    -0.376 OA
BRANCH  32  33
ATOM     33  C   UNL A   1      42.257  23.601  28.301  1.00  0.00     0.202 C 
BRANCH  33  34
ATOM     34  C   UNL A   1      42.715  24.485  27.132  1.00  0.00     0.261 C 
BRANCH  34  35
ATOM     35  O   UNL A   1      43.138  25.812  27.470  1.00  0.00    -0.460 OA
BRANCH  35  36
ATOM     36  C   UNL A   1      43.734  26.545  26.504  1.00  0.00     0.338 C 
ATOM     37  O   UNL A   1      43.973  26.200  25.363  1.00  0.00    -0.246 OA
BRANCH  36  38
ATOM     38  C   UNL A   1      43.861  27.925  27.018  1.00  0.00     0.060 A 
ATOM     39  C   UNL A   1      44.867  28.218  27.950  1.00  0.00     0.016 A 
ATOM     40  C   UNL A   1      43.013  28.931  26.552  1.00  0.00     0.016 A 
ATOM     41  C   UNL A   1      45.013  29.519  28.432  1.00  0.00     0.010 A 
ATOM     42  C   UNL A   1      43.144  30.226  27.055  1.00  0.00     0.010 A 
ATOM     43  C   UNL A   1      44.126  30.520  28.017  1.00  0.00    -0.014 A 
BRANCH  43  44
ATOM     44  C   UNL A   1      44.113  31.832  28.707  1.00  0.00     0.031 A 
ATOM     45  C   UNL A   1      45.083  32.887  28.255  1.00  0.00     0.074 A 
ATOM     46  C   UNL A   1      43.270  32.076  29.727  1.00  0.00     0.049 A 
ATOM     47  N   UNL A   1      45.303  34.076  28.748  1.00  0.00    -0.248 NA
ATOM     48  C   UNL A   1      45.921  32.552  27.090  1.00  0.00     0.031 C 
ATOM     49  C   UNL A   1      42.278  31.139  30.247  1.00  0.00     0.029 A 
ATOM     50  N   UNL A   1      43.144  33.184  30.528  1.00  0.00    -0.354 N 
ATOM     51  C   UNL A   1      46.326  34.619  27.979  1.00  0.00     0.074 A 
ATOM     52  C   UNL A   1      46.687  33.628  26.990  1.00  0.00     0.031 C 
ATOM     53  C   UNL A   1      41.666  31.699  31.306  1.00  0.00     0.029 A 
ATOM     54  C   UNL A   1      42.248  33.016  31.556  1.00  0.00     0.049 A 
ATOM     55  H   UNL A   1      43.646  34.018  30.380  1.00  0.00     0.167 HD
ATOM     56  C   UNL A   1      46.908  35.837  28.083  1.00  0.00     0.034 A 
ATOM     57  C   UNL A   1      41.960  33.820  32.601  1.00  0.00     0.034 A 
ATOM     58  C   UNL A   1      46.544  36.822  29.065  1.00  0.00     0.049 A 
ATOM     59  C   UNL A   1      42.656  35.151  32.723  1.00  0.00     0.074 A 
ATOM     60  C   UNL A   1      47.042  38.104  29.220  1.00  0.00     0.029 A 
ATOM     61  N   UNL A   1      45.613  36.629  30.073  1.00  0.00    -0.354 N 
ATOM     62  N   UNL A   1      43.538  35.701  31.921  1.00  0.00    -0.248 NA
ATOM     63  C   UNL A   1      42.300  35.985  33.880  1.00  0.00     0.031 C 
ATOM     64  C   UNL A   1      46.442  38.669  30.350  1.00  0.00     0.029 A 
ATOM     65  C   UNL A   1      45.537  37.758  30.870  1.00  0.00     0.049 A 
ATOM     66  H   UNL A   1      45.083  35.810  30.203  1.00  0.00     0.167 HD
ATOM     67  C   UNL A   1      43.814  36.955  32.458  1.00  0.00     0.074 A 
ATOM     68  C   UNL A   1      42.989  37.093  33.640  1.00  0.00     0.031 C 
ATOM     69  C   UNL A   1      44.680  37.902  32.019  1.00  0.00     0.034 A 
BRANCH  56  70
ATOM     70  C   UNL A   1      48.002  36.174  27.104  1.00  0.00     0.023 A 
ATOM     71  C   UNL A   1      47.696  36.874  25.920  1.00  0.00     0.012 A 
ATOM     72  C   UNL A   1      49.342  35.841  27.384  1.00  0.00     0.148 A 
ATOM     73  C   UNL A   1      48.701  37.209  25.013  1.00  0.00     0.002 A 
ATOM     74  C   UNL A   1      50.344  36.221  26.500  1.00  0.00     0.091 A 
ATOM     75  F   UNL A   1      49.610  35.155  28.505  1.00  0.00    -0.205 F 
ATOM     76  C   UNL A   1      50.025  36.893  25.309  1.00  0.00     0.022 A 
BRANCH  74  77
ATOM     77  S   UNL A   1      52.086  35.931  26.827  1.00  0.00     0.127 S 
ATOM     78  O   UNL A   1      52.709  36.514  25.639  1.00  0.00    -0.237 OA
ATOM     79  O   UNL A   1      52.295  36.690  28.059  1.00  0.00    -0.237 OA
ATOM     80  O   UNL A   1      52.237  34.490  26.965  1.00  0.00    -0.744 OA
ENDBRANCH  74  77
ENDBRANCH  56  70
BRANCH  57  81
ATOM     81  C   UNL A   1      40.958  33.393  33.619  1.00  0.00     0.023 A 
ATOM     82  C   UNL A   1      41.390  32.791  34.816  1.00  0.00     0.012 A 
ATOM     83  C   UNL A   1      39.578  33.579  33.404  1.00  0.00     0.148 A 
ATOM     84  C   UNL A   1      40.467  32.353  35.766  1.00  0.00     0.002 A 
ATOM     85  C   UNL A   1      38.666  33.190  34.378  1.00  0.00     0.091 A 
ATOM     86  F   UNL A   1      39.186  34.139  32.251  1.00  0.00    -0.205 F 
ATOM     87  C   UNL A   1      39.107  32.562  35.552  1.00  0.00     0.022 A 
BRANCH  85  88
ATOM     88  S   UNL A   1      36.905  33.512  34.236  1.00  0.00     0.127 S 
ATOM     89  O   UNL A   1      36.421  33.100  35.552  1.00  0.00    -0.237 OA
ATOM     90  O   UNL A   1      36.884  34.955  33.996  1.00  0.00    -0.237 OA
ATOM     91  O   UNL A   1      36.446  32.704  33.116  1.00  0.00    -0.744 OA
ENDBRANCH  85  88
ENDBRANCH  57  81
BRANCH  69  92
ATOM     92  C   UNL A   1      44.759  39.196  32.791  1.00  0.00     0.023 A 
ATOM     93  C   UNL A   1      45.660  39.321  33.867  1.00  0.00     0.012 A 
ATOM     94  C   UNL A   1      43.996  40.313  32.397  1.00  0.00     0.148 A 
ATOM     95  C   UNL A   1      45.773  40.527  34.561  1.00  0.00     0.002 A 
ATOM     96  C   UNL A   1      44.153  41.525  33.057  1.00  0.00     0.091 A 
ATOM     97  F   UNL A   1      43.135  40.171  31.378  1.00  0.00    -0.205 F 
ATOM     98  C   UNL A   1      45.030  41.630  34.149  1.00  0.00     0.022 A 
BRANCH  96  99
ATOM     99  S   UNL A   1      43.312  43.026  32.538  1.00  0.00     0.127 S 
ATOM    100  O   UNL A   1      41.908  42.634  32.645  1.00  0.00    -0.237 OA
ATOM    101  O   UNL A   1      43.755  43.991  33.544  1.00  0.00    -0.237 OA
ATOM    102  O   UNL A   1      43.778  43.304  31.186  1.00  0.00    -0.744 OA
ENDBRANCH  96  99
ENDBRANCH  69  92
ENDBRANCH  43  44
ENDBRANCH  36  38
ENDBRANCH  35  36
ENDBRANCH  34  35
ENDBRANCH  33  34
ENDBRANCH  32  33
ENDBRANCH  31  32
ENDBRANCH  30  31
ENDBRANCH   1  30
TORSDOF 26
ENDMDL
MODEL 2
REMARK VINA RESULT:      -8.8      4.224      9.413
REMARK SMILES Cc1ccc(S(=O)(=O)Nc2ccc(Cl)c(C(=O)OCCOCCOCCOCCOC(=O)c3ccc(-c4c5nc(c(-c6cccc(S(=O)(=O)[O-])c6F)c6ccc([nH]6)c(-c6cccc(S(=O)(=O)[O-])c6F)c6nc(c(-c7cccc(S(=O)(=O)[O-])c7F)c7ccc4[nH]7)C=C6)C=C5)cc3)c2)cc1Cl
REMARK SMILES IDX 24 1 23 2 22 3 21 4 20 5 19 6 18 7 16 8 17 9 15 10 10 11
REMARK SMILES IDX 11 12 96 13 12 14 13 15 14 16 9 17 6 19 7 20 8 21 5 22 1 23
REMARK SMILES IDX 2 24 3 25 98 26 4 27 97 28 99 29 25 30 26 31 27 32 28 33
REMARK SMILES IDX 29 34 30 35 31 36 32 37 33 38 34 39 95 40 35 41 94 42 36 43
REMARK SMILES IDX 37 44 38 45 88 46 39 47 93 48 87 49 89 50 40 51 92 52 86 53
REMARK SMILES IDX 85 54 41 56 73 57 53 58 72 59 54 60 57 61 71 62 90 63 55 64
REMARK SMILES IDX 56 65 70 67 91 68 58 69 42 70 43 71 51 72 44 73 46 74 52 75
REMARK SMILES IDX 45 76 47 77 48 78 49 79 50 80 74 81 75 82 83 83 76 84 78 85
REMARK SMILES IDX 84 86 77 87 79 88 80 89 81 90 82 91 59 92 60 93 68 94 61 95
REMARK SMILES IDX 63 96 69 97 62 98 64 99 65 100 66 101 67 102
REMARK H PARENT 9 18 89 55 57 66
REMARK Flexibility Score: inf
ROOT
ATOM      1  O   UNL A   1      39.674  22.890  26.219  1.00  0.00    -0.377 OA
ENDROOT
BRANCH   1   2
ATOM      2  C   UNL A   1      38.731  23.813  26.730  1.00  0.00     0.188 C 
BRANCH   2   3
ATOM      3  C   UNL A   1      37.374  23.821  25.997  1.00  0.00     0.188 C 
BRANCH   3   4
ATOM      4  O   UNL A   1      36.378  23.004  26.582  1.00  0.00    -0.376 OA
BRANCH   4   5
ATOM      5  C   UNL A   1      34.994  23.210  26.357  1.00  0.00     0.202 C 
BRANCH   5   6
ATOM      6  C   UNL A   1      34.345  23.532  25.000  1.00  0.00     0.261 C 
BRANCH   6   7
ATOM      7  O   UNL A   1      33.282  24.473  25.006  1.00  0.00    -0.460 OA
BRANCH   7   8
ATOM      8  C   UNL A   1      32.669  24.742  23.837  1.00  0.00     0.339 C 
ATOM      9  O   UNL A   1      31.918  24.016  23.224  1.00  0.00    -0.246 OA
BRANCH   8  10
ATOM     10  C   UNL A   1      33.034  26.134  23.464  1.00  0.00     0.080 A 
ATOM     11  C   UNL A   1      33.955  28.241  24.211  1.00  0.00     0.050 A 
ATOM     12  C   UNL A   1      34.080  28.658  22.887  1.00  0.00     0.028 A 
ATOM     13  C   UNL A   1      33.317  27.042  24.497  1.00  0.00     0.044 A 
ATOM     14  C   UNL A   1      33.649  27.822  21.850  1.00  0.00     0.023 A 
ATOM     15  C   UNL A   1      33.166  26.539  22.133  1.00  0.00     0.055 A 
ATOM     16  Cl  UNL A   1      32.701  25.562  20.790  1.00  0.00    -0.083 Cl
BRANCH  11  17
ATOM     17  N   UNL A   1      34.481  29.024  25.279  1.00  0.00    -0.280 N 
ATOM     18  H   UNL A   1      35.442  29.237  25.296  1.00  0.00     0.180 HD
BRANCH  17  19
ATOM     19  S   UNL A   1      33.462  29.607  26.539  1.00  0.00     0.261 S 
ATOM     20  O   UNL A   1      33.293  28.476  27.423  1.00  0.00    -0.201 OA
ATOM     21  O   UNL A   1      32.324  30.192  25.859  1.00  0.00    -0.201 OA
BRANCH  19  22
ATOM     22  C   UNL A   1      34.245  30.925  27.446  1.00  0.00     0.089 A 
ATOM     23  C   UNL A   1      35.905  33.759  30.231  1.00  0.00     0.046 C 
ATOM     24  C   UNL A   1      35.343  32.844  29.179  1.00  0.00    -0.032 A 
ATOM     25  C   UNL A   1      36.111  31.754  28.744  1.00  0.00     0.006 A 
ATOM     26  C   UNL A   1      34.084  33.048  28.594  1.00  0.00     0.045 A 
ATOM     27  C   UNL A   1      35.585  30.829  27.836  1.00  0.00     0.022 A 
ATOM     28  C   UNL A   1      33.517  32.076  27.761  1.00  0.00     0.043 A 
ATOM     29  Cl  UNL A   1      33.199  34.501  28.879  1.00  0.00    -0.084 Cl
ENDBRANCH  19  22
ENDBRANCH  17  19
ENDBRANCH  11  17
ENDBRANCH   8  10
ENDBRANCH   7   8
ENDBRANCH   6   7
ENDBRANCH   5   6
ENDBRANCH   4   5
ENDBRANCH   3   4
ENDBRANCH   2   3
ENDBRANCH   1   2
BRANCH   1  30
ATOM     30  C   UNL A   1      39.214  21.621  25.758  1.00  0.00     0.188 C 
BRANCH  30  31
ATOM     31  C   UNL A   1      39.810  20.289  26.278  1.00  0.00     0.188 C 
BRANCH  31  32
ATOM     32  O   UNL A   1      40.566  20.388  27.476  1.00  0.00    -0.376 OA
BRANCH  32  33
ATOM     33  C   UNL A   1      41.952  20.096  27.437  1.00  0.00     0.202 C 
BRANCH  33  34
ATOM     34  C   UNL A   1      42.495  19.409  26.176  1.00  0.00     0.261 C 
BRANCH  34  35
ATOM     35  O   UNL A   1      42.846  20.272  25.087  1.00  0.00    -0.460 OA
BRANCH  35  36
ATOM     36  C   UNL A   1      44.151  20.351  24.746  1.00  0.00     0.338 C 
ATOM     37  O   UNL A   1      44.787  19.549  24.089  1.00  0.00    -0.246 OA
BRANCH  36  38
ATOM     38  C   UNL A   1      44.625  21.695  25.137  1.00  0.00     0.060 A 
ATOM     39  C   UNL A   1      45.340  21.847  26.333  1.00  0.00     0.016 A 
ATOM     40  C   UNL A   1      44.396  22.793  24.304  1.00  0.00     0.016 A 
ATOM     41  C   UNL A   1      45.810  23.105  26.710  1.00  0.00     0.010 A 
ATOM     42  C   UNL A   1      44.845  24.055  24.696  1.00  0.00     0.010 A 
ATOM     43  C   UNL A   1      45.531  24.222  25.912  1.00  0.00    -0.014 A 
BRANCH  43  44
ATOM     44  C   UNL A   1      45.804  25.585  26.423  1.00  0.00     0.031 A 
ATOM     45  C   UNL A   1      44.649  26.402  26.933  1.00  0.00     0.074 A 
ATOM     46  C   UNL A   1      47.048  26.098  26.417  1.00  0.00     0.049 A 
ATOM     47  N   UNL A   1      44.631  27.636  27.360  1.00  0.00    -0.248 NA
ATOM     48  C   UNL A   1      43.336  25.736  26.960  1.00  0.00     0.031 C 
ATOM     49  C   UNL A   1      48.247  25.401  25.960  1.00  0.00     0.029 A 
ATOM     50  N   UNL A   1      47.497  27.343  26.780  1.00  0.00    -0.354 N 
ATOM     51  C   UNL A   1      43.305  27.907  27.674  1.00  0.00     0.074 A 
ATOM     52  C   UNL A   1      42.546  26.711  27.384  1.00  0.00     0.031 C 
ATOM     53  C   UNL A   1      49.294  26.242  26.037  1.00  0.00     0.029 A 
ATOM     54  C   UNL A   1      48.830  27.543  26.515  1.00  0.00     0.049 A 
ATOM     55  H   UNL A   1      46.919  28.027  27.191  1.00  0.00     0.167 HD
ATOM     56  C   UNL A   1      42.768  29.048  28.167  1.00  0.00     0.034 A 
ATOM     57  C   UNL A   1      49.580  28.660  26.613  1.00  0.00     0.034 A 
ATOM     58  C   UNL A   1      43.526  30.235  28.457  1.00  0.00     0.049 A 
ATOM     59  C   UNL A   1      48.948  29.932  27.118  1.00  0.00     0.074 A 
ATOM     60  C   UNL A   1      43.080  31.425  29.005  1.00  0.00     0.029 A 
ATOM     61  N   UNL A   1      44.879  30.392  28.204  1.00  0.00    -0.354 N 
ATOM     62  N   UNL A   1      47.717  30.142  27.522  1.00  0.00    -0.248 NA
ATOM     63  C   UNL A   1      49.815  31.117  27.206  1.00  0.00     0.031 C 
ATOM     64  C   UNL A   1      44.156  32.317  29.040  1.00  0.00     0.029 A 
ATOM     65  C   UNL A   1      45.282  31.668  28.560  1.00  0.00     0.049 A 
ATOM     66  H   UNL A   1      45.467  29.699  27.826  1.00  0.00     0.167 HD
ATOM     67  C   UNL A   1      47.672  31.468  27.942  1.00  0.00     0.074 A 
ATOM     68  C   UNL A   1      49.005  32.006  27.765  1.00  0.00     0.031 C 
ATOM     69  C   UNL A   1      46.622  32.180  28.421  1.00  0.00     0.034 A 
BRANCH  56  70
ATOM     70  C   UNL A   1      41.284  29.067  28.425  1.00  0.00     0.023 A 
ATOM     71  C   UNL A   1      40.383  29.125  27.343  1.00  0.00     0.012 A 
ATOM     72  C   UNL A   1      40.784  28.974  29.739  1.00  0.00     0.148 A 
ATOM     73  C   UNL A   1      39.006  29.124  27.566  1.00  0.00     0.002 A 
ATOM     74  C   UNL A   1      39.411  28.925  29.949  1.00  0.00     0.091 A 
ATOM     75  F   UNL A   1      41.657  28.943  30.755  1.00  0.00    -0.205 F 
ATOM     76  C   UNL A   1      38.521  29.013  28.866  1.00  0.00     0.022 A 
BRANCH  74  77
ATOM     77  S   UNL A   1      38.689  28.702  31.579  1.00  0.00     0.127 S 
ATOM     78  O   UNL A   1      39.056  29.956  32.236  1.00  0.00    -0.237 OA
ATOM     79  O   UNL A   1      37.266  28.572  31.267  1.00  0.00    -0.237 OA
ATOM     80  O   UNL A   1      39.304  27.506  32.133  1.00  0.00    -0.744 OA
ENDBRANCH  74  77
ENDBRANCH  56  70
BRANCH  57  81
ATOM     81  C   UNL A   1      51.020  28.631  26.228  1.00  0.00     0.023 A 
ATOM     82  C   UNL A   1      51.397  28.933  24.905  1.00  0.00     0.012 A 
ATOM     83  C   UNL A   1      52.017  28.302  27.167  1.00  0.00     0.148 A 
ATOM     84  C   UNL A   1      52.735  28.877  24.517  1.00  0.00     0.002 A 
ATOM     85  C   UNL A   1      53.354  28.301  26.787  1.00  0.00     0.091 A 
ATOM     86  F   UNL A   1      51.636  28.001  28.417  1.00  0.00    -0.205 F 
ATOM     87  C   UNL A   1      53.714  28.571  25.459  1.00  0.00     0.022 A 
BRANCH  85  88
ATOM     88  S   UNL A   1      54.690  28.021  27.955  1.00  0.00     0.127 S 
ATOM     89  O   UNL A   1      54.454  29.079  28.936  1.00  0.00    -0.237 OA
ATOM     90  O   UNL A   1      54.396  26.667  28.426  1.00  0.00    -0.237 OA
ATOM     91  O   UNL A   1      55.918  28.142  27.183  1.00  0.00    -0.744 OA
ENDBRANCH  85  88
ENDBRANCH  57  81
BRANCH  69  92
ATOM     92  C   UNL A   1      46.867  33.610  28.829  1.00  0.00     0.023 A 
ATOM     93  C   UNL A   1      47.349  33.904  30.120  1.00  0.00     0.012 A 
ATOM     94  C   UNL A   1      46.695  34.659  27.903  1.00  0.00     0.148 A 
ATOM     95  C   UNL A   1      47.620  35.220  30.495  1.00  0.00     0.002 A 
ATOM     96  C   UNL A   1      47.018  35.961  28.265  1.00  0.00     0.091 A 
ATOM     97  F   UNL A   1      46.224  34.362  26.683  1.00  0.00    -0.205 F 
ATOM     98  C   UNL A   1      47.467  36.246  29.564  1.00  0.00     0.022 A 
BRANCH  96  99
ATOM     99  S   UNL A   1      46.947  37.333  27.107  1.00  0.00     0.127 S 
ATOM    100  O   UNL A   1      45.661  37.942  27.444  1.00  0.00    -0.237 OA
ATOM    101  O   UNL A   1      48.116  38.124  27.493  1.00  0.00    -0.237 OA
ATOM    102  O   UNL A   1      47.026  36.745  25.777  1.00  0.00    -0.744 OA
ENDBRANCH  96  99
ENDBRANCH  69  92
ENDBRANCH  43  44
ENDBRANCH  36  38
ENDBRANCH  35  36
ENDBRANCH  34  35
ENDBRANCH  33  34
ENDBRANCH  32  33
ENDBRANCH  31  32
ENDBRANCH  30  31
ENDBRANCH   1  30
TORSDOF 26
ENDMDL
MODEL 3
REMARK VINA RESULT:      -8.2      4.783      7.191
REMARK SMILES Cc1ccc(S(=O)(=O)Nc2ccc(Cl)c(C(=O)OCCOCCOCCOCCOC(=O)c3ccc(-c4c5nc(c(-c6cccc(S(=O)(=O)[O-])c6F)c6ccc([nH]6)c(-c6cccc(S(=O)(=O)[O-])c6F)c6nc(c(-c7cccc(S(=O)(=O)[O-])c7F)c7ccc4[nH]7)C=C6)C=C5)cc3)c2)cc1Cl
REMARK SMILES IDX 24 1 23 2 22 3 21 4 20 5 19 6 18 7 16 8 17 9 15 10 10 11
REMARK SMILES IDX 11 12 96 13 12 14 13 15 14 16 9 17 6 19 7 20 8 21 5 22 1 23
REMARK SMILES IDX 2 24 3 25 98 26 4 27 97 28 99 29 25 30 26 31 27 32 28 33
REMARK SMILES IDX 29 34 30 35 31 36 32 37 33 38 34 39 95 40 35 41 94 42 36 43
REMARK SMILES IDX 37 44 38 45 88 46 39 47 93 48 87 49 89 50 40 51 92 52 86 53
REMARK SMILES IDX 85 54 41 56 73 57 53 58 72 59 54 60 57 61 71 62 90 63 55 64
REMARK SMILES IDX 56 65 70 67 91 68 58 69 42 70 43 71 51 72 44 73 46 74 52 75
REMARK SMILES IDX 45 76 47 77 48 78 49 79 50 80 74 81 75 82 83 83 76 84 78 85
REMARK SMILES IDX 84 86 77 87 79 88 80 89 81 90 82 91 59 92 60 93 68 94 61 95
REMARK SMILES IDX 63 96 69 97 62 98 64 99 65 100 66 101 67 102
REMARK H PARENT 9 18 89 55 57 66
REMARK Flexibility Score: inf
ROOT
ATOM      1  O   UNL A   1      39.706  22.818  26.374  1.00  0.00    -0.377 OA
ENDROOT
BRANCH   1   2
ATOM      2  C   UNL A   1      38.750  23.664  26.984  1.00  0.00     0.188 C 
BRANCH   2   3
ATOM      3  C   UNL A   1      37.551  24.035  26.087  1.00  0.00     0.188 C 
BRANCH   3   4
ATOM      4  O   UNL A   1      36.514  23.074  26.054  1.00  0.00    -0.376 OA
BRANCH   4   5
ATOM      5  C   UNL A   1      35.180  23.403  25.704  1.00  0.00     0.202 C 
BRANCH   5   6
ATOM      6  C   UNL A   1      34.754  24.578  24.806  1.00  0.00     0.261 C 
BRANCH   6   7
ATOM      7  O   UNL A   1      33.514  25.199  25.111  1.00  0.00    -0.460 OA
BRANCH   7   8
ATOM      8  C   UNL A   1      33.224  26.365  24.502  1.00  0.00     0.339 C 
ATOM      9  O   UNL A   1      33.139  26.563  23.310  1.00  0.00    -0.246 OA
BRANCH   8  10
ATOM     10  C   UNL A   1      32.958  27.361  25.572  1.00  0.00     0.080 A 
ATOM     11  C   UNL A   1      33.673  29.412  26.635  1.00  0.00     0.050 A 
ATOM     12  C   UNL A   1      32.448  29.499  27.295  1.00  0.00     0.028 A 
ATOM     13  C   UNL A   1      33.970  28.284  25.883  1.00  0.00     0.044 A 
ATOM     14  C   UNL A   1      31.489  28.495  27.118  1.00  0.00     0.023 A 
ATOM     15  C   UNL A   1      31.723  27.446  26.221  1.00  0.00     0.055 A 
ATOM     16  Cl  UNL A   1      30.466  26.280  26.032  1.00  0.00    -0.083 Cl
BRANCH  11  17
ATOM     17  N   UNL A   1      34.624  30.470  26.713  1.00  0.00    -0.280 N 
ATOM     18  H   UNL A   1      34.656  31.147  26.000  1.00  0.00     0.180 HD
BRANCH  17  19
ATOM     19  S   UNL A   1      35.719  30.583  28.038  1.00  0.00     0.261 S 
ATOM     20  O   UNL A   1      37.010  30.805  27.426  1.00  0.00    -0.201 OA
ATOM     21  O   UNL A   1      35.471  29.395  28.831  1.00  0.00    -0.201 OA
BRANCH  19  22
ATOM     22  C   UNL A   1      35.334  31.978  29.077  1.00  0.00     0.089 A 
ATOM     23  C   UNL A   1      33.734  35.067  31.615  1.00  0.00     0.046 C 
ATOM     24  C   UNL A   1      34.380  34.053  30.711  1.00  0.00    -0.032 A 
ATOM     25  C   UNL A   1      34.964  32.911  31.277  1.00  0.00     0.006 A 
ATOM     26  C   UNL A   1      34.443  34.214  29.319  1.00  0.00     0.045 A 
ATOM     27  C   UNL A   1      35.491  31.903  30.464  1.00  0.00     0.022 A 
ATOM     28  C   UNL A   1      34.882  33.167  28.499  1.00  0.00     0.043 A 
ATOM     29  Cl  UNL A   1      33.989  35.703  28.576  1.00  0.00    -0.084 Cl
ENDBRANCH  19  22
ENDBRANCH  17  19
ENDBRANCH  11  17
ENDBRANCH   8  10
ENDBRANCH   7   8
ENDBRANCH   6   7
ENDBRANCH   5   6
ENDBRANCH   4   5
ENDBRANCH   3   4
ENDBRANCH   2   3
ENDBRANCH   1   2
BRANCH   1  30
ATOM     30  C   UNL A   1      39.288  21.539  25.898  1.00  0.00     0.188 C 
BRANCH  30  31
ATOM     31  C   UNL A   1      39.897  20.221  26.436  1.00  0.00     0.188 C 
BRANCH  31  32
ATOM     32  O   UNL A   1      40.721  20.355  27.584  1.00  0.00    -0.376 OA
BRANCH  32  33
ATOM     33  C   UNL A   1      42.107  20.080  27.468  1.00  0.00     0.202 C 
BRANCH  33  34
ATOM     34  C   UNL A   1      42.580  19.354  26.202  1.00  0.00     0.261 C 
BRANCH  34  35
ATOM     35  O   UNL A   1      42.787  20.172  25.043  1.00  0.00    -0.460 OA
BRANCH  35  36
ATOM     36  C   UNL A   1      44.042  20.252  24.548  1.00  0.00     0.338 C 
ATOM     37  O   UNL A   1      44.579  19.476  23.782  1.00  0.00    -0.246 OA
BRANCH  36  38
ATOM     38  C   UNL A   1      44.584  21.571  24.940  1.00  0.00     0.060 A 
ATOM     39  C   UNL A   1      45.476  21.650  26.018  1.00  0.00     0.016 A 
ATOM     40  C   UNL A   1      44.239  22.716  24.220  1.00  0.00     0.016 A 
ATOM     41  C   UNL A   1      46.012  22.883  26.391  1.00  0.00     0.010 A 
ATOM     42  C   UNL A   1      44.756  23.953  24.612  1.00  0.00     0.010 A 
ATOM     43  C   UNL A   1      45.623  24.045  25.715  1.00  0.00    -0.014 A 
BRANCH  43  44
ATOM     44  C   UNL A   1      45.985  25.376  26.257  1.00  0.00     0.031 A 
ATOM     45  C   UNL A   1      47.296  25.984  25.845  1.00  0.00     0.074 A 
ATOM     46  C   UNL A   1      45.176  26.024  27.115  1.00  0.00     0.049 A 
ATOM     47  N   UNL A   1      47.855  27.096  26.240  1.00  0.00    -0.248 NA
ATOM     48  C   UNL A   1      48.085  25.231  24.854  1.00  0.00     0.031 C 
ATOM     49  C   UNL A   1      43.877  25.544  27.579  1.00  0.00     0.029 A 
ATOM     50  N   UNL A   1      45.351  27.217  27.772  1.00  0.00    -0.354 N 
ATOM     51  C   UNL A   1      49.074  27.162  25.575  1.00  0.00     0.074 A 
ATOM     52  C   UNL A   1      49.176  25.975  24.755  1.00  0.00     0.031 C 
ATOM     53  C   UNL A   1      43.386  26.419  28.476  1.00  0.00     0.029 A 
ATOM     54  C   UNL A   1      44.352  27.499  28.671  1.00  0.00     0.049 A 
ATOM     55  H   UNL A   1      46.119  27.813  27.613  1.00  0.00     0.167 HD
ATOM     56  C   UNL A   1      50.021  28.128  25.637  1.00  0.00     0.034 A 
ATOM     57  C   UNL A   1      44.248  28.495  29.575  1.00  0.00     0.034 A 
ATOM     58  C   UNL A   1      49.914  29.308  26.450  1.00  0.00     0.049 A 
ATOM     59  C   UNL A   1      45.339  29.532  29.660  1.00  0.00     0.074 A 
ATOM     60  C   UNL A   1      50.799  30.369  26.544  1.00  0.00     0.029 A 
ATOM     61  N   UNL A   1      48.875  29.574  27.327  1.00  0.00    -0.354 N 
ATOM     62  N   UNL A   1      46.431  29.645  28.942  1.00  0.00    -0.248 NA
ATOM     63  C   UNL A   1      45.170  30.595  30.662  1.00  0.00     0.031 C 
ATOM     64  C   UNL A   1      50.315  31.254  27.511  1.00  0.00     0.029 A 
ATOM     65  C   UNL A   1      49.106  30.770  27.985  1.00  0.00     0.049 A 
ATOM     66  H   UNL A   1      48.089  28.998  27.463  1.00  0.00     0.167 HD
ATOM     67  C   UNL A   1      47.060  30.806  29.381  1.00  0.00     0.074 A 
ATOM     68  C   UNL A   1      46.215  31.373  30.412  1.00  0.00     0.031 C 
ATOM     69  C   UNL A   1      48.236  31.349  28.978  1.00  0.00     0.034 A 
BRANCH  56  70
ATOM     70  C   UNL A   1      51.258  27.947  24.797  1.00  0.00     0.023 A 
ATOM     71  C   UNL A   1      52.461  27.526  25.398  1.00  0.00     0.012 A 
ATOM     72  C   UNL A   1      51.213  28.146  23.403  1.00  0.00     0.148 A 
ATOM     73  C   UNL A   1      53.610  27.337  24.631  1.00  0.00     0.002 A 
ATOM     74  C   UNL A   1      52.349  27.908  22.638  1.00  0.00     0.091 A 
ATOM     75  F   UNL A   1      50.066  28.568  22.853  1.00  0.00    -0.205 F 
ATOM     76  C   UNL A   1      53.550  27.517  23.251  1.00  0.00     0.022 A 
BRANCH  74  77
ATOM     77  S   UNL A   1      52.354  28.034  20.847  1.00  0.00     0.127 S 
ATOM     78  O   UNL A   1      52.230  26.631  20.453  1.00  0.00    -0.237 OA
ATOM     79  O   UNL A   1      51.164  28.845  20.595  1.00  0.00    -0.237 OA
ATOM     80  O   UNL A   1      53.613  28.670  20.490  1.00  0.00    -0.744 OA
ENDBRANCH  74  77
ENDBRANCH  56  70
BRANCH  57  81
ATOM     81  C   UNL A   1      43.063  28.567  30.477  1.00  0.00     0.023 A 
ATOM     82  C   UNL A   1      43.159  28.091  31.798  1.00  0.00     0.012 A 
ATOM     83  C   UNL A   1      41.840  29.102  30.028  1.00  0.00     0.148 A 
ATOM     84  C   UNL A   1      42.051  28.118  32.646  1.00  0.00     0.002 A 
ATOM     85  C   UNL A   1      40.756  29.176  30.894  1.00  0.00     0.091 A 
ATOM     86  F   UNL A   1      41.764  29.535  28.761  1.00  0.00    -0.205 F 
ATOM     87  C   UNL A   1      40.854  28.669  32.198  1.00  0.00     0.022 A 
BRANCH  85  88
ATOM     88  S   UNL A   1      39.207  29.964  30.438  1.00  0.00     0.127 S 
ATOM     89  O   UNL A   1      38.597  28.947  29.584  1.00  0.00    -0.237 OA
ATOM     90  O   UNL A   1      38.566  30.138  31.742  1.00  0.00    -0.237 OA
ATOM     91  O   UNL A   1      39.576  31.205  29.774  1.00  0.00    -0.744 OA
ENDBRANCH  85  88
ENDBRANCH  57  81
BRANCH  69  92
ATOM     92  C   UNL A   1      48.670  32.644  29.617  1.00  0.00     0.023 A 
ATOM     93  C   UNL A   1      49.502  32.626  30.753  1.00  0.00     0.012 A 
ATOM     94  C   UNL A   1      48.316  33.881  29.040  1.00  0.00     0.148 A 
ATOM     95  C   UNL A   1      49.946  33.819  31.327  1.00  0.00     0.002 A 
ATOM     96  C   UNL A   1      48.805  35.062  29.585  1.00  0.00     0.091 A 
ATOM     97  F   UNL A   1      47.514  33.878  27.966  1.00  0.00    -0.205 F 
ATOM     98  C   UNL A   1      49.608  35.034  30.736  1.00  0.00     0.022 A 
BRANCH  96  99
ATOM     99  S   UNL A   1      48.504  36.668  28.838  1.00  0.00     0.127 S 
ATOM    100  O   UNL A   1      48.889  36.428  27.448  1.00  0.00    -0.237 OA
ATOM    101  O   UNL A   1      47.068  36.844  29.052  1.00  0.00    -0.237 OA
ATOM    102  O   UNL A   1      49.344  37.614  29.560  1.00  0.00    -0.744 OA
ENDBRANCH  96  99
ENDBRANCH  69  92
ENDBRANCH  43  44
ENDBRANCH  36  38
ENDBRANCH  35  36
ENDBRANCH  34  35
ENDBRANCH  33  34
ENDBRANCH  32  33
ENDBRANCH  31  32
ENDBRANCH  30  31
ENDBRANCH   1  30
TORSDOF 26
ENDMDL
