MODEL 1
REMARK VINA RESULT:      -7.8      0.000      0.000
REMARK SMILES O=C(N[C@@H](CS)C(=O)N[C@@H](CO)C(=O)OCCOCCOCCOCCOC(=O)c1ccc(-c2c3nc(c(-c4cccc(S(=O)(=O)[O-])c4F)c4ccc([nH]4)c(-c4cccc(S(=O)(=O)[O-])c4F)c4nc(c(-c5cccc(S(=O)(=O)[O-])c5F)c5ccc2[nH]5)C=C4)C=C3)cc1)c1ccc(F)cc1
REMARK SMILES IDX 20 1 19 2 18 3 17 4 16 5 15 6 13 7 14 8 10 9 9 10 7 11 8 12
REMARK SMILES IDX 4 14 3 15 1 16 2 17 93 19 94 20 99 21 95 22 98 23 96 24
REMARK SMILES IDX 97 25 5 26 6 27 11 29 12 30 21 32 22 33 23 34 24 35 25 36
REMARK SMILES IDX 26 37 27 38 28 39 29 40 30 41 31 42 92 43 32 44 91 45 33 46
REMARK SMILES IDX 34 47 35 48 85 49 36 50 90 51 84 52 86 53 37 54 89 55 83 56
REMARK SMILES IDX 82 57 38 59 70 60 50 61 69 62 51 63 54 64 68 65 87 66 52 67
REMARK SMILES IDX 53 68 67 70 88 71 55 72 39 73 40 74 48 75 41 76 43 77 49 78
REMARK SMILES IDX 42 79 44 80 45 81 46 82 47 83 71 84 72 85 80 86 73 87 75 88
REMARK SMILES IDX 81 89 74 90 76 91 77 92 78 93 79 94 56 95 57 96 65 97 58 98
REMARK SMILES IDX 60 99 66 100 59 101 61 102 62 103 63 104 64 105
REMARK H PARENT 9 13 3 18 6 28 12 31 86 58 54 69
REMARK Flexibility Score: inf
ROOT
ATOM      1  C   UNL A   1      33.464  32.888  27.842  1.00  0.00     0.188 C 
ENDROOT
BRANCH   1   2
ATOM      2  C   UNL A   1      33.799  31.395  27.975  1.00  0.00     0.188 C 
BRANCH   2   3
ATOM      3  O   UNL A   1      34.200  30.645  26.840  1.00  0.00    -0.376 OA
BRANCH   3   4
ATOM      4  C   UNL A   1      33.385  29.566  26.394  1.00  0.00     0.202 C 
BRANCH   4   5
ATOM      5  C   UNL A   1      33.774  28.103  26.690  1.00  0.00     0.261 C 
BRANCH   5   6
ATOM      6  O   UNL A   1      33.147  27.094  25.871  1.00  0.00    -0.462 OA
BRANCH   6   7
ATOM      7  C   UNL A   1      32.092  26.432  26.412  1.00  0.00     0.331 C 
ATOM      8  O   UNL A   1      31.327  26.905  27.248  1.00  0.00    -0.250 OA
BRANCH   7   9
ATOM      9  C   UNL A   1      31.940  24.977  25.911  1.00  0.00     0.218 C 
BRANCH   9  10
ATOM     10  N   UNL A   1      32.425  23.870  26.751  1.00  0.00    -0.339 N 
ATOM     11  C   UNL A   1      32.862  22.615  26.455  1.00  0.00     0.244 C 
ATOM     12  O   UNL A   1      33.328  21.949  27.389  1.00  0.00    -0.273 OA
ATOM     13  H   UNL A   1      32.437  24.078  27.713  1.00  0.00     0.164 HD
BRANCH  11  14
ATOM     14  C   UNL A   1      32.911  22.010  25.034  1.00  0.00     0.181 C 
BRANCH  14  15
ATOM     15  N   UNL A   1      33.214  22.976  23.978  1.00  0.00    -0.339 N 
ATOM     16  O   UNL A   1      34.416  24.464  22.808  1.00  0.00    -0.269 OA
ATOM     17  C   UNL A   1      34.405  23.577  23.658  1.00  0.00     0.251 C 
ATOM     18  H   UNL A   1      32.449  23.233  23.413  1.00  0.00     0.164 HD
BRANCH  17  19
ATOM     19  C   UNL A   1      35.666  23.224  24.351  1.00  0.00     0.040 A 
ATOM     20  C   UNL A   1      36.504  22.191  23.909  1.00  0.00     0.017 A 
ATOM     21  C   UNL A   1      36.043  24.001  25.455  1.00  0.00     0.017 A 
ATOM     22  C   UNL A   1      37.659  21.874  24.628  1.00  0.00     0.040 A 
ATOM     23  C   UNL A   1      37.214  23.699  26.155  1.00  0.00     0.040 A 
ATOM     24  C   UNL A   1      38.000  22.628  25.746  1.00  0.00     0.123 A 
ATOM     25  F   UNL A   1      39.109  22.324  26.433  1.00  0.00    -0.207 F 
ENDBRANCH  17  19
ENDBRANCH  14  15
BRANCH  14  26
ATOM     26  C   UNL A   1      33.626  20.652  24.906  1.00  0.00     0.101 C 
BRANCH  26  27
ATOM     27  S   UNL A   1      32.647  19.142  25.177  1.00  0.00    -0.177 SA
ATOM     28  H   UNL A   1      31.556  19.437  25.933  1.00  0.00     0.102 HD
ENDBRANCH  26  27
ENDBRANCH  14  26
ENDBRANCH  11  14
ENDBRANCH   9  10
BRANCH   9  29
ATOM     29  C   UNL A   1      30.455  24.764  25.604  1.00  0.00     0.193 C 
BRANCH  29  30
ATOM     30  O   UNL A   1      30.273  24.131  24.344  1.00  0.00    -0.394 OA
ATOM     31  H   UNL A   1      29.461  24.461  23.929  1.00  0.00     0.210 HD
ENDBRANCH  29  30
ENDBRANCH   9  29
ENDBRANCH   7   9
ENDBRANCH   6   7
ENDBRANCH   5   6
ENDBRANCH   4   5
ENDBRANCH   3   4
ENDBRANCH   2   3
ENDBRANCH   1   2
BRANCH   1  32
ATOM     32  O   UNL A   1      34.564  33.736  27.611  1.00  0.00    -0.377 OA
BRANCH  32  33
ATOM     33  C   UNL A   1      34.800  34.731  28.594  1.00  0.00     0.188 C 
BRANCH  33  34
ATOM     34  C   UNL A   1      33.644  35.038  29.565  1.00  0.00     0.188 C 
BRANCH  34  35
ATOM     35  O   UNL A   1      34.070  35.290  30.903  1.00  0.00    -0.376 OA
BRANCH  35  36
ATOM     36  C   UNL A   1      34.145  34.192  31.803  1.00  0.00     0.202 C 
BRANCH  36  37
ATOM     37  C   UNL A   1      34.490  32.809  31.225  1.00  0.00     0.261 C 
BRANCH  37  38
ATOM     38  O   UNL A   1      35.614  32.122  31.797  1.00  0.00    -0.460 OA
BRANCH  38  39
ATOM     39  C   UNL A   1      36.851  32.350  31.307  1.00  0.00     0.338 C 
ATOM     40  O   UNL A   1      37.192  32.327  30.137  1.00  0.00    -0.246 OA
BRANCH  39  41
ATOM     41  C   UNL A   1      37.672  32.870  32.423  1.00  0.00     0.060 A 
ATOM     42  C   UNL A   1      37.332  34.102  33.003  1.00  0.00     0.016 A 
ATOM     43  C   UNL A   1      38.731  32.118  32.939  1.00  0.00     0.016 A 
ATOM     44  C   UNL A   1      38.053  34.585  34.096  1.00  0.00     0.010 A 
ATOM     45  C   UNL A   1      39.473  32.621  34.011  1.00  0.00     0.010 A 
ATOM     46  C   UNL A   1      39.149  33.864  34.584  1.00  0.00    -0.014 A 
BRANCH  46  47
ATOM     47  C   UNL A   1      40.072  34.479  35.567  1.00  0.00     0.031 A 
ATOM     48  C   UNL A   1      39.776  34.299  37.029  1.00  0.00     0.074 A 
ATOM     49  C   UNL A   1      41.130  35.214  35.177  1.00  0.00     0.049 A 
ATOM     50  N   UNL A   1      40.372  34.820  38.068  1.00  0.00    -0.248 NA
ATOM     51  C   UNL A   1      38.648  33.411  37.362  1.00  0.00     0.031 C 
ATOM     52  C   UNL A   1      41.535  35.447  33.792  1.00  0.00     0.029 A 
ATOM     53  N   UNL A   1      42.035  35.931  35.920  1.00  0.00    -0.354 N 
ATOM     54  C   UNL A   1      39.673  34.354  39.175  1.00  0.00     0.074 A 
ATOM     55  C   UNL A   1      38.608  33.509  38.682  1.00  0.00     0.031 C 
ATOM     56  C   UNL A   1      42.585  36.288  33.783  1.00  0.00     0.029 A 
ATOM     57  C   UNL A   1      42.901  36.678  35.156  1.00  0.00     0.049 A 
ATOM     58  H   UNL A   1      42.061  35.913  36.904  1.00  0.00     0.167 HD
ATOM     59  C   UNL A   1      39.901  34.603  40.486  1.00  0.00     0.034 A 
ATOM     60  C   UNL A   1      43.816  37.600  35.524  1.00  0.00     0.034 A 
ATOM     61  C   UNL A   1      40.961  35.442  40.975  1.00  0.00     0.049 A 
ATOM     62  C   UNL A   1      44.013  37.903  36.989  1.00  0.00     0.074 A 
ATOM     63  C   UNL A   1      41.300  35.719  42.287  1.00  0.00     0.029 A 
ATOM     64  N   UNL A   1      41.837  36.158  40.174  1.00  0.00    -0.354 N 
ATOM     65  N   UNL A   1      43.425  37.368  38.032  1.00  0.00    -0.248 NA
ATOM     66  C   UNL A   1      45.018  38.923  37.329  1.00  0.00     0.031 C 
ATOM     67  C   UNL A   1      42.356  36.636  42.280  1.00  0.00     0.029 A 
ATOM     68  C   UNL A   1      42.700  36.897  40.963  1.00  0.00     0.049 A 
ATOM     69  H   UNL A   1      41.843  36.143  39.190  1.00  0.00     0.167 HD
ATOM     70  C   UNL A   1      44.008  37.961  39.148  1.00  0.00     0.074 A 
ATOM     71  C   UNL A   1      45.013  38.880  38.654  1.00  0.00     0.031 C 
ATOM     72  C   UNL A   1      43.728  37.774  40.462  1.00  0.00     0.034 A 
BRANCH  59  73
ATOM     73  C   UNL A   1      38.983  33.956  41.486  1.00  0.00     0.023 A 
ATOM     74  C   UNL A   1      37.908  34.688  42.030  1.00  0.00     0.012 A 
ATOM     75  C   UNL A   1      39.156  32.606  41.852  1.00  0.00     0.148 A 
ATOM     76  C   UNL A   1      37.039  34.098  42.948  1.00  0.00     0.002 A 
ATOM     77  C   UNL A   1      38.259  32.012  42.730  1.00  0.00     0.091 A 
ATOM     78  F   UNL A   1      40.199  31.936  41.343  1.00  0.00    -0.205 F 
ATOM     79  C   UNL A   1      37.208  32.758  43.288  1.00  0.00     0.022 A 
BRANCH  77  80
ATOM     80  S   UNL A   1      38.346  30.274  43.172  1.00  0.00     0.127 S 
ATOM     81  O   UNL A   1      37.213  30.146  44.088  1.00  0.00    -0.237 OA
ATOM     82  O   UNL A   1      38.159  29.619  41.877  1.00  0.00    -0.237 OA
ATOM     83  O   UNL A   1      39.657  30.075  43.771  1.00  0.00    -0.744 OA
ENDBRANCH  77  80
ENDBRANCH  59  73
BRANCH  60  84
ATOM     84  C   UNL A   1      44.622  38.310  34.490  1.00  0.00     0.023 A 
ATOM     85  C   UNL A   1      45.896  37.821  34.142  1.00  0.00     0.012 A 
ATOM     86  C   UNL A   1      44.136  39.469  33.854  1.00  0.00     0.148 A 
ATOM     87  C   UNL A   1      46.683  38.490  33.204  1.00  0.00     0.002 A 
ATOM     88  C   UNL A   1      44.900  40.098  32.880  1.00  0.00     0.091 A 
ATOM     89  F   UNL A   1      42.930  39.932  34.215  1.00  0.00    -0.205 F 
ATOM     90  C   UNL A   1      46.183  39.622  32.566  1.00  0.00     0.022 A 
BRANCH  88  91
ATOM     91  S   UNL A   1      44.288  41.489  31.920  1.00  0.00     0.127 S 
ATOM     92  O   UNL A   1      44.314  42.567  32.906  1.00  0.00    -0.237 OA
ATOM     93  O   UNL A   1      45.297  41.592  30.867  1.00  0.00    -0.237 OA
ATOM     94  O   UNL A   1      42.967  41.093  31.451  1.00  0.00    -0.744 OA
ENDBRANCH  88  91
ENDBRANCH  60  84
BRANCH  72  95
ATOM     95  C   UNL A   1      44.536  38.548  41.474  1.00  0.00     0.023 A 
ATOM     96  C   UNL A   1      44.041  39.765  41.985  1.00  0.00     0.012 A 
ATOM     97  C   UNL A   1      45.744  38.028  41.980  1.00  0.00     0.148 A 
ATOM     98  C   UNL A   1      44.751  40.466  42.960  1.00  0.00     0.002 A 
ATOM     99  C   UNL A   1      46.419  38.705  42.988  1.00  0.00     0.091 A 
ATOM    100  F   UNL A   1      46.204  36.876  41.472  1.00  0.00    -0.205 F 
ATOM    101  C   UNL A   1      45.931  39.930  43.470  1.00  0.00     0.022 A 
BRANCH  99 102
ATOM    102  S   UNL A   1      47.894  38.048  43.776  1.00  0.00     0.127 S 
ATOM    103  O   UNL A   1      48.281  39.153  44.651  1.00  0.00    -0.237 OA
ATOM    104  O   UNL A   1      47.374  36.871  44.473  1.00  0.00    -0.237 OA
ATOM    105  O   UNL A   1      48.829  37.751  42.699  1.00  0.00    -0.744 OA
ENDBRANCH  99 102
ENDBRANCH  72  95
ENDBRANCH  46  47
ENDBRANCH  39  41
ENDBRANCH  38  39
ENDBRANCH  37  38
ENDBRANCH  36  37
ENDBRANCH  35  36
ENDBRANCH  34  35
ENDBRANCH  33  34
ENDBRANCH  32  33
ENDBRANCH   1  32
TORSDOF 31
ENDMDL
MODEL 2
REMARK VINA RESULT:      -7.7      4.521      6.363
REMARK SMILES O=C(N[C@@H](CS)C(=O)N[C@@H](CO)C(=O)OCCOCCOCCOCCOC(=O)c1ccc(-c2c3nc(c(-c4cccc(S(=O)(=O)[O-])c4F)c4ccc([nH]4)c(-c4cccc(S(=O)(=O)[O-])c4F)c4nc(c(-c5cccc(S(=O)(=O)[O-])c5F)c5ccc2[nH]5)C=C4)C=C3)cc1)c1ccc(F)cc1
REMARK SMILES IDX 20 1 19 2 18 3 17 4 16 5 15 6 13 7 14 8 10 9 9 10 7 11 8 12
REMARK SMILES IDX 4 14 3 15 1 16 2 17 93 19 94 20 99 21 95 22 98 23 96 24
REMARK SMILES IDX 97 25 5 26 6 27 11 29 12 30 21 32 22 33 23 34 24 35 25 36
REMARK SMILES IDX 26 37 27 38 28 39 29 40 30 41 31 42 92 43 32 44 91 45 33 46
REMARK SMILES IDX 34 47 35 48 85 49 36 50 90 51 84 52 86 53 37 54 89 55 83 56
REMARK SMILES IDX 82 57 38 59 70 60 50 61 69 62 51 63 54 64 68 65 87 66 52 67
REMARK SMILES IDX 53 68 67 70 88 71 55 72 39 73 40 74 48 75 41 76 43 77 49 78
REMARK SMILES IDX 42 79 44 80 45 81 46 82 47 83 71 84 72 85 80 86 73 87 75 88
REMARK SMILES IDX 81 89 74 90 76 91 77 92 78 93 79 94 56 95 57 96 65 97 58 98
REMARK SMILES IDX 60 99 66 100 59 101 61 102 62 103 63 104 64 105
REMARK H PARENT 9 13 3 18 6 28 12 31 86 58 54 69
REMARK Flexibility Score: inf
ROOT
ATOM      1  C   UNL A   1      33.756  33.635  27.877  1.00  0.00     0.188 C 
ENDROOT
BRANCH   1   2
ATOM      2  C   UNL A   1      35.002  32.744  27.997  1.00  0.00     0.188 C 
BRANCH   2   3
ATOM      3  O   UNL A   1      35.058  31.716  28.974  1.00  0.00    -0.376 OA
BRANCH   3   4
ATOM      4  C   UNL A   1      35.914  30.599  28.759  1.00  0.00     0.202 C 
BRANCH   4   5
ATOM      5  C   UNL A   1      35.414  29.350  28.004  1.00  0.00     0.261 C 
BRANCH   5   6
ATOM      6  O   UNL A   1      34.708  29.586  26.768  1.00  0.00    -0.462 OA
BRANCH   6   7
ATOM      7  C   UNL A   1      33.363  29.408  26.785  1.00  0.00     0.331 C 
ATOM      8  O   UNL A   1      32.570  30.136  27.378  1.00  0.00    -0.250 OA
BRANCH   7   9
ATOM      9  C   UNL A   1      32.884  28.159  26.010  1.00  0.00     0.218 C 
BRANCH   9  10
ATOM     10  N   UNL A   1      33.649  26.906  26.117  1.00  0.00    -0.339 N 
ATOM     11  C   UNL A   1      33.484  25.677  25.554  1.00  0.00     0.244 C 
ATOM     12  O   UNL A   1      34.382  24.847  25.747  1.00  0.00    -0.273 OA
ATOM     13  H   UNL A   1      34.434  26.969  26.708  1.00  0.00     0.164 HD
BRANCH  11  14
ATOM     14  C   UNL A   1      32.318  25.285  24.619  1.00  0.00     0.181 C 
BRANCH  14  15
ATOM     15  N   UNL A   1      32.696  25.138  23.213  1.00  0.00    -0.339 N 
ATOM     16  O   UNL A   1      33.546  24.159  21.384  1.00  0.00    -0.269 OA
ATOM     17  C   UNL A   1      33.162  24.035  22.544  1.00  0.00     0.251 C 
ATOM     18  H   UNL A   1      32.601  25.951  22.666  1.00  0.00     0.164 HD
BRANCH  17  19
ATOM     19  C   UNL A   1      33.269  22.711  23.204  1.00  0.00     0.040 A 
ATOM     20  C   UNL A   1      32.267  21.737  23.101  1.00  0.00     0.017 A 
ATOM     21  C   UNL A   1      34.449  22.425  23.905  1.00  0.00     0.017 A 
ATOM     22  C   UNL A   1      32.402  20.523  23.780  1.00  0.00     0.040 A 
ATOM     23  C   UNL A   1      34.593  21.199  24.558  1.00  0.00     0.040 A 
ATOM     24  C   UNL A   1      33.561  20.269  24.505  1.00  0.00     0.123 A 
ATOM     25  F   UNL A   1      33.690  19.104  25.154  1.00  0.00    -0.207 F 
ENDBRANCH  17  19
ENDBRANCH  14  15
BRANCH  14  26
ATOM     26  C   UNL A   1      31.359  24.207  25.157  1.00  0.00     0.101 C 
BRANCH  26  27
ATOM     27  S   UNL A   1      31.562  23.667  26.883  1.00  0.00    -0.177 SA
ATOM     28  H   UNL A   1      30.961  22.459  27.054  1.00  0.00     0.102 HD
ENDBRANCH  26  27
ENDBRANCH  14  26
ENDBRANCH  11  14
ENDBRANCH   9  10
BRANCH   9  29
ATOM     29  C   UNL A   1      31.434  27.902  26.428  1.00  0.00     0.193 C 
BRANCH  29  30
ATOM     30  O   UNL A   1      31.354  27.481  27.784  1.00  0.00    -0.394 OA
ATOM     31  H   UNL A   1      32.240  27.493  28.180  1.00  0.00     0.210 HD
ENDBRANCH  29  30
ENDBRANCH   9  29
ENDBRANCH   7   9
ENDBRANCH   6   7
ENDBRANCH   5   6
ENDBRANCH   4   5
ENDBRANCH   3   4
ENDBRANCH   2   3
ENDBRANCH   1   2
BRANCH   1  32
ATOM     32  O   UNL A   1      33.999  34.964  27.483  1.00  0.00    -0.377 OA
BRANCH  32  33
ATOM     33  C   UNL A   1      34.055  35.923  28.528  1.00  0.00     0.188 C 
BRANCH  33  34
ATOM     34  C   UNL A   1      33.313  35.574  29.832  1.00  0.00     0.188 C 
BRANCH  34  35
ATOM     35  O   UNL A   1      32.777  36.710  30.508  1.00  0.00    -0.376 OA
BRANCH  35  36
ATOM     36  C   UNL A   1      33.015  36.837  31.904  1.00  0.00     0.202 C 
BRANCH  36  37
ATOM     37  C   UNL A   1      33.196  35.548  32.723  1.00  0.00     0.261 C 
BRANCH  37  38
ATOM     38  O   UNL A   1      34.502  35.296  33.266  1.00  0.00    -0.460 OA
BRANCH  38  39
ATOM     39  C   UNL A   1      35.202  34.224  32.838  1.00  0.00     0.338 C 
ATOM     40  O   UNL A   1      34.956  33.526  31.871  1.00  0.00    -0.246 OA
BRANCH  39  41
ATOM     41  C   UNL A   1      36.461  34.190  33.616  1.00  0.00     0.060 A 
ATOM     42  C   UNL A   1      37.657  34.577  32.993  1.00  0.00     0.016 A 
ATOM     43  C   UNL A   1      36.454  33.840  34.968  1.00  0.00     0.016 A 
ATOM     44  C   UNL A   1      38.848  34.610  33.721  1.00  0.00     0.010 A 
ATOM     45  C   UNL A   1      37.653  33.841  35.686  1.00  0.00     0.010 A 
ATOM     46  C   UNL A   1      38.859  34.209  35.062  1.00  0.00    -0.014 A 
BRANCH  46  47
ATOM     47  C   UNL A   1      40.143  33.997  35.770  1.00  0.00     0.031 A 
ATOM     48  C   UNL A   1      40.854  32.688  35.574  1.00  0.00     0.074 A 
ATOM     49  C   UNL A   1      40.653  34.925  36.599  1.00  0.00     0.049 A 
ATOM     50  N   UNL A   1      41.930  32.231  36.158  1.00  0.00    -0.248 NA
ATOM     51  C   UNL A   1      40.267  31.767  34.585  1.00  0.00     0.031 C 
ATOM     52  C   UNL A   1      40.070  36.240  36.859  1.00  0.00     0.029 A 
ATOM     53  N   UNL A   1      41.763  34.882  37.407  1.00  0.00    -0.354 N 
ATOM     54  C   UNL A   1      42.129  30.959  35.637  1.00  0.00     0.074 A 
ATOM     55  C   UNL A   1      41.064  30.714  34.690  1.00  0.00     0.031 C 
ATOM     56  C   UNL A   1      40.806  36.864  37.797  1.00  0.00     0.029 A 
ATOM     57  C   UNL A   1      41.888  35.979  38.227  1.00  0.00     0.049 A 
ATOM     58  H   UNL A   1      42.408  34.137  37.399  1.00  0.00     0.167 HD
ATOM     59  C   UNL A   1      43.115  30.074  35.917  1.00  0.00     0.034 A 
ATOM     60  C   UNL A   1      42.752  36.221  39.235  1.00  0.00     0.034 A 
ATOM     61  C   UNL A   1      44.174  30.318  36.857  1.00  0.00     0.049 A 
ATOM     62  C   UNL A   1      43.807  35.194  39.567  1.00  0.00     0.074 A 
ATOM     63  C   UNL A   1      45.243  29.501  37.176  1.00  0.00     0.029 A 
ATOM     64  N   UNL A   1      44.285  31.451  37.647  1.00  0.00    -0.354 N 
ATOM     65  N   UNL A   1      44.057  34.045  38.987  1.00  0.00    -0.248 NA
ATOM     66  C   UNL A   1      44.716  35.510  40.682  1.00  0.00     0.031 C 
ATOM     67  C   UNL A   1      45.979  30.123  38.190  1.00  0.00     0.029 A 
ATOM     68  C   UNL A   1      45.391  31.345  38.473  1.00  0.00     0.049 A 
ATOM     69  H   UNL A   1      43.668  32.218  37.626  1.00  0.00     0.167 HD
ATOM     70  C   UNL A   1      45.165  33.516  39.642  1.00  0.00     0.074 A 
ATOM     71  C   UNL A   1      45.554  34.483  40.648  1.00  0.00     0.031 C 
ATOM     72  C   UNL A   1      45.796  32.333  39.440  1.00  0.00     0.034 A 
BRANCH  59  73
ATOM     73  C   UNL A   1      43.092  28.755  35.193  1.00  0.00     0.023 A 
ATOM     74  C   UNL A   1      43.787  28.610  33.975  1.00  0.00     0.012 A 
ATOM     75  C   UNL A   1      42.420  27.646  35.743  1.00  0.00     0.148 A 
ATOM     76  C   UNL A   1      43.787  27.391  33.299  1.00  0.00     0.002 A 
ATOM     77  C   UNL A   1      42.464  26.422  35.088  1.00  0.00     0.091 A 
ATOM     78  F   UNL A   1      41.744  27.811  36.888  1.00  0.00    -0.205 F 
ATOM     79  C   UNL A   1      43.136  26.295  33.860  1.00  0.00     0.022 A 
BRANCH  77  80
ATOM     80  S   UNL A   1      41.722  24.934  35.765  1.00  0.00     0.127 S 
ATOM     81  O   UNL A   1      42.185  24.979  37.151  1.00  0.00    -0.237 OA
ATOM     82  O   UNL A   1      40.294  25.198  35.590  1.00  0.00    -0.237 OA
ATOM     83  O   UNL A   1      42.239  23.828  34.971  1.00  0.00    -0.744 OA
ENDBRANCH  77  80
ENDBRANCH  59  73
BRANCH  60  84
ATOM     84  C   UNL A   1      42.662  37.491  40.010  1.00  0.00     0.023 A 
ATOM     85  C   UNL A   1      43.289  38.653  39.519  1.00  0.00     0.012 A 
ATOM     86  C   UNL A   1      41.965  37.552  41.233  1.00  0.00     0.148 A 
ATOM     87  C   UNL A   1      43.249  39.844  40.247  1.00  0.00     0.002 A 
ATOM     88  C   UNL A   1      41.880  38.754  41.923  1.00  0.00     0.091 A 
ATOM     89  F   UNL A   1      41.393  36.430  41.694  1.00  0.00    -0.205 F 
ATOM     90  C   UNL A   1      42.537  39.898  41.442  1.00  0.00     0.022 A 
BRANCH  88  91
ATOM     91  S   UNL A   1      40.886  38.948  43.407  1.00  0.00     0.127 S 
ATOM     92  O   UNL A   1      41.496  37.971  44.306  1.00  0.00    -0.237 OA
ATOM     93  O   UNL A   1      41.136  40.346  43.755  1.00  0.00    -0.237 OA
ATOM     94  O   UNL A   1      39.515  38.665  43.003  1.00  0.00    -0.744 OA
ENDBRANCH  88  91
ENDBRANCH  60  84
BRANCH  72  95
ATOM     95  C   UNL A   1      46.997  32.017  40.296  1.00  0.00     0.023 A 
ATOM     96  C   UNL A   1      48.277  32.447  39.896  1.00  0.00     0.012 A 
ATOM     97  C   UNL A   1      46.844  31.368  41.537  1.00  0.00     0.148 A 
ATOM     98  C   UNL A   1      49.391  32.209  40.702  1.00  0.00     0.002 A 
ATOM     99  C   UNL A   1      47.949  31.181  42.360  1.00  0.00     0.091 A 
ATOM    100  F   UNL A   1      45.620  30.955  41.895  1.00  0.00    -0.205 F 
ATOM    101  C   UNL A   1      49.224  31.588  41.938  1.00  0.00     0.022 A 
BRANCH  99 102
ATOM    102  S   UNL A   1      47.821  30.479  44.008  1.00  0.00     0.127 S 
ATOM    103  O   UNL A   1      47.471  31.654  44.805  1.00  0.00    -0.237 OA
ATOM    104  O   UNL A   1      46.740  29.507  43.848  1.00  0.00    -0.237 OA
ATOM    105  O   UNL A   1      49.124  29.895  44.301  1.00  0.00    -0.744 OA
ENDBRANCH  99 102
ENDBRANCH  72  95
ENDBRANCH  46  47
ENDBRANCH  39  41
ENDBRANCH  38  39
ENDBRANCH  37  38
ENDBRANCH  36  37
ENDBRANCH  35  36
ENDBRANCH  34  35
ENDBRANCH  33  34
ENDBRANCH  32  33
ENDBRANCH   1  32
TORSDOF 31
ENDMDL
MODEL 3
REMARK VINA RESULT:      -7.6      2.683      3.533
REMARK SMILES O=C(N[C@@H](CS)C(=O)N[C@@H](CO)C(=O)OCCOCCOCCOCCOC(=O)c1ccc(-c2c3nc(c(-c4cccc(S(=O)(=O)[O-])c4F)c4ccc([nH]4)c(-c4cccc(S(=O)(=O)[O-])c4F)c4nc(c(-c5cccc(S(=O)(=O)[O-])c5F)c5ccc2[nH]5)C=C4)C=C3)cc1)c1ccc(F)cc1
REMARK SMILES IDX 20 1 19 2 18 3 17 4 16 5 15 6 13 7 14 8 10 9 9 10 7 11 8 12
REMARK SMILES IDX 4 14 3 15 1 16 2 17 93 19 94 20 99 21 95 22 98 23 96 24
REMARK SMILES IDX 97 25 5 26 6 27 11 29 12 30 21 32 22 33 23 34 24 35 25 36
REMARK SMILES IDX 26 37 27 38 28 39 29 40 30 41 31 42 92 43 32 44 91 45 33 46
REMARK SMILES IDX 34 47 35 48 85 49 36 50 90 51 84 52 86 53 37 54 89 55 83 56
REMARK SMILES IDX 82 57 38 59 70 60 50 61 69 62 51 63 54 64 68 65 87 66 52 67
REMARK SMILES IDX 53 68 67 70 88 71 55 72 39 73 40 74 48 75 41 76 43 77 49 78
REMARK SMILES IDX 42 79 44 80 45 81 46 82 47 83 71 84 72 85 80 86 73 87 75 88
REMARK SMILES IDX 81 89 74 90 76 91 77 92 78 93 79 94 56 95 57 96 65 97 58 98
REMARK SMILES IDX 60 99 66 100 59 101 61 102 62 103 63 104 64 105
REMARK H PARENT 9 13 3 18 6 28 12 31 86 58 54 69
REMARK Flexibility Score: inf
ROOT
ATOM      1  C   UNL A   1      33.843  34.116  27.901  1.00  0.00     0.188 C 
ENDROOT
BRANCH   1   2
ATOM      2  C   UNL A   1      34.872  32.977  27.935  1.00  0.00     0.188 C 
BRANCH   2   3
ATOM      3  O   UNL A   1      34.561  31.746  28.567  1.00  0.00    -0.376 OA
BRANCH   3   4
ATOM      4  C   UNL A   1      35.502  30.679  28.516  1.00  0.00     0.202 C 
BRANCH   4   5
ATOM      5  C   UNL A   1      35.250  29.439  27.634  1.00  0.00     0.261 C 
BRANCH   5   6
ATOM      6  O   UNL A   1      34.404  29.632  26.482  1.00  0.00    -0.462 OA
BRANCH   6   7
ATOM      7  C   UNL A   1      33.119  29.204  26.584  1.00  0.00     0.331 C 
ATOM      8  O   UNL A   1      32.231  29.803  27.187  1.00  0.00    -0.250 OA
BRANCH   7   9
ATOM      9  C   UNL A   1      32.852  27.846  25.895  1.00  0.00     0.218 C 
BRANCH   9  10
ATOM     10  N   UNL A   1      33.811  26.745  26.076  1.00  0.00    -0.339 N 
ATOM     11  C   UNL A   1      33.918  25.515  25.500  1.00  0.00     0.244 C 
ATOM     12  O   UNL A   1      34.925  24.852  25.780  1.00  0.00    -0.273 OA
ATOM     13  H   UNL A   1      34.512  26.934  26.741  1.00  0.00     0.164 HD
BRANCH  11  14
ATOM     14  C   UNL A   1      32.933  24.941  24.457  1.00  0.00     0.181 C 
BRANCH  14  15
ATOM     15  N   UNL A   1      33.349  25.132  23.067  1.00  0.00    -0.339 N 
ATOM     16  O   UNL A   1      33.290  25.934  20.974  1.00  0.00    -0.269 OA
ATOM     17  C   UNL A   1      32.892  26.027  22.133  1.00  0.00     0.251 C 
ATOM     18  H   UNL A   1      34.062  24.528  22.756  1.00  0.00     0.164 HD
BRANCH  17  19
ATOM     19  C   UNL A   1      31.890  27.065  22.473  1.00  0.00     0.040 A 
ATOM     20  C   UNL A   1      32.190  28.434  22.454  1.00  0.00     0.017 A 
ATOM     21  C   UNL A   1      30.587  26.642  22.768  1.00  0.00     0.017 A 
ATOM     22  C   UNL A   1      31.217  29.365  22.826  1.00  0.00     0.040 A 
ATOM     23  C   UNL A   1      29.609  27.578  23.112  1.00  0.00     0.040 A 
ATOM     24  C   UNL A   1      29.939  28.928  23.156  1.00  0.00     0.123 A 
ATOM     25  F   UNL A   1      29.006  29.822  23.511  1.00  0.00    -0.207 F 
ENDBRANCH  17  19
ENDBRANCH  14  15
BRANCH  14  26
ATOM     26  C   UNL A   1      32.343  23.557  24.781  1.00  0.00     0.101 C 
BRANCH  26  27
ATOM     27  S   UNL A   1      30.910  23.479  25.900  1.00  0.00    -0.177 SA
ATOM     28  H   UNL A   1      31.131  22.537  26.856  1.00  0.00     0.102 HD
ENDBRANCH  26  27
ENDBRANCH  14  26
ENDBRANCH  11  14
ENDBRANCH   9  10
BRANCH   9  29
ATOM     29  C   UNL A   1      31.462  27.385  26.342  1.00  0.00     0.193 C 
BRANCH  29  30
ATOM     30  O   UNL A   1      31.376  27.304  27.759  1.00  0.00    -0.394 OA
ATOM     31  H   UNL A   1      32.063  27.860  28.158  1.00  0.00     0.210 HD
ENDBRANCH  29  30
ENDBRANCH   9  29
ENDBRANCH   7   9
ENDBRANCH   6   7
ENDBRANCH   5   6
ENDBRANCH   4   5
ENDBRANCH   3   4
ENDBRANCH   2   3
ENDBRANCH   1   2
BRANCH   1  32
ATOM     32  O   UNL A   1      34.345  35.395  28.207  1.00  0.00    -0.377 OA
BRANCH  32  33
ATOM     33  C   UNL A   1      33.863  35.984  29.405  1.00  0.00     0.188 C 
BRANCH  33  34
ATOM     34  C   UNL A   1      33.006  35.091  30.322  1.00  0.00     0.188 C 
BRANCH  34  35
ATOM     35  O   UNL A   1      33.246  35.301  31.713  1.00  0.00    -0.376 OA
BRANCH  35  36
ATOM     36  C   UNL A   1      34.062  34.364  32.403  1.00  0.00     0.202 C 
BRANCH  36  37
ATOM     37  C   UNL A   1      34.626  33.175  31.606  1.00  0.00     0.261 C 
BRANCH  37  38
ATOM     38  O   UNL A   1      35.759  32.491  32.166  1.00  0.00    -0.460 OA
BRANCH  38  39
ATOM     39  C   UNL A   1      36.998  32.780  31.715  1.00  0.00     0.338 C 
ATOM     40  O   UNL A   1      37.358  32.849  30.553  1.00  0.00    -0.246 OA
BRANCH  39  41
ATOM     41  C   UNL A   1      37.789  33.234  32.881  1.00  0.00     0.060 A 
ATOM     42  C   UNL A   1      37.546  34.509  33.414  1.00  0.00     0.016 A 
ATOM     43  C   UNL A   1      38.719  32.384  33.485  1.00  0.00     0.016 A 
ATOM     44  C   UNL A   1      38.236  34.937  34.550  1.00  0.00     0.010 A 
ATOM     45  C   UNL A   1      39.434  32.828  34.601  1.00  0.00     0.010 A 
ATOM     46  C   UNL A   1      39.209  34.113  35.129  1.00  0.00    -0.014 A 
BRANCH  46  47
ATOM     47  C   UNL A   1      40.121  34.646  36.167  1.00  0.00     0.031 A 
ATOM     48  C   UNL A   1      39.792  34.378  37.609  1.00  0.00     0.074 A 
ATOM     49  C   UNL A   1      41.198  35.387  35.846  1.00  0.00     0.049 A 
ATOM     50  N   UNL A   1      40.375  34.820  38.690  1.00  0.00    -0.248 NA
ATOM     51  C   UNL A   1      38.644  33.489  37.861  1.00  0.00     0.031 C 
ATOM     52  C   UNL A   1      41.635  35.702  34.488  1.00  0.00     0.029 A 
ATOM     53  N   UNL A   1      42.099  36.039  36.652  1.00  0.00    -0.354 N 
ATOM     54  C   UNL A   1      39.646  34.296  39.751  1.00  0.00     0.074 A 
ATOM     55  C   UNL A   1      38.578  33.503  39.184  1.00  0.00     0.031 C 
ATOM     56  C   UNL A   1      42.698  36.524  34.554  1.00  0.00     0.029 A 
ATOM     57  C   UNL A   1      42.992  36.819  35.955  1.00  0.00     0.049 A 
ATOM     58  H   UNL A   1      42.104  35.957  37.633  1.00  0.00     0.167 HD
ATOM     59  C   UNL A   1      39.851  34.456  41.080  1.00  0.00     0.034 A 
ATOM     60  C   UNL A   1      43.914  37.699  36.400  1.00  0.00     0.034 A 
ATOM     61  C   UNL A   1      40.914  35.242  41.642  1.00  0.00     0.049 A 
ATOM     62  C   UNL A   1      44.086  37.903  37.885  1.00  0.00     0.074 A 
ATOM     63  C   UNL A   1      41.231  35.428  42.976  1.00  0.00     0.029 A 
ATOM     64  N   UNL A   1      41.817  35.994  40.907  1.00  0.00    -0.354 N 
ATOM     65  N   UNL A   1      43.468  37.312  38.879  1.00  0.00    -0.248 NA
ATOM     66  C   UNL A   1      45.100  38.882  38.310  1.00  0.00     0.031 C 
ATOM     67  C   UNL A   1      42.301  36.325  43.049  1.00  0.00     0.029 A 
ATOM     68  C   UNL A   1      42.676  36.666  41.759  1.00  0.00     0.049 A 
ATOM     69  H   UNL A   1      41.844  36.043  39.925  1.00  0.00     0.167 HD
ATOM     70  C   UNL A   1      44.037  37.822  40.043  1.00  0.00     0.074 A 
ATOM     71  C   UNL A   1      45.067  38.753  39.629  1.00  0.00     0.031 C 
ATOM     72  C   UNL A   1      43.728  37.555  41.336  1.00  0.00     0.034 A 
BRANCH  59  73
ATOM     73  C   UNL A   1      38.902  33.761  42.018  1.00  0.00     0.023 A 
ATOM     74  C   UNL A   1      37.767  34.442  42.501  1.00  0.00     0.012 A 
ATOM     75  C   UNL A   1      39.110  32.416  42.383  1.00  0.00     0.148 A 
ATOM     76  C   UNL A   1      36.871  33.807  43.360  1.00  0.00     0.002 A 
ATOM     77  C   UNL A   1      38.188  31.776  43.201  1.00  0.00     0.091 A 
ATOM     78  F   UNL A   1      40.209  31.794  41.933  1.00  0.00    -0.205 F 
ATOM     79  C   UNL A   1      37.075  32.473  43.700  1.00  0.00     0.022 A 
BRANCH  77  80
ATOM     80  S   UNL A   1      38.321  30.039  43.634  1.00  0.00     0.127 S 
ATOM     81  O   UNL A   1      38.305  29.404  42.317  1.00  0.00    -0.237 OA
ATOM     82  O   UNL A   1      39.613  29.992  44.318  1.00  0.00    -0.237 OA
ATOM     83  O   UNL A   1      37.173  29.746  44.480  1.00  0.00    -0.744 OA
ENDBRANCH  77  80
ENDBRANCH  59  73
BRANCH  60  84
ATOM     84  C   UNL A   1      44.752  38.461  35.430  1.00  0.00     0.023 A 
ATOM     85  C   UNL A   1      44.278  39.679  34.905  1.00  0.00     0.012 A 
ATOM     86  C   UNL A   1      46.012  37.983  35.022  1.00  0.00     0.148 A 
ATOM     87  C   UNL A   1      45.029  40.391  33.968  1.00  0.00     0.002 A 
ATOM     88  C   UNL A   1      46.780  38.723  34.132  1.00  0.00     0.091 A 
ATOM     89  F   UNL A   1      46.437  36.811  35.516  1.00  0.00    -0.205 F 
ATOM     90  C   UNL A   1      46.283  39.919  33.589  1.00  0.00     0.022 A 
BRANCH  88  91
ATOM     91  S   UNL A   1      48.456  38.257  33.682  1.00  0.00     0.127 S 
ATOM     92  O   UNL A   1      48.249  36.939  33.087  1.00  0.00    -0.237 OA
ATOM     93  O   UNL A   1      48.815  39.311  32.735  1.00  0.00    -0.237 OA
ATOM     94  O   UNL A   1      49.219  38.277  34.923  1.00  0.00    -0.744 OA
ENDBRANCH  88  91
ENDBRANCH  60  84
BRANCH  72  95
ATOM     95  C   UNL A   1      44.527  38.248  42.411  1.00  0.00     0.023 A 
ATOM     96  C   UNL A   1      45.730  37.677  42.871  1.00  0.00     0.012 A 
ATOM     97  C   UNL A   1      44.129  39.507  42.905  1.00  0.00     0.148 A 
ATOM     98  C   UNL A   1      46.507  38.331  43.827  1.00  0.00     0.002 A 
ATOM     99  C   UNL A   1      44.934  40.178  43.818  1.00  0.00     0.091 A 
ATOM    100  F   UNL A   1      42.975  40.029  42.465  1.00  0.00    -0.205 F 
ATOM    101  C   UNL A   1      46.117  39.585  44.289  1.00  0.00     0.022 A 
BRANCH  99 102
ATOM    102  S   UNL A   1      44.565  41.837  44.398  1.00  0.00     0.127 S 
ATOM    103  O   UNL A   1      45.692  42.097  45.293  1.00  0.00    -0.237 OA
ATOM    104  O   UNL A   1      44.581  42.610  43.156  1.00  0.00    -0.237 OA
ATOM    105  O   UNL A   1      43.262  41.758  45.046  1.00  0.00    -0.744 OA
ENDBRANCH  99 102
ENDBRANCH  72  95
ENDBRANCH  46  47
ENDBRANCH  39  41
ENDBRANCH  38  39
ENDBRANCH  37  38
ENDBRANCH  36  37
ENDBRANCH  35  36
ENDBRANCH  34  35
ENDBRANCH  33  34
ENDBRANCH  32  33
ENDBRANCH   1  32
TORSDOF 31
ENDMDL
