MODEL 1
REMARK VINA RESULT:      -7.6      0.000      0.000
REMARK SMILES O=C(CCN1C(=O)/C(=C/c2cccc(Cl)c2Cl)SC1=S)Nc1ccc(C(=O)OCCOCCOCCOCCOC(=O)c2ccc(-c3c4nc(c(-c5cccc(S(=O)(=O)[O-])c5F)c5ccc([nH]5)c(-c5cccc(S(=O)(=O)[O-])c5F)c5nc(c(-c6cccc(S(=O)(=O)[O-])c6F)c6ccc3[nH]6)C=C5)C=C4)cc2)cc1
REMARK SMILES IDX 33 1 32 2 31 3 30 4 29 5 28 6 26 7 27 8 25 9 22 10 23 11
REMARK SMILES IDX 107 12 24 13 106 14 21 15 1 16 2 17 3 19 4 20 5 21 6 22
REMARK SMILES IDX 19 23 7 24 8 25 18 26 20 27 9 28 10 29 11 30 16 31 12 32
REMARK SMILES IDX 14 33 17 34 13 35 15 36 34 37 35 38 36 39 37 40 38 41 39 42
REMARK SMILES IDX 40 43 41 44 42 45 43 46 44 47 105 48 45 49 104 50 46 51
REMARK SMILES IDX 47 52 48 53 98 54 49 55 103 56 97 57 99 58 50 59 102 60
REMARK SMILES IDX 96 61 95 62 51 64 83 65 63 66 82 67 64 68 67 69 81 70 100 71
REMARK SMILES IDX 65 72 66 73 80 75 101 76 68 77 52 78 53 79 61 80 54 81 56 82
REMARK SMILES IDX 62 83 55 84 57 85 58 86 59 87 60 88 84 89 85 90 93 91 86 92
REMARK SMILES IDX 88 93 94 94 87 95 89 96 90 97 91 98 92 99 69 100 70 101
REMARK SMILES IDX 78 102 71 103 73 104 79 105 72 106 74 107 75 108 76 109
REMARK SMILES IDX 77 110
REMARK H PARENT 21 18 99 63 67 74
REMARK Flexibility Score: inf
ROOT
ATOM      1  C   UNL A   1      33.135  35.944  31.536  1.00  0.00     0.188 C 
ENDROOT
BRANCH   1   2
ATOM      2  C   UNL A   1      33.705  36.330  32.919  1.00  0.00     0.188 C 
BRANCH   2   3
ATOM      3  O   UNL A   1      35.109  36.194  33.029  1.00  0.00    -0.376 OA
BRANCH   3   4
ATOM      4  C   UNL A   1      35.714  34.934  32.818  1.00  0.00     0.202 C 
BRANCH   4   5
ATOM      5  C   UNL A   1      34.985  33.645  33.228  1.00  0.00     0.261 C 
BRANCH   5   6
ATOM      6  O   UNL A   1      35.686  32.773  34.116  1.00  0.00    -0.460 OA
BRANCH   6   7
ATOM      7  C   UNL A   1      36.664  32.019  33.575  1.00  0.00     0.338 C 
ATOM      8  O   UNL A   1      36.657  31.479  32.483  1.00  0.00    -0.246 OA
BRANCH   7   9
ATOM      9  C   UNL A   1      37.858  32.138  34.440  1.00  0.00     0.060 A 
ATOM     10  C   UNL A   1      40.165  32.434  35.974  1.00  0.00     0.041 A 
ATOM     11  C   UNL A   1      39.589  33.551  35.365  1.00  0.00     0.027 A 
ATOM     12  C   UNL A   1      39.527  31.194  35.903  1.00  0.00     0.027 A 
ATOM     13  C   UNL A   1      38.462  33.394  34.559  1.00  0.00     0.018 A 
ATOM     14  C   UNL A   1      38.355  31.048  35.158  1.00  0.00     0.018 A 
BRANCH  10  15
ATOM     15  N   UNL A   1      41.411  32.607  36.599  1.00  0.00    -0.326 N 
ATOM     16  O   UNL A   1      40.691  32.601  38.810  1.00  0.00    -0.275 OA
ATOM     17  C   UNL A   1      41.584  32.651  37.970  1.00  0.00     0.226 C 
ATOM     18  H   UNL A   1      42.207  32.700  36.028  1.00  0.00     0.169 HD
BRANCH  17  19
ATOM     19  C   UNL A   1      43.033  32.745  38.401  1.00  0.00     0.122 C 
BRANCH  19  20
ATOM     20  C   UNL A   1      43.745  31.393  38.514  1.00  0.00     0.137 C 
BRANCH  20  21
ATOM     21  N   UNL A   1      44.640  31.080  37.385  1.00  0.00    -0.292 N 
ATOM     22  C   UNL A   1      45.781  31.847  37.189  1.00  0.00     0.266 C 
ATOM     23  C   UNL A   1      44.382  30.121  36.425  1.00  0.00     0.148 C 
ATOM     24  O   UNL A   1      46.113  32.830  37.834  1.00  0.00    -0.268 OA
ATOM     25  C   UNL A   1      46.591  31.293  36.070  1.00  0.00     0.081 C 
ATOM     26  S   UNL A   1      45.776  29.953  35.372  1.00  0.00    -0.054 SA
ATOM     27  S   UNL A   1      43.009  29.201  36.215  1.00  0.00    -0.052 S 
ATOM     28  C   UNL A   1      47.802  31.779  35.754  1.00  0.00     0.031 C 
BRANCH  28  29
ATOM     29  C   UNL A   1      48.722  31.231  34.733  1.00  0.00    -0.004 A 
ATOM     30  C   UNL A   1      49.264  29.947  34.916  1.00  0.00     0.010 A 
ATOM     31  C   UNL A   1      49.074  31.955  33.572  1.00  0.00     0.066 A 
ATOM     32  C   UNL A   1      50.183  29.418  34.012  1.00  0.00     0.002 A 
ATOM     33  C   UNL A   1      49.996  31.413  32.660  1.00  0.00     0.060 A 
ATOM     34  Cl  UNL A   1      48.372  33.514  33.272  1.00  0.00    -0.082 Cl
ATOM     35  C   UNL A   1      50.556  30.154  32.890  1.00  0.00     0.022 A 
ATOM     36  Cl  UNL A   1      50.497  32.249  31.230  1.00  0.00    -0.083 Cl
ENDBRANCH  28  29
ENDBRANCH  20  21
ENDBRANCH  19  20
ENDBRANCH  17  19
ENDBRANCH  10  15
ENDBRANCH   7   9
ENDBRANCH   6   7
ENDBRANCH   5   6
ENDBRANCH   4   5
ENDBRANCH   3   4
ENDBRANCH   2   3
ENDBRANCH   1   2
BRANCH   1  37
ATOM     37  O   UNL A   1      33.324  36.812  30.429  1.00  0.00    -0.377 OA
BRANCH  37  38
ATOM     38  C   UNL A   1      33.188  36.324  29.099  1.00  0.00     0.188 C 
BRANCH  38  39
ATOM     39  C   UNL A   1      34.359  36.392  28.090  1.00  0.00     0.188 C 
BRANCH  39  40
ATOM     40  O   UNL A   1      34.626  35.179  27.405  1.00  0.00    -0.376 OA
BRANCH  40  41
ATOM     41  C   UNL A   1      34.181  33.977  28.001  1.00  0.00     0.202 C 
BRANCH  41  42
ATOM     42  C   UNL A   1      35.225  33.125  28.737  1.00  0.00     0.261 C 
BRANCH  42  43
ATOM     43  O   UNL A   1      34.792  31.833  29.184  1.00  0.00    -0.460 OA
BRANCH  43  44
ATOM     44  C   UNL A   1      34.849  30.818  28.297  1.00  0.00     0.338 C 
ATOM     45  O   UNL A   1      34.054  30.581  27.398  1.00  0.00    -0.246 OA
BRANCH  44  46
ATOM     46  C   UNL A   1      36.149  30.140  28.476  1.00  0.00     0.060 A 
ATOM     47  C   UNL A   1      36.445  29.542  29.708  1.00  0.00     0.016 A 
ATOM     48  C   UNL A   1      37.063  30.087  27.422  1.00  0.00     0.016 A 
ATOM     49  C   UNL A   1      37.682  28.927  29.903  1.00  0.00     0.010 A 
ATOM     50  C   UNL A   1      38.308  29.488  27.626  1.00  0.00     0.010 A 
ATOM     51  C   UNL A   1      38.637  28.944  28.880  1.00  0.00    -0.014 A 
BRANCH  51  52
ATOM     52  C   UNL A   1      40.046  28.599  29.184  1.00  0.00     0.031 A 
ATOM     53  C   UNL A   1      40.898  29.636  29.866  1.00  0.00     0.074 A 
ATOM     54  C   UNL A   1      40.563  27.399  28.867  1.00  0.00     0.049 A 
ATOM     55  N   UNL A   1      42.160  29.589  30.197  1.00  0.00    -0.248 NA
ATOM     56  C   UNL A   1      40.231  30.903  30.215  1.00  0.00     0.031 C 
ATOM     57  C   UNL A   1      39.838  26.308  28.220  1.00  0.00     0.029 A 
ATOM     58  N   UNL A   1      41.836  26.911  29.031  1.00  0.00    -0.354 N 
ATOM     59  C   UNL A   1      42.449  30.826  30.761  1.00  0.00     0.074 A 
ATOM     60  C   UNL A   1      41.234  31.608  30.712  1.00  0.00     0.031 C 
ATOM     61  C   UNL A   1      40.685  25.284  28.017  1.00  0.00     0.029 A 
ATOM     62  C   UNL A   1      42.017  25.659  28.491  1.00  0.00     0.049 A 
ATOM     63  H   UNL A   1      42.551  27.409  29.488  1.00  0.00     0.167 HD
ATOM     64  C   UNL A   1      43.616  31.269  31.283  1.00  0.00     0.034 A 
ATOM     65  C   UNL A   1      43.135  24.916  28.374  1.00  0.00     0.034 A 
ATOM     66  C   UNL A   1      44.820  30.487  31.335  1.00  0.00     0.049 A 
ATOM     67  C   UNL A   1      44.434  25.444  28.930  1.00  0.00     0.074 A 
ATOM     68  C   UNL A   1      46.046  30.828  31.878  1.00  0.00     0.029 A 
ATOM     69  N   UNL A   1      44.958  29.212  30.805  1.00  0.00    -0.354 N 
ATOM     70  N   UNL A   1      44.670  26.575  29.551  1.00  0.00    -0.248 NA
ATOM     71  C   UNL A   1      45.615  24.578  28.796  1.00  0.00     0.031 C 
ATOM     72  C   UNL A   1      46.936  29.776  31.640  1.00  0.00     0.029 A 
ATOM     73  C   UNL A   1      46.252  28.758  30.995  1.00  0.00     0.049 A 
ATOM     74  H   UNL A   1      44.241  28.706  30.360  1.00  0.00     0.167 HD
ATOM     75  C   UNL A   1      46.011  26.537  29.923  1.00  0.00     0.074 A 
ATOM     76  C   UNL A   1      46.532  25.265  29.466  1.00  0.00     0.031 C 
ATOM     77  C   UNL A   1      46.744  27.469  30.579  1.00  0.00     0.034 A 
BRANCH  64  78
ATOM     78  C   UNL A   1      43.639  32.669  31.840  1.00  0.00     0.023 A 
ATOM     79  C   UNL A   1      43.420  32.884  33.217  1.00  0.00     0.012 A 
ATOM     80  C   UNL A   1      43.907  33.770  31.004  1.00  0.00     0.148 A 
ATOM     81  C   UNL A   1      43.420  34.175  33.744  1.00  0.00     0.002 A 
ATOM     82  C   UNL A   1      43.958  35.049  31.546  1.00  0.00     0.091 A 
ATOM     83  F   UNL A   1      44.090  33.550  29.695  1.00  0.00    -0.205 F 
ATOM     84  C   UNL A   1      43.700  35.255  32.911  1.00  0.00     0.022 A 
BRANCH  82  85
ATOM     85  S   UNL A   1      44.390  36.494  30.572  1.00  0.00     0.127 S 
ATOM     86  O   UNL A   1      45.743  36.160  30.130  1.00  0.00    -0.237 OA
ATOM     87  O   UNL A   1      43.379  36.465  29.515  1.00  0.00    -0.237 OA
ATOM     88  O   UNL A   1      44.292  37.633  31.475  1.00  0.00    -0.744 OA
ENDBRANCH  82  85
ENDBRANCH  64  78
BRANCH  65  89
ATOM     89  C   UNL A   1      43.074  23.572  27.732  1.00  0.00     0.023 A 
ATOM     90  C   UNL A   1      42.212  22.588  28.255  1.00  0.00     0.012 A 
ATOM     91  C   UNL A   1      43.858  23.269  26.601  1.00  0.00     0.148 A 
ATOM     92  C   UNL A   1      42.154  21.316  27.683  1.00  0.00     0.002 A 
ATOM     93  C   UNL A   1      43.754  22.019  26.004  1.00  0.00     0.091 A 
ATOM     94  F   UNL A   1      44.681  24.215  26.128  1.00  0.00    -0.205 F 
ATOM     95  C   UNL A   1      42.917  21.035  26.553  1.00  0.00     0.022 A 
BRANCH  93  96
ATOM     96  S   UNL A   1      44.606  21.603  24.478  1.00  0.00     0.127 S 
ATOM     97  O   UNL A   1      44.152  20.233  24.246  1.00  0.00    -0.237 OA
ATOM     98  O   UNL A   1      44.061  22.597  23.554  1.00  0.00    -0.237 OA
ATOM     99  O   UNL A   1      46.026  21.755  24.763  1.00  0.00    -0.744 OA
ENDBRANCH  93  96
ENDBRANCH  65  89
BRANCH  77 100
ATOM    100  C   UNL A   1      48.178  27.136  30.907  1.00  0.00     0.023 A 
ATOM    101  C   UNL A   1      49.228  27.676  30.138  1.00  0.00     0.012 A 
ATOM    102  C   UNL A   1      48.484  26.341  32.030  1.00  0.00     0.148 A 
ATOM    103  C   UNL A   1      50.558  27.397  30.460  1.00  0.00     0.002 A 
ATOM    104  C   UNL A   1      49.810  26.114  32.376  1.00  0.00     0.091 A 
ATOM    105  F   UNL A   1      47.471  25.823  32.741  1.00  0.00    -0.205 F 
ATOM    106  C   UNL A   1      50.848  26.628  31.584  1.00  0.00     0.022 A 
BRANCH 104 107
ATOM    107  S   UNL A   1      50.278  25.222  33.864  1.00  0.00     0.127 S 
ATOM    108  O   UNL A   1      49.927  23.848  33.510  1.00  0.00    -0.237 OA
ATOM    109  O   UNL A   1      51.715  25.485  33.942  1.00  0.00    -0.237 OA
ATOM    110  O   UNL A   1      49.497  25.805  34.948  1.00  0.00    -0.744 OA
ENDBRANCH 104 107
ENDBRANCH  77 100
ENDBRANCH  51  52
ENDBRANCH  44  46
ENDBRANCH  43  44
ENDBRANCH  42  43
ENDBRANCH  41  42
ENDBRANCH  40  41
ENDBRANCH  39  40
ENDBRANCH  38  39
ENDBRANCH  37  38
ENDBRANCH   1  37
TORSDOF 28
ENDMDL
MODEL 2
REMARK VINA RESULT:      -7.4      2.892      4.015
REMARK SMILES O=C(CCN1C(=O)/C(=C/c2cccc(Cl)c2Cl)SC1=S)Nc1ccc(C(=O)OCCOCCOCCOCCOC(=O)c2ccc(-c3c4nc(c(-c5cccc(S(=O)(=O)[O-])c5F)c5ccc([nH]5)c(-c5cccc(S(=O)(=O)[O-])c5F)c5nc(c(-c6cccc(S(=O)(=O)[O-])c6F)c6ccc3[nH]6)C=C5)C=C4)cc2)cc1
REMARK SMILES IDX 33 1 32 2 31 3 30 4 29 5 28 6 26 7 27 8 25 9 22 10 23 11
REMARK SMILES IDX 107 12 24 13 106 14 21 15 1 16 2 17 3 19 4 20 5 21 6 22
REMARK SMILES IDX 19 23 7 24 8 25 18 26 20 27 9 28 10 29 11 30 16 31 12 32
REMARK SMILES IDX 14 33 17 34 13 35 15 36 34 37 35 38 36 39 37 40 38 41 39 42
REMARK SMILES IDX 40 43 41 44 42 45 43 46 44 47 105 48 45 49 104 50 46 51
REMARK SMILES IDX 47 52 48 53 98 54 49 55 103 56 97 57 99 58 50 59 102 60
REMARK SMILES IDX 96 61 95 62 51 64 83 65 63 66 82 67 64 68 67 69 81 70 100 71
REMARK SMILES IDX 65 72 66 73 80 75 101 76 68 77 52 78 53 79 61 80 54 81 56 82
REMARK SMILES IDX 62 83 55 84 57 85 58 86 59 87 60 88 84 89 85 90 93 91 86 92
REMARK SMILES IDX 88 93 94 94 87 95 89 96 90 97 91 98 92 99 69 100 70 101
REMARK SMILES IDX 78 102 71 103 73 104 79 105 72 106 74 107 75 108 76 109
REMARK SMILES IDX 77 110
REMARK H PARENT 21 18 99 63 67 74
REMARK Flexibility Score: inf
ROOT
ATOM      1  C   UNL A   1      32.282  35.896  31.417  1.00  0.00     0.188 C 
ENDROOT
BRANCH   1   2
ATOM      2  C   UNL A   1      32.577  36.306  32.877  1.00  0.00     0.188 C 
BRANCH   2   3
ATOM      3  O   UNL A   1      33.951  36.457  33.173  1.00  0.00    -0.376 OA
BRANCH   3   4
ATOM      4  C   UNL A   1      34.838  35.371  32.986  1.00  0.00     0.202 C 
BRANCH   4   5
ATOM      5  C   UNL A   1      34.368  33.932  33.252  1.00  0.00     0.261 C 
BRANCH   5   6
ATOM      6  O   UNL A   1      35.196  33.142  34.105  1.00  0.00    -0.460 OA
BRANCH   6   7
ATOM      7  C   UNL A   1      36.264  32.550  33.533  1.00  0.00     0.338 C 
ATOM      8  O   UNL A   1      36.300  31.981  32.456  1.00  0.00    -0.246 OA
BRANCH   7   9
ATOM      9  C   UNL A   1      37.458  32.903  34.332  1.00  0.00     0.060 A 
ATOM     10  C   UNL A   1      39.749  33.442  35.821  1.00  0.00     0.041 A 
ATOM     11  C   UNL A   1      39.859  32.786  34.593  1.00  0.00     0.027 A 
ATOM     12  C   UNL A   1      38.509  33.920  36.249  1.00  0.00     0.027 A 
ATOM     13  C   UNL A   1      38.707  32.474  33.872  1.00  0.00     0.018 A 
ATOM     14  C   UNL A   1      37.362  33.676  35.490  1.00  0.00     0.018 A 
BRANCH  10  15
ATOM     15  N   UNL A   1      40.909  33.546  36.607  1.00  0.00    -0.326 N 
ATOM     16  O   UNL A   1      41.388  35.788  36.219  1.00  0.00    -0.275 OA
ATOM     17  C   UNL A   1      41.627  34.717  36.768  1.00  0.00     0.226 C 
ATOM     18  H   UNL A   1      41.230  32.739  37.070  1.00  0.00     0.169 HD
BRANCH  17  19
ATOM     19  C   UNL A   1      42.781  34.599  37.741  1.00  0.00     0.122 C 
BRANCH  19  20
ATOM     20  C   UNL A   1      42.398  34.843  39.205  1.00  0.00     0.137 C 
BRANCH  20  21
ATOM     21  N   UNL A   1      42.533  33.660  40.074  1.00  0.00    -0.292 N 
ATOM     22  C   UNL A   1      43.799  33.163  40.354  1.00  0.00     0.266 C 
ATOM     23  C   UNL A   1      41.471  32.930  40.573  1.00  0.00     0.148 C 
ATOM     24  O   UNL A   1      44.856  33.571  39.896  1.00  0.00    -0.268 OA
ATOM     25  C   UNL A   1      43.712  32.045  41.333  1.00  0.00     0.081 C 
ATOM     26  S   UNL A   1      42.065  31.720  41.697  1.00  0.00    -0.054 SA
ATOM     27  S   UNL A   1      39.847  33.094  40.240  1.00  0.00    -0.052 S 
ATOM     28  C   UNL A   1      44.803  31.468  41.860  1.00  0.00     0.031 C 
BRANCH  28  29
ATOM     29  C   UNL A   1      44.818  30.427  42.912  1.00  0.00    -0.004 A 
ATOM     30  C   UNL A   1      44.584  29.088  42.554  1.00  0.00     0.010 A 
ATOM     31  C   UNL A   1      45.063  30.732  44.269  1.00  0.00     0.066 A 
ATOM     32  C   UNL A   1      44.527  28.085  43.520  1.00  0.00     0.002 A 
ATOM     33  C   UNL A   1      45.010  29.715  45.237  1.00  0.00     0.060 A 
ATOM     34  Cl  UNL A   1      45.425  32.362  44.742  1.00  0.00    -0.082 Cl
ATOM     35  C   UNL A   1      44.730  28.399  44.860  1.00  0.00     0.022 A 
ATOM     36  Cl  UNL A   1      45.272  30.014  46.921  1.00  0.00    -0.083 Cl
ENDBRANCH  28  29
ENDBRANCH  20  21
ENDBRANCH  19  20
ENDBRANCH  17  19
ENDBRANCH  10  15
ENDBRANCH   7   9
ENDBRANCH   6   7
ENDBRANCH   5   6
ENDBRANCH   4   5
ENDBRANCH   3   4
ENDBRANCH   2   3
ENDBRANCH   1   2
BRANCH   1  37
ATOM     37  O   UNL A   1      32.625  36.773  30.356  1.00  0.00    -0.377 OA
BRANCH  37  38
ATOM     38  C   UNL A   1      32.890  36.261  29.054  1.00  0.00     0.188 C 
BRANCH  38  39
ATOM     39  C   UNL A   1      34.263  36.464  28.370  1.00  0.00     0.188 C 
BRANCH  39  40
ATOM     40  O   UNL A   1      34.760  35.326  27.686  1.00  0.00    -0.376 OA
BRANCH  40  41
ATOM     41  C   UNL A   1      34.239  34.062  28.047  1.00  0.00     0.202 C 
BRANCH  41  42
ATOM     42  C   UNL A   1      35.133  33.148  28.898  1.00  0.00     0.261 C 
BRANCH  42  43
ATOM     43  O   UNL A   1      34.597  31.860  29.226  1.00  0.00    -0.460 OA
BRANCH  43  44
ATOM     44  C   UNL A   1      34.698  30.889  28.294  1.00  0.00     0.338 C 
ATOM     45  O   UNL A   1      33.934  30.683  27.362  1.00  0.00    -0.246 OA
BRANCH  44  46
ATOM     46  C   UNL A   1      36.003  30.225  28.479  1.00  0.00     0.060 A 
ATOM     47  C   UNL A   1      36.300  29.631  29.713  1.00  0.00     0.016 A 
ATOM     48  C   UNL A   1      36.923  30.180  27.430  1.00  0.00     0.016 A 
ATOM     49  C   UNL A   1      37.542  29.029  29.915  1.00  0.00     0.010 A 
ATOM     50  C   UNL A   1      38.172  29.594  27.640  1.00  0.00     0.010 A 
ATOM     51  C   UNL A   1      38.502  29.055  28.896  1.00  0.00    -0.014 A 
BRANCH  51  52
ATOM     52  C   UNL A   1      39.912  28.724  29.207  1.00  0.00     0.031 A 
ATOM     53  C   UNL A   1      40.761  29.784  29.857  1.00  0.00     0.074 A 
ATOM     54  C   UNL A   1      40.434  27.518  28.923  1.00  0.00     0.049 A 
ATOM     55  N   UNL A   1      42.024  29.752  30.186  1.00  0.00    -0.248 NA
ATOM     56  C   UNL A   1      40.090  31.057  30.171  1.00  0.00     0.031 C 
ATOM     57  C   UNL A   1      39.713  26.407  28.309  1.00  0.00     0.029 A 
ATOM     58  N   UNL A   1      41.710  27.040  29.098  1.00  0.00    -0.354 N 
ATOM     59  C   UNL A   1      42.309  31.006  30.714  1.00  0.00     0.074 A 
ATOM     60  C   UNL A   1      41.091  31.781  30.646  1.00  0.00     0.031 C 
ATOM     61  C   UNL A   1      40.564  25.380  28.133  1.00  0.00     0.029 A 
ATOM     62  C   UNL A   1      41.895  25.775  28.594  1.00  0.00     0.049 A 
ATOM     63  H   UNL A   1      42.423  27.555  29.539  1.00  0.00     0.167 HD
ATOM     64  C   UNL A   1      43.475  31.468  31.221  1.00  0.00     0.034 A 
ATOM     65  C   UNL A   1      43.016  25.033  28.496  1.00  0.00     0.034 A 
ATOM     66  C   UNL A   1      44.682  30.693  31.292  1.00  0.00     0.049 A 
ATOM     67  C   UNL A   1      44.314  25.583  29.033  1.00  0.00     0.074 A 
ATOM     68  C   UNL A   1      45.908  31.055  31.824  1.00  0.00     0.029 A 
ATOM     69  N   UNL A   1      44.825  29.404  30.799  1.00  0.00    -0.354 N 
ATOM     70  N   UNL A   1      44.546  26.732  29.621  1.00  0.00    -0.248 NA
ATOM     71  C   UNL A   1      45.498  24.718  28.921  1.00  0.00     0.031 C 
ATOM     72  C   UNL A   1      46.802  30.000  31.613  1.00  0.00     0.029 A 
ATOM     73  C   UNL A   1      46.121  28.961  30.999  1.00  0.00     0.049 A 
ATOM     74  H   UNL A   1      44.110  28.883  30.370  1.00  0.00     0.167 HD
ATOM     75  C   UNL A   1      45.888  26.709  29.991  1.00  0.00     0.074 A 
ATOM     76  C   UNL A   1      46.413  25.427  29.569  1.00  0.00     0.031 C 
ATOM     77  C   UNL A   1      46.619  27.663  30.619  1.00  0.00     0.034 A 
BRANCH  64  78
ATOM     78  C   UNL A   1      43.494  32.884  31.739  1.00  0.00     0.023 A 
ATOM     79  C   UNL A   1      43.274  33.137  33.108  1.00  0.00     0.012 A 
ATOM     80  C   UNL A   1      43.758  33.962  30.871  1.00  0.00     0.148 A 
ATOM     81  C   UNL A   1      43.270  34.443  33.598  1.00  0.00     0.002 A 
ATOM     82  C   UNL A   1      43.804  35.256  31.376  1.00  0.00     0.091 A 
ATOM     83  F   UNL A   1      43.941  33.705  29.569  1.00  0.00    -0.205 F 
ATOM     84  C   UNL A   1      43.546  35.499  32.735  1.00  0.00     0.022 A 
BRANCH  82  85
ATOM     85  S   UNL A   1      44.231  36.674  30.362  1.00  0.00     0.127 S 
ATOM     86  O   UNL A   1      45.494  36.243  29.765  1.00  0.00    -0.237 OA
ATOM     87  O   UNL A   1      43.105  36.733  29.429  1.00  0.00    -0.237 OA
ATOM     88  O   UNL A   1      44.324  37.808  31.272  1.00  0.00    -0.744 OA
ENDBRANCH  82  85
ENDBRANCH  64  78
BRANCH  65  89
ATOM     89  C   UNL A   1      42.959  23.671  27.892  1.00  0.00     0.023 A 
ATOM     90  C   UNL A   1      42.114  22.694  28.454  1.00  0.00     0.012 A 
ATOM     91  C   UNL A   1      43.731  23.344  26.759  1.00  0.00     0.148 A 
ATOM     92  C   UNL A   1      42.061  21.406  27.918  1.00  0.00     0.002 A 
ATOM     93  C   UNL A   1      43.631  22.076  26.199  1.00  0.00     0.091 A 
ATOM     94  F   UNL A   1      44.538  24.284  26.249  1.00  0.00    -0.205 F 
ATOM     95  C   UNL A   1      42.812  21.101  26.787  1.00  0.00     0.022 A 
BRANCH  93  96
ATOM     96  S   UNL A   1      44.466  21.626  24.674  1.00  0.00     0.127 S 
ATOM     97  O   UNL A   1      44.022  20.247  24.486  1.00  0.00    -0.237 OA
ATOM     98  O   UNL A   1      43.901  22.590  23.730  1.00  0.00    -0.237 OA
ATOM     99  O   UNL A   1      45.889  21.797  24.935  1.00  0.00    -0.744 OA
ENDBRANCH  93  96
ENDBRANCH  65  89
BRANCH  77 100
ATOM    100  C   UNL A   1      48.055  27.346  30.953  1.00  0.00     0.023 A 
ATOM    101  C   UNL A   1      48.392  26.809  32.211  1.00  0.00     0.012 A 
ATOM    102  C   UNL A   1      49.063  27.516  29.982  1.00  0.00     0.148 A 
ATOM    103  C   UNL A   1      49.716  26.483  32.510  1.00  0.00     0.002 A 
ATOM    104  C   UNL A   1      50.368  27.136  30.267  1.00  0.00     0.091 A 
ATOM    105  F   UNL A   1      48.725  28.042  28.795  1.00  0.00    -0.205 F 
ATOM    106  C   UNL A   1      50.700  26.634  31.535  1.00  0.00     0.022 A 
BRANCH 104 107
ATOM    107  S   UNL A   1      51.680  27.198  29.041  1.00  0.00     0.127 S 
ATOM    108  O   UNL A   1      51.175  26.285  28.018  1.00  0.00    -0.237 OA
ATOM    109  O   UNL A   1      51.675  28.610  28.655  1.00  0.00    -0.237 OA
ATOM    110  O   UNL A   1      52.892  26.762  29.723  1.00  0.00    -0.744 OA
ENDBRANCH 104 107
ENDBRANCH  77 100
ENDBRANCH  51  52
ENDBRANCH  44  46
ENDBRANCH  43  44
ENDBRANCH  42  43
ENDBRANCH  41  42
ENDBRANCH  40  41
ENDBRANCH  39  40
ENDBRANCH  38  39
ENDBRANCH  37  38
ENDBRANCH   1  37
TORSDOF 28
ENDMDL
MODEL 3
REMARK VINA RESULT:      -7.2      3.520      4.746
REMARK SMILES O=C(CCN1C(=O)/C(=C/c2cccc(Cl)c2Cl)SC1=S)Nc1ccc(C(=O)OCCOCCOCCOCCOC(=O)c2ccc(-c3c4nc(c(-c5cccc(S(=O)(=O)[O-])c5F)c5ccc([nH]5)c(-c5cccc(S(=O)(=O)[O-])c5F)c5nc(c(-c6cccc(S(=O)(=O)[O-])c6F)c6ccc3[nH]6)C=C5)C=C4)cc2)cc1
REMARK SMILES IDX 33 1 32 2 31 3 30 4 29 5 28 6 26 7 27 8 25 9 22 10 23 11
REMARK SMILES IDX 107 12 24 13 106 14 21 15 1 16 2 17 3 19 4 20 5 21 6 22
REMARK SMILES IDX 19 23 7 24 8 25 18 26 20 27 9 28 10 29 11 30 16 31 12 32
REMARK SMILES IDX 14 33 17 34 13 35 15 36 34 37 35 38 36 39 37 40 38 41 39 42
REMARK SMILES IDX 40 43 41 44 42 45 43 46 44 47 105 48 45 49 104 50 46 51
REMARK SMILES IDX 47 52 48 53 98 54 49 55 103 56 97 57 99 58 50 59 102 60
REMARK SMILES IDX 96 61 95 62 51 64 83 65 63 66 82 67 64 68 67 69 81 70 100 71
REMARK SMILES IDX 65 72 66 73 80 75 101 76 68 77 52 78 53 79 61 80 54 81 56 82
REMARK SMILES IDX 62 83 55 84 57 85 58 86 59 87 60 88 84 89 85 90 93 91 86 92
REMARK SMILES IDX 88 93 94 94 87 95 89 96 90 97 91 98 92 99 69 100 70 101
REMARK SMILES IDX 78 102 71 103 73 104 79 105 72 106 74 107 75 108 76 109
REMARK SMILES IDX 77 110
REMARK H PARENT 21 18 99 63 67 74
REMARK Flexibility Score: inf
ROOT
ATOM      1  C   UNL A   1      32.261  35.897  31.442  1.00  0.00     0.188 C 
ENDROOT
BRANCH   1   2
ATOM      2  C   UNL A   1      32.550  36.296  32.906  1.00  0.00     0.188 C 
BRANCH   2   3
ATOM      3  O   UNL A   1      33.922  36.462  33.205  1.00  0.00    -0.376 OA
BRANCH   3   4
ATOM      4  C   UNL A   1      34.810  35.370  33.073  1.00  0.00     0.202 C 
BRANCH   4   5
ATOM      5  C   UNL A   1      34.343  33.946  33.415  1.00  0.00     0.261 C 
BRANCH   5   6
ATOM      6  O   UNL A   1      35.182  33.197  34.296  1.00  0.00    -0.460 OA
BRANCH   6   7
ATOM      7  C   UNL A   1      36.117  32.414  33.722  1.00  0.00     0.338 C 
ATOM      8  O   UNL A   1      35.985  31.718  32.730  1.00  0.00    -0.246 OA
BRANCH   7   9
ATOM      9  C   UNL A   1      37.415  32.714  34.365  1.00  0.00     0.060 A 
ATOM     10  C   UNL A   1      39.811  33.397  35.611  1.00  0.00     0.041 A 
ATOM     11  C   UNL A   1      38.601  33.592  36.280  1.00  0.00     0.027 A 
ATOM     12  C   UNL A   1      39.826  32.763  34.367  1.00  0.00     0.027 A 
ATOM     13  C   UNL A   1      37.400  33.295  35.637  1.00  0.00     0.018 A 
ATOM     14  C   UNL A   1      38.628  32.394  33.752  1.00  0.00     0.018 A 
BRANCH  10  15
ATOM     15  N   UNL A   1      40.974  33.904  36.213  1.00  0.00    -0.326 N 
ATOM     16  O   UNL A   1      40.993  32.563  38.112  1.00  0.00    -0.275 OA
ATOM     17  C   UNL A   1      41.493  33.432  37.404  1.00  0.00     0.226 C 
ATOM     18  H   UNL A   1      41.449  34.638  35.760  1.00  0.00     0.169 HD
BRANCH  17  19
ATOM     19  C   UNL A   1      42.808  34.073  37.797  1.00  0.00     0.122 C 
BRANCH  19  20
ATOM     20  C   UNL A   1      42.951  35.535  37.357  1.00  0.00     0.137 C 
BRANCH  20  21
ATOM     21  N   UNL A   1      42.882  36.511  38.459  1.00  0.00    -0.292 N 
ATOM     22  C   UNL A   1      44.050  36.885  39.110  1.00  0.00     0.266 C 
ATOM     23  C   UNL A   1      41.709  37.030  38.972  1.00  0.00     0.148 C 
ATOM     24  O   UNL A   1      45.168  36.435  38.909  1.00  0.00    -0.268 OA
ATOM     25  C   UNL A   1      43.768  37.956  40.105  1.00  0.00     0.081 C 
ATOM     26  S   UNL A   1      42.083  38.281  40.146  1.00  0.00    -0.054 SA
ATOM     27  S   UNL A   1      40.138  36.618  38.601  1.00  0.00    -0.052 S 
ATOM     28  C   UNL A   1      44.745  38.576  40.785  1.00  0.00     0.031 C 
BRANCH  28  29
ATOM     29  C   UNL A   1      44.574  39.716  41.712  1.00  0.00    -0.004 A 
ATOM     30  C   UNL A   1      44.552  39.476  43.097  1.00  0.00     0.010 A 
ATOM     31  C   UNL A   1      44.436  41.045  41.254  1.00  0.00     0.066 A 
ATOM     32  C   UNL A   1      44.330  40.512  44.004  1.00  0.00     0.002 A 
ATOM     33  C   UNL A   1      44.219  42.085  42.173  1.00  0.00     0.060 A 
ATOM     34  Cl  UNL A   1      44.530  41.393  39.556  1.00  0.00    -0.082 Cl
ATOM     35  C   UNL A   1      44.155  41.813  43.542  1.00  0.00     0.022 A 
ATOM     36  Cl  UNL A   1      44.014  43.734  41.687  1.00  0.00    -0.083 Cl
ENDBRANCH  28  29
ENDBRANCH  20  21
ENDBRANCH  19  20
ENDBRANCH  17  19
ENDBRANCH  10  15
ENDBRANCH   7   9
ENDBRANCH   6   7
ENDBRANCH   5   6
ENDBRANCH   4   5
ENDBRANCH   3   4
ENDBRANCH   2   3
ENDBRANCH   1   2
BRANCH   1  37
ATOM     37  O   UNL A   1      32.553  36.808  30.393  1.00  0.00    -0.377 OA
BRANCH  37  38
ATOM     38  C   UNL A   1      32.792  36.334  29.072  1.00  0.00     0.188 C 
BRANCH  38  39
ATOM     39  C   UNL A   1      34.136  36.595  28.351  1.00  0.00     0.188 C 
BRANCH  39  40
ATOM     40  O   UNL A   1      34.641  35.493  27.616  1.00  0.00    -0.376 OA
BRANCH  40  41
ATOM     41  C   UNL A   1      34.161  34.205  27.950  1.00  0.00     0.202 C 
BRANCH  41  42
ATOM     42  C   UNL A   1      35.077  33.309  28.796  1.00  0.00     0.261 C 
BRANCH  42  43
ATOM     43  O   UNL A   1      34.550  32.028  29.164  1.00  0.00    -0.460 OA
BRANCH  43  44
ATOM     44  C   UNL A   1      34.654  31.030  28.261  1.00  0.00     0.338 C 
ATOM     45  O   UNL A   1      33.894  30.797  27.333  1.00  0.00    -0.246 OA
BRANCH  44  46
ATOM     46  C   UNL A   1      35.959  30.372  28.470  1.00  0.00     0.060 A 
ATOM     47  C   UNL A   1      36.248  29.805  29.719  1.00  0.00     0.016 A 
ATOM     48  C   UNL A   1      36.887  30.306  27.430  1.00  0.00     0.016 A 
ATOM     49  C   UNL A   1      37.489  29.209  29.943  1.00  0.00     0.010 A 
ATOM     50  C   UNL A   1      38.136  29.726  27.661  1.00  0.00     0.010 A 
ATOM     51  C   UNL A   1      38.456  29.215  28.931  1.00  0.00    -0.014 A 
BRANCH  51  52
ATOM     52  C   UNL A   1      39.865  28.893  29.260  1.00  0.00     0.031 A 
ATOM     53  C   UNL A   1      40.705  29.964  29.902  1.00  0.00     0.074 A 
ATOM     54  C   UNL A   1      40.393  27.684  28.998  1.00  0.00     0.049 A 
ATOM     55  N   UNL A   1      41.965  29.941  30.243  1.00  0.00    -0.248 NA
ATOM     56  C   UNL A   1      40.027  31.240  30.191  1.00  0.00     0.031 C 
ATOM     57  C   UNL A   1      39.680  26.562  28.393  1.00  0.00     0.029 A 
ATOM     58  N   UNL A   1      41.668  27.213  29.191  1.00  0.00    -0.354 N 
ATOM     59  C   UNL A   1      42.241  31.203  30.756  1.00  0.00     0.074 A 
ATOM     60  C   UNL A   1      41.021  31.973  30.665  1.00  0.00     0.031 C 
ATOM     61  C   UNL A   1      40.536  25.535  28.240  1.00  0.00     0.029 A 
ATOM     62  C   UNL A   1      41.861  25.940  28.707  1.00  0.00     0.049 A 
ATOM     63  H   UNL A   1      42.376  27.736  29.631  1.00  0.00     0.167 HD
ATOM     64  C   UNL A   1      43.401  31.676  31.267  1.00  0.00     0.034 A 
ATOM     65  C   UNL A   1      42.985  25.201  28.630  1.00  0.00     0.034 A 
ATOM     66  C   UNL A   1      44.610  30.905  31.360  1.00  0.00     0.049 A 
ATOM     67  C   UNL A   1      44.276  25.762  29.171  1.00  0.00     0.074 A 
ATOM     68  C   UNL A   1      45.830  31.279  31.897  1.00  0.00     0.029 A 
ATOM     69  N   UNL A   1      44.761  29.610  30.887  1.00  0.00    -0.354 N 
ATOM     70  N   UNL A   1      44.500  26.920  29.745  1.00  0.00    -0.248 NA
ATOM     71  C   UNL A   1      45.465  24.900  29.083  1.00  0.00     0.031 C 
ATOM     72  C   UNL A   1      46.728  30.224  31.710  1.00  0.00     0.029 A 
ATOM     73  C   UNL A   1      46.056  29.174  31.105  1.00  0.00     0.049 A 
ATOM     74  H   UNL A   1      44.051  29.081  30.459  1.00  0.00     0.167 HD
ATOM     75  C   UNL A   1      45.839  26.907  30.128  1.00  0.00     0.074 A 
ATOM     76  C   UNL A   1      46.371  25.621  29.729  1.00  0.00     0.031 C 
ATOM     77  C   UNL A   1      46.561  27.872  30.748  1.00  0.00     0.034 A 
BRANCH  64  78
ATOM     78  C   UNL A   1      43.411  33.099  31.763  1.00  0.00     0.023 A 
ATOM     79  C   UNL A   1      43.127  33.375  33.117  1.00  0.00     0.012 A 
ATOM     80  C   UNL A   1      43.729  34.161  30.894  1.00  0.00     0.148 A 
ATOM     81  C   UNL A   1      43.115  34.688  33.587  1.00  0.00     0.002 A 
ATOM     82  C   UNL A   1      43.766  35.462  31.382  1.00  0.00     0.091 A 
ATOM     83  F   UNL A   1      43.972  33.882  29.606  1.00  0.00    -0.205 F 
ATOM     84  C   UNL A   1      43.445  35.729  32.723  1.00  0.00     0.022 A 
BRANCH  82  85
ATOM     85  S   UNL A   1      44.257  36.860  30.369  1.00  0.00     0.127 S 
ATOM     86  O   UNL A   1      43.276  36.801  29.287  1.00  0.00    -0.237 OA
ATOM     87  O   UNL A   1      44.082  37.982  31.291  1.00  0.00    -0.237 OA
ATOM     88  O   UNL A   1      45.637  36.608  29.976  1.00  0.00    -0.744 OA
ENDBRANCH  82  85
ENDBRANCH  64  78
BRANCH  65  89
ATOM     89  C   UNL A   1      42.938  23.830  28.045  1.00  0.00     0.023 A 
ATOM     90  C   UNL A   1      42.188  22.824  28.687  1.00  0.00     0.012 A 
ATOM     91  C   UNL A   1      43.624  23.522  26.854  1.00  0.00     0.148 A 
ATOM     92  C   UNL A   1      42.147  21.529  28.169  1.00  0.00     0.002 A 
ATOM     93  C   UNL A   1      43.534  22.245  26.315  1.00  0.00     0.091 A 
ATOM     94  F   UNL A   1      44.342  24.490  26.268  1.00  0.00    -0.205 F 
ATOM     95  C   UNL A   1      42.811  21.242  26.980  1.00  0.00     0.022 A 
BRANCH  93  96
ATOM     96  S   UNL A   1      44.255  21.812  24.728  1.00  0.00     0.127 S 
ATOM     97  O   UNL A   1      43.589  22.753  23.831  1.00  0.00    -0.237 OA
ATOM     98  O   UNL A   1      45.673  22.082  24.963  1.00  0.00    -0.237 OA
ATOM     99  O   UNL A   1      43.933  20.407  24.516  1.00  0.00    -0.744 OA
ENDBRANCH  93  96
ENDBRANCH  65  89
BRANCH  77 100
ATOM    100  C   UNL A   1      47.995  27.564  31.100  1.00  0.00     0.023 A 
ATOM    101  C   UNL A   1      48.324  27.059  32.373  1.00  0.00     0.012 A 
ATOM    102  C   UNL A   1      49.010  27.710  30.132  1.00  0.00     0.148 A 
ATOM    103  C   UNL A   1      49.645  26.740  32.689  1.00  0.00     0.002 A 
ATOM    104  C   UNL A   1      50.313  27.338  30.435  1.00  0.00     0.091 A 
ATOM    105  F   UNL A   1      48.680  28.207  28.930  1.00  0.00    -0.205 F 
ATOM    106  C   UNL A   1      50.636  26.868  31.717  1.00  0.00     0.022 A 
BRANCH 104 107
ATOM    107  S   UNL A   1      51.633  27.371  29.217  1.00  0.00     0.127 S 
ATOM    108  O   UNL A   1      51.004  26.704  28.078  1.00  0.00    -0.237 OA
ATOM    109  O   UNL A   1      51.853  28.806  29.039  1.00  0.00    -0.237 OA
ATOM    110  O   UNL A   1      52.753  26.656  29.816  1.00  0.00    -0.744 OA
ENDBRANCH 104 107
ENDBRANCH  77 100
ENDBRANCH  51  52
ENDBRANCH  44  46
ENDBRANCH  43  44
ENDBRANCH  42  43
ENDBRANCH  41  42
ENDBRANCH  40  41
ENDBRANCH  39  40
ENDBRANCH  38  39
ENDBRANCH  37  38
ENDBRANCH   1  37
TORSDOF 28
ENDMDL
