MODEL 1
REMARK VINA RESULT:      -8.0      0.000      0.000
REMARK SMILES CC(C)Cc1cc2c(cc1Cl)C=C(C(=O)OCCOCCOCCOCCOC(=O)c1ccc(-c3c4nc(c(-c5cccc(S(=O)(=O)[O-])c5F)c5ccc([nH]5)c(-c5cccc(S(=O)(=O)[O-])c5F)c5nc(c(-c6cccc(S(=O)(=O)[O-])c6F)c6ccc3[nH]6)C=C5)C=C4)cc1)[C@@H](C(F)(F)F)O2
REMARK SMILES IDX 23 1 22 2 21 3 20 4 19 5 18 6 17 7 16 8 14 9 15 10 13 11
REMARK SMILES IDX 5 12 6 13 10 14 7 15 9 16 11 17 8 18 99 19 12 20 94 21 4 22
REMARK SMILES IDX 2 23 1 24 3 25 95 26 96 27 97 28 98 29 24 30 25 31 26 32
REMARK SMILES IDX 27 33 28 34 29 35 30 36 31 37 32 38 93 39 33 40 92 41 34 42
REMARK SMILES IDX 35 43 36 44 86 45 37 46 91 47 85 48 87 49 38 50 90 51 84 52
REMARK SMILES IDX 83 53 39 55 71 56 51 57 70 58 52 59 55 60 69 61 88 62 53 63
REMARK SMILES IDX 54 64 68 66 89 67 56 68 40 69 41 70 49 71 42 72 44 73 50 74
REMARK SMILES IDX 43 75 45 76 46 77 47 78 48 79 72 80 73 81 81 82 74 83 76 84
REMARK SMILES IDX 82 85 75 86 77 87 78 88 79 89 80 90 57 91 58 92 66 93 59 94
REMARK SMILES IDX 61 95 67 96 60 97 62 98 63 99 64 100 65 101
REMARK H PARENT 87 54 55 65
REMARK Flexibility Score: inf
ROOT
ATOM      1  C   UNL A   1      41.679  40.770  27.722  1.00  0.00     0.188 C 
ENDROOT
BRANCH   1   2
ATOM      2  O   UNL A   1      42.304  39.981  26.710  1.00  0.00    -0.377 OA
BRANCH   2   3
ATOM      3  C   UNL A   1      43.115  40.685  25.779  1.00  0.00     0.188 C 
BRANCH   3   4
ATOM      4  C   UNL A   1      42.293  41.667  24.924  1.00  0.00     0.188 C 
BRANCH   4   5
ATOM      5  O   UNL A   1      42.665  41.688  23.558  1.00  0.00    -0.376 OA
BRANCH   5   6
ATOM      6  C   UNL A   1      43.007  42.903  22.901  1.00  0.00     0.202 C 
BRANCH   6   7
ATOM      7  C   UNL A   1      44.443  43.396  22.624  1.00  0.00     0.261 C 
BRANCH   7   8
ATOM      8  O   UNL A   1      45.381  42.451  22.107  1.00  0.00    -0.460 OA
BRANCH   8   9
ATOM      9  C   UNL A   1      45.950  42.711  20.918  1.00  0.00     0.338 C 
ATOM     10  O   UNL A   1      46.421  41.906  20.134  1.00  0.00    -0.246 OA
BRANCH   9  11
ATOM     11  C   UNL A   1      45.730  44.147  20.630  1.00  0.00     0.087 C 
ATOM     12  C   UNL A   1      44.330  48.526  18.592  1.00  0.00    -0.025 A 
ATOM     13  C   UNL A   1      45.093  48.161  19.717  1.00  0.00     0.052 A 
ATOM     14  C   UNL A   1      43.689  47.510  17.865  1.00  0.00     0.045 A 
ATOM     15  C   UNL A   1      45.256  46.819  20.074  1.00  0.00     0.128 A 
ATOM     16  C   UNL A   1      43.834  46.171  18.237  1.00  0.00     0.032 A 
ATOM     17  Cl  UNL A   1      42.750  47.835  16.451  1.00  0.00    -0.084 Cl
ATOM     18  C   UNL A   1      44.646  45.822  19.319  1.00  0.00     0.019 A 
ATOM     19  O   UNL A   1      46.045  46.574  21.160  1.00  0.00    -0.475 OA
ATOM     20  C   UNL A   1      44.899  44.426  19.619  1.00  0.00     0.027 C 
ATOM     21  C   UNL A   1      46.361  45.195  21.515  1.00  0.00     0.316 C 
BRANCH  12  22
ATOM     22  C   UNL A   1      44.276  49.984  18.187  1.00  0.00     0.040 C 
BRANCH  22  23
ATOM     23  C   UNL A   1      45.274  50.395  17.087  1.00  0.00    -0.013 C 
ATOM     24  C   UNL A   1      44.579  51.060  15.899  1.00  0.00     0.008 C 
ATOM     25  C   UNL A   1      46.323  51.342  17.676  1.00  0.00     0.008 C 
ENDBRANCH  22  23
ENDBRANCH  12  22
BRANCH  21  26
ATOM     26  C   UNL A   1      47.888  45.049  21.581  1.00  0.00     0.430 C 
ATOM     27  F   UNL A   1      48.401  44.696  20.378  1.00  0.00    -0.167 F 
ATOM     28  F   UNL A   1      48.491  46.204  21.943  1.00  0.00    -0.167 F 
ATOM     29  F   UNL A   1      48.259  44.101  22.472  1.00  0.00    -0.167 F 
ENDBRANCH  21  26
ENDBRANCH   9  11
ENDBRANCH   8   9
ENDBRANCH   7   8
ENDBRANCH   6   7
ENDBRANCH   5   6
ENDBRANCH   4   5
ENDBRANCH   3   4
ENDBRANCH   2   3
ENDBRANCH   1   2
BRANCH   1  30
ATOM     30  C   UNL A   1      41.682  40.265  29.181  1.00  0.00     0.188 C 
BRANCH  30  31
ATOM     31  O   UNL A   1      41.823  41.317  30.140  1.00  0.00    -0.376 OA
BRANCH  31  32
ATOM     32  C   UNL A   1      43.081  41.974  30.193  1.00  0.00     0.202 C 
BRANCH  32  33
ATOM     33  C   UNL A   1      43.675  42.084  31.603  1.00  0.00     0.261 C 
BRANCH  33  34
ATOM     34  O   UNL A   1      44.239  40.872  32.126  1.00  0.00    -0.460 OA
BRANCH  34  35
ATOM     35  C   UNL A   1      43.515  40.179  33.031  1.00  0.00     0.338 C 
ATOM     36  O   UNL A   1      42.745  40.635  33.858  1.00  0.00    -0.246 OA
BRANCH  35  37
ATOM     37  C   UNL A   1      43.668  38.742  32.713  1.00  0.00     0.060 A 
ATOM     38  C   UNL A   1      43.642  37.790  33.735  1.00  0.00     0.016 A 
ATOM     39  C   UNL A   1      43.871  38.352  31.384  1.00  0.00     0.016 A 
ATOM     40  C   UNL A   1      43.789  36.440  33.420  1.00  0.00     0.010 A 
ATOM     41  C   UNL A   1      44.017  36.998  31.070  1.00  0.00     0.010 A 
ATOM     42  C   UNL A   1      43.953  36.031  32.084  1.00  0.00    -0.014 A 
BRANCH  42  43
ATOM     43  C   UNL A   1      43.862  34.587  31.761  1.00  0.00     0.031 A 
ATOM     44  C   UNL A   1      42.557  33.854  31.720  1.00  0.00     0.074 A 
ATOM     45  C   UNL A   1      45.011  33.938  31.486  1.00  0.00     0.049 A 
ATOM     46  N   UNL A   1      42.323  32.640  31.292  1.00  0.00    -0.248 NA
ATOM     47  C   UNL A   1      41.369  34.557  32.222  1.00  0.00     0.031 C 
ATOM     48  C   UNL A   1      46.347  34.534  31.566  1.00  0.00     0.029 A 
ATOM     49  N   UNL A   1      45.242  32.651  31.076  1.00  0.00    -0.354 N 
ATOM     50  C   UNL A   1      40.963  32.427  31.472  1.00  0.00     0.074 A 
ATOM     51  C   UNL A   1      40.427  33.632  32.069  1.00  0.00     0.031 C 
ATOM     52  C   UNL A   1      47.256  33.622  31.191  1.00  0.00     0.029 A 
ATOM     53  C   UNL A   1      46.569  32.378  30.850  1.00  0.00     0.049 A 
ATOM     54  H   UNL A   1      44.526  31.985  30.957  1.00  0.00     0.167 HD
ATOM     55  C   UNL A   1      40.233  31.336  31.142  1.00  0.00     0.034 A 
ATOM     56  C   UNL A   1      47.172  31.262  30.399  1.00  0.00     0.034 A 
ATOM     57  C   UNL A   1      40.773  30.151  30.530  1.00  0.00     0.049 A 
ATOM     58  C   UNL A   1      46.337  30.076  30.019  1.00  0.00     0.074 A 
ATOM     59  C   UNL A   1      40.092  29.035  30.076  1.00  0.00     0.029 A 
ATOM     60  N   UNL A   1      42.120  29.916  30.302  1.00  0.00    -0.354 N 
ATOM     61  N   UNL A   1      45.032  29.959  30.027  1.00  0.00    -0.248 NA
ATOM     62  C   UNL A   1      47.046  28.879  29.546  1.00  0.00     0.031 C 
ATOM     63  C   UNL A   1      41.027  28.118  29.591  1.00  0.00     0.029 A 
ATOM     64  C   UNL A   1      42.291  28.666  29.734  1.00  0.00     0.049 A 
ATOM     65  H   UNL A   1      42.847  30.546  30.512  1.00  0.00     0.167 HD
ATOM     66  C   UNL A   1      44.762  28.683  29.550  1.00  0.00     0.074 A 
ATOM     67  C   UNL A   1      46.037  28.069  29.244  1.00  0.00     0.031 C 
ATOM     68  C   UNL A   1      43.561  28.075  29.398  1.00  0.00     0.034 A 
BRANCH  55  69
ATOM     69  C   UNL A   1      38.745  31.381  31.358  1.00  0.00     0.023 A 
ATOM     70  C   UNL A   1      38.229  31.005  32.613  1.00  0.00     0.012 A 
ATOM     71  C   UNL A   1      37.883  31.920  30.384  1.00  0.00     0.148 A 
ATOM     72  C   UNL A   1      36.873  31.157  32.896  1.00  0.00     0.002 A 
ATOM     73  C   UNL A   1      36.535  32.092  30.682  1.00  0.00     0.091 A 
ATOM     74  F   UNL A   1      38.398  32.267  29.196  1.00  0.00    -0.205 F 
ATOM     75  C   UNL A   1      36.029  31.708  31.937  1.00  0.00     0.022 A 
BRANCH  73  76
ATOM     76  S   UNL A   1      35.369  32.840  29.539  1.00  0.00     0.127 S 
ATOM     77  O   UNL A   1      34.159  32.912  30.359  1.00  0.00    -0.237 OA
ATOM     78  O   UNL A   1      35.997  34.131  29.261  1.00  0.00    -0.237 OA
ATOM     79  O   UNL A   1      35.288  31.939  28.397  1.00  0.00    -0.744 OA
ENDBRANCH  73  76
ENDBRANCH  55  69
BRANCH  56  80
ATOM     80  C   UNL A   1      48.646  31.269  30.206  1.00  0.00     0.023 A 
ATOM     81  C   UNL A   1      49.475  30.795  31.240  1.00  0.00     0.012 A 
ATOM     82  C   UNL A   1      49.216  31.650  28.977  1.00  0.00     0.148 A 
ATOM     83  C   UNL A   1      50.855  30.705  31.053  1.00  0.00     0.002 A 
ATOM     84  C   UNL A   1      50.586  31.522  28.785  1.00  0.00     0.091 A 
ATOM     85  F   UNL A   1      48.398  32.092  28.011  1.00  0.00    -0.205 F 
ATOM     86  C   UNL A   1      51.407  31.058  29.824  1.00  0.00     0.022 A 
BRANCH  84  87
ATOM     87  S   UNL A   1      51.379  31.852  27.207  1.00  0.00     0.127 S 
ATOM     88  O   UNL A   1      50.571  31.045  26.295  1.00  0.00    -0.237 OA
ATOM     89  O   UNL A   1      51.194  33.298  27.080  1.00  0.00    -0.237 OA
ATOM     90  O   UNL A   1      52.763  31.428  27.359  1.00  0.00    -0.744 OA
ENDBRANCH  84  87
ENDBRANCH  56  80
BRANCH  68  91
ATOM     91  C   UNL A   1      43.538  26.658  28.897  1.00  0.00     0.023 A 
ATOM     92  C   UNL A   1      43.447  25.606  29.828  1.00  0.00     0.012 A 
ATOM     93  C   UNL A   1      43.450  26.380  27.518  1.00  0.00     0.148 A 
ATOM     94  C   UNL A   1      43.263  24.293  29.395  1.00  0.00     0.002 A 
ATOM     95  C   UNL A   1      43.233  25.073  27.096  1.00  0.00     0.091 A 
ATOM     96  F   UNL A   1      43.542  27.401  26.656  1.00  0.00    -0.205 F 
ATOM     97  C   UNL A   1      43.143  24.029  28.032  1.00  0.00     0.022 A 
BRANCH  95  98
ATOM     98  S   UNL A   1      42.991  24.636  25.370  1.00  0.00     0.127 S 
ATOM     99  O   UNL A   1      41.940  25.572  24.970  1.00  0.00    -0.237 OA
ATOM    100  O   UNL A   1      44.307  24.913  24.796  1.00  0.00    -0.237 OA
ATOM    101  O   UNL A   1      42.598  23.234  25.357  1.00  0.00    -0.744 OA
ENDBRANCH  95  98
ENDBRANCH  68  91
ENDBRANCH  42  43
ENDBRANCH  35  37
ENDBRANCH  34  35
ENDBRANCH  33  34
ENDBRANCH  32  33
ENDBRANCH  31  32
ENDBRANCH  30  31
ENDBRANCH   1  30
TORSDOF 26
ENDMDL
MODEL 2
REMARK VINA RESULT:      -8.0      7.811     13.944
REMARK SMILES CC(C)Cc1cc2c(cc1Cl)C=C(C(=O)OCCOCCOCCOCCOC(=O)c1ccc(-c3c4nc(c(-c5cccc(S(=O)(=O)[O-])c5F)c5ccc([nH]5)c(-c5cccc(S(=O)(=O)[O-])c5F)c5nc(c(-c6cccc(S(=O)(=O)[O-])c6F)c6ccc3[nH]6)C=C5)C=C4)cc1)[C@@H](C(F)(F)F)O2
REMARK SMILES IDX 23 1 22 2 21 3 20 4 19 5 18 6 17 7 16 8 14 9 15 10 13 11
REMARK SMILES IDX 5 12 6 13 10 14 7 15 9 16 11 17 8 18 99 19 12 20 94 21 4 22
REMARK SMILES IDX 2 23 1 24 3 25 95 26 96 27 97 28 98 29 24 30 25 31 26 32
REMARK SMILES IDX 27 33 28 34 29 35 30 36 31 37 32 38 93 39 33 40 92 41 34 42
REMARK SMILES IDX 35 43 36 44 86 45 37 46 91 47 85 48 87 49 38 50 90 51 84 52
REMARK SMILES IDX 83 53 39 55 71 56 51 57 70 58 52 59 55 60 69 61 88 62 53 63
REMARK SMILES IDX 54 64 68 66 89 67 56 68 40 69 41 70 49 71 42 72 44 73 50 74
REMARK SMILES IDX 43 75 45 76 46 77 47 78 48 79 72 80 73 81 81 82 74 83 76 84
REMARK SMILES IDX 82 85 75 86 77 87 78 88 79 89 80 90 57 91 58 92 66 93 59 94
REMARK SMILES IDX 61 95 67 96 60 97 62 98 63 99 64 100 65 101
REMARK H PARENT 87 54 55 65
REMARK Flexibility Score: inf
ROOT
ATOM      1  C   UNL A   1      40.210  31.824  41.937  1.00  0.00     0.188 C 
ENDROOT
BRANCH   1   2
ATOM      2  O   UNL A   1      40.119  32.263  40.582  1.00  0.00    -0.377 OA
BRANCH   2   3
ATOM      3  C   UNL A   1      39.188  33.305  40.323  1.00  0.00     0.188 C 
BRANCH   3   4
ATOM      4  C   UNL A   1      38.050  32.845  39.394  1.00  0.00     0.188 C 
BRANCH   4   5
ATOM      5  O   UNL A   1      38.347  32.971  38.016  1.00  0.00    -0.376 OA
BRANCH   5   6
ATOM      6  C   UNL A   1      37.538  33.757  37.151  1.00  0.00     0.202 C 
BRANCH   6   7
ATOM      7  C   UNL A   1      37.098  33.356  35.727  1.00  0.00     0.261 C 
BRANCH   7   8
ATOM      8  O   UNL A   1      37.836  33.895  34.628  1.00  0.00    -0.460 OA
BRANCH   8   9
ATOM      9  C   UNL A   1      37.210  34.022  33.447  1.00  0.00     0.338 C 
ATOM     10  O   UNL A   1      36.796  35.049  32.939  1.00  0.00    -0.246 OA
BRANCH   9  11
ATOM     11  C   UNL A   1      37.280  32.708  32.767  1.00  0.00     0.087 C 
ATOM     12  C   UNL A   1      38.839  28.481  30.533  1.00  0.00    -0.025 A 
ATOM     13  C   UNL A   1      37.578  29.036  30.823  1.00  0.00     0.052 A 
ATOM     14  C   UNL A   1      39.982  29.132  31.026  1.00  0.00     0.045 A 
ATOM     15  C   UNL A   1      37.464  30.233  31.536  1.00  0.00     0.128 A 
ATOM     16  C   UNL A   1      39.864  30.316  31.758  1.00  0.00     0.032 A 
ATOM     17  Cl  UNL A   1      41.581  28.559  30.709  1.00  0.00    -0.084 Cl
ATOM     18  C   UNL A   1      38.609  30.886  31.984  1.00  0.00     0.019 A 
ATOM     19  O   UNL A   1      36.197  30.703  31.731  1.00  0.00    -0.475 OA
ATOM     20  C   UNL A   1      38.502  32.180  32.628  1.00  0.00     0.027 C 
ATOM     21  C   UNL A   1      36.008  32.007  32.357  1.00  0.00     0.316 C 
BRANCH  12  22
ATOM     22  C   UNL A   1      38.910  27.244  29.664  1.00  0.00     0.040 C 
BRANCH  22  23
ATOM     23  C   UNL A   1      39.151  27.508  28.165  1.00  0.00    -0.013 C 
ATOM     24  C   UNL A   1      39.242  29.001  27.851  1.00  0.00     0.008 C 
ATOM     25  C   UNL A   1      40.434  26.801  27.722  1.00  0.00     0.008 C 
ENDBRANCH  22  23
ENDBRANCH  12  22
BRANCH  21  26
ATOM     26  C   UNL A   1      35.149  32.872  31.424  1.00  0.00     0.430 C 
ATOM     27  F   UNL A   1      35.919  33.665  30.641  1.00  0.00    -0.167 F 
ATOM     28  F   UNL A   1      34.388  32.121  30.597  1.00  0.00    -0.167 F 
ATOM     29  F   UNL A   1      34.316  33.678  32.121  1.00  0.00    -0.167 F 
ENDBRANCH  21  26
ENDBRANCH   9  11
ENDBRANCH   8   9
ENDBRANCH   7   8
ENDBRANCH   6   7
ENDBRANCH   5   6
ENDBRANCH   4   5
ENDBRANCH   3   4
ENDBRANCH   2   3
ENDBRANCH   1   2
BRANCH   1  30
ATOM     30  C   UNL A   1      41.496  32.118  42.740  1.00  0.00     0.188 C 
BRANCH  30  31
ATOM     31  O   UNL A   1      41.949  33.468  42.604  1.00  0.00    -0.376 OA
BRANCH  31  32
ATOM     32  C   UNL A   1      42.703  34.004  43.682  1.00  0.00     0.202 C 
BRANCH  32  33
ATOM     33  C   UNL A   1      42.390  35.470  44.002  1.00  0.00     0.261 C 
BRANCH  33  34
ATOM     34  O   UNL A   1      43.404  36.412  43.617  1.00  0.00    -0.460 OA
BRANCH  34  35
ATOM     35  C   UNL A   1      43.037  37.445  42.828  1.00  0.00     0.338 C 
ATOM     36  O   UNL A   1      42.811  38.590  43.177  1.00  0.00    -0.246 OA
BRANCH  35  37
ATOM     37  C   UNL A   1      43.151  36.990  41.425  1.00  0.00     0.060 A 
ATOM     38  C   UNL A   1      42.029  36.997  40.592  1.00  0.00     0.016 A 
ATOM     39  C   UNL A   1      44.384  36.525  40.952  1.00  0.00     0.016 A 
ATOM     40  C   UNL A   1      42.151  36.565  39.273  1.00  0.00     0.010 A 
ATOM     41  C   UNL A   1      44.504  36.092  39.628  1.00  0.00     0.010 A 
ATOM     42  C   UNL A   1      43.393  36.132  38.773  1.00  0.00    -0.014 A 
BRANCH  42  43
ATOM     43  C   UNL A   1      43.541  35.913  37.315  1.00  0.00     0.031 A 
ATOM     44  C   UNL A   1      43.315  34.577  36.676  1.00  0.00     0.074 A 
ATOM     45  C   UNL A   1      43.879  36.975  36.558  1.00  0.00     0.049 A 
ATOM     46  N   UNL A   1      43.249  34.289  35.402  1.00  0.00    -0.248 NA
ATOM     47  C   UNL A   1      43.148  33.420  37.566  1.00  0.00     0.031 C 
ATOM     48  C   UNL A   1      44.194  38.307  37.080  1.00  0.00     0.029 A 
ATOM     49  N   UNL A   1      44.004  37.110  35.199  1.00  0.00    -0.354 N 
ATOM     50  C   UNL A   1      43.034  32.919  35.330  1.00  0.00     0.074 A 
ATOM     51  C   UNL A   1      43.002  32.430  36.692  1.00  0.00     0.031 C 
ATOM     52  C   UNL A   1      44.450  39.131  36.053  1.00  0.00     0.029 A 
ATOM     53  C   UNL A   1      44.323  38.386  34.803  1.00  0.00     0.049 A 
ATOM     54  H   UNL A   1      43.878  36.364  34.569  1.00  0.00     0.167 HD
ATOM     55  C   UNL A   1      42.854  32.155  34.228  1.00  0.00     0.034 A 
ATOM     56  C   UNL A   1      44.477  38.910  33.573  1.00  0.00     0.034 A 
ATOM     57  C   UNL A   1      42.866  32.656  32.879  1.00  0.00     0.049 A 
ATOM     58  C   UNL A   1      44.249  38.046  32.369  1.00  0.00     0.074 A 
ATOM     59  C   UNL A   1      42.599  31.968  31.707  1.00  0.00     0.029 A 
ATOM     60  N   UNL A   1      43.178  33.957  32.516  1.00  0.00    -0.354 N 
ATOM     61  N   UNL A   1      43.868  36.793  32.323  1.00  0.00    -0.248 NA
ATOM     62  C   UNL A   1      44.444  38.665  31.051  1.00  0.00     0.031 C 
ATOM     63  C   UNL A   1      42.768  32.848  30.635  1.00  0.00     0.029 A 
ATOM     64  C   UNL A   1      43.131  34.087  31.139  1.00  0.00     0.049 A 
ATOM     65  H   UNL A   1      43.399  34.682  33.145  1.00  0.00     0.167 HD
ATOM     66  C   UNL A   1      43.767  36.475  30.975  1.00  0.00     0.074 A 
ATOM     67  C   UNL A   1      44.108  37.672  30.234  1.00  0.00     0.031 C 
ATOM     68  C   UNL A   1      43.436  35.290  30.409  1.00  0.00     0.034 A 
BRANCH  55  69
ATOM     69  C   UNL A   1      42.546  30.694  34.415  1.00  0.00     0.023 A 
ATOM     70  C   UNL A   1      41.238  30.317  34.779  1.00  0.00     0.012 A 
ATOM     71  C   UNL A   1      43.494  29.702  34.101  1.00  0.00     0.148 A 
ATOM     72  C   UNL A   1      40.878  28.972  34.835  1.00  0.00     0.002 A 
ATOM     73  C   UNL A   1      43.121  28.363  34.135  1.00  0.00     0.091 A 
ATOM     74  F   UNL A   1      44.733  30.086  33.761  1.00  0.00    -0.205 F 
ATOM     75  C   UNL A   1      41.814  27.997  34.504  1.00  0.00     0.022 A 
BRANCH  73  76
ATOM     76  S   UNL A   1      44.232  27.027  33.678  1.00  0.00     0.127 S 
ATOM     77  O   UNL A   1      45.309  27.194  34.654  1.00  0.00    -0.237 OA
ATOM     78  O   UNL A   1      43.395  25.846  33.889  1.00  0.00    -0.237 OA
ATOM     79  O   UNL A   1      44.610  27.272  32.294  1.00  0.00    -0.744 OA
ENDBRANCH  73  76
ENDBRANCH  55  69
BRANCH  56  80
ATOM     80  C   UNL A   1      44.784  40.359  33.442  1.00  0.00     0.023 A 
ATOM     81  C   UNL A   1      46.127  40.774  33.394  1.00  0.00     0.012 A 
ATOM     82  C   UNL A   1      43.757  41.307  33.271  1.00  0.00     0.148 A 
ATOM     83  C   UNL A   1      46.445  42.116  33.181  1.00  0.00     0.002 A 
ATOM     84  C   UNL A   1      44.080  42.635  33.022  1.00  0.00     0.091 A 
ATOM     85  F   UNL A   1      42.487  40.878  33.317  1.00  0.00    -0.205 F 
ATOM     86  C   UNL A   1      45.423  43.042  32.985  1.00  0.00     0.022 A 
BRANCH  84  87
ATOM     87  S   UNL A   1      42.841  43.881  32.655  1.00  0.00     0.127 S 
ATOM     88  O   UNL A   1      41.996  43.819  33.845  1.00  0.00    -0.237 OA
ATOM     89  O   UNL A   1      43.660  45.089  32.542  1.00  0.00    -0.237 OA
ATOM     90  O   UNL A   1      42.206  43.460  31.414  1.00  0.00    -0.744 OA
ENDBRANCH  84  87
ENDBRANCH  56  80
BRANCH  68  91
ATOM     91  C   UNL A   1      43.439  35.192  28.909  1.00  0.00     0.023 A 
ATOM     92  C   UNL A   1      42.382  35.776  28.185  1.00  0.00     0.012 A 
ATOM     93  C   UNL A   1      44.550  34.667  28.220  1.00  0.00     0.148 A 
ATOM     94  C   UNL A   1      42.432  35.844  26.794  1.00  0.00     0.002 A 
ATOM     95  C   UNL A   1      44.608  34.769  26.835  1.00  0.00     0.091 A 
ATOM     96  F   UNL A   1      45.540  34.115  28.936  1.00  0.00    -0.205 F 
ATOM     97  C   UNL A   1      43.549  35.354  26.120  1.00  0.00     0.022 A 
BRANCH  95  98
ATOM     98  S   UNL A   1      46.032  34.235  25.879  1.00  0.00     0.127 S 
ATOM     99  O   UNL A   1      45.564  34.437  24.508  1.00  0.00    -0.237 OA
ATOM    100  O   UNL A   1      47.064  35.174  26.317  1.00  0.00    -0.237 OA
ATOM    101  O   UNL A   1      46.271  32.846  26.246  1.00  0.00    -0.744 OA
ENDBRANCH  95  98
ENDBRANCH  68  91
ENDBRANCH  42  43
ENDBRANCH  35  37
ENDBRANCH  34  35
ENDBRANCH  33  34
ENDBRANCH  32  33
ENDBRANCH  31  32
ENDBRANCH  30  31
ENDBRANCH   1  30
TORSDOF 26
ENDMDL
MODEL 3
REMARK VINA RESULT:      -7.5      9.993     15.175
REMARK SMILES CC(C)Cc1cc2c(cc1Cl)C=C(C(=O)OCCOCCOCCOCCOC(=O)c1ccc(-c3c4nc(c(-c5cccc(S(=O)(=O)[O-])c5F)c5ccc([nH]5)c(-c5cccc(S(=O)(=O)[O-])c5F)c5nc(c(-c6cccc(S(=O)(=O)[O-])c6F)c6ccc3[nH]6)C=C5)C=C4)cc1)[C@@H](C(F)(F)F)O2
REMARK SMILES IDX 23 1 22 2 21 3 20 4 19 5 18 6 17 7 16 8 14 9 15 10 13 11
REMARK SMILES IDX 5 12 6 13 10 14 7 15 9 16 11 17 8 18 99 19 12 20 94 21 4 22
REMARK SMILES IDX 2 23 1 24 3 25 95 26 96 27 97 28 98 29 24 30 25 31 26 32
REMARK SMILES IDX 27 33 28 34 29 35 30 36 31 37 32 38 93 39 33 40 92 41 34 42
REMARK SMILES IDX 35 43 36 44 86 45 37 46 91 47 85 48 87 49 38 50 90 51 84 52
REMARK SMILES IDX 83 53 39 55 71 56 51 57 70 58 52 59 55 60 69 61 88 62 53 63
REMARK SMILES IDX 54 64 68 66 89 67 56 68 40 69 41 70 49 71 42 72 44 73 50 74
REMARK SMILES IDX 43 75 45 76 46 77 47 78 48 79 72 80 73 81 81 82 74 83 76 84
REMARK SMILES IDX 82 85 75 86 77 87 78 88 79 89 80 90 57 91 58 92 66 93 59 94
REMARK SMILES IDX 61 95 67 96 60 97 62 98 63 99 64 100 65 101
REMARK H PARENT 87 54 55 65
REMARK Flexibility Score: inf
ROOT
ATOM      1  C   UNL A   1      46.270  23.311  25.251  1.00  0.00     0.188 C 
ENDROOT
BRANCH   1   2
ATOM      2  O   UNL A   1      45.088  22.542  25.468  1.00  0.00    -0.377 OA
BRANCH   2   3
ATOM      3  C   UNL A   1      43.992  22.823  24.607  1.00  0.00     0.188 C 
BRANCH   3   4
ATOM      4  C   UNL A   1      42.876  23.601  25.327  1.00  0.00     0.188 C 
BRANCH   4   5
ATOM      5  O   UNL A   1      41.903  22.775  25.941  1.00  0.00    -0.376 OA
BRANCH   5   6
ATOM      6  C   UNL A   1      41.149  23.224  27.059  1.00  0.00     0.202 C 
BRANCH   6   7
ATOM      7  C   UNL A   1      41.293  24.601  27.741  1.00  0.00     0.261 C 
BRANCH   7   8
ATOM      8  O   UNL A   1      40.253  25.559  27.530  1.00  0.00    -0.460 OA
BRANCH   8   9
ATOM      9  C   UNL A   1      40.603  26.842  27.346  1.00  0.00     0.338 C 
ATOM     10  O   UNL A   1      41.372  27.284  26.510  1.00  0.00    -0.246 OA
BRANCH   9  11
ATOM     11  C   UNL A   1      39.735  27.665  28.218  1.00  0.00     0.087 C 
ATOM     12  C   UNL A   1      36.341  30.918  30.004  1.00  0.00    -0.025 A 
ATOM     13  C   UNL A   1      37.277  30.047  30.592  1.00  0.00     0.052 A 
ATOM     14  C   UNL A   1      36.171  30.868  28.611  1.00  0.00     0.045 A 
ATOM     15  C   UNL A   1      38.058  29.192  29.810  1.00  0.00     0.128 A 
ATOM     16  C   UNL A   1      36.936  29.997  27.832  1.00  0.00     0.032 A 
ATOM     17  Cl  UNL A   1      35.072  31.909  27.776  1.00  0.00    -0.084 Cl
ATOM     18  C   UNL A   1      37.905  29.184  28.427  1.00  0.00     0.019 A 
ATOM     19  O   UNL A   1      38.961  28.416  30.478  1.00  0.00    -0.475 OA
ATOM     20  C   UNL A   1      38.786  28.380  27.602  1.00  0.00     0.027 C 
ATOM     21  C   UNL A   1      39.894  27.593  29.718  1.00  0.00     0.316 C 
BRANCH  12  22
ATOM     22  C   UNL A   1      35.600  31.899  30.887  1.00  0.00     0.040 C 
BRANCH  22  23
ATOM     23  C   UNL A   1      35.889  33.386  30.601  1.00  0.00    -0.013 C 
ATOM     24  C   UNL A   1      34.726  34.288  31.012  1.00  0.00     0.008 C 
ATOM     25  C   UNL A   1      37.164  33.808  31.336  1.00  0.00     0.008 C 
ENDBRANCH  22  23
ENDBRANCH  12  22
BRANCH  21  26
ATOM     26  C   UNL A   1      41.321  27.943  30.162  1.00  0.00     0.430 C 
ATOM     27  F   UNL A   1      41.425  27.963  31.512  1.00  0.00    -0.167 F 
ATOM     28  F   UNL A   1      42.226  27.046  29.710  1.00  0.00    -0.167 F 
ATOM     29  F   UNL A   1      41.698  29.161  29.710  1.00  0.00    -0.167 F 
ENDBRANCH  21  26
ENDBRANCH   9  11
ENDBRANCH   8   9
ENDBRANCH   7   8
ENDBRANCH   6   7
ENDBRANCH   5   6
ENDBRANCH   4   5
ENDBRANCH   3   4
ENDBRANCH   2   3
ENDBRANCH   1   2
BRANCH   1  30
ATOM     30  C   UNL A   1      46.293  24.795  25.677  1.00  0.00     0.188 C 
BRANCH  30  31
ATOM     31  O   UNL A   1      45.916  25.689  24.626  1.00  0.00    -0.376 OA
BRANCH  31  32
ATOM     32  C   UNL A   1      45.687  27.044  24.987  1.00  0.00     0.202 C 
BRANCH  32  33
ATOM     33  C   UNL A   1      46.812  28.002  24.577  1.00  0.00     0.261 C 
BRANCH  33  34
ATOM     34  O   UNL A   1      47.410  28.741  25.654  1.00  0.00    -0.460 OA
BRANCH  34  35
ATOM     35  C   UNL A   1      46.676  29.717  26.232  1.00  0.00     0.338 C 
ATOM     36  O   UNL A   1      46.099  30.631  25.670  1.00  0.00    -0.246 OA
BRANCH  35  37
ATOM     37  C   UNL A   1      46.528  29.369  27.662  1.00  0.00     0.060 A 
ATOM     38  C   UNL A   1      47.651  29.313  28.491  1.00  0.00     0.016 A 
ATOM     39  C   UNL A   1      45.258  29.065  28.166  1.00  0.00     0.016 A 
ATOM     40  C   UNL A   1      47.497  28.983  29.836  1.00  0.00     0.010 A 
ATOM     41  C   UNL A   1      45.105  28.735  29.516  1.00  0.00     0.010 A 
ATOM     42  C   UNL A   1      46.221  28.715  30.365  1.00  0.00    -0.014 A 
BRANCH  42  43
ATOM     43  C   UNL A   1      46.064  28.607  31.835  1.00  0.00     0.031 A 
ATOM     44  C   UNL A   1      46.117  27.296  32.555  1.00  0.00     0.074 A 
ATOM     45  C   UNL A   1      45.881  29.750  32.525  1.00  0.00     0.049 A 
ATOM     46  N   UNL A   1      46.160  27.080  33.845  1.00  0.00    -0.248 NA
ATOM     47  C   UNL A   1      46.116  26.074  31.738  1.00  0.00     0.031 C 
ATOM     48  C   UNL A   1      45.740  31.078  31.921  1.00  0.00     0.029 A 
ATOM     49  N   UNL A   1      45.792  29.984  33.873  1.00  0.00    -0.354 N 
ATOM     50  C   UNL A   1      46.191  25.701  34.001  1.00  0.00     0.074 A 
ATOM     51  C   UNL A   1      46.139  25.128  32.672  1.00  0.00     0.031 C 
ATOM     52  C   UNL A   1      45.609  31.990  32.896  1.00  0.00     0.029 A 
ATOM     53  C   UNL A   1      45.652  31.313  34.190  1.00  0.00     0.049 A 
ATOM     54  H   UNL A   1      45.825  29.268  34.548  1.00  0.00     0.167 HD
ATOM     55  C   UNL A   1      46.281  24.988  35.148  1.00  0.00     0.034 A 
ATOM     56  C   UNL A   1      45.585  31.928  35.385  1.00  0.00     0.034 A 
ATOM     57  C   UNL A   1      46.352  25.569  36.463  1.00  0.00     0.049 A 
ATOM     58  C   UNL A   1      45.710  31.116  36.640  1.00  0.00     0.074 A 
ATOM     59  C   UNL A   1      46.540  24.925  37.674  1.00  0.00     0.029 A 
ATOM     60  N   UNL A   1      46.222  26.920  36.745  1.00  0.00    -0.354 N 
ATOM     61  N   UNL A   1      45.921  29.829  36.762  1.00  0.00    -0.248 NA
ATOM     62  C   UNL A   1      45.617  31.836  37.918  1.00  0.00     0.031 C 
ATOM     63  C   UNL A   1      46.504  25.884  38.690  1.00  0.00     0.029 A 
ATOM     64  C   UNL A   1      46.304  27.126  38.111  1.00  0.00     0.049 A 
ATOM     65  H   UNL A   1      46.092  27.627  36.073  1.00  0.00     0.167 HD
ATOM     66  C   UNL A   1      45.996  29.584  38.127  1.00  0.00     0.074 A 
ATOM     67  C   UNL A   1      45.828  30.859  38.793  1.00  0.00     0.031 C 
ATOM     68  C   UNL A   1      46.172  28.402  38.765  1.00  0.00     0.034 A 
BRANCH  55  69
ATOM     69  C   UNL A   1      46.388  23.491  35.051  1.00  0.00     0.023 A 
ATOM     70  C   UNL A   1      45.208  22.723  35.079  1.00  0.00     0.012 A 
ATOM     71  C   UNL A   1      47.622  22.863  34.795  1.00  0.00     0.148 A 
ATOM     72  C   UNL A   1      45.252  21.347  34.860  1.00  0.00     0.002 A 
ATOM     73  C   UNL A   1      47.656  21.493  34.554  1.00  0.00     0.091 A 
ATOM     74  F   UNL A   1      48.731  23.616  34.777  1.00  0.00    -0.205 F 
ATOM     75  C   UNL A   1      46.472  20.735  34.588  1.00  0.00     0.022 A 
BRANCH  73  76
ATOM     76  S   UNL A   1      49.165  20.611  34.142  1.00  0.00     0.127 S 
ATOM     77  O   UNL A   1      48.662  19.569  33.246  1.00  0.00    -0.237 OA
ATOM     78  O   UNL A   1      49.959  21.649  33.486  1.00  0.00    -0.237 OA
ATOM     79  O   UNL A   1      49.709  20.130  35.405  1.00  0.00    -0.744 OA
ENDBRANCH  73  76
ENDBRANCH  55  69
BRANCH  56  80
ATOM     80  C   UNL A   1      45.476  33.410  35.426  1.00  0.00     0.023 A 
ATOM     81  C   UNL A   1      46.650  34.183  35.496  1.00  0.00     0.012 A 
ATOM     82  C   UNL A   1      44.229  34.051  35.302  1.00  0.00     0.148 A 
ATOM     83  C   UNL A   1      46.584  35.576  35.444  1.00  0.00     0.002 A 
ATOM     84  C   UNL A   1      44.173  35.436  35.213  1.00  0.00     0.091 A 
ATOM     85  F   UNL A   1      43.130  33.286  35.233  1.00  0.00    -0.205 F 
ATOM     86  C   UNL A   1      45.348  36.200  35.293  1.00  0.00     0.022 A 
BRANCH  84  87
ATOM     87  S   UNL A   1      42.642  36.327  34.914  1.00  0.00     0.127 S 
ATOM     88  O   UNL A   1      43.096  37.716  34.946  1.00  0.00    -0.237 OA
ATOM     89  O   UNL A   1      42.266  35.832  33.589  1.00  0.00    -0.237 OA
ATOM     90  O   UNL A   1      41.739  35.939  35.987  1.00  0.00    -0.744 OA
ENDBRANCH  84  87
ENDBRANCH  56  80
BRANCH  68  91
ATOM     91  C   UNL A   1      46.175  28.398  40.269  1.00  0.00     0.023 A 
ATOM     92  C   UNL A   1      44.996  28.048  40.952  1.00  0.00     0.012 A 
ATOM     93  C   UNL A   1      47.371  28.583  40.990  1.00  0.00     0.148 A 
ATOM     94  C   UNL A   1      45.005  27.877  42.336  1.00  0.00     0.002 A 
ATOM     95  C   UNL A   1      47.380  28.379  42.365  1.00  0.00     0.091 A 
ATOM     96  F   UNL A   1      48.478  28.918  40.312  1.00  0.00    -0.205 F 
ATOM     97  C   UNL A   1      46.198  28.030  43.039  1.00  0.00     0.022 A 
BRANCH  95  98
ATOM     98  S   UNL A   1      48.878  28.477  43.353  1.00  0.00     0.127 S 
ATOM     99  O   UNL A   1      49.778  27.586  42.621  1.00  0.00    -0.237 OA
ATOM    100  O   UNL A   1      49.214  29.897  43.259  1.00  0.00    -0.237 OA
ATOM    101  O   UNL A   1      48.515  28.020  44.687  1.00  0.00    -0.744 OA
ENDBRANCH  95  98
ENDBRANCH  68  91
ENDBRANCH  42  43
ENDBRANCH  35  37
ENDBRANCH  34  35
ENDBRANCH  33  34
ENDBRANCH  32  33
ENDBRANCH  31  32
ENDBRANCH  30  31
ENDBRANCH   1  30
TORSDOF 26
ENDMDL
