MODEL 1
REMARK VINA RESULT:     -10.0      0.000      0.000
REMARK SMILES Cc1cc(NC(=O)c2ccc(Br)cc2N)ccc1C(=O)OCCOCCOCCOCCOC(=O)c1ccc(-c2c3nc(c(-c4cccc(S(=O)(=O)[O-])c4F)c4ccc([nH]4)c(-c4cccc(S(=O)(=O)[O-])c4F)c4nc(c(-c5cccc(S(=O)(=O)[O-])c5F)c5ccc2[nH]5)C=C4)C=C3)cc1
REMARK SMILES IDX 27 1 26 2 25 3 24 4 23 5 22 6 21 7 19 8 20 9 18 10 1 11 2 12
REMARK SMILES IDX 3 13 4 14 17 15 16 16 5 17 6 18 7 20 8 21 9 22 14 23 10 24
REMARK SMILES IDX 13 25 11 26 12 27 15 28 28 31 29 32 30 33 31 34 32 35 33 36
REMARK SMILES IDX 34 37 35 38 36 39 37 40 98 41 38 42 97 43 39 44 40 45 41 46
REMARK SMILES IDX 91 47 42 48 96 49 90 50 92 51 43 52 95 53 89 54 88 55 44 57
REMARK SMILES IDX 76 58 56 59 75 60 57 61 60 62 74 63 93 64 58 65 59 66 73 68
REMARK SMILES IDX 94 69 61 70 45 71 46 72 54 73 47 74 49 75 55 76 48 77 50 78
REMARK SMILES IDX 51 79 52 80 53 81 77 82 78 83 86 84 79 85 81 86 87 87 80 88
REMARK SMILES IDX 82 89 83 90 84 91 85 92 62 93 63 94 71 95 64 96 66 97 72 98
REMARK SMILES IDX 65 99 67 100 68 101 69 102 70 103
REMARK H PARENT 5 19 15 29 15 30 92 56 60 67
REMARK Flexibility Score: inf
ROOT
ATOM      1  O   UNL A   1      33.208  34.132  32.433  1.00  0.00    -0.377 OA
ENDROOT
BRANCH   1   2
ATOM      2  C   UNL A   1      32.814  35.475  32.263  1.00  0.00     0.188 C 
BRANCH   2   3
ATOM      3  C   UNL A   1      32.691  35.972  30.820  1.00  0.00     0.188 C 
BRANCH   3   4
ATOM      4  O   UNL A   1      32.670  34.988  29.789  1.00  0.00    -0.376 OA
BRANCH   4   5
ATOM      5  C   UNL A   1      33.923  34.605  29.224  1.00  0.00     0.202 C 
BRANCH   5   6
ATOM      6  C   UNL A   1      33.813  33.922  27.892  1.00  0.00     0.261 C 
BRANCH   6   7
ATOM      7  O   UNL A   1      33.421  32.585  28.175  1.00  0.00    -0.460 OA
BRANCH   7   8
ATOM      8  C   UNL A   1      34.360  31.680  27.906  1.00  0.00     0.338 C 
ATOM      9  O   UNL A   1      35.473  31.580  28.375  1.00  0.00    -0.246 OA
BRANCH   8  10
ATOM     10  C   UNL A   1      33.696  30.601  27.153  1.00  0.00     0.063 A 
ATOM     11  C   UNL A   1      31.456  31.793  26.595  1.00  0.00     0.045 C 
ATOM     12  C   UNL A   1      32.432  30.656  26.535  1.00  0.00    -0.035 A 
ATOM     13  C   UNL A   1      32.116  29.632  25.647  1.00  0.00     0.030 A 
ATOM     14  C   UNL A   1      33.062  28.659  25.349  1.00  0.00     0.041 A 
ATOM     15  C   UNL A   1      34.485  29.444  27.073  1.00  0.00     0.018 A 
ATOM     16  C   UNL A   1      34.156  28.446  26.177  1.00  0.00     0.027 A 
BRANCH  14  17
ATOM     17  N   UNL A   1      33.088  28.040  24.104  1.00  0.00    -0.322 N 
ATOM     18  C   UNL A   1      33.241  26.702  23.797  1.00  0.00     0.257 C 
ATOM     19  H   UNL A   1      32.982  28.641  23.332  1.00  0.00     0.170 HD
ATOM     20  O   UNL A   1      33.345  26.409  22.601  1.00  0.00    -0.269 OA
BRANCH  18  21
ATOM     21  C   UNL A   1      33.270  25.582  24.799  1.00  0.00     0.063 A 
ATOM     22  C   UNL A   1      34.557  25.036  24.989  1.00  0.00     0.017 A 
ATOM     23  C   UNL A   1      32.172  24.991  25.474  1.00  0.00     0.045 A 
ATOM     24  C   UNL A   1      34.766  23.923  25.804  1.00  0.00     0.016 A 
ATOM     25  C   UNL A   1      32.411  23.876  26.306  1.00  0.00     0.042 A 
ATOM     26  C   UNL A   1      33.689  23.347  26.461  1.00  0.00     0.020 A 
ATOM     27  Br  UNL A   1      33.952  21.801  27.518  1.00  0.00    -0.051 Br
BRANCH  23  28
ATOM     28  N   UNL A   1      30.830  25.304  25.249  1.00  0.00    -0.398 N 
ATOM     29  H   UNL A   1      30.241  24.652  24.805  1.00  0.00     0.156 HD
ATOM     30  H   UNL A   1      30.473  26.175  25.534  1.00  0.00     0.156 HD
ENDBRANCH  23  28
ENDBRANCH  18  21
ENDBRANCH  14  17
ENDBRANCH   8  10
ENDBRANCH   7   8
ENDBRANCH   6   7
ENDBRANCH   5   6
ENDBRANCH   4   5
ENDBRANCH   3   4
ENDBRANCH   2   3
ENDBRANCH   1   2
BRANCH   1  31
ATOM     31  C   UNL A   1      34.185  33.869  33.417  1.00  0.00     0.188 C 
BRANCH  31  32
ATOM     32  C   UNL A   1      35.034  35.104  33.761  1.00  0.00     0.188 C 
BRANCH  32  33
ATOM     33  O   UNL A   1      36.296  34.860  34.331  1.00  0.00    -0.376 OA
BRANCH  33  34
ATOM     34  C   UNL A   1      36.558  33.484  34.520  1.00  0.00     0.202 C 
BRANCH  34  35
ATOM     35  C   UNL A   1      37.827  32.767  33.935  1.00  0.00     0.261 C 
BRANCH  35  36
ATOM     36  O   UNL A   1      38.846  33.305  32.951  1.00  0.00    -0.460 OA
BRANCH  36  37
ATOM     37  C   UNL A   1      39.392  33.996  31.913  1.00  0.00     0.338 C 
ATOM     38  O   UNL A   1      38.627  34.767  31.319  1.00  0.00    -0.246 OA
BRANCH  37  39
ATOM     39  C   UNL A   1      40.791  33.920  31.350  1.00  0.00     0.060 A 
ATOM     40  C   UNL A   1      41.056  34.278  30.029  1.00  0.00     0.016 A 
ATOM     41  C   UNL A   1      41.921  33.604  32.076  1.00  0.00     0.016 A 
ATOM     42  C   UNL A   1      42.188  33.770  29.356  1.00  0.00     0.010 A 
ATOM     43  C   UNL A   1      42.986  32.980  31.423  1.00  0.00     0.010 A 
ATOM     44  C   UNL A   1      43.024  32.904  30.028  1.00  0.00    -0.014 A 
BRANCH  44  45
ATOM     45  C   UNL A   1      43.784  31.794  29.404  1.00  0.00     0.031 A 
ATOM     46  C   UNL A   1      43.253  30.373  29.525  1.00  0.00     0.074 A 
ATOM     47  C   UNL A   1      44.643  32.109  28.383  1.00  0.00     0.049 A 
ATOM     48  N   UNL A   1      43.657  29.349  28.845  1.00  0.00    -0.248 NA
ATOM     49  C   UNL A   1      42.144  30.007  30.406  1.00  0.00     0.031 C 
ATOM     50  C   UNL A   1      44.928  31.209  27.279  1.00  0.00     0.029 A 
ATOM     51  N   UNL A   1      45.392  33.247  28.014  1.00  0.00    -0.354 N 
ATOM     52  C   UNL A   1      42.716  28.337  28.928  1.00  0.00     0.074 A 
ATOM     53  C   UNL A   1      41.831  28.775  29.978  1.00  0.00     0.031 C 
ATOM     54  C   UNL A   1      45.703  31.775  26.356  1.00  0.00     0.029 A 
ATOM     55  C   UNL A   1      46.331  32.878  27.023  1.00  0.00     0.049 A 
ATOM     56  H   UNL A   1      45.279  34.152  28.385  1.00  0.00     0.167 HD
ATOM     57  C   UNL A   1      42.740  27.304  28.026  1.00  0.00     0.034 A 
ATOM     58  C   UNL A   1      47.700  32.866  27.112  1.00  0.00     0.034 A 
ATOM     59  C   UNL A   1      43.976  27.318  27.190  1.00  0.00     0.049 A 
ATOM     60  C   UNL A   1      48.273  31.435  27.142  1.00  0.00     0.074 A 
ATOM     61  C   UNL A   1      44.241  27.248  25.829  1.00  0.00     0.029 A 
ATOM     62  N   UNL A   1      45.220  27.553  27.789  1.00  0.00    -0.354 N 
ATOM     63  N   UNL A   1      47.509  30.378  27.303  1.00  0.00    -0.248 NA
ATOM     64  C   UNL A   1      49.659  31.027  26.920  1.00  0.00     0.031 C 
ATOM     65  C   UNL A   1      45.593  27.659  25.617  1.00  0.00     0.029 A 
ATOM     66  C   UNL A   1      46.200  27.843  26.852  1.00  0.00     0.049 A 
ATOM     67  H   UNL A   1      45.380  27.518  28.760  1.00  0.00     0.167 HD
ATOM     68  C   UNL A   1      48.199  29.220  27.163  1.00  0.00     0.074 A 
ATOM     69  C   UNL A   1      49.566  29.678  26.966  1.00  0.00     0.031 C 
ATOM     70  C   UNL A   1      47.604  27.987  27.245  1.00  0.00     0.034 A 
BRANCH  57  71
ATOM     71  C   UNL A   1      41.594  26.295  27.759  1.00  0.00     0.023 A 
ATOM     72  C   UNL A   1      40.269  26.797  27.806  1.00  0.00     0.012 A 
ATOM     73  C   UNL A   1      41.695  24.891  27.546  1.00  0.00     0.148 A 
ATOM     74  C   UNL A   1      39.130  25.986  27.677  1.00  0.00     0.002 A 
ATOM     75  C   UNL A   1      40.553  24.088  27.339  1.00  0.00     0.091 A 
ATOM     76  F   UNL A   1      42.888  24.293  27.607  1.00  0.00    -0.205 F 
ATOM     77  C   UNL A   1      39.270  24.633  27.427  1.00  0.00     0.022 A 
BRANCH  75  78
ATOM     78  S   UNL A   1      40.622  22.330  26.916  1.00  0.00     0.127 S 
ATOM     79  O   UNL A   1      41.631  22.300  25.858  1.00  0.00    -0.237 OA
ATOM     80  O   UNL A   1      41.053  21.722  28.176  1.00  0.00    -0.237 OA
ATOM     81  O   UNL A   1      39.277  21.959  26.496  1.00  0.00    -0.744 OA
ENDBRANCH  75  78
ENDBRANCH  57  71
BRANCH  58  82
ATOM     82  C   UNL A   1      48.297  34.173  27.487  1.00  0.00     0.023 A 
ATOM     83  C   UNL A   1      49.002  34.178  28.723  1.00  0.00     0.012 A 
ATOM     84  C   UNL A   1      48.747  34.986  26.448  1.00  0.00     0.148 A 
ATOM     85  C   UNL A   1      50.256  34.781  28.834  1.00  0.00     0.002 A 
ATOM     86  C   UNL A   1      50.046  35.473  26.523  1.00  0.00     0.091 A 
ATOM     87  F   UNL A   1      48.019  35.051  25.326  1.00  0.00    -0.205 F 
ATOM     88  C   UNL A   1      50.804  35.376  27.710  1.00  0.00     0.022 A 
BRANCH  86  89
ATOM     89  S   UNL A   1      51.041  35.484  25.030  1.00  0.00     0.127 S 
ATOM     90  O   UNL A   1      50.818  34.164  24.455  1.00  0.00    -0.237 OA
ATOM     91  O   UNL A   1      50.359  36.582  24.354  1.00  0.00    -0.237 OA
ATOM     92  O   UNL A   1      52.401  35.775  25.453  1.00  0.00    -0.744 OA
ENDBRANCH  86  89
ENDBRANCH  58  82
BRANCH  70  93
ATOM     93  C   UNL A   1      48.318  26.756  27.756  1.00  0.00     0.023 A 
ATOM     94  C   UNL A   1      49.107  25.978  26.889  1.00  0.00     0.012 A 
ATOM     95  C   UNL A   1      48.450  26.508  29.149  1.00  0.00     0.148 A 
ATOM     96  C   UNL A   1      49.961  24.984  27.369  1.00  0.00     0.002 A 
ATOM     97  C   UNL A   1      49.386  25.599  29.625  1.00  0.00     0.091 A 
ATOM     98  F   UNL A   1      47.670  27.154  30.027  1.00  0.00    -0.205 F 
ATOM     99  C   UNL A   1      50.122  24.814  28.737  1.00  0.00     0.022 A 
BRANCH  97 100
ATOM    100  S   UNL A   1      49.817  25.529  31.371  1.00  0.00     0.127 S 
ATOM    101  O   UNL A   1      48.502  25.457  32.001  1.00  0.00    -0.237 OA
ATOM    102  O   UNL A   1      50.600  24.294  31.447  1.00  0.00    -0.237 OA
ATOM    103  O   UNL A   1      50.587  26.739  31.631  1.00  0.00    -0.744 OA
ENDBRANCH  97 100
ENDBRANCH  70  93
ENDBRANCH  44  45
ENDBRANCH  37  39
ENDBRANCH  36  37
ENDBRANCH  35  36
ENDBRANCH  34  35
ENDBRANCH  33  34
ENDBRANCH  32  33
ENDBRANCH  31  32
ENDBRANCH   1  31
TORSDOF 26
ENDMDL
MODEL 2
REMARK VINA RESULT:      -9.9      4.936      9.864
REMARK SMILES Cc1cc(NC(=O)c2ccc(Br)cc2N)ccc1C(=O)OCCOCCOCCOCCOC(=O)c1ccc(-c2c3nc(c(-c4cccc(S(=O)(=O)[O-])c4F)c4ccc([nH]4)c(-c4cccc(S(=O)(=O)[O-])c4F)c4nc(c(-c5cccc(S(=O)(=O)[O-])c5F)c5ccc2[nH]5)C=C4)C=C3)cc1
REMARK SMILES IDX 27 1 26 2 25 3 24 4 23 5 22 6 21 7 19 8 20 9 18 10 1 11 2 12
REMARK SMILES IDX 3 13 4 14 17 15 16 16 5 17 6 18 7 20 8 21 9 22 14 23 10 24
REMARK SMILES IDX 13 25 11 26 12 27 15 28 28 31 29 32 30 33 31 34 32 35 33 36
REMARK SMILES IDX 34 37 35 38 36 39 37 40 98 41 38 42 97 43 39 44 40 45 41 46
REMARK SMILES IDX 91 47 42 48 96 49 90 50 92 51 43 52 95 53 89 54 88 55 44 57
REMARK SMILES IDX 76 58 56 59 75 60 57 61 60 62 74 63 93 64 58 65 59 66 73 68
REMARK SMILES IDX 94 69 61 70 45 71 46 72 54 73 47 74 49 75 55 76 48 77 50 78
REMARK SMILES IDX 51 79 52 80 53 81 77 82 78 83 86 84 79 85 81 86 87 87 80 88
REMARK SMILES IDX 82 89 83 90 84 91 85 92 62 93 63 94 71 95 64 96 66 97 72 98
REMARK SMILES IDX 65 99 67 100 68 101 69 102 70 103
REMARK H PARENT 5 19 15 29 15 30 92 56 60 67
REMARK Flexibility Score: inf
ROOT
ATOM      1  O   UNL A   1      34.034  22.605  25.769  1.00  0.00    -0.377 OA
ENDROOT
BRANCH   1   2
ATOM      2  C   UNL A   1      32.931  21.732  25.676  1.00  0.00     0.188 C 
BRANCH   2   3
ATOM      3  C   UNL A   1      31.621  22.341  25.169  1.00  0.00     0.188 C 
BRANCH   3   4
ATOM      4  O   UNL A   1      30.471  22.207  26.000  1.00  0.00    -0.376 OA
BRANCH   4   5
ATOM      5  C   UNL A   1      30.219  23.250  26.941  1.00  0.00     0.202 C 
BRANCH   5   6
ATOM      6  C   UNL A   1      29.859  24.567  26.317  1.00  0.00     0.261 C 
BRANCH   6   7
ATOM      7  O   UNL A   1      30.902  25.462  26.675  1.00  0.00    -0.460 OA
BRANCH   7   8
ATOM      8  C   UNL A   1      31.185  26.364  25.736  1.00  0.00     0.338 C 
ATOM      9  O   UNL A   1      30.574  26.619  24.722  1.00  0.00    -0.246 OA
BRANCH   8  10
ATOM     10  C   UNL A   1      32.223  27.243  26.303  1.00  0.00     0.063 A 
ATOM     11  C   UNL A   1      34.315  26.233  25.138  1.00  0.00     0.045 C 
ATOM     12  C   UNL A   1      33.600  27.221  26.013  1.00  0.00    -0.035 A 
ATOM     13  C   UNL A   1      34.357  28.309  26.441  1.00  0.00     0.030 A 
ATOM     14  C   UNL A   1      33.731  29.387  27.054  1.00  0.00     0.041 A 
ATOM     15  C   UNL A   1      31.693  28.187  27.196  1.00  0.00     0.018 A 
ATOM     16  C   UNL A   1      32.459  29.262  27.598  1.00  0.00     0.027 A 
BRANCH  14  17
ATOM     17  N   UNL A   1      34.235  30.677  26.929  1.00  0.00    -0.322 N 
ATOM     18  C   UNL A   1      35.085  31.367  27.770  1.00  0.00     0.257 C 
ATOM     19  H   UNL A   1      33.946  31.167  26.125  1.00  0.00     0.170 HD
ATOM     20  O   UNL A   1      35.303  32.553  27.499  1.00  0.00    -0.269 OA
BRANCH  18  21
ATOM     21  C   UNL A   1      35.775  30.784  28.972  1.00  0.00     0.063 A 
ATOM     22  C   UNL A   1      35.407  31.406  30.183  1.00  0.00     0.017 A 
ATOM     23  C   UNL A   1      36.776  29.779  28.997  1.00  0.00     0.045 A 
ATOM     24  C   UNL A   1      36.017  31.070  31.393  1.00  0.00     0.016 A 
ATOM     25  C   UNL A   1      37.366  29.445  30.235  1.00  0.00     0.042 A 
ATOM     26  C   UNL A   1      36.996  30.088  31.413  1.00  0.00     0.020 A 
ATOM     27  Br  UNL A   1      37.873  29.669  33.035  1.00  0.00    -0.051 Br
BRANCH  23  28
ATOM     28  N   UNL A   1      37.365  29.208  27.868  1.00  0.00    -0.398 N 
ATOM     29  H   UNL A   1      38.211  28.712  27.953  1.00  0.00     0.156 HD
ATOM     30  H   UNL A   1      36.935  29.299  26.988  1.00  0.00     0.156 HD
ENDBRANCH  23  28
ENDBRANCH  18  21
ENDBRANCH  14  17
ENDBRANCH   8  10
ENDBRANCH   7   8
ENDBRANCH   6   7
ENDBRANCH   5   6
ENDBRANCH   4   5
ENDBRANCH   3   4
ENDBRANCH   2   3
ENDBRANCH   1   2
BRANCH   1  31
ATOM     31  C   UNL A   1      35.202  22.240  25.063  1.00  0.00     0.188 C 
BRANCH  31  32
ATOM     32  C   UNL A   1      35.402  20.718  24.985  1.00  0.00     0.188 C 
BRANCH  32  33
ATOM     33  O   UNL A   1      36.730  20.258  24.980  1.00  0.00    -0.376 OA
BRANCH  33  34
ATOM     34  C   UNL A   1      37.673  21.297  25.150  1.00  0.00     0.202 C 
BRANCH  34  35
ATOM     35  C   UNL A   1      38.994  21.126  25.983  1.00  0.00     0.261 C 
BRANCH  35  36
ATOM     36  O   UNL A   1      40.261  21.956  25.927  1.00  0.00    -0.460 OA
BRANCH  36  37
ATOM     37  C   UNL A   1      41.549  22.351  26.119  1.00  0.00     0.338 C 
ATOM     38  O   UNL A   1      42.388  21.833  25.371  1.00  0.00    -0.246 OA
BRANCH  37  39
ATOM     39  C   UNL A   1      42.108  23.299  27.153  1.00  0.00     0.060 A 
ATOM     40  C   UNL A   1      42.415  24.619  26.828  1.00  0.00     0.016 A 
ATOM     41  C   UNL A   1      42.270  23.005  28.491  1.00  0.00     0.016 A 
ATOM     42  C   UNL A   1      43.356  25.349  27.585  1.00  0.00     0.010 A 
ATOM     43  C   UNL A   1      43.293  23.640  29.200  1.00  0.00     0.010 A 
ATOM     44  C   UNL A   1      43.975  24.728  28.649  1.00  0.00    -0.014 A 
BRANCH  44  45
ATOM     45  C   UNL A   1      45.361  24.995  29.105  1.00  0.00     0.031 A 
ATOM     46  C   UNL A   1      46.512  24.796  28.130  1.00  0.00     0.074 A 
ATOM     47  C   UNL A   1      45.524  25.824  30.184  1.00  0.00     0.049 A 
ATOM     48  N   UNL A   1      47.727  25.211  28.293  1.00  0.00    -0.248 NA
ATOM     49  C   UNL A   1      46.352  24.151  26.826  1.00  0.00     0.031 C 
ATOM     50  C   UNL A   1      46.678  26.692  30.350  1.00  0.00     0.029 A 
ATOM     51  N   UNL A   1      44.752  26.171  31.313  1.00  0.00    -0.354 N 
ATOM     52  C   UNL A   1      48.386  25.202  27.076  1.00  0.00     0.074 A 
ATOM     53  C   UNL A   1      47.505  24.459  26.211  1.00  0.00     0.031 C 
ATOM     54  C   UNL A   1      46.563  27.483  31.415  1.00  0.00     0.029 A 
ATOM     55  C   UNL A   1      45.573  26.855  32.240  1.00  0.00     0.049 A 
ATOM     56  H   UNL A   1      43.797  25.969  31.437  1.00  0.00     0.167 HD
ATOM     57  C   UNL A   1      49.546  25.916  26.920  1.00  0.00     0.034 A 
ATOM     58  C   UNL A   1      45.958  26.451  33.494  1.00  0.00     0.034 A 
ATOM     59  C   UNL A   1      50.062  26.438  28.219  1.00  0.00     0.049 A 
ATOM     60  C   UNL A   1      47.455  26.085  33.558  1.00  0.00     0.074 A 
ATOM     61  C   UNL A   1      50.487  27.677  28.681  1.00  0.00     0.029 A 
ATOM     62  N   UNL A   1      50.074  25.609  29.348  1.00  0.00    -0.354 N 
ATOM     63  N   UNL A   1      48.190  25.955  32.477  1.00  0.00    -0.248 NA
ATOM     64  C   UNL A   1      48.280  25.921  34.753  1.00  0.00     0.031 C 
ATOM     65  C   UNL A   1      50.534  27.629  30.108  1.00  0.00     0.029 A 
ATOM     66  C   UNL A   1      50.279  26.326  30.517  1.00  0.00     0.049 A 
ATOM     67  H   UNL A   1      49.951  24.633  29.316  1.00  0.00     0.167 HD
ATOM     68  C   UNL A   1      49.500  25.764  32.767  1.00  0.00     0.074 A 
ATOM     69  C   UNL A   1      49.505  25.704  34.221  1.00  0.00     0.031 C 
ATOM     70  C   UNL A   1      50.465  25.645  31.801  1.00  0.00     0.034 A 
BRANCH  57  71
ATOM     71  C   UNL A   1      50.217  26.293  25.574  1.00  0.00     0.023 A 
ATOM     72  C   UNL A   1      51.633  26.352  25.555  1.00  0.00     0.012 A 
ATOM     73  C   UNL A   1      49.586  26.671  24.355  1.00  0.00     0.148 A 
ATOM     74  C   UNL A   1      52.375  26.769  24.437  1.00  0.00     0.002 A 
ATOM     75  C   UNL A   1      50.332  27.015  23.209  1.00  0.00     0.091 A 
ATOM     76  F   UNL A   1      48.254  26.771  24.299  1.00  0.00    -0.205 F 
ATOM     77  C   UNL A   1      51.726  27.086  23.257  1.00  0.00     0.022 A 
BRANCH  75  78
ATOM     78  S   UNL A   1      49.594  27.358  21.592  1.00  0.00     0.127 S 
ATOM     79  O   UNL A   1      49.104  28.727  21.755  1.00  0.00    -0.237 OA
ATOM     80  O   UNL A   1      50.742  27.232  20.693  1.00  0.00    -0.237 OA
ATOM     81  O   UNL A   1      48.559  26.352  21.396  1.00  0.00    -0.744 OA
ENDBRANCH  75  78
ENDBRANCH  57  71
BRANCH  58  82
ATOM     82  C   UNL A   1      44.829  26.141  34.407  1.00  0.00     0.023 A 
ATOM     83  C   UNL A   1      45.089  25.109  35.351  1.00  0.00     0.012 A 
ATOM     84  C   UNL A   1      43.999  27.200  34.772  1.00  0.00     0.148 A 
ATOM     85  C   UNL A   1      44.735  25.258  36.694  1.00  0.00     0.002 A 
ATOM     86  C   UNL A   1      43.764  27.401  36.126  1.00  0.00     0.091 A 
ATOM     87  F   UNL A   1      43.680  28.110  33.843  1.00  0.00    -0.205 F 
ATOM     88  C   UNL A   1      44.127  26.437  37.091  1.00  0.00     0.022 A 
BRANCH  86  89
ATOM     89  S   UNL A   1      43.764  29.083  36.751  1.00  0.00     0.127 S 
ATOM     90  O   UNL A   1      44.430  29.842  35.702  1.00  0.00    -0.237 OA
ATOM     91  O   UNL A   1      42.318  29.259  36.827  1.00  0.00    -0.237 OA
ATOM     92  O   UNL A   1      44.444  29.036  38.035  1.00  0.00    -0.744 OA
ENDBRANCH  86  89
ENDBRANCH  58  82
BRANCH  70  93
ATOM     93  C   UNL A   1      51.715  24.812  31.976  1.00  0.00     0.023 A 
ATOM     94  C   UNL A   1      52.986  25.386  31.790  1.00  0.00     0.012 A 
ATOM     95  C   UNL A   1      51.666  23.536  32.599  1.00  0.00     0.148 A 
ATOM     96  C   UNL A   1      54.153  24.720  32.170  1.00  0.00     0.002 A 
ATOM     97  C   UNL A   1      52.821  22.933  33.079  1.00  0.00     0.091 A 
ATOM     98  F   UNL A   1      50.497  22.894  32.734  1.00  0.00    -0.205 F 
ATOM     99  C   UNL A   1      54.069  23.509  32.840  1.00  0.00     0.022 A 
BRANCH  97 100
ATOM    100  S   UNL A   1      52.745  21.506  34.173  1.00  0.00     0.127 S 
ATOM    101  O   UNL A   1      52.236  20.470  33.278  1.00  0.00    -0.237 OA
ATOM    102  O   UNL A   1      54.147  21.340  34.564  1.00  0.00    -0.237 OA
ATOM    103  O   UNL A   1      51.866  21.899  35.266  1.00  0.00    -0.744 OA
ENDBRANCH  97 100
ENDBRANCH  70  93
ENDBRANCH  44  45
ENDBRANCH  37  39
ENDBRANCH  36  37
ENDBRANCH  35  36
ENDBRANCH  34  35
ENDBRANCH  33  34
ENDBRANCH  32  33
ENDBRANCH  31  32
ENDBRANCH   1  31
TORSDOF 26
ENDMDL
MODEL 3
REMARK VINA RESULT:      -9.7      2.108      2.565
REMARK SMILES Cc1cc(NC(=O)c2ccc(Br)cc2N)ccc1C(=O)OCCOCCOCCOCCOC(=O)c1ccc(-c2c3nc(c(-c4cccc(S(=O)(=O)[O-])c4F)c4ccc([nH]4)c(-c4cccc(S(=O)(=O)[O-])c4F)c4nc(c(-c5cccc(S(=O)(=O)[O-])c5F)c5ccc2[nH]5)C=C4)C=C3)cc1
REMARK SMILES IDX 27 1 26 2 25 3 24 4 23 5 22 6 21 7 19 8 20 9 18 10 1 11 2 12
REMARK SMILES IDX 3 13 4 14 17 15 16 16 5 17 6 18 7 20 8 21 9 22 14 23 10 24
REMARK SMILES IDX 13 25 11 26 12 27 15 28 28 31 29 32 30 33 31 34 32 35 33 36
REMARK SMILES IDX 34 37 35 38 36 39 37 40 98 41 38 42 97 43 39 44 40 45 41 46
REMARK SMILES IDX 91 47 42 48 96 49 90 50 92 51 43 52 95 53 89 54 88 55 44 57
REMARK SMILES IDX 76 58 56 59 75 60 57 61 60 62 74 63 93 64 58 65 59 66 73 68
REMARK SMILES IDX 94 69 61 70 45 71 46 72 54 73 47 74 49 75 55 76 48 77 50 78
REMARK SMILES IDX 51 79 52 80 53 81 77 82 78 83 86 84 79 85 81 86 87 87 80 88
REMARK SMILES IDX 82 89 83 90 84 91 85 92 62 93 63 94 71 95 64 96 66 97 72 98
REMARK SMILES IDX 65 99 67 100 68 101 69 102 70 103
REMARK H PARENT 5 19 15 29 15 30 92 56 60 67
REMARK Flexibility Score: inf
ROOT
ATOM      1  O   UNL A   1      33.151  34.223  32.396  1.00  0.00    -0.377 OA
ENDROOT
BRANCH   1   2
ATOM      2  C   UNL A   1      32.679  35.546  32.275  1.00  0.00     0.188 C 
BRANCH   2   3
ATOM      3  C   UNL A   1      32.552  36.096  30.852  1.00  0.00     0.188 C 
BRANCH   3   4
ATOM      4  O   UNL A   1      32.678  35.168  29.777  1.00  0.00    -0.376 OA
BRANCH   4   5
ATOM      5  C   UNL A   1      33.983  34.970  29.233  1.00  0.00     0.202 C 
BRANCH   5   6
ATOM      6  C   UNL A   1      33.998  34.215  27.936  1.00  0.00     0.261 C 
BRANCH   6   7
ATOM      7  O   UNL A   1      33.683  32.870  28.269  1.00  0.00    -0.460 OA
BRANCH   7   8
ATOM      8  C   UNL A   1      34.686  32.016  28.073  1.00  0.00     0.338 C 
ATOM      9  O   UNL A   1      35.813  32.056  28.518  1.00  0.00    -0.246 OA
BRANCH   8  10
ATOM     10  C   UNL A   1      34.097  30.813  27.460  1.00  0.00     0.063 A 
ATOM     11  C   UNL A   1      36.121  29.197  27.669  1.00  0.00     0.045 C 
ATOM     12  C   UNL A   1      34.707  29.552  27.316  1.00  0.00    -0.035 A 
ATOM     13  C   UNL A   1      33.885  28.486  26.965  1.00  0.00     0.030 A 
ATOM     14  C   UNL A   1      32.514  28.680  26.849  1.00  0.00     0.041 A 
ATOM     15  C   UNL A   1      32.781  31.027  27.024  1.00  0.00     0.018 A 
ATOM     16  C   UNL A   1      31.981  29.952  26.692  1.00  0.00     0.027 A 
BRANCH  14  17
ATOM     17  N   UNL A   1      31.617  27.656  27.133  1.00  0.00    -0.322 N 
ATOM     18  C   UNL A   1      31.165  26.638  26.315  1.00  0.00     0.257 C 
ATOM     19  H   UNL A   1      31.252  27.656  28.047  1.00  0.00     0.170 HD
ATOM     20  O   UNL A   1      30.275  25.909  26.765  1.00  0.00    -0.269 OA
BRANCH  18  21
ATOM     21  C   UNL A   1      31.685  26.342  24.935  1.00  0.00     0.063 A 
ATOM     22  C   UNL A   1      30.884  26.884  23.909  1.00  0.00     0.017 A 
ATOM     23  C   UNL A   1      32.797  25.537  24.581  1.00  0.00     0.045 A 
ATOM     24  C   UNL A   1      31.150  26.630  22.562  1.00  0.00     0.016 A 
ATOM     25  C   UNL A   1      33.055  25.307  23.212  1.00  0.00     0.042 A 
ATOM     26  C   UNL A   1      32.237  25.841  22.220  1.00  0.00     0.020 A 
ATOM     27  Br  UNL A   1      32.569  25.438  20.402  1.00  0.00    -0.051 Br
BRANCH  23  28
ATOM     28  N   UNL A   1      33.566  24.793  25.477  1.00  0.00    -0.398 N 
ATOM     29  H   UNL A   1      33.151  24.413  26.284  1.00  0.00     0.156 HD
ATOM     30  H   UNL A   1      34.524  24.648  25.302  1.00  0.00     0.156 HD
ENDBRANCH  23  28
ENDBRANCH  18  21
ENDBRANCH  14  17
ENDBRANCH   8  10
ENDBRANCH   7   8
ENDBRANCH   6   7
ENDBRANCH   5   6
ENDBRANCH   4   5
ENDBRANCH   3   4
ENDBRANCH   2   3
ENDBRANCH   1   2
BRANCH   1  31
ATOM     31  C   UNL A   1      34.134  33.981  33.381  1.00  0.00     0.188 C 
BRANCH  31  32
ATOM     32  C   UNL A   1      34.974  35.228  33.707  1.00  0.00     0.188 C 
BRANCH  32  33
ATOM     33  O   UNL A   1      36.235  35.002  34.285  1.00  0.00    -0.376 OA
BRANCH  33  34
ATOM     34  C   UNL A   1      36.501  33.632  34.506  1.00  0.00     0.202 C 
BRANCH  34  35
ATOM     35  C   UNL A   1      37.788  32.913  33.963  1.00  0.00     0.261 C 
BRANCH  35  36
ATOM     36  O   UNL A   1      38.809  33.428  32.968  1.00  0.00    -0.460 OA
BRANCH  36  37
ATOM     37  C   UNL A   1      39.352  34.076  31.902  1.00  0.00     0.338 C 
ATOM     38  O   UNL A   1      38.575  34.788  31.252  1.00  0.00    -0.246 OA
BRANCH  37  39
ATOM     39  C   UNL A   1      40.763  34.012  31.368  1.00  0.00     0.060 A 
ATOM     40  C   UNL A   1      41.056  34.396  30.060  1.00  0.00     0.016 A 
ATOM     41  C   UNL A   1      41.878  33.682  32.111  1.00  0.00     0.016 A 
ATOM     42  C   UNL A   1      42.203  33.902  29.401  1.00  0.00     0.010 A 
ATOM     43  C   UNL A   1      42.958  33.072  31.468  1.00  0.00     0.010 A 
ATOM     44  C   UNL A   1      43.025  33.024  30.074  1.00  0.00    -0.014 A 
BRANCH  44  45
ATOM     45  C   UNL A   1      43.800  31.927  29.443  1.00  0.00     0.031 A 
ATOM     46  C   UNL A   1      43.276  30.502  29.538  1.00  0.00     0.074 A 
ATOM     47  C   UNL A   1      44.669  32.261  28.438  1.00  0.00     0.049 A 
ATOM     48  N   UNL A   1      43.694  29.489  28.849  1.00  0.00    -0.248 NA
ATOM     49  C   UNL A   1      42.157  30.117  30.400  1.00  0.00     0.031 C 
ATOM     50  C   UNL A   1      44.973  31.378  27.325  1.00  0.00     0.029 A 
ATOM     51  N   UNL A   1      45.416  33.408  28.094  1.00  0.00    -0.354 N 
ATOM     52  C   UNL A   1      42.759  28.471  28.907  1.00  0.00     0.074 A 
ATOM     53  C   UNL A   1      41.858  28.889  29.951  1.00  0.00     0.031 C 
ATOM     54  C   UNL A   1      45.757  31.961  26.420  1.00  0.00     0.029 A 
ATOM     55  C   UNL A   1      46.369  33.059  27.110  1.00  0.00     0.049 A 
ATOM     56  H   UNL A   1      45.292  34.307  28.476  1.00  0.00     0.167 HD
ATOM     57  C   UNL A   1      42.799  27.451  27.992  1.00  0.00     0.034 A 
ATOM     58  C   UNL A   1      47.737  33.053  27.216  1.00  0.00     0.034 A 
ATOM     59  C   UNL A   1      44.046  27.483  27.172  1.00  0.00     0.049 A 
ATOM     60  C   UNL A   1      48.319  31.625  27.234  1.00  0.00     0.074 A 
ATOM     61  C   UNL A   1      44.329  27.433  25.813  1.00  0.00     0.029 A 
ATOM     62  N   UNL A   1      45.280  27.717  27.789  1.00  0.00    -0.354 N 
ATOM     63  N   UNL A   1      47.559  30.562  27.370  1.00  0.00    -0.248 NA
ATOM     64  C   UNL A   1      49.710  31.229  27.023  1.00  0.00     0.031 C 
ATOM     65  C   UNL A   1      45.680  27.855  25.623  1.00  0.00     0.029 A 
ATOM     66  C   UNL A   1      46.271  28.026  26.868  1.00  0.00     0.049 A 
ATOM     67  H   UNL A   1      45.429  27.669  28.761  1.00  0.00     0.167 HD
ATOM     68  C   UNL A   1      48.257  29.410  27.224  1.00  0.00     0.074 A 
ATOM     69  C   UNL A   1      49.624  29.879  27.050  1.00  0.00     0.031 C 
ATOM     70  C   UNL A   1      47.669  28.173  27.281  1.00  0.00     0.034 A 
BRANCH  57  71
ATOM     71  C   UNL A   1      41.663  26.439  27.696  1.00  0.00     0.023 A 
ATOM     72  C   UNL A   1      40.343  26.951  27.641  1.00  0.00     0.012 A 
ATOM     73  C   UNL A   1      41.764  25.026  27.547  1.00  0.00     0.148 A 
ATOM     74  C   UNL A   1      39.206  26.142  27.476  1.00  0.00     0.002 A 
ATOM     75  C   UNL A   1      40.630  24.223  27.304  1.00  0.00     0.091 A 
ATOM     76  F   UNL A   1      42.947  24.424  27.706  1.00  0.00    -0.205 F 
ATOM     77  C   UNL A   1      39.349  24.779  27.291  1.00  0.00     0.022 A 
BRANCH  75  78
ATOM     78  S   UNL A   1      40.709  22.448  26.959  1.00  0.00     0.127 S 
ATOM     79  O   UNL A   1      39.359  22.162  26.475  1.00  0.00    -0.237 OA
ATOM     80  O   UNL A   1      41.745  22.377  25.928  1.00  0.00    -0.237 OA
ATOM     81  O   UNL A   1      41.063  21.803  28.217  1.00  0.00    -0.744 OA
ENDBRANCH  75  78
ENDBRANCH  57  71
BRANCH  58  82
ATOM     82  C   UNL A   1      48.321  34.359  27.616  1.00  0.00     0.023 A 
ATOM     83  C   UNL A   1      48.006  35.445  26.754  1.00  0.00     0.012 A 
ATOM     84  C   UNL A   1      48.464  34.598  28.982  1.00  0.00     0.148 A 
ATOM     85  C   UNL A   1      47.601  36.679  27.269  1.00  0.00     0.002 A 
ATOM     86  C   UNL A   1      47.939  35.780  29.491  1.00  0.00     0.091 A 
ATOM     87  F   UNL A   1      48.859  33.589  29.769  1.00  0.00    -0.205 F 
ATOM     88  C   UNL A   1      47.508  36.822  28.642  1.00  0.00     0.022 A 
BRANCH  86  89
ATOM     89  S   UNL A   1      47.074  35.723  31.062  1.00  0.00     0.127 S 
ATOM     90  O   UNL A   1      46.723  37.114  31.315  1.00  0.00    -0.237 OA
ATOM     91  O   UNL A   1      45.970  34.867  30.641  1.00  0.00    -0.237 OA
ATOM     92  O   UNL A   1      47.995  35.114  32.007  1.00  0.00    -0.744 OA
ENDBRANCH  86  89
ENDBRANCH  58  82
BRANCH  70  93
ATOM     93  C   UNL A   1      48.384  26.938  27.784  1.00  0.00     0.023 A 
ATOM     94  C   UNL A   1      48.982  26.043  26.879  1.00  0.00     0.012 A 
ATOM     95  C   UNL A   1      48.719  26.791  29.157  1.00  0.00     0.148 A 
ATOM     96  C   UNL A   1      49.843  25.032  27.310  1.00  0.00     0.002 A 
ATOM     97  C   UNL A   1      49.665  25.860  29.563  1.00  0.00     0.091 A 
ATOM     98  F   UNL A   1      48.124  27.557  30.083  1.00  0.00    -0.205 F 
ATOM     99  C   UNL A   1      50.208  24.959  28.646  1.00  0.00     0.022 A 
BRANCH  97 100
ATOM    100  S   UNL A   1      50.361  25.897  31.223  1.00  0.00     0.127 S 
ATOM    101  O   UNL A   1      51.733  25.459  30.981  1.00  0.00    -0.237 OA
ATOM    102  O   UNL A   1      50.225  27.311  31.584  1.00  0.00    -0.237 OA
ATOM    103  O   UNL A   1      49.530  24.999  32.014  1.00  0.00    -0.744 OA
ENDBRANCH  97 100
ENDBRANCH  70  93
ENDBRANCH  44  45
ENDBRANCH  37  39
ENDBRANCH  36  37
ENDBRANCH  35  36
ENDBRANCH  34  35
ENDBRANCH  33  34
ENDBRANCH  32  33
ENDBRANCH  31  32
ENDBRANCH   1  31
TORSDOF 26
ENDMDL
