MODEL 1
REMARK VINA RESULT:      -8.3      0.000      0.000
REMARK SMILES COc1cc(Cl)ccc1S(=O)(=O)Nc1cccc(C(=O)OCCOCCOCCOCCOC(=O)c2ccc(-c3c4nc(c(-c5cccc(S(=O)(=O)[O-])c5F)c5ccc([nH]5)c(-c5cccc(S(=O)(=O)[O-])c5F)c5nc(c(-c6cccc(S(=O)(=O)[O-])c6F)c6ccc3[nH]6)C=C5)C=C4)cc2)c1
REMARK SMILES IDX 26 1 25 2 24 3 23 4 22 5 21 6 19 7 20 8 18 9 14 10 15 11
REMARK SMILES IDX 99 12 16 13 17 14 13 15 10 17 11 18 12 19 9 20 3 21 4 22
REMARK SMILES IDX 5 23 8 24 6 25 7 26 2 27 1 28 27 29 28 30 29 31 30 32 31 33
REMARK SMILES IDX 32 34 33 35 34 36 35 37 36 38 37 39 98 40 38 41 97 42 39 43
REMARK SMILES IDX 40 44 41 45 91 46 42 47 96 48 90 49 92 50 43 51 95 52 89 53
REMARK SMILES IDX 88 54 44 56 76 57 56 58 75 59 57 60 60 61 74 62 93 63 58 64
REMARK SMILES IDX 59 65 73 67 94 68 61 69 45 70 46 71 54 72 47 73 49 74 55 75
REMARK SMILES IDX 48 76 50 77 51 78 52 79 53 80 77 81 78 82 86 83 79 84 81 85
REMARK SMILES IDX 87 86 80 87 82 88 83 89 84 90 85 91 62 92 63 93 71 94 64 95
REMARK SMILES IDX 66 96 72 97 65 98 67 99 68 100 69 101 70 102
REMARK H PARENT 13 16 92 55 60 66
REMARK Flexibility Score: inf
ROOT
ATOM      1  C   UNL A   1      40.953  19.912  26.503  1.00  0.00     0.188 C 
ENDROOT
BRANCH   1   2
ATOM      2  C   UNL A   1      41.085  21.449  26.449  1.00  0.00     0.188 C 
BRANCH   2   3
ATOM      3  O   UNL A   1      41.080  22.277  27.611  1.00  0.00    -0.376 OA
BRANCH   3   4
ATOM      4  C   UNL A   1      40.344  23.493  27.673  1.00  0.00     0.202 C 
BRANCH   4   5
ATOM      5  C   UNL A   1      41.091  24.813  27.895  1.00  0.00     0.261 C 
BRANCH   5   6
ATOM      6  O   UNL A   1      40.300  25.841  28.498  1.00  0.00    -0.460 OA
BRANCH   6   7
ATOM      7  C   UNL A   1      40.707  27.101  28.247  1.00  0.00     0.338 C 
ATOM      8  O   UNL A   1      41.118  27.550  27.188  1.00  0.00    -0.246 OA
BRANCH   7   9
ATOM      9  C   UNL A   1      40.484  27.959  29.433  1.00  0.00     0.062 A 
ATOM     10  C   UNL A   1      39.016  29.326  30.736  1.00  0.00     0.050 A 
ATOM     11  C   UNL A   1      39.886  29.206  31.828  1.00  0.00     0.027 A 
ATOM     12  C   UNL A   1      39.399  28.834  29.494  1.00  0.00     0.042 A 
ATOM     13  C   UNL A   1      41.062  28.466  31.721  1.00  0.00     0.003 A 
ATOM     14  C   UNL A   1      41.326  27.785  30.539  1.00  0.00     0.016 A 
BRANCH  10  15
ATOM     15  N   UNL A   1      37.683  29.702  31.038  1.00  0.00    -0.279 N 
ATOM     16  H   UNL A   1      37.129  29.023  31.488  1.00  0.00     0.180 HD
BRANCH  15  17
ATOM     17  S   UNL A   1      36.945  31.165  30.718  1.00  0.00     0.265 S 
ATOM     18  O   UNL A   1      38.026  32.078  30.408  1.00  0.00    -0.201 OA
ATOM     19  O   UNL A   1      36.069  31.382  31.852  1.00  0.00    -0.201 OA
BRANCH  17  20
ATOM     20  C   UNL A   1      35.909  31.048  29.265  1.00  0.00     0.129 A 
ATOM     21  C   UNL A   1      34.885  31.949  28.925  1.00  0.00     0.140 A 
ATOM     22  C   UNL A   1      33.960  31.568  27.937  1.00  0.00     0.068 A 
ATOM     23  C   UNL A   1      34.088  30.347  27.266  1.00  0.00     0.044 A 
ATOM     24  C   UNL A   1      36.059  29.849  28.541  1.00  0.00     0.028 A 
ATOM     25  Cl  UNL A   1      32.899  29.890  26.109  1.00  0.00    -0.084 Cl
ATOM     26  C   UNL A   1      35.156  29.506  27.537  1.00  0.00     0.022 A 
BRANCH  21  27
ATOM     27  O   UNL A   1      34.819  33.158  29.565  1.00  0.00    -0.495 OA
ATOM     28  C   UNL A   1      34.015  34.181  28.976  1.00  0.00     0.278 C 
ENDBRANCH  21  27
ENDBRANCH  17  20
ENDBRANCH  15  17
ENDBRANCH  10  15
ENDBRANCH   7   9
ENDBRANCH   6   7
ENDBRANCH   5   6
ENDBRANCH   4   5
ENDBRANCH   3   4
ENDBRANCH   2   3
ENDBRANCH   1   2
BRANCH   1  29
ATOM     29  O   UNL A   1      41.918  19.272  27.307  1.00  0.00    -0.377 OA
BRANCH  29  30
ATOM     30  C   UNL A   1      42.865  18.480  26.605  1.00  0.00     0.188 C 
BRANCH  30  31
ATOM     31  C   UNL A   1      43.455  19.110  25.331  1.00  0.00     0.188 C 
BRANCH  31  32
ATOM     32  O   UNL A   1      44.514  18.340  24.758  1.00  0.00    -0.376 OA
BRANCH  32  33
ATOM     33  C   UNL A   1      45.843  18.801  24.974  1.00  0.00     0.202 C 
BRANCH  33  34
ATOM     34  C   UNL A   1      45.965  20.208  25.579  1.00  0.00     0.261 C 
BRANCH  34  35
ATOM     35  O   UNL A   1      46.339  21.253  24.667  1.00  0.00    -0.460 OA
BRANCH  35  36
ATOM     36  C   UNL A   1      45.377  22.079  24.203  1.00  0.00     0.338 C 
ATOM     37  O   UNL A   1      44.544  21.834  23.350  1.00  0.00    -0.246 OA
BRANCH  36  38
ATOM     38  C   UNL A   1      45.359  23.266  25.083  1.00  0.00     0.060 A 
ATOM     39  C   UNL A   1      46.569  23.729  25.620  1.00  0.00     0.016 A 
ATOM     40  C   UNL A   1      44.165  23.949  25.332  1.00  0.00     0.016 A 
ATOM     41  C   UNL A   1      46.584  24.871  26.422  1.00  0.00     0.010 A 
ATOM     42  C   UNL A   1      44.179  25.073  26.156  1.00  0.00     0.010 A 
ATOM     43  C   UNL A   1      45.383  25.525  26.723  1.00  0.00    -0.014 A 
BRANCH  43  44
ATOM     44  C   UNL A   1      45.334  26.555  27.784  1.00  0.00     0.031 A 
ATOM     45  C   UNL A   1      45.125  26.100  29.199  1.00  0.00     0.074 A 
ATOM     46  C   UNL A   1      45.420  27.865  27.492  1.00  0.00     0.049 A 
ATOM     47  N   UNL A   1      44.959  26.808  30.284  1.00  0.00    -0.248 NA
ATOM     48  C   UNL A   1      45.094  24.643  29.417  1.00  0.00     0.031 C 
ATOM     49  C   UNL A   1      45.647  28.424  26.161  1.00  0.00     0.029 A 
ATOM     50  N   UNL A   1      45.295  28.963  28.305  1.00  0.00    -0.354 N 
ATOM     51  C   UNL A   1      44.782  25.888  31.309  1.00  0.00     0.074 A 
ATOM     52  C   UNL A   1      44.851  24.570  30.717  1.00  0.00     0.031 C 
ATOM     53  C   UNL A   1      45.617  29.766  26.244  1.00  0.00     0.029 A 
ATOM     54  C   UNL A   1      45.336  30.157  27.625  1.00  0.00     0.049 A 
ATOM     55  H   UNL A   1      45.186  28.902  29.282  1.00  0.00     0.167 HD
ATOM     56  C   UNL A   1      44.589  26.118  32.629  1.00  0.00     0.034 A 
ATOM     57  C   UNL A   1      45.141  31.416  28.067  1.00  0.00     0.034 A 
ATOM     58  C   UNL A   1      44.509  27.428  33.211  1.00  0.00     0.049 A 
ATOM     59  C   UNL A   1      44.835  31.642  29.527  1.00  0.00     0.074 A 
ATOM     60  C   UNL A   1      44.352  27.770  34.541  1.00  0.00     0.029 A 
ATOM     61  N   UNL A   1      44.552  28.613  32.493  1.00  0.00    -0.354 N 
ATOM     62  N   UNL A   1      44.791  30.774  30.509  1.00  0.00    -0.248 NA
ATOM     63  C   UNL A   1      44.567  33.028  29.943  1.00  0.00     0.031 C 
ATOM     64  C   UNL A   1      44.269  29.165  34.624  1.00  0.00     0.029 A 
ATOM     65  C   UNL A   1      44.399  29.690  33.347  1.00  0.00     0.049 A 
ATOM     66  H   UNL A   1      44.674  28.678  31.518  1.00  0.00     0.167 HD
ATOM     67  C   UNL A   1      44.523  31.507  31.661  1.00  0.00     0.074 A 
ATOM     68  C   UNL A   1      44.431  32.896  31.257  1.00  0.00     0.031 C 
ATOM     69  C   UNL A   1      44.356  31.072  32.935  1.00  0.00     0.034 A 
BRANCH  56  70
ATOM     70  C   UNL A   1      44.464  24.914  33.522  1.00  0.00     0.023 A 
ATOM     71  C   UNL A   1      43.185  24.406  33.831  1.00  0.00     0.012 A 
ATOM     72  C   UNL A   1      45.604  24.284  34.054  1.00  0.00     0.148 A 
ATOM     73  C   UNL A   1      43.041  23.316  34.687  1.00  0.00     0.002 A 
ATOM     74  C   UNL A   1      45.455  23.171  34.873  1.00  0.00     0.091 A 
ATOM     75  F   UNL A   1      46.811  24.800  33.777  1.00  0.00    -0.205 F 
ATOM     76  C   UNL A   1      44.175  22.693  35.201  1.00  0.00     0.022 A 
BRANCH  74  77
ATOM     77  S   UNL A   1      46.861  22.264  35.526  1.00  0.00     0.127 S 
ATOM     78  O   UNL A   1      47.499  23.275  36.367  1.00  0.00    -0.237 OA
ATOM     79  O   UNL A   1      46.216  21.178  36.264  1.00  0.00    -0.237 OA
ATOM     80  O   UNL A   1      47.627  21.832  34.366  1.00  0.00    -0.744 OA
ENDBRANCH  74  77
ENDBRANCH  56  70
BRANCH  57  81
ATOM     81  C   UNL A   1      45.267  32.567  27.128  1.00  0.00     0.023 A 
ATOM     82  C   UNL A   1      44.126  33.003  26.426  1.00  0.00     0.012 A 
ATOM     83  C   UNL A   1      46.488  33.244  26.941  1.00  0.00     0.148 A 
ATOM     84  C   UNL A   1      44.202  34.078  25.538  1.00  0.00     0.002 A 
ATOM     85  C   UNL A   1      46.545  34.347  26.097  1.00  0.00     0.091 A 
ATOM     86  F   UNL A   1      47.566  32.804  27.604  1.00  0.00    -0.205 F 
ATOM     87  C   UNL A   1      45.408  34.755  25.381  1.00  0.00     0.022 A 
BRANCH  85  88
ATOM     88  S   UNL A   1      48.014  35.366  25.922  1.00  0.00     0.127 S 
ATOM     89  O   UNL A   1      47.466  36.587  25.340  1.00  0.00    -0.237 OA
ATOM     90  O   UNL A   1      48.458  35.487  27.311  1.00  0.00    -0.237 OA
ATOM     91  O   UNL A   1      48.920  34.612  25.069  1.00  0.00    -0.744 OA
ENDBRANCH  85  88
ENDBRANCH  57  81
BRANCH  69  92
ATOM     92  C   UNL A   1      44.075  32.100  34.001  1.00  0.00     0.023 A 
ATOM     93  C   UNL A   1      45.142  32.823  34.570  1.00  0.00     0.012 A 
ATOM     94  C   UNL A   1      42.751  32.422  34.361  1.00  0.00     0.148 A 
ATOM     95  C   UNL A   1      44.897  33.835  35.499  1.00  0.00     0.002 A 
ATOM     96  C   UNL A   1      42.512  33.462  35.252  1.00  0.00     0.091 A 
ATOM     97  F   UNL A   1      41.751  31.713  33.818  1.00  0.00    -0.205 F 
ATOM     98  C   UNL A   1      43.585  34.163  35.829  1.00  0.00     0.022 A 
BRANCH  96  99
ATOM     99  S   UNL A   1      40.856  34.022  35.666  1.00  0.00     0.127 S 
ATOM    100  O   UNL A   1      40.324  32.869  36.391  1.00  0.00    -0.237 OA
ATOM    101  O   UNL A   1      41.125  35.195  36.498  1.00  0.00    -0.237 OA
ATOM    102  O   UNL A   1      40.201  34.316  34.399  1.00  0.00    -0.744 OA
ENDBRANCH  96  99
ENDBRANCH  69  92
ENDBRANCH  43  44
ENDBRANCH  36  38
ENDBRANCH  35  36
ENDBRANCH  34  35
ENDBRANCH  33  34
ENDBRANCH  32  33
ENDBRANCH  31  32
ENDBRANCH  30  31
ENDBRANCH  29  30
ENDBRANCH   1  29
TORSDOF 27
ENDMDL
MODEL 2
REMARK VINA RESULT:      -8.1      4.971      9.321
REMARK SMILES COc1cc(Cl)ccc1S(=O)(=O)Nc1cccc(C(=O)OCCOCCOCCOCCOC(=O)c2ccc(-c3c4nc(c(-c5cccc(S(=O)(=O)[O-])c5F)c5ccc([nH]5)c(-c5cccc(S(=O)(=O)[O-])c5F)c5nc(c(-c6cccc(S(=O)(=O)[O-])c6F)c6ccc3[nH]6)C=C5)C=C4)cc2)c1
REMARK SMILES IDX 26 1 25 2 24 3 23 4 22 5 21 6 19 7 20 8 18 9 14 10 15 11
REMARK SMILES IDX 99 12 16 13 17 14 13 15 10 17 11 18 12 19 9 20 3 21 4 22
REMARK SMILES IDX 5 23 8 24 6 25 7 26 2 27 1 28 27 29 28 30 29 31 30 32 31 33
REMARK SMILES IDX 32 34 33 35 34 36 35 37 36 38 37 39 98 40 38 41 97 42 39 43
REMARK SMILES IDX 40 44 41 45 91 46 42 47 96 48 90 49 92 50 43 51 95 52 89 53
REMARK SMILES IDX 88 54 44 56 76 57 56 58 75 59 57 60 60 61 74 62 93 63 58 64
REMARK SMILES IDX 59 65 73 67 94 68 61 69 45 70 46 71 54 72 47 73 49 74 55 75
REMARK SMILES IDX 48 76 50 77 51 78 52 79 53 80 77 81 78 82 86 83 79 84 81 85
REMARK SMILES IDX 87 86 80 87 82 88 83 89 84 90 85 91 62 92 63 93 71 94 64 95
REMARK SMILES IDX 66 96 72 97 65 98 67 99 68 100 69 101 70 102
REMARK H PARENT 13 16 92 55 60 66
REMARK Flexibility Score: inf
ROOT
ATOM      1  C   UNL A   1      40.010  24.189  26.910  1.00  0.00     0.188 C 
ENDROOT
BRANCH   1   2
ATOM      2  C   UNL A   1      39.232  22.906  26.548  1.00  0.00     0.188 C 
BRANCH   2   3
ATOM      3  O   UNL A   1      38.034  22.908  25.773  1.00  0.00    -0.376 OA
BRANCH   3   4
ATOM      4  C   UNL A   1      37.248  21.737  25.586  1.00  0.00     0.202 C 
BRANCH   4   5
ATOM      5  C   UNL A   1      35.734  21.804  25.811  1.00  0.00     0.261 C 
BRANCH   5   6
ATOM      6  O   UNL A   1      35.013  20.687  25.286  1.00  0.00    -0.460 OA
BRANCH   6   7
ATOM      7  C   UNL A   1      33.730  20.590  25.689  1.00  0.00     0.338 C 
ATOM      8  O   UNL A   1      33.304  19.999  26.669  1.00  0.00    -0.246 OA
BRANCH   7   9
ATOM      9  C   UNL A   1      32.857  21.416  24.825  1.00  0.00     0.062 A 
ATOM     10  C   UNL A   1      31.869  23.536  24.325  1.00  0.00     0.050 A 
ATOM     11  C   UNL A   1      31.597  23.095  23.023  1.00  0.00     0.027 A 
ATOM     12  C   UNL A   1      32.354  22.639  25.269  1.00  0.00     0.042 A 
ATOM     13  C   UNL A   1      31.949  21.808  22.622  1.00  0.00     0.003 A 
ATOM     14  C   UNL A   1      32.642  20.991  23.507  1.00  0.00     0.016 A 
BRANCH  10  15
ATOM     15  N   UNL A   1      31.888  24.941  24.517  1.00  0.00    -0.279 N 
ATOM     16  H   UNL A   1      32.625  25.431  24.085  1.00  0.00     0.180 HD
BRANCH  15  17
ATOM     17  S   UNL A   1      30.802  25.859  25.392  1.00  0.00     0.265 S 
ATOM     18  O   UNL A   1      30.652  25.170  26.658  1.00  0.00    -0.201 OA
ATOM     19  O   UNL A   1      29.683  26.048  24.492  1.00  0.00    -0.201 OA
BRANCH  17  20
ATOM     20  C   UNL A   1      31.478  27.478  25.741  1.00  0.00     0.129 A 
ATOM     21  C   UNL A   1      32.149  28.294  24.813  1.00  0.00     0.140 A 
ATOM     22  C   UNL A   1      32.888  29.388  25.297  1.00  0.00     0.068 A 
ATOM     23  C   UNL A   1      32.909  29.693  26.661  1.00  0.00     0.044 A 
ATOM     24  C   UNL A   1      31.460  27.833  27.104  1.00  0.00     0.028 A 
ATOM     25  Cl  UNL A   1      33.878  31.002  27.219  1.00  0.00    -0.084 Cl
ATOM     26  C   UNL A   1      32.166  28.944  27.560  1.00  0.00     0.022 A 
BRANCH  21  27
ATOM     27  O   UNL A   1      32.065  27.996  23.479  1.00  0.00    -0.495 OA
ATOM     28  C   UNL A   1      33.280  27.725  22.780  1.00  0.00     0.278 C 
ENDBRANCH  21  27
ENDBRANCH  17  20
ENDBRANCH  15  17
ENDBRANCH  10  15
ENDBRANCH   7   9
ENDBRANCH   6   7
ENDBRANCH   5   6
ENDBRANCH   4   5
ENDBRANCH   3   4
ENDBRANCH   2   3
ENDBRANCH   1   2
BRANCH   1  29
ATOM     29  O   UNL A   1      39.292  25.098  27.715  1.00  0.00    -0.377 OA
BRANCH  29  30
ATOM     30  C   UNL A   1      39.833  26.409  27.780  1.00  0.00     0.188 C 
BRANCH  30  31
ATOM     31  C   UNL A   1      39.251  27.323  28.873  1.00  0.00     0.188 C 
BRANCH  31  32
ATOM     32  O   UNL A   1      39.398  28.715  28.585  1.00  0.00    -0.376 OA
BRANCH  32  33
ATOM     33  C   UNL A   1      38.212  29.450  28.306  1.00  0.00     0.202 C 
BRANCH  33  34
ATOM     34  C   UNL A   1      37.190  29.518  29.453  1.00  0.00     0.261 C 
BRANCH  34  35
ATOM     35  O   UNL A   1      37.488  30.451  30.503  1.00  0.00    -0.460 OA
BRANCH  35  36
ATOM     36  C   UNL A   1      37.492  30.008  31.779  1.00  0.00     0.338 C 
ATOM     37  O   UNL A   1      36.538  29.917  32.530  1.00  0.00    -0.246 OA
BRANCH  36  38
ATOM     38  C   UNL A   1      38.826  29.425  32.035  1.00  0.00     0.060 A 
ATOM     39  C   UNL A   1      39.956  30.248  31.922  1.00  0.00     0.016 A 
ATOM     40  C   UNL A   1      38.955  28.093  32.436  1.00  0.00     0.016 A 
ATOM     41  C   UNL A   1      41.223  29.732  32.198  1.00  0.00     0.010 A 
ATOM     42  C   UNL A   1      40.224  27.573  32.683  1.00  0.00     0.010 A 
ATOM     43  C   UNL A   1      41.365  28.382  32.542  1.00  0.00    -0.014 A 
BRANCH  43  44
ATOM     44  C   UNL A   1      42.702  27.748  32.563  1.00  0.00     0.031 A 
ATOM     45  C   UNL A   1      43.350  27.517  33.897  1.00  0.00     0.074 A 
ATOM     46  C   UNL A   1      43.345  27.435  31.425  1.00  0.00     0.049 A 
ATOM     47  N   UNL A   1      44.544  27.064  34.173  1.00  0.00    -0.248 NA
ATOM     48  C   UNL A   1      42.540  27.849  35.082  1.00  0.00     0.031 C 
ATOM     49  C   UNL A   1      42.807  27.591  30.076  1.00  0.00     0.029 A 
ATOM     50  N   UNL A   1      44.613  26.945  31.231  1.00  0.00    -0.354 N 
ATOM     51  C   UNL A   1      44.639  27.076  35.558  1.00  0.00     0.074 A 
ATOM     52  C   UNL A   1      43.386  27.590  36.068  1.00  0.00     0.031 C 
ATOM     53  C   UNL A   1      43.751  27.229  29.189  1.00  0.00     0.029 A 
ATOM     54  C   UNL A   1      44.967  26.849  29.906  1.00  0.00     0.049 A 
ATOM     55  H   UNL A   1      45.210  26.686  31.970  1.00  0.00     0.167 HD
ATOM     56  C   UNL A   1      45.672  26.684  36.340  1.00  0.00     0.034 A 
ATOM     57  C   UNL A   1      46.148  26.519  29.344  1.00  0.00     0.034 A 
ATOM     58  C   UNL A   1      46.918  26.185  35.830  1.00  0.00     0.049 A 
ATOM     59  C   UNL A   1      47.315  26.175  30.238  1.00  0.00     0.074 A 
ATOM     60  C   UNL A   1      48.015  25.727  36.536  1.00  0.00     0.029 A 
ATOM     61  N   UNL A   1      47.243  26.104  34.485  1.00  0.00    -0.354 N 
ATOM     62  N   UNL A   1      47.356  26.072  31.544  1.00  0.00    -0.248 NA
ATOM     63  C   UNL A   1      48.596  25.886  29.574  1.00  0.00     0.031 C 
ATOM     64  C   UNL A   1      49.017  25.398  35.616  1.00  0.00     0.029 A 
ATOM     65  C   UNL A   1      48.534  25.629  34.337  1.00  0.00     0.049 A 
ATOM     66  H   UNL A   1      46.643  26.349  33.743  1.00  0.00     0.167 HD
ATOM     67  C   UNL A   1      48.653  25.676  31.859  1.00  0.00     0.074 A 
ATOM     68  C   UNL A   1      49.363  25.542  30.602  1.00  0.00     0.031 C 
ATOM     69  C   UNL A   1      49.211  25.456  33.075  1.00  0.00     0.034 A 
BRANCH  56  70
ATOM     70  C   UNL A   1      45.477  26.775  37.829  1.00  0.00     0.023 A 
ATOM     71  C   UNL A   1      45.094  25.626  38.552  1.00  0.00     0.012 A 
ATOM     72  C   UNL A   1      45.672  27.989  38.513  1.00  0.00     0.148 A 
ATOM     73  C   UNL A   1      44.870  25.694  39.926  1.00  0.00     0.002 A 
ATOM     74  C   UNL A   1      45.487  28.039  39.890  1.00  0.00     0.091 A 
ATOM     75  F   UNL A   1      46.004  29.079  37.805  1.00  0.00    -0.205 F 
ATOM     76  C   UNL A   1      45.074  26.898  40.596  1.00  0.00     0.022 A 
BRANCH  74  77
ATOM     77  S   UNL A   1      45.793  29.529  40.845  1.00  0.00     0.127 S 
ATOM     78  O   UNL A   1      44.613  30.331  40.527  1.00  0.00    -0.237 OA
ATOM     79  O   UNL A   1      45.830  29.017  42.216  1.00  0.00    -0.237 OA
ATOM     80  O   UNL A   1      47.062  30.055  40.364  1.00  0.00    -0.744 OA
ENDBRANCH  74  77
ENDBRANCH  56  70
BRANCH  57  81
ATOM     81  C   UNL A   1      46.280  26.458  27.861  1.00  0.00     0.023 A 
ATOM     82  C   UNL A   1      46.672  27.617  27.162  1.00  0.00     0.012 A 
ATOM     83  C   UNL A   1      46.045  25.270  27.142  1.00  0.00     0.148 A 
ATOM     84  C   UNL A   1      46.808  27.600  25.773  1.00  0.00     0.002 A 
ATOM     85  C   UNL A   1      46.234  25.246  25.764  1.00  0.00     0.091 A 
ATOM     86  F   UNL A   1      45.655  24.183  27.821  1.00  0.00    -0.205 F 
ATOM     87  C   UNL A   1      46.599  26.414  25.076  1.00  0.00     0.022 A 
BRANCH  85  88
ATOM     88  S   UNL A   1      46.115  23.742  24.790  1.00  0.00     0.127 S 
ATOM     89  O   UNL A   1      44.724  23.779  24.347  1.00  0.00    -0.237 OA
ATOM     90  O   UNL A   1      47.106  23.989  23.741  1.00  0.00    -0.237 OA
ATOM     91  O   UNL A   1      46.460  22.655  25.694  1.00  0.00    -0.744 OA
ENDBRANCH  85  88
ENDBRANCH  57  81
BRANCH  69  92
ATOM     92  C   UNL A   1      50.655  25.026  33.122  1.00  0.00     0.023 A 
ATOM     93  C   UNL A   1      51.668  25.998  33.242  1.00  0.00     0.012 A 
ATOM     94  C   UNL A   1      51.000  23.660  33.151  1.00  0.00     0.148 A 
ATOM     95  C   UNL A   1      53.004  25.617  33.368  1.00  0.00     0.002 A 
ATOM     96  C   UNL A   1      52.328  23.287  33.324  1.00  0.00     0.091 A 
ATOM     97  F   UNL A   1      50.022  22.752  33.023  1.00  0.00    -0.205 F 
ATOM     98  C   UNL A   1      53.332  24.265  33.422  1.00  0.00     0.022 A 
BRANCH  96  99
ATOM     99  S   UNL A   1      52.838  21.574  33.502  1.00  0.00     0.127 S 
ATOM    100  O   UNL A   1      52.605  21.052  32.156  1.00  0.00    -0.237 OA
ATOM    101  O   UNL A   1      54.248  21.707  33.870  1.00  0.00    -0.237 OA
ATOM    102  O   UNL A   1      51.991  21.007  34.543  1.00  0.00    -0.744 OA
ENDBRANCH  96  99
ENDBRANCH  69  92
ENDBRANCH  43  44
ENDBRANCH  36  38
ENDBRANCH  35  36
ENDBRANCH  34  35
ENDBRANCH  33  34
ENDBRANCH  32  33
ENDBRANCH  31  32
ENDBRANCH  30  31
ENDBRANCH  29  30
ENDBRANCH   1  29
TORSDOF 27
ENDMDL
MODEL 3
REMARK VINA RESULT:      -7.7      5.077     10.321
REMARK SMILES COc1cc(Cl)ccc1S(=O)(=O)Nc1cccc(C(=O)OCCOCCOCCOCCOC(=O)c2ccc(-c3c4nc(c(-c5cccc(S(=O)(=O)[O-])c5F)c5ccc([nH]5)c(-c5cccc(S(=O)(=O)[O-])c5F)c5nc(c(-c6cccc(S(=O)(=O)[O-])c6F)c6ccc3[nH]6)C=C5)C=C4)cc2)c1
REMARK SMILES IDX 26 1 25 2 24 3 23 4 22 5 21 6 19 7 20 8 18 9 14 10 15 11
REMARK SMILES IDX 99 12 16 13 17 14 13 15 10 17 11 18 12 19 9 20 3 21 4 22
REMARK SMILES IDX 5 23 8 24 6 25 7 26 2 27 1 28 27 29 28 30 29 31 30 32 31 33
REMARK SMILES IDX 32 34 33 35 34 36 35 37 36 38 37 39 98 40 38 41 97 42 39 43
REMARK SMILES IDX 40 44 41 45 91 46 42 47 96 48 90 49 92 50 43 51 95 52 89 53
REMARK SMILES IDX 88 54 44 56 76 57 56 58 75 59 57 60 60 61 74 62 93 63 58 64
REMARK SMILES IDX 59 65 73 67 94 68 61 69 45 70 46 71 54 72 47 73 49 74 55 75
REMARK SMILES IDX 48 76 50 77 51 78 52 79 53 80 77 81 78 82 86 83 79 84 81 85
REMARK SMILES IDX 87 86 80 87 82 88 83 89 84 90 85 91 62 92 63 93 71 94 64 95
REMARK SMILES IDX 66 96 72 97 65 98 67 99 68 100 69 101 70 102
REMARK H PARENT 13 16 92 55 60 66
REMARK Flexibility Score: inf
ROOT
ATOM      1  C   UNL A   1      39.728  23.883  26.579  1.00  0.00     0.188 C 
ENDROOT
BRANCH   1   2
ATOM      2  C   UNL A   1      38.875  22.627  26.300  1.00  0.00     0.188 C 
BRANCH   2   3
ATOM      3  O   UNL A   1      37.495  22.681  25.939  1.00  0.00    -0.376 OA
BRANCH   3   4
ATOM      4  C   UNL A   1      36.817  21.571  25.365  1.00  0.00     0.202 C 
BRANCH   4   5
ATOM      5  C   UNL A   1      35.348  21.321  25.722  1.00  0.00     0.261 C 
BRANCH   5   6
ATOM      6  O   UNL A   1      34.777  20.173  25.089  1.00  0.00    -0.460 OA
BRANCH   6   7
ATOM      7  C   UNL A   1      33.458  19.995  25.301  1.00  0.00     0.338 C 
ATOM      8  O   UNL A   1      32.930  19.181  26.044  1.00  0.00    -0.246 OA
BRANCH   7   9
ATOM      9  C   UNL A   1      32.678  21.026  24.580  1.00  0.00     0.062 A 
ATOM     10  C   UNL A   1      31.765  23.235  24.502  1.00  0.00     0.050 A 
ATOM     11  C   UNL A   1      31.610  23.115  23.114  1.00  0.00     0.027 A 
ATOM     12  C   UNL A   1      32.150  22.129  25.250  1.00  0.00     0.042 A 
ATOM     13  C   UNL A   1      31.984  21.944  22.457  1.00  0.00     0.003 A 
ATOM     14  C   UNL A   1      32.582  20.923  23.186  1.00  0.00     0.016 A 
BRANCH  10  15
ATOM     15  N   UNL A   1      31.782  24.556  25.016  1.00  0.00    -0.279 N 
ATOM     16  H   UNL A   1      32.669  24.944  25.195  1.00  0.00     0.180 HD
BRANCH  15  17
ATOM     17  S   UNL A   1      30.467  25.530  25.351  1.00  0.00     0.265 S 
ATOM     18  O   UNL A   1      29.853  24.951  26.527  1.00  0.00    -0.201 OA
ATOM     19  O   UNL A   1      29.759  25.624  24.090  1.00  0.00    -0.201 OA
BRANCH  17  20
ATOM     20  C   UNL A   1      30.997  27.183  25.782  1.00  0.00     0.129 A 
ATOM     21  C   UNL A   1      31.174  28.241  24.873  1.00  0.00     0.140 A 
ATOM     22  C   UNL A   1      31.882  29.378  25.300  1.00  0.00     0.068 A 
ATOM     23  C   UNL A   1      32.350  29.481  26.614  1.00  0.00     0.044 A 
ATOM     24  C   UNL A   1      31.422  27.327  27.117  1.00  0.00     0.028 A 
ATOM     25  Cl  UNL A   1      33.268  30.861  27.079  1.00  0.00    -0.084 Cl
ATOM     26  C   UNL A   1      32.087  28.478  27.534  1.00  0.00     0.022 A 
BRANCH  21  27
ATOM     27  O   UNL A   1      30.659  28.129  23.609  1.00  0.00    -0.495 OA
ATOM     28  C   UNL A   1      29.999  29.268  23.055  1.00  0.00     0.278 C 
ENDBRANCH  21  27
ENDBRANCH  17  20
ENDBRANCH  15  17
ENDBRANCH  10  15
ENDBRANCH   7   9
ENDBRANCH   6   7
ENDBRANCH   5   6
ENDBRANCH   4   5
ENDBRANCH   3   4
ENDBRANCH   2   3
ENDBRANCH   1   2
BRANCH   1  29
ATOM     29  O   UNL A   1      39.221  24.719  27.595  1.00  0.00    -0.377 OA
BRANCH  29  30
ATOM     30  C   UNL A   1      39.773  26.026  27.638  1.00  0.00     0.188 C 
BRANCH  30  31
ATOM     31  C   UNL A   1      39.446  26.853  28.894  1.00  0.00     0.188 C 
BRANCH  31  32
ATOM     32  O   UNL A   1      39.599  28.261  28.702  1.00  0.00    -0.376 OA
BRANCH  32  33
ATOM     33  C   UNL A   1      38.425  29.010  28.413  1.00  0.00     0.202 C 
BRANCH  33  34
ATOM     34  C   UNL A   1      37.352  29.008  29.514  1.00  0.00     0.261 C 
BRANCH  34  35
ATOM     35  O   UNL A   1      37.468  30.042  30.504  1.00  0.00    -0.460 OA
BRANCH  35  36
ATOM     36  C   UNL A   1      37.619  29.685  31.797  1.00  0.00     0.338 C 
ATOM     37  O   UNL A   1      36.738  29.445  32.603  1.00  0.00    -0.246 OA
BRANCH  36  38
ATOM     38  C   UNL A   1      39.054  29.402  32.008  1.00  0.00     0.060 A 
ATOM     39  C   UNL A   1      39.991  30.403  31.714  1.00  0.00     0.016 A 
ATOM     40  C   UNL A   1      39.467  28.179  32.543  1.00  0.00     0.016 A 
ATOM     41  C   UNL A   1      41.349  30.176  31.941  1.00  0.00     0.010 A 
ATOM     42  C   UNL A   1      40.826  27.943  32.742  1.00  0.00     0.010 A 
ATOM     43  C   UNL A   1      41.774  28.930  32.421  1.00  0.00    -0.014 A 
BRANCH  43  44
ATOM     44  C   UNL A   1      43.209  28.569  32.404  1.00  0.00     0.031 A 
ATOM     45  C   UNL A   1      43.754  27.910  31.170  1.00  0.00     0.074 A 
ATOM     46  C   UNL A   1      43.994  28.772  33.476  1.00  0.00     0.049 A 
ATOM     47  N   UNL A   1      44.945  27.423  30.946  1.00  0.00    -0.248 NA
ATOM     48  C   UNL A   1      42.824  27.780  30.035  1.00  0.00     0.031 C 
ATOM     49  C   UNL A   1      43.583  29.422  34.718  1.00  0.00     0.029 A 
ATOM     50  N   UNL A   1      45.302  28.417  33.695  1.00  0.00    -0.354 N 
ATOM     51  C   UNL A   1      44.904  26.909  29.657  1.00  0.00     0.074 A 
ATOM     52  C   UNL A   1      43.568  27.134  29.150  1.00  0.00     0.031 C 
ATOM     53  C   UNL A   1      44.613  29.396  35.582  1.00  0.00     0.029 A 
ATOM     54  C   UNL A   1      45.741  28.699  34.967  1.00  0.00     0.049 A 
ATOM     55  H   UNL A   1      45.871  28.002  33.007  1.00  0.00     0.167 HD
ATOM     56  C   UNL A   1      45.892  26.311  28.951  1.00  0.00     0.034 A 
ATOM     57  C   UNL A   1      46.911  28.401  35.568  1.00  0.00     0.034 A 
ATOM     58  C   UNL A   1      47.213  26.078  29.462  1.00  0.00     0.049 A 
ATOM     59  C   UNL A   1      47.965  27.651  34.791  1.00  0.00     0.074 A 
ATOM     60  C   UNL A   1      48.298  25.513  28.817  1.00  0.00     0.029 A 
ATOM     61  N   UNL A   1      47.622  26.373  30.753  1.00  0.00    -0.354 N 
ATOM     62  N   UNL A   1      47.960  27.278  33.534  1.00  0.00    -0.248 NA
ATOM     63  C   UNL A   1      49.196  27.294  35.514  1.00  0.00     0.031 C 
ATOM     64  C   UNL A   1      49.356  25.439  29.731  1.00  0.00     0.029 A 
ATOM     65  C   UNL A   1      48.935  25.979  30.936  1.00  0.00     0.049 A 
ATOM     66  H   UNL A   1      47.060  26.801  31.440  1.00  0.00     0.167 HD
ATOM     67  C   UNL A   1      49.192  26.673  33.305  1.00  0.00     0.074 A 
ATOM     68  C   UNL A   1      49.927  26.744  34.552  1.00  0.00     0.031 C 
ATOM     69  C   UNL A   1      49.669  26.099  32.172  1.00  0.00     0.034 A 
BRANCH  56  70
ATOM     70  C   UNL A   1      45.567  25.882  27.546  1.00  0.00     0.023 A 
ATOM     71  C   UNL A   1      45.506  26.849  26.520  1.00  0.00     0.012 A 
ATOM     72  C   UNL A   1      45.324  24.531  27.238  1.00  0.00     0.148 A 
ATOM     73  C   UNL A   1      45.169  26.483  25.219  1.00  0.00     0.002 A 
ATOM     74  C   UNL A   1      45.030  24.168  25.928  1.00  0.00     0.091 A 
ATOM     75  F   UNL A   1      45.354  23.630  28.231  1.00  0.00    -0.205 F 
ATOM     76  C   UNL A   1      44.940  25.142  24.921  1.00  0.00     0.022 A 
BRANCH  74  77
ATOM     77  S   UNL A   1      44.787  22.457  25.440  1.00  0.00     0.127 S 
ATOM     78  O   UNL A   1      43.463  22.177  25.993  1.00  0.00    -0.237 OA
ATOM     79  O   UNL A   1      44.830  22.541  23.979  1.00  0.00    -0.237 OA
ATOM     80  O   UNL A   1      45.889  21.714  26.033  1.00  0.00    -0.744 OA
ENDBRANCH  74  77
ENDBRANCH  56  70
BRANCH  57  81
ATOM     81  C   UNL A   1      47.167  28.844  36.968  1.00  0.00     0.023 A 
ATOM     82  C   UNL A   1      47.848  30.057  37.186  1.00  0.00     0.012 A 
ATOM     83  C   UNL A   1      46.728  28.095  38.077  1.00  0.00     0.148 A 
ATOM     84  C   UNL A   1      48.107  30.507  38.482  1.00  0.00     0.002 A 
ATOM     85  C   UNL A   1      46.941  28.575  39.365  1.00  0.00     0.091 A 
ATOM     86  F   UNL A   1      46.097  26.934  37.850  1.00  0.00    -0.205 F 
ATOM     87  C   UNL A   1      47.645  29.772  39.570  1.00  0.00     0.022 A 
BRANCH  85  88
ATOM     88  S   UNL A   1      46.277  27.772  40.827  1.00  0.00     0.127 S 
ATOM     89  O   UNL A   1      46.839  26.429  40.714  1.00  0.00    -0.237 OA
ATOM     90  O   UNL A   1      46.843  28.592  41.899  1.00  0.00    -0.237 OA
ATOM     91  O   UNL A   1      44.830  27.861  40.707  1.00  0.00    -0.744 OA
ENDBRANCH  85  88
ENDBRANCH  57  81
BRANCH  69  92
ATOM     92  C   UNL A   1      51.059  25.516  32.208  1.00  0.00     0.023 A 
ATOM     93  C   UNL A   1      52.173  26.359  32.025  1.00  0.00     0.012 A 
ATOM     94  C   UNL A   1      51.263  24.159  32.524  1.00  0.00     0.148 A 
ATOM     95  C   UNL A   1      53.469  25.854  32.134  1.00  0.00     0.002 A 
ATOM     96  C   UNL A   1      52.557  23.673  32.677  1.00  0.00     0.091 A 
ATOM     97  F   UNL A   1      50.189  23.371  32.681  1.00  0.00    -0.205 F 
ATOM     98  C   UNL A   1      53.660  24.517  32.472  1.00  0.00     0.022 A 
BRANCH  96  99
ATOM     99  S   UNL A   1      52.904  21.991  33.205  1.00  0.00     0.127 S 
ATOM    100  O   UNL A   1      52.233  21.941  34.503  1.00  0.00    -0.237 OA
ATOM    101  O   UNL A   1      52.261  21.199  32.156  1.00  0.00    -0.237 OA
ATOM    102  O   UNL A   1      54.355  21.873  33.250  1.00  0.00    -0.744 OA
ENDBRANCH  96  99
ENDBRANCH  69  92
ENDBRANCH  43  44
ENDBRANCH  36  38
ENDBRANCH  35  36
ENDBRANCH  34  35
ENDBRANCH  33  34
ENDBRANCH  32  33
ENDBRANCH  31  32
ENDBRANCH  30  31
ENDBRANCH  29  30
ENDBRANCH   1  29
TORSDOF 27
ENDMDL
