MODEL 1
REMARK VINA RESULT:      -8.3      0.000      0.000
REMARK SMILES CCOc1cc2c(cc1/C=C1/C(=O)N(c3cccc(C(=O)OCCOCCOCCOCCOC(=O)c4ccc(-c5c6nc(c(-c7cccc(S(=O)(=O)[O-])c7F)c7ccc([nH]7)c(-c7cccc(S(=O)(=O)[O-])c7F)c7nc(c(-c8cccc(S(=O)(=O)[O-])c8F)c8ccc5[nH]8)C=C7)C=C6)cc4)c3)C(=S)N=C1O)OCO2
REMARK SMILES IDX 27 1 26 2 25 3 24 4 23 5 22 6 20 7 21 8 19 9 15 10 16 11
REMARK SMILES IDX 100 12 17 13 18 14 14 15 10 16 11 17 12 18 104 19 13 20
REMARK SMILES IDX 103 21 101 22 102 23 9 24 4 25 5 26 6 27 8 28 7 29 108 30
REMARK SMILES IDX 106 31 107 32 3 33 2 34 1 35 105 36 28 38 29 39 30 40 31 41
REMARK SMILES IDX 32 42 33 43 34 44 35 45 36 46 37 47 38 48 99 49 39 50 98 51
REMARK SMILES IDX 40 52 41 53 42 54 92 55 43 56 97 57 91 58 93 59 44 60 96 61
REMARK SMILES IDX 90 62 89 63 45 65 77 66 57 67 76 68 58 69 61 70 75 71 94 72
REMARK SMILES IDX 59 73 60 74 74 76 95 77 62 78 46 79 47 80 55 81 48 82 50 83
REMARK SMILES IDX 56 84 49 85 51 86 52 87 53 88 54 89 78 90 79 91 87 92 80 93
REMARK SMILES IDX 82 94 88 95 81 96 83 97 84 98 85 99 86 100 63 101 64 102
REMARK SMILES IDX 72 103 65 104 67 105 73 106 66 107 68 108 69 109 70 110
REMARK SMILES IDX 71 111
REMARK H PARENT 105 37 93 64 61 75
REMARK Flexibility Score: inf
ROOT
ATOM      1  C   UNL A   1      34.373  35.050  33.457  1.00  0.00     0.188 C 
ENDROOT
BRANCH   1   2
ATOM      2  C   UNL A   1      35.537  34.526  34.316  1.00  0.00     0.188 C 
BRANCH   2   3
ATOM      3  O   UNL A   1      36.490  33.780  33.573  1.00  0.00    -0.376 OA
BRANCH   3   4
ATOM      4  C   UNL A   1      37.484  34.473  32.838  1.00  0.00     0.202 C 
BRANCH   4   5
ATOM      5  C   UNL A   1      38.908  34.612  33.403  1.00  0.00     0.261 C 
BRANCH   5   6
ATOM      6  O   UNL A   1      39.049  34.425  34.814  1.00  0.00    -0.460 OA
BRANCH   6   7
ATOM      7  C   UNL A   1      39.913  35.208  35.490  1.00  0.00     0.338 C 
ATOM      8  O   UNL A   1      40.726  35.986  35.020  1.00  0.00    -0.246 OA
BRANCH   7   9
ATOM      9  C   UNL A   1      39.512  35.148  36.918  1.00  0.00     0.062 A 
ATOM     10  C   UNL A   1      39.741  35.939  39.213  1.00  0.00     0.052 A 
ATOM     11  C   UNL A   1      38.979  34.834  39.634  1.00  0.00     0.027 A 
ATOM     12  C   UNL A   1      39.997  36.085  37.843  1.00  0.00     0.042 A 
ATOM     13  C   UNL A   1      38.494  33.897  38.713  1.00  0.00     0.003 A 
ATOM     14  C   UNL A   1      38.752  34.058  37.355  1.00  0.00     0.016 A 
BRANCH  10  15
ATOM     15  N   UNL A   1      40.200  36.931  40.158  1.00  0.00    -0.251 N 
ATOM     16  C   UNL A   1      39.492  40.397  41.104  1.00  0.00     0.031 C 
ATOM     17  C   UNL A   1      39.933  39.122  41.236  1.00  0.00     0.103 C 
ATOM     18  C   UNL A   1      39.483  38.141  40.197  1.00  0.00     0.270 C 
ATOM     19  C   UNL A   1      40.742  38.504  42.280  1.00  0.00     0.226 C 
ATOM     20  O   UNL A   1      38.495  38.392  39.503  1.00  0.00    -0.268 OA
ATOM     21  N   UNL A   1      41.352  37.384  42.208  1.00  0.00    -0.184 NA
ATOM     22  C   UNL A   1      41.272  36.666  41.039  1.00  0.00     0.210 C 
ATOM     23  S   UNL A   1      42.498  35.518  40.752  1.00  0.00    -0.038 S 
BRANCH  16  24
ATOM     24  C   UNL A   1      39.640  41.597  41.967  1.00  0.00     0.021 A 
ATOM     25  C   UNL A   1      40.747  42.479  41.796  1.00  0.00     0.130 A 
ATOM     26  C   UNL A   1      40.793  43.730  42.423  1.00  0.00     0.097 A 
ATOM     27  C   UNL A   1      39.791  44.039  43.306  1.00  0.00     0.169 A 
ATOM     28  C   UNL A   1      38.713  41.911  42.971  1.00  0.00     0.062 A 
ATOM     29  C   UNL A   1      38.792  43.143  43.591  1.00  0.00     0.166 A 
ATOM     30  O   UNL A   1      39.661  45.205  43.989  1.00  0.00    -0.453 OA
ATOM     31  O   UNL A   1      37.903  43.634  44.497  1.00  0.00    -0.454 OA
ATOM     32  C   UNL A   1      38.457  44.944  44.738  1.00  0.00     0.468 C 
BRANCH  25  33
ATOM     33  O   UNL A   1      41.787  42.166  40.950  1.00  0.00    -0.493 OA
BRANCH  33  34
ATOM     34  C   UNL A   1      42.777  43.219  40.921  1.00  0.00     0.226 C 
ATOM     35  C   UNL A   1      44.179  42.710  41.237  1.00  0.00     0.049 C 
ENDBRANCH  33  34
ENDBRANCH  25  33
ENDBRANCH  16  24
BRANCH  19  36
ATOM     36  O   UNL A   1      40.804  39.118  43.460  1.00  0.00    -0.493 OA
ATOM     37  H   UNL A   1      40.023  39.444  43.861  1.00  0.00     0.295 HD
ENDBRANCH  19  36
ENDBRANCH  10  15
ENDBRANCH   7   9
ENDBRANCH   6   7
ENDBRANCH   5   6
ENDBRANCH   4   5
ENDBRANCH   3   4
ENDBRANCH   2   3
ENDBRANCH   1   2
BRANCH   1  38
ATOM     38  O   UNL A   1      34.531  36.375  32.980  1.00  0.00    -0.377 OA
BRANCH  38  39
ATOM     39  C   UNL A   1      33.764  36.806  31.855  1.00  0.00     0.188 C 
BRANCH  39  40
ATOM     40  C   UNL A   1      32.425  36.147  31.437  1.00  0.00     0.188 C 
BRANCH  40  41
ATOM     41  O   UNL A   1      32.372  35.671  30.098  1.00  0.00    -0.376 OA
BRANCH  41  42
ATOM     42  C   UNL A   1      33.557  35.761  29.324  1.00  0.00     0.202 C 
BRANCH  42  43
ATOM     43  C   UNL A   1      33.979  34.458  28.636  1.00  0.00     0.261 C 
BRANCH  43  44
ATOM     44  O   UNL A   1      35.200  33.885  29.126  1.00  0.00    -0.460 OA
BRANCH  44  45
ATOM     45  C   UNL A   1      35.083  32.987  30.130  1.00  0.00     0.338 C 
ATOM     46  O   UNL A   1      34.101  32.782  30.821  1.00  0.00    -0.246 OA
BRANCH  45  47
ATOM     47  C   UNL A   1      36.293  32.145  30.133  1.00  0.00     0.060 A 
ATOM     48  C   UNL A   1      36.269  30.942  30.849  1.00  0.00     0.016 A 
ATOM     49  C   UNL A   1      37.444  32.545  29.448  1.00  0.00     0.016 A 
ATOM     50  C   UNL A   1      37.421  30.164  30.932  1.00  0.00     0.010 A 
ATOM     51  C   UNL A   1      38.600  31.769  29.543  1.00  0.00     0.010 A 
ATOM     52  C   UNL A   1      38.606  30.601  30.325  1.00  0.00    -0.014 A 
BRANCH  52  53
ATOM     53  C   UNL A   1      39.878  29.927  30.675  1.00  0.00     0.031 A 
ATOM     54  C   UNL A   1      40.598  30.351  31.926  1.00  0.00     0.074 A 
ATOM     55  C   UNL A   1      40.365  28.927  29.919  1.00  0.00     0.049 A 
ATOM     56  N   UNL A   1      41.676  29.851  32.470  1.00  0.00    -0.248 NA
ATOM     57  C   UNL A   1      40.026  31.492  32.662  1.00  0.00     0.031 C 
ATOM     58  C   UNL A   1      39.769  28.439  28.678  1.00  0.00     0.029 A 
ATOM     59  N   UNL A   1      41.485  28.152  30.085  1.00  0.00    -0.354 N 
ATOM     60  C   UNL A   1      41.926  30.628  33.595  1.00  0.00     0.074 A 
ATOM     61  C   UNL A   1      40.899  31.644  33.647  1.00  0.00     0.031 C 
ATOM     62  C   UNL A   1      40.541  27.458  28.182  1.00  0.00     0.029 A 
ATOM     63  C   UNL A   1      41.690  27.257  29.063  1.00  0.00     0.049 A 
ATOM     64  H   UNL A   1      42.085  28.231  30.862  1.00  0.00     0.167 HD
ATOM     65  C   UNL A   1      42.912  30.497  34.513  1.00  0.00     0.034 A 
ATOM     66  C   UNL A   1      42.696  26.382  28.859  1.00  0.00     0.034 A 
ATOM     67  C   UNL A   1      43.925  29.478  34.468  1.00  0.00     0.049 A 
ATOM     68  C   UNL A   1      43.778  26.249  29.900  1.00  0.00     0.074 A 
ATOM     69  C   UNL A   1      44.931  29.225  35.381  1.00  0.00     0.029 A 
ATOM     70  N   UNL A   1      44.074  28.558  33.442  1.00  0.00    -0.354 N 
ATOM     71  N   UNL A   1      43.922  26.897  31.030  1.00  0.00    -0.248 NA
ATOM     72  C   UNL A   1      44.811  25.231  29.658  1.00  0.00     0.031 C 
ATOM     73  C   UNL A   1      45.714  28.175  34.889  1.00  0.00     0.029 A 
ATOM     74  C   UNL A   1      45.166  27.745  33.691  1.00  0.00     0.049 A 
ATOM     75  H   UNL A   1      43.490  28.493  32.653  1.00  0.00     0.167 HD
ATOM     76  C   UNL A   1      45.034  26.341  31.653  1.00  0.00     0.074 A 
ATOM     77  C   UNL A   1      45.516  25.289  30.780  1.00  0.00     0.031 C 
ATOM     78  C   UNL A   1      45.609  26.672  32.837  1.00  0.00     0.034 A 
BRANCH  65  79
ATOM     79  C   UNL A   1      42.937  31.481  35.655  1.00  0.00     0.023 A 
ATOM     80  C   UNL A   1      42.228  31.201  36.841  1.00  0.00     0.012 A 
ATOM     81  C   UNL A   1      43.696  32.664  35.566  1.00  0.00     0.148 A 
ATOM     82  C   UNL A   1      42.247  32.100  37.907  1.00  0.00     0.002 A 
ATOM     83  C   UNL A   1      43.749  33.531  36.650  1.00  0.00     0.091 A 
ATOM     84  F   UNL A   1      44.341  32.925  34.420  1.00  0.00    -0.205 F 
ATOM     85  C   UNL A   1      43.015  33.258  37.816  1.00  0.00     0.022 A 
BRANCH  83  86
ATOM     86  S   UNL A   1      44.776  35.004  36.658  1.00  0.00     0.127 S 
ATOM     87  O   UNL A   1      46.042  34.485  36.145  1.00  0.00    -0.237 OA
ATOM     88  O   UNL A   1      44.059  35.883  35.733  1.00  0.00    -0.237 OA
ATOM     89  O   UNL A   1      44.802  35.468  38.038  1.00  0.00    -0.744 OA
ENDBRANCH  83  86
ENDBRANCH  65  79
BRANCH  66  90
ATOM     90  C   UNL A   1      42.699  25.534  27.635  1.00  0.00     0.023 A 
ATOM     91  C   UNL A   1      43.289  26.012  26.449  1.00  0.00     0.012 A 
ATOM     92  C   UNL A   1      42.142  24.240  27.652  1.00  0.00     0.148 A 
ATOM     93  C   UNL A   1      43.299  25.228  25.295  1.00  0.00     0.002 A 
ATOM     94  C   UNL A   1      42.207  23.442  26.516  1.00  0.00     0.091 A 
ATOM     95  F   UNL A   1      41.572  23.810  28.787  1.00  0.00    -0.205 F 
ATOM     96  C   UNL A   1      42.768  23.940  25.331  1.00  0.00     0.022 A 
BRANCH  94  97
ATOM     97  S   UNL A   1      41.668  21.728  26.511  1.00  0.00     0.127 S 
ATOM     98  O   UNL A   1      42.153  21.258  27.806  1.00  0.00    -0.237 OA
ATOM     99  O   UNL A   1      40.215  21.870  26.412  1.00  0.00    -0.237 OA
ATOM    100  O   UNL A   1      42.292  21.118  25.346  1.00  0.00    -0.744 OA
ENDBRANCH  94  97
ENDBRANCH  66  90
BRANCH  78 101
ATOM    101  C   UNL A   1      46.797  25.861  33.292  1.00  0.00     0.023 A 
ATOM    102  C   UNL A   1      48.105  26.281  32.979  1.00  0.00     0.012 A 
ATOM    103  C   UNL A   1      46.613  24.714  34.090  1.00  0.00     0.148 A 
ATOM    104  C   UNL A   1      49.208  25.549  33.418  1.00  0.00     0.002 A 
ATOM    105  C   UNL A   1      47.718  24.020  34.568  1.00  0.00     0.091 A 
ATOM    106  F   UNL A   1      45.361  24.318  34.364  1.00  0.00    -0.205 F 
ATOM    107  C   UNL A   1      49.016  24.426  34.219  1.00  0.00     0.022 A 
BRANCH 105 108
ATOM    108  S   UNL A   1      47.564  22.624  35.688  1.00  0.00     0.127 S 
ATOM    109  O   UNL A   1      46.287  22.047  35.271  1.00  0.00    -0.237 OA
ATOM    110  O   UNL A   1      48.738  21.819  35.345  1.00  0.00    -0.237 OA
ATOM    111  O   UNL A   1      47.591  23.184  37.032  1.00  0.00    -0.744 OA
ENDBRANCH 105 108
ENDBRANCH  78 101
ENDBRANCH  52  53
ENDBRANCH  45  47
ENDBRANCH  44  45
ENDBRANCH  43  44
ENDBRANCH  42  43
ENDBRANCH  41  42
ENDBRANCH  40  41
ENDBRANCH  39  40
ENDBRANCH  38  39
ENDBRANCH   1  38
TORSDOF 28
ENDMDL
MODEL 2
REMARK VINA RESULT:      -7.8      3.365      4.875
REMARK SMILES CCOc1cc2c(cc1/C=C1/C(=O)N(c3cccc(C(=O)OCCOCCOCCOCCOC(=O)c4ccc(-c5c6nc(c(-c7cccc(S(=O)(=O)[O-])c7F)c7ccc([nH]7)c(-c7cccc(S(=O)(=O)[O-])c7F)c7nc(c(-c8cccc(S(=O)(=O)[O-])c8F)c8ccc5[nH]8)C=C7)C=C6)cc4)c3)C(=S)N=C1O)OCO2
REMARK SMILES IDX 27 1 26 2 25 3 24 4 23 5 22 6 20 7 21 8 19 9 15 10 16 11
REMARK SMILES IDX 100 12 17 13 18 14 14 15 10 16 11 17 12 18 104 19 13 20
REMARK SMILES IDX 103 21 101 22 102 23 9 24 4 25 5 26 6 27 8 28 7 29 108 30
REMARK SMILES IDX 106 31 107 32 3 33 2 34 1 35 105 36 28 38 29 39 30 40 31 41
REMARK SMILES IDX 32 42 33 43 34 44 35 45 36 46 37 47 38 48 99 49 39 50 98 51
REMARK SMILES IDX 40 52 41 53 42 54 92 55 43 56 97 57 91 58 93 59 44 60 96 61
REMARK SMILES IDX 90 62 89 63 45 65 77 66 57 67 76 68 58 69 61 70 75 71 94 72
REMARK SMILES IDX 59 73 60 74 74 76 95 77 62 78 46 79 47 80 55 81 48 82 50 83
REMARK SMILES IDX 56 84 49 85 51 86 52 87 53 88 54 89 78 90 79 91 87 92 80 93
REMARK SMILES IDX 82 94 88 95 81 96 83 97 84 98 85 99 86 100 63 101 64 102
REMARK SMILES IDX 72 103 65 104 67 105 73 106 66 107 68 108 69 109 70 110
REMARK SMILES IDX 71 111
REMARK H PARENT 105 37 93 64 61 75
REMARK Flexibility Score: inf
ROOT
ATOM      1  C   UNL A   1      35.769  34.100  33.684  1.00  0.00     0.188 C 
ENDROOT
BRANCH   1   2
ATOM      2  C   UNL A   1      37.149  33.465  33.932  1.00  0.00     0.188 C 
BRANCH   2   3
ATOM      3  O   UNL A   1      38.011  33.541  32.807  1.00  0.00    -0.376 OA
BRANCH   3   4
ATOM      4  C   UNL A   1      38.946  34.603  32.727  1.00  0.00     0.202 C 
BRANCH   4   5
ATOM      5  C   UNL A   1      40.176  34.622  33.650  1.00  0.00     0.261 C 
BRANCH   5   6
ATOM      6  O   UNL A   1      39.957  34.213  35.003  1.00  0.00    -0.460 OA
BRANCH   6   7
ATOM      7  C   UNL A   1      39.879  35.156  35.963  1.00  0.00     0.338 C 
ATOM      8  O   UNL A   1      39.560  36.325  35.824  1.00  0.00    -0.246 OA
BRANCH   7   9
ATOM      9  C   UNL A   1      39.993  34.449  37.264  1.00  0.00     0.062 A 
ATOM     10  C   UNL A   1      39.290  34.156  39.580  1.00  0.00     0.052 A 
ATOM     11  C   UNL A   1      40.412  33.331  39.780  1.00  0.00     0.027 A 
ATOM     12  C   UNL A   1      39.092  34.708  38.306  1.00  0.00     0.042 A 
ATOM     13  C   UNL A   1      41.314  33.072  38.741  1.00  0.00     0.003 A 
ATOM     14  C   UNL A   1      41.100  33.623  37.480  1.00  0.00     0.016 A 
BRANCH  10  15
ATOM     15  N   UNL A   1      38.334  34.384  40.639  1.00  0.00    -0.251 N 
ATOM     16  C   UNL A   1      35.146  33.037  41.835  1.00  0.00     0.031 C 
ATOM     17  C   UNL A   1      36.336  33.684  41.885  1.00  0.00     0.103 C 
ATOM     18  C   UNL A   1      37.271  33.467  40.734  1.00  0.00     0.270 C 
ATOM     19  C   UNL A   1      36.911  34.529  42.925  1.00  0.00     0.226 C 
ATOM     20  O   UNL A   1      37.121  32.491  39.997  1.00  0.00    -0.268 OA
ATOM     21  N   UNL A   1      37.901  35.327  42.798  1.00  0.00    -0.184 NA
ATOM     22  C   UNL A   1      38.503  35.437  41.566  1.00  0.00     0.210 C 
ATOM     23  S   UNL A   1      39.395  36.856  41.267  1.00  0.00    -0.038 S 
BRANCH  16  24
ATOM     24  C   UNL A   1      34.030  32.928  42.809  1.00  0.00     0.021 A 
ATOM     25  C   UNL A   1      34.038  31.912  43.808  1.00  0.00     0.130 A 
ATOM     26  C   UNL A   1      33.132  31.924  44.876  1.00  0.00     0.097 A 
ATOM     27  C   UNL A   1      32.154  32.885  44.871  1.00  0.00     0.169 A 
ATOM     28  C   UNL A   1      32.936  33.806  42.789  1.00  0.00     0.062 A 
ATOM     29  C   UNL A   1      32.044  33.785  43.843  1.00  0.00     0.166 A 
ATOM     30  O   UNL A   1      31.206  33.062  45.828  1.00  0.00    -0.453 OA
ATOM     31  O   UNL A   1      31.006  34.646  44.021  1.00  0.00    -0.454 OA
ATOM     32  C   UNL A   1      30.485  34.185  45.285  1.00  0.00     0.468 C 
BRANCH  25  33
ATOM     33  O   UNL A   1      34.982  30.910  43.803  1.00  0.00    -0.493 OA
BRANCH  33  34
ATOM     34  C   UNL A   1      35.815  30.966  44.983  1.00  0.00     0.226 C 
ATOM     35  C   UNL A   1      37.299  31.057  44.646  1.00  0.00     0.049 C 
ENDBRANCH  33  34
ENDBRANCH  25  33
ENDBRANCH  16  24
BRANCH  19  36
ATOM     36  O   UNL A   1      36.415  34.420  44.156  1.00  0.00    -0.493 OA
ATOM     37  H   UNL A   1      36.343  33.577  44.559  1.00  0.00     0.295 HD
ENDBRANCH  19  36
ENDBRANCH  10  15
ENDBRANCH   7   9
ENDBRANCH   6   7
ENDBRANCH   5   6
ENDBRANCH   4   5
ENDBRANCH   3   4
ENDBRANCH   2   3
ENDBRANCH   1   2
BRANCH   1  38
ATOM     38  O   UNL A   1      35.796  35.477  33.353  1.00  0.00    -0.377 OA
BRANCH  38  39
ATOM     39  C   UNL A   1      34.734  36.026  32.571  1.00  0.00     0.188 C 
BRANCH  39  40
ATOM     40  C   UNL A   1      33.324  35.390  32.488  1.00  0.00     0.188 C 
BRANCH  40  41
ATOM     41  O   UNL A   1      32.979  34.832  31.226  1.00  0.00    -0.376 OA
BRANCH  41  42
ATOM     42  C   UNL A   1      33.791  35.176  30.116  1.00  0.00     0.202 C 
BRANCH  42  43
ATOM     43  C   UNL A   1      34.382  33.985  29.353  1.00  0.00     0.261 C 
BRANCH  43  44
ATOM     44  O   UNL A   1      35.583  33.441  29.919  1.00  0.00    -0.460 OA
BRANCH  44  45
ATOM     45  C   UNL A   1      35.446  32.316  30.655  1.00  0.00     0.338 C 
ATOM     46  O   UNL A   1      34.441  31.929  31.225  1.00  0.00    -0.246 OA
BRANCH  45  47
ATOM     47  C   UNL A   1      36.675  31.517  30.501  1.00  0.00     0.060 A 
ATOM     48  C   UNL A   1      36.882  30.435  31.365  1.00  0.00     0.016 A 
ATOM     49  C   UNL A   1      37.620  31.840  29.523  1.00  0.00     0.016 A 
ATOM     50  C   UNL A   1      38.068  29.709  31.292  1.00  0.00     0.010 A 
ATOM     51  C   UNL A   1      38.813  31.118  29.460  1.00  0.00     0.010 A 
ATOM     52  C   UNL A   1      39.061  30.081  30.376  1.00  0.00    -0.014 A 
BRANCH  52  53
ATOM     53  C   UNL A   1      40.417  29.502  30.518  1.00  0.00     0.031 A 
ATOM     54  C   UNL A   1      41.355  30.102  31.530  1.00  0.00     0.074 A 
ATOM     55  C   UNL A   1      40.796  28.435  29.793  1.00  0.00     0.049 A 
ATOM     56  N   UNL A   1      42.551  29.712  31.883  1.00  0.00    -0.248 NA
ATOM     57  C   UNL A   1      40.880  31.303  32.239  1.00  0.00     0.031 C 
ATOM     58  C   UNL A   1      39.985  27.777  28.772  1.00  0.00     0.029 A 
ATOM     59  N   UNL A   1      41.971  27.727  29.801  1.00  0.00    -0.354 N 
ATOM     60  C   UNL A   1      42.983  30.629  32.833  1.00  0.00     0.074 A 
ATOM     61  C   UNL A   1      41.929  31.606  32.990  1.00  0.00     0.031 C 
ATOM     62  C   UNL A   1      40.695  26.770  28.235  1.00  0.00     0.029 A 
ATOM     63  C   UNL A   1      42.013  26.721  28.866  1.00  0.00     0.049 A 
ATOM     64  H   UNL A   1      42.714  27.922  30.417  1.00  0.00     0.167 HD
ATOM     65  C   UNL A   1      44.145  30.648  33.527  1.00  0.00     0.034 A 
ATOM     66  C   UNL A   1      43.006  25.865  28.551  1.00  0.00     0.034 A 
ATOM     67  C   UNL A   1      45.187  29.668  33.380  1.00  0.00     0.049 A 
ATOM     68  C   UNL A   1      44.287  25.899  29.343  1.00  0.00     0.074 A 
ATOM     69  C   UNL A   1      46.375  29.566  34.079  1.00  0.00     0.029 A 
ATOM     70  N   UNL A   1      45.175  28.635  32.457  1.00  0.00    -0.354 N 
ATOM     71  N   UNL A   1      44.625  26.686  30.336  1.00  0.00    -0.248 NA
ATOM     72  C   UNL A   1      45.308  24.897  29.001  1.00  0.00     0.031 C 
ATOM     73  C   UNL A   1      47.100  28.492  33.552  1.00  0.00     0.029 A 
ATOM     74  C   UNL A   1      46.342  27.898  32.555  1.00  0.00     0.049 A 
ATOM     75  H   UNL A   1      44.443  28.453  31.823  1.00  0.00     0.167 HD
ATOM     76  C   UNL A   1      45.874  26.251  30.764  1.00  0.00     0.074 A 
ATOM     77  C   UNL A   1      46.226  25.118  29.932  1.00  0.00     0.031 C 
ATOM     78  C   UNL A   1      46.662  26.746  31.752  1.00  0.00     0.034 A 
BRANCH  65  79
ATOM     79  C   UNL A   1      44.347  31.765  34.519  1.00  0.00     0.023 A 
ATOM     80  C   UNL A   1      44.113  31.540  35.891  1.00  0.00     0.012 A 
ATOM     81  C   UNL A   1      44.809  33.026  34.095  1.00  0.00     0.148 A 
ATOM     82  C   UNL A   1      44.301  32.563  36.820  1.00  0.00     0.002 A 
ATOM     83  C   UNL A   1      45.041  34.025  35.031  1.00  0.00     0.091 A 
ATOM     84  F   UNL A   1      45.000  33.229  32.783  1.00  0.00    -0.205 F 
ATOM     85  C   UNL A   1      44.775  33.800  36.392  1.00  0.00     0.022 A 
BRANCH  83  86
ATOM     86  S   UNL A   1      45.729  35.624  34.588  1.00  0.00     0.127 S 
ATOM     87  O   UNL A   1      44.723  36.129  33.655  1.00  0.00    -0.237 OA
ATOM     88  O   UNL A   1      45.762  36.312  35.879  1.00  0.00    -0.237 OA
ATOM     89  O   UNL A   1      47.037  35.352  34.010  1.00  0.00    -0.744 OA
ENDBRANCH  83  86
ENDBRANCH  65  79
BRANCH  66  90
ATOM     90  C   UNL A   1      42.805  24.873  27.457  1.00  0.00     0.023 A 
ATOM     91  C   UNL A   1      43.194  25.188  26.141  1.00  0.00     0.012 A 
ATOM     92  C   UNL A   1      42.255  23.604  27.726  1.00  0.00     0.148 A 
ATOM     93  C   UNL A   1      43.011  24.268  25.107  1.00  0.00     0.002 A 
ATOM     94  C   UNL A   1      42.130  22.672  26.703  1.00  0.00     0.091 A 
ATOM     95  F   UNL A   1      41.877  23.330  28.983  1.00  0.00    -0.205 F 
ATOM     96  C   UNL A   1      42.490  23.008  25.390  1.00  0.00     0.022 A 
BRANCH  94  97
ATOM     97  S   UNL A   1      41.592  20.983  27.000  1.00  0.00     0.127 S 
ATOM     98  O   UNL A   1      40.355  21.189  27.747  1.00  0.00    -0.237 OA
ATOM     99  O   UNL A   1      41.413  20.482  25.637  1.00  0.00    -0.237 OA
ATOM    100  O   UNL A   1      42.674  20.344  27.736  1.00  0.00    -0.744 OA
ENDBRANCH  94  97
ENDBRANCH  66  90
BRANCH  78 101
ATOM    101  C   UNL A   1      47.966  26.040  32.030  1.00  0.00     0.023 A 
ATOM    102  C   UNL A   1      49.132  26.401  31.327  1.00  0.00     0.012 A 
ATOM    103  C   UNL A   1      48.045  25.061  33.040  1.00  0.00     0.148 A 
ATOM    104  C   UNL A   1      50.346  25.769  31.596  1.00  0.00     0.002 A 
ATOM    105  C   UNL A   1      49.269  24.474  33.340  1.00  0.00     0.091 A 
ATOM    106  F   UNL A   1      46.923  24.716  33.688  1.00  0.00    -0.205 F 
ATOM    107  C   UNL A   1      50.417  24.815  32.607  1.00  0.00     0.022 A 
BRANCH 105 108
ATOM    108  S   UNL A   1      49.470  23.310  34.694  1.00  0.00     0.127 S 
ATOM    109  O   UNL A   1      50.914  23.083  34.680  1.00  0.00    -0.237 OA
ATOM    110  O   UNL A   1      48.985  24.081  35.840  1.00  0.00    -0.237 OA
ATOM    111  O   UNL A   1      48.649  22.156  34.354  1.00  0.00    -0.744 OA
ENDBRANCH 105 108
ENDBRANCH  78 101
ENDBRANCH  52  53
ENDBRANCH  45  47
ENDBRANCH  44  45
ENDBRANCH  43  44
ENDBRANCH  42  43
ENDBRANCH  41  42
ENDBRANCH  40  41
ENDBRANCH  39  40
ENDBRANCH  38  39
ENDBRANCH   1  38
TORSDOF 28
ENDMDL
MODEL 3
REMARK VINA RESULT:      -6.4      4.432     11.506
REMARK SMILES CCOc1cc2c(cc1/C=C1/C(=O)N(c3cccc(C(=O)OCCOCCOCCOCCOC(=O)c4ccc(-c5c6nc(c(-c7cccc(S(=O)(=O)[O-])c7F)c7ccc([nH]7)c(-c7cccc(S(=O)(=O)[O-])c7F)c7nc(c(-c8cccc(S(=O)(=O)[O-])c8F)c8ccc5[nH]8)C=C7)C=C6)cc4)c3)C(=S)N=C1O)OCO2
REMARK SMILES IDX 27 1 26 2 25 3 24 4 23 5 22 6 20 7 21 8 19 9 15 10 16 11
REMARK SMILES IDX 100 12 17 13 18 14 14 15 10 16 11 17 12 18 104 19 13 20
REMARK SMILES IDX 103 21 101 22 102 23 9 24 4 25 5 26 6 27 8 28 7 29 108 30
REMARK SMILES IDX 106 31 107 32 3 33 2 34 1 35 105 36 28 38 29 39 30 40 31 41
REMARK SMILES IDX 32 42 33 43 34 44 35 45 36 46 37 47 38 48 99 49 39 50 98 51
REMARK SMILES IDX 40 52 41 53 42 54 92 55 43 56 97 57 91 58 93 59 44 60 96 61
REMARK SMILES IDX 90 62 89 63 45 65 77 66 57 67 76 68 58 69 61 70 75 71 94 72
REMARK SMILES IDX 59 73 60 74 74 76 95 77 62 78 46 79 47 80 55 81 48 82 50 83
REMARK SMILES IDX 56 84 49 85 51 86 52 87 53 88 54 89 78 90 79 91 87 92 80 93
REMARK SMILES IDX 82 94 88 95 81 96 83 97 84 98 85 99 86 100 63 101 64 102
REMARK SMILES IDX 72 103 65 104 67 105 73 106 66 107 68 108 69 109 70 110
REMARK SMILES IDX 71 111
REMARK H PARENT 105 37 93 64 61 75
REMARK Flexibility Score: inf
ROOT
ATOM      1  C   UNL A   1      41.939  24.459  26.115  1.00  0.00     0.188 C 
ENDROOT
BRANCH   1   2
ATOM      2  C   UNL A   1      41.992  24.405  27.653  1.00  0.00     0.188 C 
BRANCH   2   3
ATOM      3  O   UNL A   1      41.167  25.377  28.276  1.00  0.00    -0.376 OA
BRANCH   3   4
ATOM      4  C   UNL A   1      39.960  25.765  27.640  1.00  0.00     0.202 C 
BRANCH   4   5
ATOM      5  C   UNL A   1      39.391  27.177  27.857  1.00  0.00     0.261 C 
BRANCH   5   6
ATOM      6  O   UNL A   1      40.255  28.114  28.507  1.00  0.00    -0.460 OA
BRANCH   6   7
ATOM      7  C   UNL A   1      39.729  29.261  28.982  1.00  0.00     0.338 C 
ATOM      8  O   UNL A   1      39.027  30.056  28.380  1.00  0.00    -0.246 OA
BRANCH   7   9
ATOM      9  C   UNL A   1      39.942  29.248  30.451  1.00  0.00     0.062 A 
ATOM     10  C   UNL A   1      39.744  30.334  32.625  1.00  0.00     0.052 A 
ATOM     11  C   UNL A   1      40.606  29.355  33.154  1.00  0.00     0.027 A 
ATOM     12  C   UNL A   1      39.417  30.263  31.264  1.00  0.00     0.042 A 
ATOM     13  C   UNL A   1      41.131  28.341  32.345  1.00  0.00     0.003 A 
ATOM     14  C   UNL A   1      40.793  28.281  30.996  1.00  0.00     0.016 A 
BRANCH  10  15
ATOM     15  N   UNL A   1      39.164  31.352  33.471  1.00  0.00    -0.251 N 
ATOM     16  C   UNL A   1      40.039  33.335  36.422  1.00  0.00     0.031 C 
ATOM     17  C   UNL A   1      39.399  33.003  35.275  1.00  0.00     0.103 C 
ATOM     18  C   UNL A   1      40.002  31.898  34.461  1.00  0.00     0.270 C 
ATOM     19  C   UNL A   1      38.225  33.592  34.641  1.00  0.00     0.226 C 
ATOM     20  O   UNL A   1      41.181  31.584  34.632  1.00  0.00    -0.268 OA
ATOM     21  N   UNL A   1      37.512  33.067  33.720  1.00  0.00    -0.184 NA
ATOM     22  C   UNL A   1      37.845  31.813  33.265  1.00  0.00     0.210 C 
ATOM     23  S   UNL A   1      36.616  30.919  32.497  1.00  0.00    -0.038 S 
BRANCH  16  24
ATOM     24  C   UNL A   1      39.806  34.414  37.417  1.00  0.00     0.021 A 
ATOM     25  C   UNL A   1      38.779  34.286  38.396  1.00  0.00     0.130 A 
ATOM     26  C   UNL A   1      38.686  35.164  39.483  1.00  0.00     0.097 A 
ATOM     27  C   UNL A   1      39.548  36.230  39.518  1.00  0.00     0.169 A 
ATOM     28  C   UNL A   1      40.574  35.587  37.436  1.00  0.00     0.062 A 
ATOM     29  C   UNL A   1      40.450  36.449  38.508  1.00  0.00     0.166 A 
ATOM     30  O   UNL A   1      39.616  37.168  40.497  1.00  0.00    -0.453 OA
ATOM     31  O   UNL A   1      41.203  37.561  38.724  1.00  0.00    -0.454 OA
ATOM     32  C   UNL A   1      40.674  38.006  39.990  1.00  0.00     0.468 C 
BRANCH  25  33
ATOM     33  O   UNL A   1      37.874  33.249  38.353  1.00  0.00    -0.493 OA
BRANCH  33  34
ATOM     34  C   UNL A   1      37.535  32.789  39.680  1.00  0.00     0.226 C 
ATOM     35  C   UNL A   1      36.108  32.260  39.768  1.00  0.00     0.049 C 
ENDBRANCH  33  34
ENDBRANCH  25  33
ENDBRANCH  16  24
BRANCH  19  36
ATOM     36  O   UNL A   1      37.890  34.833  34.991  1.00  0.00    -0.493 OA
ATOM     37  H   UNL A   1      37.043  35.169  34.773  1.00  0.00     0.295 HD
ENDBRANCH  19  36
ENDBRANCH  10  15
ENDBRANCH   7   9
ENDBRANCH   6   7
ENDBRANCH   5   6
ENDBRANCH   4   5
ENDBRANCH   3   4
ENDBRANCH   2   3
ENDBRANCH   1   2
BRANCH   1  38
ATOM     38  O   UNL A   1      43.103  23.987  25.460  1.00  0.00    -0.377 OA
BRANCH  38  39
ATOM     39  C   UNL A   1      44.075  24.928  25.003  1.00  0.00     0.188 C 
BRANCH  39  40
ATOM     40  C   UNL A   1      45.504  25.029  25.595  1.00  0.00     0.188 C 
BRANCH  40  41
ATOM     41  O   UNL A   1      45.826  26.275  26.200  1.00  0.00    -0.376 OA
BRANCH  41  42
ATOM     42  C   UNL A   1      44.781  27.222  26.344  1.00  0.00     0.202 C 
BRANCH  42  43
ATOM     43  C   UNL A   1      45.182  28.525  27.044  1.00  0.00     0.261 C 
BRANCH  43  44
ATOM     44  O   UNL A   1      44.608  29.714  26.481  1.00  0.00    -0.460 OA
BRANCH  44  45
ATOM     45  C   UNL A   1      45.397  30.812  26.462  1.00  0.00     0.338 C 
ATOM     46  O   UNL A   1      46.045  31.234  25.521  1.00  0.00    -0.246 OA
BRANCH  45  47
ATOM     47  C   UNL A   1      45.198  31.539  27.728  1.00  0.00     0.060 A 
ATOM     48  C   UNL A   1      46.317  31.819  28.522  1.00  0.00     0.016 A 
ATOM     49  C   UNL A   1      43.919  31.929  28.136  1.00  0.00     0.016 A 
ATOM     50  C   UNL A   1      46.151  32.437  29.758  1.00  0.00     0.010 A 
ATOM     51  C   UNL A   1      43.754  32.539  29.380  1.00  0.00     0.010 A 
ATOM     52  C   UNL A   1      44.864  32.751  30.217  1.00  0.00    -0.014 A 
BRANCH  52  53
ATOM     53  C   UNL A   1      44.683  33.121  31.640  1.00  0.00     0.031 A 
ATOM     54  C   UNL A   1      44.586  32.023  32.664  1.00  0.00     0.074 A 
ATOM     55  C   UNL A   1      44.648  34.409  32.023  1.00  0.00     0.049 A 
ATOM     56  N   UNL A   1      44.509  32.110  33.965  1.00  0.00    -0.248 NA
ATOM     57  C   UNL A   1      44.575  30.642  32.151  1.00  0.00     0.031 C 
ATOM     58  C   UNL A   1      44.715  35.559  31.125  1.00  0.00     0.029 A 
ATOM     59  N   UNL A   1      44.534  34.961  33.274  1.00  0.00    -0.354 N 
ATOM     60  C   UNL A   1      44.415  30.802  34.426  1.00  0.00     0.074 A 
ATOM     61  C   UNL A   1      44.426  29.941  33.265  1.00  0.00     0.031 C 
ATOM     62  C   UNL A   1      44.620  36.685  31.853  1.00  0.00     0.029 A 
ATOM     63  C   UNL A   1      44.475  36.334  33.265  1.00  0.00     0.049 A 
ATOM     64  H   UNL A   1      44.497  34.425  34.099  1.00  0.00     0.167 HD
ATOM     65  C   UNL A   1      44.342  30.356  35.702  1.00  0.00     0.034 A 
ATOM     66  C   UNL A   1      44.314  37.206  34.281  1.00  0.00     0.034 A 
ATOM     67  C   UNL A   1      44.344  31.213  36.857  1.00  0.00     0.049 A 
ATOM     68  C   UNL A   1      44.244  36.686  35.694  1.00  0.00     0.074 A 
ATOM     69  C   UNL A   1      44.335  30.857  38.192  1.00  0.00     0.029 A 
ATOM     70  N   UNL A   1      44.334  32.599  36.812  1.00  0.00    -0.354 N 
ATOM     71  N   UNL A   1      44.298  35.448  36.123  1.00  0.00    -0.248 NA
ATOM     72  C   UNL A   1      44.138  37.686  36.766  1.00  0.00     0.031 C 
ATOM     73  C   UNL A   1      44.279  32.027  38.956  1.00  0.00     0.029 A 
ATOM     74  C   UNL A   1      44.301  33.113  38.096  1.00  0.00     0.049 A 
ATOM     75  H   UNL A   1      44.347  33.137  35.987  1.00  0.00     0.167 HD
ATOM     76  C   UNL A   1      44.274  35.522  37.512  1.00  0.00     0.074 A 
ATOM     77  C   UNL A   1      44.217  36.929  37.852  1.00  0.00     0.031 C 
ATOM     78  C   UNL A   1      44.291  34.516  38.423  1.00  0.00     0.034 A 
BRANCH  65  79
ATOM     79  C   UNL A   1      44.264  28.867  35.917  1.00  0.00     0.023 A 
ATOM     80  C   UNL A   1      45.445  28.114  36.078  1.00  0.00     0.012 A 
ATOM     81  C   UNL A   1      43.016  28.219  36.000  1.00  0.00     0.148 A 
ATOM     82  C   UNL A   1      45.387  26.736  36.282  1.00  0.00     0.002 A 
ATOM     83  C   UNL A   1      42.964  26.854  36.253  1.00  0.00     0.091 A 
ATOM     84  F   UNL A   1      41.905  28.946  35.818  1.00  0.00    -0.205 F 
ATOM     85  C   UNL A   1      44.148  26.108  36.381  1.00  0.00     0.022 A 
BRANCH  83  86
ATOM     86  S   UNL A   1      41.416  25.972  36.479  1.00  0.00     0.127 S 
ATOM     87  O   UNL A   1      40.764  26.779  37.508  1.00  0.00    -0.237 OA
ATOM     88  O   UNL A   1      40.809  26.073  35.150  1.00  0.00    -0.237 OA
ATOM     89  O   UNL A   1      41.778  24.620  36.879  1.00  0.00    -0.744 OA
ENDBRANCH  83  86
ENDBRANCH  65  79
BRANCH  66  90
ATOM     90  C   UNL A   1      44.250  38.667  33.996  1.00  0.00     0.023 A 
ATOM     91  C   UNL A   1      43.031  39.257  33.612  1.00  0.00     0.012 A 
ATOM     92  C   UNL A   1      45.393  39.479  34.133  1.00  0.00     0.148 A 
ATOM     93  C   UNL A   1      42.957  40.624  33.342  1.00  0.00     0.002 A 
ATOM     94  C   UNL A   1      45.301  40.849  33.919  1.00  0.00     0.091 A 
ATOM     95  F   UNL A   1      46.548  38.895  34.484  1.00  0.00    -0.205 F 
ATOM     96  C   UNL A   1      44.088  41.421  33.506  1.00  0.00     0.022 A 
BRANCH  94  97
ATOM     97  S   UNL A   1      46.670  41.968  34.234  1.00  0.00     0.127 S 
ATOM     98  O   UNL A   1      45.982  43.246  34.397  1.00  0.00    -0.237 OA
ATOM     99  O   UNL A   1      47.236  41.412  35.463  1.00  0.00    -0.237 OA
ATOM    100  O   UNL A   1      47.543  41.866  33.072  1.00  0.00    -0.744 OA
ENDBRANCH  94  97
ENDBRANCH  66  90
BRANCH  78 101
ATOM    101  C   UNL A   1      44.298  34.893  39.883  1.00  0.00     0.023 A 
ATOM    102  C   UNL A   1      43.086  35.030  40.588  1.00  0.00     0.012 A 
ATOM    103  C   UNL A   1      45.518  35.047  40.574  1.00  0.00     0.148 A 
ATOM    104  C   UNL A   1      43.087  35.355  41.944  1.00  0.00     0.002 A 
ATOM    105  C   UNL A   1      45.511  35.318  41.937  1.00  0.00     0.091 A 
ATOM    106  F   UNL A   1      46.663  34.931  39.885  1.00  0.00    -0.205 F 
ATOM    107  C   UNL A   1      44.297  35.489  42.620  1.00  0.00     0.022 A 
BRANCH 105 108
ATOM    108  S   UNL A   1      47.022  35.406  42.905  1.00  0.00     0.127 S 
ATOM    109  O   UNL A   1      46.506  35.722  44.236  1.00  0.00    -0.237 OA
ATOM    110  O   UNL A   1      47.560  34.052  42.765  1.00  0.00    -0.237 OA
ATOM    111  O   UNL A   1      47.835  36.443  42.285  1.00  0.00    -0.744 OA
ENDBRANCH 105 108
ENDBRANCH  78 101
ENDBRANCH  52  53
ENDBRANCH  45  47
ENDBRANCH  44  45
ENDBRANCH  43  44
ENDBRANCH  42  43
ENDBRANCH  41  42
ENDBRANCH  40  41
ENDBRANCH  39  40
ENDBRANCH  38  39
ENDBRANCH   1  38
TORSDOF 28
ENDMDL
