MODEL 1
REMARK VINA RESULT:     -13.3      0.000      0.000
REMARK SMILES Cc1ccccc1N[C@H](C(=O)OCCOCCOCCOCCOC(=O)c1ccc(-c2c3nc(c(-c4cccc(S(=O)(=O)[O-])c4F)c4ccc([nH]4)c(-c4cccc(S(=O)(=O)[O-])c4F)c4nc(c(-c5cccc(S(=O)(=O)[O-])c5F)c5ccc2[nH]5)C=C4)C=C3)cc1)c1ccccc1
REMARK SMILES IDX 19 1 18 2 17 3 16 4 15 5 14 6 13 7 12 8 10 9 11 10 9 11 8 12
REMARK SMILES IDX 7 14 1 15 2 16 3 17 4 18 6 19 5 20 90 21 91 22 95 23 92 24
REMARK SMILES IDX 94 25 93 26 20 27 21 28 22 29 23 30 24 31 25 32 26 33 27 34
REMARK SMILES IDX 28 35 89 36 29 37 88 38 30 39 31 40 32 41 82 42 33 43 87 44
REMARK SMILES IDX 81 45 83 46 34 47 86 48 80 49 79 50 35 52 67 53 47 54 66 55
REMARK SMILES IDX 48 56 51 57 65 58 84 59 49 60 50 61 64 63 85 64 52 65 36 66
REMARK SMILES IDX 37 67 45 68 38 69 40 70 46 71 39 72 41 73 42 74 43 75 44 76
REMARK SMILES IDX 68 77 69 78 77 79 70 80 72 81 78 82 71 83 73 84 74 85 75 86
REMARK SMILES IDX 76 87 53 88 54 89 62 90 55 91 57 92 63 93 56 94 58 95 59 96
REMARK SMILES IDX 60 97 61 98
REMARK H PARENT 8 13 83 51 51 62
REMARK Flexibility Score: inf
ROOT
ATOM      1  C   UNL A   1      34.401  31.903  28.737  1.00  0.00     0.188 C 
ENDROOT
BRANCH   1   2
ATOM      2  O   UNL A   1      34.469  30.739  27.891  1.00  0.00    -0.377 OA
BRANCH   2   3
ATOM      3  C   UNL A   1      33.655  30.365  26.760  1.00  0.00     0.188 C 
BRANCH   3   4
ATOM      4  C   UNL A   1      32.676  29.080  26.218  1.00  0.00     0.188 C 
BRANCH   4   5
ATOM      5  O   UNL A   1      31.399  28.861  24.951  1.00  0.00    -0.376 OA
BRANCH   5   6
ATOM      6  C   UNL A   1      30.481  27.451  24.370  1.00  0.00     0.202 C 
BRANCH   6   7
ATOM      7  C   UNL A   1      29.594  26.092  25.279  1.00  0.00     0.261 C 
BRANCH   7   8
ATOM      8  O   UNL A   1      30.131  24.485  25.756  1.00  0.00    -0.461 OA
BRANCH   8   9
ATOM      9  C   UNL A   1      30.826  23.642  26.685  1.00  0.00     0.333 C 
ATOM     10  O   UNL A   1      30.346  22.968  27.619  1.00  0.00    -0.249 OA
BRANCH   9  11
ATOM     11  C   UNL A   1      32.330  23.284  26.350  1.00  0.00     0.221 C 
BRANCH  11  12
ATOM     12  N   UNL A   1      32.477  21.652  26.320  1.00  0.00    -0.368 N 
ATOM     13  H   UNL A   1      32.022  21.218  27.077  1.00  0.00     0.161 HD
BRANCH  12  14
ATOM     14  C   UNL A   1      33.096  20.735  25.472  1.00  0.00     0.038 A 
ATOM     15  C   UNL A   1      35.595  21.529  25.749  1.00  0.00     0.046 C 
ATOM     16  C   UNL A   1      34.511  20.560  25.337  1.00  0.00    -0.028 A 
ATOM     17  C   UNL A   1      35.044  19.343  24.823  1.00  0.00     0.005 A 
ATOM     18  C   UNL A   1      34.220  18.368  24.293  1.00  0.00     0.000 A 
ATOM     19  C   UNL A   1      32.325  19.823  24.744  1.00  0.00     0.026 A 
ATOM     20  C   UNL A   1      32.867  18.648  24.180  1.00  0.00     0.002 A 
ENDBRANCH  12  14
ENDBRANCH  11  12
BRANCH  11  21
ATOM     21  C   UNL A   1      32.758  24.009  25.082  1.00  0.00    -0.015 A 
ATOM     22  C   UNL A   1      33.624  25.579  25.296  1.00  0.00     0.006 A 
ATOM     23  C   UNL A   1      32.183  23.577  23.351  1.00  0.00     0.006 A 
ATOM     24  C   UNL A   1      34.003  26.624  23.924  1.00  0.00     0.000 A 
ATOM     25  C   UNL A   1      32.607  24.655  21.959  1.00  0.00     0.000 A 
ATOM     26  C   UNL A   1      33.546  26.164  22.262  1.00  0.00     0.000 A 
ENDBRANCH  11  21
ENDBRANCH   9  11
ENDBRANCH   8   9
ENDBRANCH   7   8
ENDBRANCH   6   7
ENDBRANCH   5   6
ENDBRANCH   4   5
ENDBRANCH   3   4
ENDBRANCH   2   3
ENDBRANCH   1   2
BRANCH   1  27
ATOM     27  C   UNL A   1      34.518  33.238  28.083  1.00  0.00     0.188 C 
BRANCH  27  28
ATOM     28  O   UNL A   1      33.687  34.039  28.869  1.00  0.00    -0.376 OA
BRANCH  28  29
ATOM     29  C   UNL A   1      33.460  35.342  28.436  1.00  0.00     0.202 C 
BRANCH  29  30
ATOM     30  C   UNL A   1      33.108  36.139  29.676  1.00  0.00     0.261 C 
BRANCH  30  31
ATOM     31  O   UNL A   1      32.703  35.233  30.751  1.00  0.00    -0.460 OA
BRANCH  31  32
ATOM     32  C   UNL A   1      32.863  35.674  32.056  1.00  0.00     0.338 C 
ATOM     33  O   UNL A   1      32.375  36.714  32.463  1.00  0.00    -0.246 OA
BRANCH  32  34
ATOM     34  C   UNL A   1      33.810  34.784  32.834  1.00  0.00     0.060 A 
ATOM     35  C   UNL A   1      34.784  35.228  33.747  1.00  0.00     0.016 A 
ATOM     36  C   UNL A   1      34.019  33.552  32.315  1.00  0.00     0.016 A 
ATOM     37  C   UNL A   1      36.119  34.638  33.807  1.00  0.00     0.010 A 
ATOM     38  C   UNL A   1      35.353  33.154  32.244  1.00  0.00     0.010 A 
ATOM     39  C   UNL A   1      36.562  33.712  32.868  1.00  0.00    -0.014 A 
BRANCH  39  40
ATOM     40  C   UNL A   1      38.313  33.221  32.548  1.00  0.00     0.031 A 
ATOM     41  C   UNL A   1      38.947  32.068  31.045  1.00  0.00     0.074 A 
ATOM     42  C   UNL A   1      39.075  33.575  33.653  1.00  0.00     0.049 A 
ATOM     43  N   UNL A   1      39.780  31.018  31.086  1.00  0.00    -0.248 NA
ATOM     44  C   UNL A   1      38.263  31.706  29.580  1.00  0.00     0.031 C 
ATOM     45  C   UNL A   1      40.084  34.612  33.616  1.00  0.00     0.029 A 
ATOM     46  N   UNL A   1      39.074  33.272  35.030  1.00  0.00    -0.354 N 
ATOM     47  C   UNL A   1      39.669  30.066  30.094  1.00  0.00     0.074 A 
ATOM     48  C   UNL A   1      38.623  30.476  29.248  1.00  0.00     0.031 C 
ATOM     49  C   UNL A   1      40.576  34.874  34.839  1.00  0.00     0.029 A 
ATOM     50  C   UNL A   1      40.171  33.820  35.767  1.00  0.00     0.049 A 
ATOM     51  H   UNL A   1      38.372  32.725  35.452  1.00  0.00     0.167 HD
ATOM     52  C   UNL A   1      40.472  28.971  30.009  1.00  0.00     0.034 A 
ATOM     53  C   UNL A   1      41.239  33.225  36.627  1.00  0.00     0.034 A 
ATOM     54  C   UNL A   1      41.622  29.091  30.917  1.00  0.00     0.049 A 
ATOM     55  C   UNL A   1      42.699  31.659  36.467  1.00  0.00     0.074 A 
ATOM     56  C   UNL A   1      42.788  29.826  30.782  1.00  0.00     0.029 A 
ATOM     57  N   UNL A   1      41.571  28.709  32.257  1.00  0.00    -0.354 N 
ATOM     58  N   UNL A   1      43.281  31.050  35.277  1.00  0.00    -0.248 NA
ATOM     59  C   UNL A   1      43.389  30.540  37.467  1.00  0.00     0.031 C 
ATOM     60  C   UNL A   1      43.432  29.897  32.049  1.00  0.00     0.029 A 
ATOM     61  C   UNL A   1      42.682  29.195  32.979  1.00  0.00     0.049 A 
ATOM     62  H   UNL A   1      40.850  28.167  32.651  1.00  0.00     0.167 HD
ATOM     63  C   UNL A   1      43.345  29.675  35.348  1.00  0.00     0.074 A 
ATOM     64  C   UNL A   1      43.685  29.465  36.723  1.00  0.00     0.031 C 
ATOM     65  C   UNL A   1      42.940  28.778  34.370  1.00  0.00     0.034 A 
BRANCH  52  66
ATOM     66  C   UNL A   1      40.390  28.117  28.736  1.00  0.00     0.023 A 
ATOM     67  C   UNL A   1      39.459  27.061  28.742  1.00  0.00     0.012 A 
ATOM     68  C   UNL A   1      41.266  28.182  27.608  1.00  0.00     0.148 A 
ATOM     69  C   UNL A   1      39.454  26.066  27.756  1.00  0.00     0.002 A 
ATOM     70  C   UNL A   1      41.301  27.149  26.654  1.00  0.00     0.091 A 
ATOM     71  F   UNL A   1      42.086  29.238  27.482  1.00  0.00    -0.205 F 
ATOM     72  C   UNL A   1      40.394  26.086  26.735  1.00  0.00     0.022 A 
BRANCH  70  73
ATOM     73  S   UNL A   1      42.565  26.996  25.364  1.00  0.00     0.127 S 
ATOM     74  O   UNL A   1      43.805  26.932  26.145  1.00  0.00    -0.237 OA
ATOM     75  O   UNL A   1      42.206  25.740  24.709  1.00  0.00    -0.237 OA
ATOM     76  O   UNL A   1      42.446  28.193  24.543  1.00  0.00    -0.744 OA
ENDBRANCH  70  73
ENDBRANCH  52  66
BRANCH  53  77
ATOM     77  C   UNL A   1      40.473  34.070  37.910  1.00  0.00     0.023 A 
ATOM     78  C   UNL A   1      39.692  33.275  38.802  1.00  0.00     0.012 A 
ATOM     79  C   UNL A   1      41.197  35.159  38.490  1.00  0.00     0.148 A 
ATOM     80  C   UNL A   1      39.867  33.384  40.196  1.00  0.00     0.002 A 
ATOM     81  C   UNL A   1      41.377  35.233  39.866  1.00  0.00     0.091 A 
ATOM     82  F   UNL A   1      41.913  35.976  37.712  1.00  0.00    -0.205 F 
ATOM     83  C   UNL A   1      40.754  34.321  40.722  1.00  0.00     0.022 A 
BRANCH  81  84
ATOM     84  S   UNL A   1      42.762  36.178  40.502  1.00  0.00     0.127 S 
ATOM     85  O   UNL A   1      42.403  37.557  40.188  1.00  0.00    -0.237 OA
ATOM     86  O   UNL A   1      42.658  35.822  41.907  1.00  0.00    -0.237 OA
ATOM     87  O   UNL A   1      43.943  35.678  39.815  1.00  0.00    -0.744 OA
ENDBRANCH  81  84
ENDBRANCH  53  77
BRANCH  65  88
ATOM     88  C   UNL A   1      42.777  27.301  34.706  1.00  0.00     0.023 A 
ATOM     89  C   UNL A   1      41.634  26.836  35.385  1.00  0.00     0.012 A 
ATOM     90  C   UNL A   1      43.722  26.328  34.299  1.00  0.00     0.148 A 
ATOM     91  C   UNL A   1      41.541  25.525  35.848  1.00  0.00     0.002 A 
ATOM     92  C   UNL A   1      43.558  24.991  34.653  1.00  0.00     0.091 A 
ATOM     93  F   UNL A   1      44.800  26.696  33.593  1.00  0.00    -0.205 F 
ATOM     94  C   UNL A   1      42.511  24.602  35.492  1.00  0.00     0.022 A 
BRANCH  92  95
ATOM     95  S   UNL A   1      44.608  23.705  33.966  1.00  0.00     0.127 S 
ATOM     96  O   UNL A   1      44.048  22.500  34.574  1.00  0.00    -0.237 OA
ATOM     97  O   UNL A   1      44.360  23.833  32.529  1.00  0.00    -0.237 OA
ATOM     98  O   UNL A   1      45.957  24.071  34.373  1.00  0.00    -0.744 OA
ENDBRANCH  92  95
ENDBRANCH  65  88
ENDBRANCH  39  40
ENDBRANCH  32  34
ENDBRANCH  31  32
ENDBRANCH  30  31
ENDBRANCH  29  30
ENDBRANCH  28  29
ENDBRANCH  27  28
ENDBRANCH   1  27
TORSDOF 26
ENDMDL
MODEL 2
REMARK VINA RESULT:     -13.0      1.331      2.090
REMARK SMILES Cc1ccccc1N[C@H](C(=O)OCCOCCOCCOCCOC(=O)c1ccc(-c2c3nc(c(-c4cccc(S(=O)(=O)[O-])c4F)c4ccc([nH]4)c(-c4cccc(S(=O)(=O)[O-])c4F)c4nc(c(-c5cccc(S(=O)(=O)[O-])c5F)c5ccc2[nH]5)C=C4)C=C3)cc1)c1ccccc1
REMARK SMILES IDX 19 1 18 2 17 3 16 4 15 5 14 6 13 7 12 8 10 9 11 10 9 11 8 12
REMARK SMILES IDX 7 14 1 15 2 16 3 17 4 18 6 19 5 20 90 21 91 22 95 23 92 24
REMARK SMILES IDX 94 25 93 26 20 27 21 28 22 29 23 30 24 31 25 32 26 33 27 34
REMARK SMILES IDX 28 35 89 36 29 37 88 38 30 39 31 40 32 41 82 42 33 43 87 44
REMARK SMILES IDX 81 45 83 46 34 47 86 48 80 49 79 50 35 52 67 53 47 54 66 55
REMARK SMILES IDX 48 56 51 57 65 58 84 59 49 60 50 61 64 63 85 64 52 65 36 66
REMARK SMILES IDX 37 67 45 68 38 69 40 70 46 71 39 72 41 73 42 74 43 75 44 76
REMARK SMILES IDX 68 77 69 78 77 79 70 80 72 81 78 82 71 83 73 84 74 85 75 86
REMARK SMILES IDX 76 87 53 88 54 89 62 90 55 91 57 92 63 93 56 94 58 95 59 96
REMARK SMILES IDX 60 97 61 98
REMARK H PARENT 8 13 83 51 51 62
REMARK Flexibility Score: inf
ROOT
ATOM      1  C   UNL A   1      35.192  32.109  28.640  1.00  0.00     0.188 C 
ENDROOT
BRANCH   1   2
ATOM      2  O   UNL A   1      34.361  31.064  28.097  1.00  0.00    -0.377 OA
BRANCH   2   3
ATOM      3  C   UNL A   1      33.158  31.153  27.307  1.00  0.00     0.188 C 
BRANCH   3   4
ATOM      4  C   UNL A   1      32.018  30.147  26.538  1.00  0.00     0.188 C 
BRANCH   4   5
ATOM      5  O   UNL A   1      31.288  30.035  24.883  1.00  0.00    -0.376 OA
BRANCH   5   6
ATOM      6  C   UNL A   1      31.557  28.952  23.496  1.00  0.00     0.202 C 
BRANCH   6   7
ATOM      7  C   UNL A   1      33.117  28.317  22.707  1.00  0.00     0.261 C 
BRANCH   7   8
ATOM      8  O   UNL A   1      33.475  26.769  21.948  1.00  0.00    -0.461 OA
BRANCH   8   9
ATOM      9  C   UNL A   1      33.010  25.568  21.317  1.00  0.00     0.333 C 
ATOM     10  O   UNL A   1      33.125  25.235  20.121  1.00  0.00    -0.249 OA
BRANCH   9  11
ATOM     11  C   UNL A   1      32.541  24.391  22.264  1.00  0.00     0.221 C 
BRANCH  11  12
ATOM     12  N   UNL A   1      33.752  23.291  22.357  1.00  0.00    -0.368 N 
ATOM     13  H   UNL A   1      34.267  23.224  21.520  1.00  0.00     0.161 HD
BRANCH  12  14
ATOM     14  C   UNL A   1      34.224  22.427  23.344  1.00  0.00     0.038 A 
ATOM     15  C   UNL A   1      36.776  23.092  23.297  1.00  0.00     0.046 C 
ATOM     16  C   UNL A   1      35.547  22.446  23.895  1.00  0.00    -0.028 A 
ATOM     17  C   UNL A   1      35.807  21.869  25.170  1.00  0.00     0.005 A 
ATOM     18  C   UNL A   1      34.842  21.138  25.836  1.00  0.00     0.000 A 
ATOM     19  C   UNL A   1      33.355  21.515  23.951  1.00  0.00     0.026 A 
ATOM     20  C   UNL A   1      33.644  20.894  25.185  1.00  0.00     0.002 A 
ENDBRANCH  12  14
ENDBRANCH  11  12
BRANCH  11  21
ATOM     21  C   UNL A   1      32.064  24.961  23.591  1.00  0.00    -0.015 A 
ATOM     22  C   UNL A   1      30.321  25.419  23.699  1.00  0.00     0.006 A 
ATOM     23  C   UNL A   1      33.184  25.520  24.987  1.00  0.00     0.006 A 
ATOM     24  C   UNL A   1      29.671  26.273  25.102  1.00  0.00     0.000 A 
ATOM     25  C   UNL A   1      32.486  26.373  26.423  1.00  0.00     0.000 A 
ATOM     26  C   UNL A   1      30.717  26.715  26.477  1.00  0.00     0.000 A 
ENDBRANCH  11  21
ENDBRANCH   9  11
ENDBRANCH   8   9
ENDBRANCH   7   8
ENDBRANCH   6   7
ENDBRANCH   5   6
ENDBRANCH   4   5
ENDBRANCH   3   4
ENDBRANCH   2   3
ENDBRANCH   1   2
BRANCH   1  27
ATOM     27  C   UNL A   1      35.086  33.463  28.023  1.00  0.00     0.188 C 
BRANCH  27  28
ATOM     28  O   UNL A   1      34.278  34.151  28.930  1.00  0.00    -0.376 OA
BRANCH  28  29
ATOM     29  C   UNL A   1      33.506  35.197  28.433  1.00  0.00     0.202 C 
BRANCH  29  30
ATOM     30  C   UNL A   1      33.011  35.963  29.643  1.00  0.00     0.261 C 
BRANCH  30  31
ATOM     31  O   UNL A   1      32.833  35.049  30.771  1.00  0.00    -0.460 OA
BRANCH  31  32
ATOM     32  C   UNL A   1      32.996  35.567  32.047  1.00  0.00     0.338 C 
ATOM     33  O   UNL A   1      32.495  36.621  32.399  1.00  0.00    -0.246 OA
BRANCH  32  34
ATOM     34  C   UNL A   1      33.963  34.738  32.868  1.00  0.00     0.060 A 
ATOM     35  C   UNL A   1      34.951  35.249  33.728  1.00  0.00     0.016 A 
ATOM     36  C   UNL A   1      34.169  33.474  32.432  1.00  0.00     0.016 A 
ATOM     37  C   UNL A   1      36.290  34.671  33.804  1.00  0.00     0.010 A 
ATOM     38  C   UNL A   1      35.504  33.078  32.363  1.00  0.00     0.010 A 
ATOM     39  C   UNL A   1      36.721  33.683  32.924  1.00  0.00    -0.014 A 
BRANCH  39  40
ATOM     40  C   UNL A   1      38.469  33.179  32.605  1.00  0.00     0.031 A 
ATOM     41  C   UNL A   1      39.095  32.018  31.105  1.00  0.00     0.074 A 
ATOM     42  C   UNL A   1      39.233  33.531  33.709  1.00  0.00     0.049 A 
ATOM     43  N   UNL A   1      39.920  30.962  31.149  1.00  0.00    -0.248 NA
ATOM     44  C   UNL A   1      38.408  31.657  29.641  1.00  0.00     0.031 C 
ATOM     45  C   UNL A   1      40.249  34.561  33.669  1.00  0.00     0.029 A 
ATOM     46  N   UNL A   1      39.229  33.231  35.086  1.00  0.00    -0.354 N 
ATOM     47  C   UNL A   1      39.802  30.009  30.159  1.00  0.00     0.074 A 
ATOM     48  C   UNL A   1      38.759  30.424  29.312  1.00  0.00     0.031 C 
ATOM     49  C   UNL A   1      40.743  34.823  34.892  1.00  0.00     0.029 A 
ATOM     50  C   UNL A   1      40.330  33.774  35.823  1.00  0.00     0.049 A 
ATOM     51  H   UNL A   1      38.523  32.690  35.510  1.00  0.00     0.167 HD
ATOM     52  C   UNL A   1      40.598  28.908  30.078  1.00  0.00     0.034 A 
ATOM     53  C   UNL A   1      41.395  33.174  36.684  1.00  0.00     0.034 A 
ATOM     54  C   UNL A   1      41.748  29.022  30.986  1.00  0.00     0.049 A 
ATOM     55  C   UNL A   1      42.843  31.597  36.529  1.00  0.00     0.074 A 
ATOM     56  C   UNL A   1      42.920  29.748  30.849  1.00  0.00     0.029 A 
ATOM     57  N   UNL A   1      41.695  28.644  32.326  1.00  0.00    -0.354 N 
ATOM     58  N   UNL A   1      43.421  30.981  35.341  1.00  0.00    -0.248 NA
ATOM     59  C   UNL A   1      43.525  30.476  37.531  1.00  0.00     0.031 C 
ATOM     60  C   UNL A   1      43.565  29.818  32.115  1.00  0.00     0.029 A 
ATOM     61  C   UNL A   1      42.809  29.124  33.047  1.00  0.00     0.049 A 
ATOM     62  H   UNL A   1      40.970  28.108  32.722  1.00  0.00     0.167 HD
ATOM     63  C   UNL A   1      43.475  29.605  35.415  1.00  0.00     0.074 A 
ATOM     64  C   UNL A   1      43.814  29.396  36.791  1.00  0.00     0.031 C 
ATOM     65  C   UNL A   1      43.064  28.709  34.439  1.00  0.00     0.034 A 
BRANCH  52  66
ATOM     66  C   UNL A   1      40.510  28.051  28.806  1.00  0.00     0.023 A 
ATOM     67  C   UNL A   1      39.617  26.963  28.838  1.00  0.00     0.012 A 
ATOM     68  C   UNL A   1      41.351  28.146  27.655  1.00  0.00     0.148 A 
ATOM     69  C   UNL A   1      39.619  25.969  27.852  1.00  0.00     0.002 A 
ATOM     70  C   UNL A   1      41.395  27.115  26.699  1.00  0.00     0.091 A 
ATOM     71  F   UNL A   1      42.130  29.230  27.507  1.00  0.00    -0.205 F 
ATOM     72  C   UNL A   1      40.529  26.021  26.805  1.00  0.00     0.022 A 
BRANCH  70  73
ATOM     73  S   UNL A   1      42.627  27.005  25.375  1.00  0.00     0.127 S 
ATOM     74  O   UNL A   1      42.375  28.230  24.608  1.00  0.00    -0.237 OA
ATOM     75  O   UNL A   1      43.890  27.010  26.108  1.00  0.00    -0.237 OA
ATOM     76  O   UNL A   1      42.324  25.781  24.646  1.00  0.00    -0.744 OA
ENDBRANCH  70  73
ENDBRANCH  52  66
BRANCH  53  77
ATOM     77  C   UNL A   1      40.633  34.027  37.965  1.00  0.00     0.023 A 
ATOM     78  C   UNL A   1      39.850  33.240  38.861  1.00  0.00     0.012 A 
ATOM     79  C   UNL A   1      41.364  35.114  38.540  1.00  0.00     0.148 A 
ATOM     80  C   UNL A   1      40.026  33.353  40.254  1.00  0.00     0.002 A 
ATOM     81  C   UNL A   1      41.546  35.192  39.916  1.00  0.00     0.091 A 
ATOM     82  F   UNL A   1      42.084  35.925  37.758  1.00  0.00    -0.205 F 
ATOM     83  C   UNL A   1      40.919  34.288  40.776  1.00  0.00     0.022 A 
BRANCH  81  84
ATOM     84  S   UNL A   1      42.936  36.133  40.547  1.00  0.00     0.127 S 
ATOM     85  O   UNL A   1      42.828  35.968  41.993  1.00  0.00    -0.237 OA
ATOM     86  O   UNL A   1      44.019  35.390  39.925  1.00  0.00    -0.237 OA
ATOM     87  O   UNL A   1      42.754  37.495  40.068  1.00  0.00    -0.744 OA
ENDBRANCH  81  84
ENDBRANCH  53  77
BRANCH  65  88
ATOM     88  C   UNL A   1      42.891  27.234  34.779  1.00  0.00     0.023 A 
ATOM     89  C   UNL A   1      41.716  26.769  35.402  1.00  0.00     0.012 A 
ATOM     90  C   UNL A   1      43.860  26.262  34.430  1.00  0.00     0.148 A 
ATOM     91  C   UNL A   1      41.605  25.461  35.871  1.00  0.00     0.002 A 
ATOM     92  C   UNL A   1      43.684  24.927  34.786  1.00  0.00     0.091 A 
ATOM     93  F   UNL A   1      44.971  26.629  33.776  1.00  0.00    -0.205 F 
ATOM     94  C   UNL A   1      42.597  24.540  35.573  1.00  0.00     0.022 A 
BRANCH  92  95
ATOM     95  S   UNL A   1      44.773  23.641  34.165  1.00  0.00     0.127 S 
ATOM     96  O   UNL A   1      44.916  24.017  32.761  1.00  0.00    -0.237 OA
ATOM     97  O   UNL A   1      45.980  23.836  34.972  1.00  0.00    -0.237 OA
ATOM     98  O   UNL A   1      44.070  22.396  34.437  1.00  0.00    -0.744 OA
ENDBRANCH  92  95
ENDBRANCH  65  88
ENDBRANCH  39  40
ENDBRANCH  32  34
ENDBRANCH  31  32
ENDBRANCH  30  31
ENDBRANCH  29  30
ENDBRANCH  28  29
ENDBRANCH  27  28
ENDBRANCH   1  27
TORSDOF 26
ENDMDL
MODEL 3
REMARK VINA RESULT:     -11.0      4.667      9.597
REMARK SMILES Cc1ccccc1N[C@H](C(=O)OCCOCCOCCOCCOC(=O)c1ccc(-c2c3nc(c(-c4cccc(S(=O)(=O)[O-])c4F)c4ccc([nH]4)c(-c4cccc(S(=O)(=O)[O-])c4F)c4nc(c(-c5cccc(S(=O)(=O)[O-])c5F)c5ccc2[nH]5)C=C4)C=C3)cc1)c1ccccc1
REMARK SMILES IDX 19 1 18 2 17 3 16 4 15 5 14 6 13 7 12 8 10 9 11 10 9 11 8 12
REMARK SMILES IDX 7 14 1 15 2 16 3 17 4 18 6 19 5 20 90 21 91 22 95 23 92 24
REMARK SMILES IDX 94 25 93 26 20 27 21 28 22 29 23 30 24 31 25 32 26 33 27 34
REMARK SMILES IDX 28 35 89 36 29 37 88 38 30 39 31 40 32 41 82 42 33 43 87 44
REMARK SMILES IDX 81 45 83 46 34 47 86 48 80 49 79 50 35 52 67 53 47 54 66 55
REMARK SMILES IDX 48 56 51 57 65 58 84 59 49 60 50 61 64 63 85 64 52 65 36 66
REMARK SMILES IDX 37 67 45 68 38 69 40 70 46 71 39 72 41 73 42 74 43 75 44 76
REMARK SMILES IDX 68 77 69 78 77 79 70 80 72 81 78 82 71 83 73 84 74 85 75 86
REMARK SMILES IDX 76 87 53 88 54 89 62 90 55 91 57 92 63 93 56 94 58 95 59 96
REMARK SMILES IDX 60 97 61 98
REMARK H PARENT 8 13 83 51 51 62
REMARK Flexibility Score: inf
ROOT
ATOM      1  C   UNL A   1      36.813  31.471  29.714  1.00  0.00     0.188 C 
ENDROOT
BRANCH   1   2
ATOM      2  O   UNL A   1      36.230  30.252  29.213  1.00  0.00    -0.377 OA
BRANCH   2   3
ATOM      3  C   UNL A   1      35.543  29.996  27.971  1.00  0.00     0.188 C 
BRANCH   3   4
ATOM      4  C   UNL A   1      34.107  30.420  27.157  1.00  0.00     0.188 C 
BRANCH   4   5
ATOM      5  O   UNL A   1      32.594  29.559  26.653  1.00  0.00    -0.376 OA
BRANCH   5   6
ATOM      6  C   UNL A   1      31.599  28.289  27.405  1.00  0.00     0.202 C 
BRANCH   6   7
ATOM      7  C   UNL A   1      31.000  26.648  26.768  1.00  0.00     0.261 C 
BRANCH   7   8
ATOM      8  O   UNL A   1      31.889  25.234  26.213  1.00  0.00    -0.461 OA
BRANCH   8   9
ATOM      9  C   UNL A   1      33.139  24.621  25.866  1.00  0.00     0.333 C 
ATOM     10  O   UNL A   1      33.841  23.860  26.563  1.00  0.00    -0.249 OA
BRANCH   9  11
ATOM     11  C   UNL A   1      33.568  24.667  24.345  1.00  0.00     0.221 C 
BRANCH  11  12
ATOM     12  N   UNL A   1      33.156  23.242  23.649  1.00  0.00    -0.368 N 
ATOM     13  H   UNL A   1      32.506  23.352  22.918  1.00  0.00     0.161 HD
BRANCH  12  14
ATOM     14  C   UNL A   1      33.511  21.909  23.851  1.00  0.00     0.038 A 
ATOM     15  C   UNL A   1      36.102  22.220  24.234  1.00  0.00     0.046 C 
ATOM     16  C   UNL A   1      34.800  21.454  24.281  1.00  0.00    -0.028 A 
ATOM     17  C   UNL A   1      34.949  20.175  24.888  1.00  0.00     0.005 A 
ATOM     18  C   UNL A   1      33.900  19.276  24.932  1.00  0.00     0.000 A 
ATOM     19  C   UNL A   1      32.548  20.902  23.733  1.00  0.00     0.026 A 
ATOM     20  C   UNL A   1      32.725  19.613  24.280  1.00  0.00     0.002 A 
ENDBRANCH  12  14
ENDBRANCH  11  12
BRANCH  11  21
ATOM     21  C   UNL A   1      32.992  25.914  23.689  1.00  0.00    -0.015 A 
ATOM     22  C   UNL A   1      33.951  27.435  23.853  1.00  0.00     0.006 A 
ATOM     23  C   UNL A   1      31.248  26.068  23.019  1.00  0.00     0.006 A 
ATOM     24  C   UNL A   1      33.316  28.994  23.318  1.00  0.00     0.000 A 
ATOM     25  C   UNL A   1      30.632  27.675  22.457  1.00  0.00     0.000 A 
ATOM     26  C   UNL A   1      31.694  29.125  22.586  1.00  0.00     0.000 A 
ENDBRANCH  11  21
ENDBRANCH   9  11
ENDBRANCH   8   9
ENDBRANCH   7   8
ENDBRANCH   6   7
ENDBRANCH   5   6
ENDBRANCH   4   5
ENDBRANCH   3   4
ENDBRANCH   2   3
ENDBRANCH   1   2
BRANCH   1  27
ATOM     27  C   UNL A   1      36.316  32.757  29.145  1.00  0.00     0.188 C 
BRANCH  27  28
ATOM     28  O   UNL A   1      35.087  32.922  29.785  1.00  0.00    -0.376 OA
BRANCH  28  29
ATOM     29  C   UNL A   1      34.274  33.965  29.348  1.00  0.00     0.202 C 
BRANCH  29  30
ATOM     30  C   UNL A   1      33.820  34.691  30.598  1.00  0.00     0.261 C 
BRANCH  30  31
ATOM     31  O   UNL A   1      33.923  33.803  31.756  1.00  0.00    -0.460 OA
BRANCH  31  32
ATOM     32  C   UNL A   1      34.187  34.382  32.988  1.00  0.00     0.338 C 
ATOM     33  O   UNL A   1      33.700  35.445  33.332  1.00  0.00    -0.246 OA
BRANCH  32  34
ATOM     34  C   UNL A   1      35.234  33.606  33.758  1.00  0.00     0.060 A 
ATOM     35  C   UNL A   1      35.948  34.081  34.874  1.00  0.00     0.016 A 
ATOM     36  C   UNL A   1      35.813  32.580  33.092  1.00  0.00     0.016 A 
ATOM     37  C   UNL A   1      37.373  33.818  35.054  1.00  0.00     0.010 A 
ATOM     38  C   UNL A   1      37.204  32.526  33.174  1.00  0.00     0.010 A 
ATOM     39  C   UNL A   1      38.147  33.219  34.064  1.00  0.00    -0.014 A 
BRANCH  39  40
ATOM     40  C   UNL A   1      39.990  33.221  33.956  1.00  0.00     0.031 A 
ATOM     41  C   UNL A   1      41.196  34.677  34.601  1.00  0.00     0.074 A 
ATOM     42  C   UNL A   1      40.380  32.171  33.138  1.00  0.00     0.049 A 
ATOM     43  N   UNL A   1      42.222  35.261  33.964  1.00  0.00    -0.248 NA
ATOM     44  C   UNL A   1      40.962  35.879  35.717  1.00  0.00     0.031 C 
ATOM     45  C   UNL A   1      41.099  31.014  33.629  1.00  0.00     0.029 A 
ATOM     46  N   UNL A   1      40.143  31.775  31.806  1.00  0.00    -0.354 N 
ATOM     47  C   UNL A   1      42.562  36.546  34.331  1.00  0.00     0.074 A 
ATOM     48  C   UNL A   1      41.665  36.935  35.342  1.00  0.00     0.031 C 
ATOM     49  C   UNL A   1      41.230  30.068  32.682  1.00  0.00     0.029 A 
ATOM     50  C   UNL A   1      40.887  30.631  31.377  1.00  0.00     0.049 A 
ATOM     51  H   UNL A   1      39.514  32.250  31.216  1.00  0.00     0.167 HD
ATOM     52  C   UNL A   1      43.599  37.235  33.781  1.00  0.00     0.034 A 
ATOM     53  C   UNL A   1      41.846  30.381  30.257  1.00  0.00     0.034 A 
ATOM     54  C   UNL A   1      44.455  36.347  32.982  1.00  0.00     0.049 A 
ATOM     55  C   UNL A   1      43.631  31.286  29.480  1.00  0.00     0.074 A 
ATOM     56  C   UNL A   1      45.416  35.436  33.388  1.00  0.00     0.029 A 
ATOM     57  N   UNL A   1      44.198  36.050  31.645  1.00  0.00    -0.354 N 
ATOM     58  N   UNL A   1      44.591  32.162  30.141  1.00  0.00    -0.248 NA
ATOM     59  C   UNL A   1      44.324  31.522  28.000  1.00  0.00     0.031 C 
ATOM     60  C   UNL A   1      45.726  34.580  32.296  1.00  0.00     0.029 A 
ATOM     61  C   UNL A   1      44.973  34.960  31.195  1.00  0.00     0.049 A 
ATOM     62  H   UNL A   1      43.556  36.540  31.082  1.00  0.00     0.167 HD
ATOM     63  C   UNL A   1      44.958  33.243  29.368  1.00  0.00     0.074 A 
ATOM     64  C   UNL A   1      45.022  32.664  28.060  1.00  0.00     0.031 C 
ATOM     65  C   UNL A   1      45.005  34.570  29.773  1.00  0.00     0.034 A 
BRANCH  52  66
ATOM     66  C   UNL A   1      44.006  38.563  34.436  1.00  0.00     0.023 A 
ATOM     67  C   UNL A   1      44.589  38.486  35.714  1.00  0.00     0.012 A 
ATOM     68  C   UNL A   1      43.712  39.876  33.952  1.00  0.00     0.148 A 
ATOM     69  C   UNL A   1      44.777  39.618  36.518  1.00  0.00     0.002 A 
ATOM     70  C   UNL A   1      43.844  41.003  34.784  1.00  0.00     0.091 A 
ATOM     71  F   UNL A   1      43.276  40.022  32.691  1.00  0.00    -0.205 F 
ATOM     72  C   UNL A   1      44.373  40.868  36.072  1.00  0.00     0.022 A 
BRANCH  70  73
ATOM     73  S   UNL A   1      43.225  42.655  34.367  1.00  0.00     0.127 S 
ATOM     74  O   UNL A   1      42.436  43.004  35.553  1.00  0.00    -0.237 OA
ATOM     75  O   UNL A   1      44.454  43.431  34.218  1.00  0.00    -0.237 OA
ATOM     76  O   UNL A   1      42.431  42.491  33.157  1.00  0.00    -0.744 OA
ENDBRANCH  70  73
ENDBRANCH  52  66
BRANCH  53  77
ATOM     77  C   UNL A   1      40.635  29.324  29.651  1.00  0.00     0.023 A 
ATOM     78  C   UNL A   1      39.707  29.900  28.734  1.00  0.00     0.012 A 
ATOM     79  C   UNL A   1      41.026  27.970  29.402  1.00  0.00     0.148 A 
ATOM     80  C   UNL A   1      39.429  29.268  27.506  1.00  0.00     0.002 A 
ATOM     81  C   UNL A   1      40.763  27.375  28.174  1.00  0.00     0.091 A 
ATOM     82  F   UNL A   1      41.856  27.347  30.244  1.00  0.00    -0.205 F 
ATOM     83  C   UNL A   1      40.006  28.036  27.203  1.00  0.00     0.022 A 
BRANCH  81  84
ATOM     84  S   UNL A   1      41.775  25.988  27.657  1.00  0.00     0.127 S 
ATOM     85  O   UNL A   1      43.135  26.506  27.755  1.00  0.00    -0.237 OA
ATOM     86  O   UNL A   1      41.405  25.035  28.690  1.00  0.00    -0.237 OA
ATOM     87  O   UNL A   1      41.341  25.651  26.309  1.00  0.00    -0.744 OA
ENDBRANCH  81  84
ENDBRANCH  53  77
BRANCH  65  88
ATOM     88  C   UNL A   1      45.124  35.682  28.739  1.00  0.00     0.023 A 
ATOM     89  C   UNL A   1      43.974  36.304  28.211  1.00  0.00     0.012 A 
ATOM     90  C   UNL A   1      46.377  36.183  28.312  1.00  0.00     0.148 A 
ATOM     91  C   UNL A   1      44.051  37.202  27.148  1.00  0.00     0.002 A 
ATOM     92  C   UNL A   1      46.448  37.177  27.340  1.00  0.00     0.091 A 
ATOM     93  F   UNL A   1      47.509  35.679  28.825  1.00  0.00    -0.205 F 
ATOM     94  C   UNL A   1      45.291  37.631  26.702  1.00  0.00     0.022 A 
BRANCH  92  95
ATOM     95  S   UNL A   1      48.000  37.990  26.944  1.00  0.00     0.127 S 
ATOM     96  O   UNL A   1      47.580  38.981  25.955  1.00  0.00    -0.237 OA
ATOM     97  O   UNL A   1      48.397  38.553  28.237  1.00  0.00    -0.237 OA
ATOM     98  O   UNL A   1      48.867  36.923  26.467  1.00  0.00    -0.744 OA
ENDBRANCH  92  95
ENDBRANCH  65  88
ENDBRANCH  39  40
ENDBRANCH  32  34
ENDBRANCH  31  32
ENDBRANCH  30  31
ENDBRANCH  29  30
ENDBRANCH  28  29
ENDBRANCH  27  28
ENDBRANCH   1  27
TORSDOF 26
ENDMDL
