MODEL 1
REMARK VINA RESULT:      -9.5      0.000      0.000
REMARK SMILES O=C(CCc1cncc([C@@H]2CN(c3ccccc3)CCO2)n1)OCCOCCOCCOCCOC(=O)c1ccc(-c2c3nc(c(-c4cccc(S(=O)(=O)[O-])c4F)c4ccc([nH]4)c(-c4cccc(S(=O)(=O)[O-])c4F)c4nc(c(-c5cccc(S(=O)(=O)[O-])c5F)c5ccc2[nH]5)C=C4)C=C3)cc1
REMARK SMILES IDX 28 1 27 2 26 3 25 4 24 5 23 6 2 7 1 8 3 9 4 10 5 11 6 12
REMARK SMILES IDX 22 13 7 14 9 15 8 16 10 17 11 18 21 19 12 20 20 21 19 22
REMARK SMILES IDX 13 23 14 24 18 25 15 26 17 27 16 28 29 29 30 30 31 31 32 32
REMARK SMILES IDX 33 33 34 34 35 35 36 36 37 37 38 38 39 39 100 40 40 41 99 42
REMARK SMILES IDX 41 43 42 44 43 45 93 46 44 47 98 48 92 49 94 50 45 51 97 52
REMARK SMILES IDX 91 53 90 54 46 56 78 57 58 58 77 59 59 60 62 61 76 62 95 63
REMARK SMILES IDX 60 64 61 65 75 67 96 68 63 69 47 70 48 71 56 72 49 73 51 74
REMARK SMILES IDX 57 75 50 76 52 77 53 78 54 79 55 80 79 81 80 82 88 83 81 84
REMARK SMILES IDX 83 85 89 86 82 87 84 88 85 89 86 90 87 91 64 92 65 93 73 94
REMARK SMILES IDX 66 95 68 96 74 97 67 98 69 99 70 100 71 101 72 102
REMARK H PARENT 94 55 62 66
REMARK Flexibility Score: inf
ROOT
ATOM      1  C   UNL A   1      36.085  24.026  24.764  1.00  0.00     0.188 C 
ENDROOT
BRANCH   1   2
ATOM      2  C   UNL A   1      36.280  22.958  23.687  1.00  0.00     0.188 C 
BRANCH   2   3
ATOM      3  O   UNL A   1      35.421  23.003  22.558  1.00  0.00    -0.376 OA
BRANCH   3   4
ATOM      4  C   UNL A   1      34.058  23.378  22.763  1.00  0.00     0.202 C 
BRANCH   4   5
ATOM      5  C   UNL A   1      32.964  22.324  22.591  1.00  0.00     0.261 C 
BRANCH   5   6
ATOM      6  O   UNL A   1      33.132  21.051  23.248  1.00  0.00    -0.463 OA
BRANCH   6   7
ATOM      7  C   UNL A   1      33.578  20.782  24.482  1.00  0.00     0.306 C 
ATOM      8  O   UNL A   1      34.512  19.996  24.636  1.00  0.00    -0.252 OA
BRANCH   7   9
ATOM      9  C   UNL A   1      32.918  21.394  25.680  1.00  0.00     0.129 C 
BRANCH   9  10
ATOM     10  C   UNL A   1      31.395  21.402  25.638  1.00  0.00     0.069 C 
BRANCH  10  11
ATOM     11  C   UNL A   1      30.711  22.726  25.872  1.00  0.00     0.060 A 
ATOM     12  C   UNL A   1      29.913  22.917  26.994  1.00  0.00     0.134 A 
ATOM     13  N   UNL A   1      30.932  23.740  24.988  1.00  0.00    -0.252 NA
ATOM     14  N   UNL A   1      29.335  24.102  27.284  1.00  0.00    -0.261 NA
ATOM     15  C   UNL A   1      30.378  24.955  25.285  1.00  0.00     0.090 A 
ATOM     16  C   UNL A   1      29.601  25.114  26.427  1.00  0.00     0.137 A 
BRANCH  15  17
ATOM     17  C   UNL A   1      30.631  26.157  24.390  1.00  0.00     0.188 C 
ATOM     18  C   UNL A   1      29.343  26.615  23.674  1.00  0.00     0.155 C 
ATOM     19  O   UNL A   1      31.672  25.871  23.425  1.00  0.00    -0.368 OA
ATOM     20  N   UNL A   1      29.619  27.766  22.797  1.00  0.00    -0.366 N 
ATOM     21  C   UNL A   1      31.974  27.049  22.645  1.00  0.00     0.182 C 
ATOM     22  C   UNL A   1      30.747  27.577  21.874  1.00  0.00     0.145 C 
BRANCH  20  23
ATOM     23  C   UNL A   1      29.245  29.047  23.152  1.00  0.00     0.037 A 
ATOM     24  C   UNL A   1      30.132  29.849  23.883  1.00  0.00     0.026 A 
ATOM     25  C   UNL A   1      28.010  29.604  22.798  1.00  0.00     0.026 A 
ATOM     26  C   UNL A   1      29.816  31.170  24.218  1.00  0.00     0.002 A 
ATOM     27  C   UNL A   1      27.677  30.917  23.148  1.00  0.00     0.002 A 
ATOM     28  C   UNL A   1      28.586  31.704  23.849  1.00  0.00     0.000 A 
ENDBRANCH  20  23
ENDBRANCH  15  17
ENDBRANCH  10  11
ENDBRANCH   9  10
ENDBRANCH   7   9
ENDBRANCH   6   7
ENDBRANCH   5   6
ENDBRANCH   4   5
ENDBRANCH   3   4
ENDBRANCH   2   3
ENDBRANCH   1   2
BRANCH   1  29
ATOM     29  O   UNL A   1      35.421  23.531  25.910  1.00  0.00    -0.377 OA
BRANCH  29  30
ATOM     30  C   UNL A   1      34.342  24.329  26.371  1.00  0.00     0.188 C 
BRANCH  30  31
ATOM     31  C   UNL A   1      34.042  25.637  25.602  1.00  0.00     0.188 C 
BRANCH  31  32
ATOM     32  O   UNL A   1      34.119  26.891  26.253  1.00  0.00    -0.376 OA
BRANCH  32  33
ATOM     33  C   UNL A   1      33.644  28.091  25.680  1.00  0.00     0.202 C 
BRANCH  33  34
ATOM     34  C   UNL A   1      33.161  29.313  26.482  1.00  0.00     0.261 C 
BRANCH  34  35
ATOM     35  O   UNL A   1      33.821  29.570  27.725  1.00  0.00    -0.460 OA
BRANCH  35  36
ATOM     36  C   UNL A   1      34.668  30.631  27.741  1.00  0.00     0.338 C 
ATOM     37  O   UNL A   1      34.380  31.796  27.522  1.00  0.00    -0.246 OA
BRANCH  36  38
ATOM     38  C   UNL A   1      35.964  30.201  28.321  1.00  0.00     0.060 A 
ATOM     39  C   UNL A   1      37.128  30.410  27.563  1.00  0.00     0.016 A 
ATOM     40  C   UNL A   1      36.051  29.654  29.603  1.00  0.00     0.016 A 
ATOM     41  C   UNL A   1      38.377  30.059  28.079  1.00  0.00     0.010 A 
ATOM     42  C   UNL A   1      37.299  29.274  30.104  1.00  0.00     0.010 A 
ATOM     43  C   UNL A   1      38.465  29.453  29.337  1.00  0.00    -0.014 A 
BRANCH  43  44
ATOM     44  C   UNL A   1      39.739  28.835  29.779  1.00  0.00     0.031 A 
ATOM     45  C   UNL A   1      40.514  29.517  30.874  1.00  0.00     0.074 A 
ATOM     46  C   UNL A   1      40.225  27.723  29.197  1.00  0.00     0.049 A 
ATOM     47  N   UNL A   1      41.692  29.226  31.360  1.00  0.00    -0.248 NA
ATOM     48  C   UNL A   1      39.875  30.687  31.501  1.00  0.00     0.031 C 
ATOM     49  C   UNL A   1      39.569  26.964  28.134  1.00  0.00     0.029 A 
ATOM     50  N   UNL A   1      41.416  27.066  29.396  1.00  0.00    -0.354 N 
ATOM     51  C   UNL A   1      41.951  30.194  32.320  1.00  0.00     0.074 A 
ATOM     52  C   UNL A   1      40.806  31.077  32.359  1.00  0.00     0.031 C 
ATOM     53  C   UNL A   1      40.390  25.974  27.737  1.00  0.00     0.029 A 
ATOM     54  C   UNL A   1      41.638  26.048  28.496  1.00  0.00     0.049 A 
ATOM     55  H   UNL A   1      42.049  27.300  30.112  1.00  0.00     0.167 HD
ATOM     56  C   UNL A   1      43.045  30.337  33.103  1.00  0.00     0.034 A 
ATOM     57  C   UNL A   1      42.737  25.294  28.284  1.00  0.00     0.034 A 
ATOM     58  C   UNL A   1      44.178  29.454  33.080  1.00  0.00     0.049 A 
ATOM     59  C   UNL A   1      43.960  25.505  29.145  1.00  0.00     0.074 A 
ATOM     60  C   UNL A   1      45.300  29.479  33.889  1.00  0.00     0.029 A 
ATOM     61  N   UNL A   1      44.348  28.409  32.188  1.00  0.00    -0.354 N 
ATOM     62  N   UNL A   1      44.131  26.324  30.154  1.00  0.00    -0.248 NA
ATOM     63  C   UNL A   1      45.136  24.671  28.849  1.00  0.00     0.031 C 
ATOM     64  C   UNL A   1      46.166  28.468  33.463  1.00  0.00     0.029 A 
ATOM     65  C   UNL A   1      45.571  27.799  32.406  1.00  0.00     0.049 A 
ATOM     66  H   UNL A   1      43.696  28.141  31.501  1.00  0.00     0.167 HD
ATOM     67  C   UNL A   1      45.419  26.087  30.627  1.00  0.00     0.074 A 
ATOM     68  C   UNL A   1      45.974  25.026  29.815  1.00  0.00     0.031 C 
ATOM     69  C   UNL A   1      46.092  26.706  31.628  1.00  0.00     0.034 A 
BRANCH  56  70
ATOM     70  C   UNL A   1      43.073  31.485  34.073  1.00  0.00     0.023 A 
ATOM     71  C   UNL A   1      43.597  32.728  33.666  1.00  0.00     0.012 A 
ATOM     72  C   UNL A   1      42.500  31.354  35.352  1.00  0.00     0.148 A 
ATOM     73  C   UNL A   1      43.561  33.824  34.527  1.00  0.00     0.002 A 
ATOM     74  C   UNL A   1      42.432  32.460  36.188  1.00  0.00     0.091 A 
ATOM     75  F   UNL A   1      42.032  30.154  35.722  1.00  0.00    -0.205 F 
ATOM     76  C   UNL A   1      42.968  33.693  35.780  1.00  0.00     0.022 A 
BRANCH  74  77
ATOM     77  S   UNL A   1      41.627  32.416  37.793  1.00  0.00     0.127 S 
ATOM     78  O   UNL A   1      41.744  33.810  38.219  1.00  0.00    -0.237 OA
ATOM     79  O   UNL A   1      40.270  31.998  37.442  1.00  0.00    -0.237 OA
ATOM     80  O   UNL A   1      42.375  31.458  38.594  1.00  0.00    -0.744 OA
ENDBRANCH  74  77
ENDBRANCH  56  70
BRANCH  57  81
ATOM     81  C   UNL A   1      42.756  24.271  27.199  1.00  0.00     0.023 A 
ATOM     82  C   UNL A   1      43.355  24.575  25.961  1.00  0.00     0.012 A 
ATOM     83  C   UNL A   1      42.149  23.011  27.375  1.00  0.00     0.148 A 
ATOM     84  C   UNL A   1      43.318  23.660  24.908  1.00  0.00     0.002 A 
ATOM     85  C   UNL A   1      42.164  22.083  26.340  1.00  0.00     0.091 A 
ATOM     86  F   UNL A   1      41.556  22.750  28.547  1.00  0.00    -0.205 F 
ATOM     87  C   UNL A   1      42.731  22.412  25.099  1.00  0.00     0.022 A 
BRANCH  85  88
ATOM     88  S   UNL A   1      41.531  20.415  26.545  1.00  0.00     0.127 S 
ATOM     89  O   UNL A   1      42.139  19.723  25.412  1.00  0.00    -0.237 OA
ATOM     90  O   UNL A   1      42.068  20.043  27.854  1.00  0.00    -0.237 OA
ATOM     91  O   UNL A   1      40.081  20.546  26.509  1.00  0.00    -0.744 OA
ENDBRANCH  85  88
ENDBRANCH  57  81
BRANCH  69  92
ATOM     92  C   UNL A   1      47.496  26.250  31.927  1.00  0.00     0.023 A 
ATOM     93  C   UNL A   1      48.580  26.842  31.250  1.00  0.00     0.012 A 
ATOM     94  C   UNL A   1      47.748  25.303  32.940  1.00  0.00     0.148 A 
ATOM     95  C   UNL A   1      49.891  26.482  31.558  1.00  0.00     0.002 A 
ATOM     96  C   UNL A   1      49.060  24.985  33.276  1.00  0.00     0.091 A 
ATOM     97  F   UNL A   1      46.703  24.741  33.565  1.00  0.00    -0.205 F 
ATOM     98  C   UNL A   1      50.131  25.565  32.579  1.00  0.00     0.022 A 
BRANCH  96  99
ATOM     99  S   UNL A   1      49.469  23.888  34.639  1.00  0.00     0.127 S 
ATOM    100  O   UNL A   1      50.893  24.160  34.824  1.00  0.00    -0.237 OA
ATOM    101  O   UNL A   1      48.608  24.389  35.710  1.00  0.00    -0.237 OA
ATOM    102  O   UNL A   1      49.147  22.542  34.183  1.00  0.00    -0.744 OA
ENDBRANCH  96  99
ENDBRANCH  69  92
ENDBRANCH  43  44
ENDBRANCH  36  38
ENDBRANCH  35  36
ENDBRANCH  34  35
ENDBRANCH  33  34
ENDBRANCH  32  33
ENDBRANCH  31  32
ENDBRANCH  30  31
ENDBRANCH  29  30
ENDBRANCH   1  29
TORSDOF 27
ENDMDL
MODEL 2
REMARK VINA RESULT:      -9.1      1.755      2.114
REMARK SMILES O=C(CCc1cncc([C@@H]2CN(c3ccccc3)CCO2)n1)OCCOCCOCCOCCOC(=O)c1ccc(-c2c3nc(c(-c4cccc(S(=O)(=O)[O-])c4F)c4ccc([nH]4)c(-c4cccc(S(=O)(=O)[O-])c4F)c4nc(c(-c5cccc(S(=O)(=O)[O-])c5F)c5ccc2[nH]5)C=C4)C=C3)cc1
REMARK SMILES IDX 28 1 27 2 26 3 25 4 24 5 23 6 2 7 1 8 3 9 4 10 5 11 6 12
REMARK SMILES IDX 22 13 7 14 9 15 8 16 10 17 11 18 21 19 12 20 20 21 19 22
REMARK SMILES IDX 13 23 14 24 18 25 15 26 17 27 16 28 29 29 30 30 31 31 32 32
REMARK SMILES IDX 33 33 34 34 35 35 36 36 37 37 38 38 39 39 100 40 40 41 99 42
REMARK SMILES IDX 41 43 42 44 43 45 93 46 44 47 98 48 92 49 94 50 45 51 97 52
REMARK SMILES IDX 91 53 90 54 46 56 78 57 58 58 77 59 59 60 62 61 76 62 95 63
REMARK SMILES IDX 60 64 61 65 75 67 96 68 63 69 47 70 48 71 56 72 49 73 51 74
REMARK SMILES IDX 57 75 50 76 52 77 53 78 54 79 55 80 79 81 80 82 88 83 81 84
REMARK SMILES IDX 83 85 89 86 82 87 84 88 85 89 86 90 87 91 64 92 65 93 73 94
REMARK SMILES IDX 66 95 68 96 74 97 67 98 69 99 70 100 71 101 72 102
REMARK H PARENT 94 55 62 66
REMARK Flexibility Score: inf
ROOT
ATOM      1  C   UNL A   1      36.294  24.073  25.035  1.00  0.00     0.188 C 
ENDROOT
BRANCH   1   2
ATOM      2  C   UNL A   1      36.664  23.079  23.935  1.00  0.00     0.188 C 
BRANCH   2   3
ATOM      3  O   UNL A   1      35.800  22.993  22.812  1.00  0.00    -0.376 OA
BRANCH   3   4
ATOM      4  C   UNL A   1      34.451  23.436  22.967  1.00  0.00     0.202 C 
BRANCH   4   5
ATOM      5  C   UNL A   1      33.312  22.440  22.741  1.00  0.00     0.261 C 
BRANCH   5   6
ATOM      6  O   UNL A   1      33.393  21.153  23.386  1.00  0.00    -0.463 OA
BRANCH   6   7
ATOM      7  C   UNL A   1      33.781  20.846  24.630  1.00  0.00     0.306 C 
ATOM      8  O   UNL A   1      34.851  20.266  24.810  1.00  0.00    -0.252 OA
BRANCH   7   9
ATOM      9  C   UNL A   1      32.904  21.165  25.802  1.00  0.00     0.129 C 
BRANCH   9  10
ATOM     10  C   UNL A   1      31.424  21.316  25.471  1.00  0.00     0.069 C 
BRANCH  10  11
ATOM     11  C   UNL A   1      30.795  22.658  25.747  1.00  0.00     0.060 A 
ATOM     12  C   UNL A   1      30.048  22.861  26.902  1.00  0.00     0.134 A 
ATOM     13  N   UNL A   1      31.014  23.675  24.866  1.00  0.00    -0.252 NA
ATOM     14  N   UNL A   1      29.523  24.062  27.229  1.00  0.00    -0.261 NA
ATOM     15  C   UNL A   1      30.513  24.904  25.198  1.00  0.00     0.090 A 
ATOM     16  C   UNL A   1      29.788  25.075  26.372  1.00  0.00     0.137 A 
BRANCH  15  17
ATOM     17  C   UNL A   1      30.770  26.108  24.307  1.00  0.00     0.188 C 
ATOM     18  C   UNL A   1      29.497  26.537  23.548  1.00  0.00     0.155 C 
ATOM     19  O   UNL A   1      31.847  25.839  23.376  1.00  0.00    -0.368 OA
ATOM     20  N   UNL A   1      29.778  27.691  22.676  1.00  0.00    -0.366 N 
ATOM     21  C   UNL A   1      32.150  27.020  22.602  1.00  0.00     0.182 C 
ATOM     22  C   UNL A   1      30.938  27.521  21.790  1.00  0.00     0.145 C 
BRANCH  20  23
ATOM     23  C   UNL A   1      29.367  28.966  23.014  1.00  0.00     0.037 A 
ATOM     24  C   UNL A   1      28.160  29.462  22.501  1.00  0.00     0.026 A 
ATOM     25  C   UNL A   1      30.097  29.797  23.870  1.00  0.00     0.026 A 
ATOM     26  C   UNL A   1      27.680  30.726  22.859  1.00  0.00     0.002 A 
ATOM     27  C   UNL A   1      29.635  31.072  24.216  1.00  0.00     0.002 A 
ATOM     28  C   UNL A   1      28.419  31.532  23.718  1.00  0.00     0.000 A 
ENDBRANCH  20  23
ENDBRANCH  15  17
ENDBRANCH  10  11
ENDBRANCH   9  10
ENDBRANCH   7   9
ENDBRANCH   6   7
ENDBRANCH   5   6
ENDBRANCH   4   5
ENDBRANCH   3   4
ENDBRANCH   2   3
ENDBRANCH   1   2
BRANCH   1  29
ATOM     29  O   UNL A   1      35.388  23.533  25.978  1.00  0.00    -0.377 OA
BRANCH  29  30
ATOM     30  C   UNL A   1      34.351  24.410  26.386  1.00  0.00     0.188 C 
BRANCH  30  31
ATOM     31  C   UNL A   1      34.154  25.710  25.572  1.00  0.00     0.188 C 
BRANCH  31  32
ATOM     32  O   UNL A   1      34.223  26.975  26.203  1.00  0.00    -0.376 OA
BRANCH  32  33
ATOM     33  C   UNL A   1      33.460  28.089  25.788  1.00  0.00     0.202 C 
BRANCH  33  34
ATOM     34  C   UNL A   1      33.002  29.229  26.715  1.00  0.00     0.261 C 
BRANCH  34  35
ATOM     35  O   UNL A   1      33.819  29.499  27.858  1.00  0.00    -0.460 OA
BRANCH  35  36
ATOM     36  C   UNL A   1      34.714  30.511  27.724  1.00  0.00     0.338 C 
ATOM     37  O   UNL A   1      34.473  31.656  27.380  1.00  0.00    -0.246 OA
BRANCH  36  38
ATOM     38  C   UNL A   1      36.009  30.087  28.311  1.00  0.00     0.060 A 
ATOM     39  C   UNL A   1      37.187  30.430  27.628  1.00  0.00     0.016 A 
ATOM     40  C   UNL A   1      36.078  29.412  29.532  1.00  0.00     0.016 A 
ATOM     41  C   UNL A   1      38.433  30.089  28.156  1.00  0.00     0.010 A 
ATOM     42  C   UNL A   1      37.326  29.044  30.043  1.00  0.00     0.010 A 
ATOM     43  C   UNL A   1      38.507  29.359  29.348  1.00  0.00    -0.014 A 
BRANCH  43  44
ATOM     44  C   UNL A   1      39.796  28.760  29.776  1.00  0.00     0.031 A 
ATOM     45  C   UNL A   1      40.577  29.460  30.855  1.00  0.00     0.074 A 
ATOM     46  C   UNL A   1      40.288  27.651  29.196  1.00  0.00     0.049 A 
ATOM     47  N   UNL A   1      41.765  29.188  31.327  1.00  0.00    -0.248 NA
ATOM     48  C   UNL A   1      39.931  30.627  31.482  1.00  0.00     0.031 C 
ATOM     49  C   UNL A   1      39.627  26.876  28.148  1.00  0.00     0.029 A 
ATOM     50  N   UNL A   1      41.490  27.011  29.382  1.00  0.00    -0.354 N 
ATOM     51  C   UNL A   1      42.025  30.168  32.276  1.00  0.00     0.074 A 
ATOM     52  C   UNL A   1      40.869  31.035  32.325  1.00  0.00     0.031 C 
ATOM     53  C   UNL A   1      40.456  25.894  27.746  1.00  0.00     0.029 A 
ATOM     54  C   UNL A   1      41.713  25.989  28.487  1.00  0.00     0.049 A 
ATOM     55  H   UNL A   1      42.130  27.258  30.088  1.00  0.00     0.167 HD
ATOM     56  C   UNL A   1      43.127  30.330  33.043  1.00  0.00     0.034 A 
ATOM     57  C   UNL A   1      42.819  25.249  28.265  1.00  0.00     0.034 A 
ATOM     58  C   UNL A   1      44.271  29.462  33.010  1.00  0.00     0.049 A 
ATOM     59  C   UNL A   1      44.051  25.481  29.107  1.00  0.00     0.074 A 
ATOM     60  C   UNL A   1      45.404  29.507  33.804  1.00  0.00     0.029 A 
ATOM     61  N   UNL A   1      44.443  28.413  32.124  1.00  0.00    -0.354 N 
ATOM     62  N   UNL A   1      44.225  26.310  30.108  1.00  0.00    -0.248 NA
ATOM     63  C   UNL A   1      45.234  24.661  28.801  1.00  0.00     0.031 C 
ATOM     64  C   UNL A   1      46.277  28.505  33.373  1.00  0.00     0.029 A 
ATOM     65  C   UNL A   1      45.676  27.820  32.329  1.00  0.00     0.049 A 
ATOM     66  H   UNL A   1      43.785  28.131  31.448  1.00  0.00     0.167 HD
ATOM     67  C   UNL A   1      45.522  26.093  30.564  1.00  0.00     0.074 A 
ATOM     68  C   UNL A   1      46.079  25.034  29.752  1.00  0.00     0.031 C 
ATOM     69  C   UNL A   1      46.200  26.729  31.551  1.00  0.00     0.034 A 
BRANCH  56  70
ATOM     70  C   UNL A   1      43.154  31.485  34.004  1.00  0.00     0.023 A 
ATOM     71  C   UNL A   1      42.694  31.306  35.323  1.00  0.00     0.012 A 
ATOM     72  C   UNL A   1      43.716  32.719  33.622  1.00  0.00     0.148 A 
ATOM     73  C   UNL A   1      42.783  32.345  36.248  1.00  0.00     0.002 A 
ATOM     74  C   UNL A   1      43.836  33.736  34.560  1.00  0.00     0.091 A 
ATOM     75  F   UNL A   1      44.122  32.870  32.353  1.00  0.00    -0.205 F 
ATOM     76  C   UNL A   1      43.365  33.553  35.871  1.00  0.00     0.022 A 
BRANCH  74  77
ATOM     77  S   UNL A   1      44.633  35.303  34.195  1.00  0.00     0.127 S 
ATOM     78  O   UNL A   1      46.014  34.884  33.962  1.00  0.00    -0.237 OA
ATOM     79  O   UNL A   1      43.916  35.738  32.996  1.00  0.00    -0.237 OA
ATOM     80  O   UNL A   1      44.430  36.142  35.368  1.00  0.00    -0.744 OA
ENDBRANCH  74  77
ENDBRANCH  56  70
BRANCH  57  81
ATOM     81  C   UNL A   1      42.836  24.218  27.187  1.00  0.00     0.023 A 
ATOM     82  C   UNL A   1      43.441  24.510  25.949  1.00  0.00     0.012 A 
ATOM     83  C   UNL A   1      42.222  22.962  27.369  1.00  0.00     0.148 A 
ATOM     84  C   UNL A   1      43.402  23.588  24.902  1.00  0.00     0.002 A 
ATOM     85  C   UNL A   1      42.235  22.027  26.341  1.00  0.00     0.091 A 
ATOM     86  F   UNL A   1      41.623  22.712  28.542  1.00  0.00    -0.205 F 
ATOM     87  C   UNL A   1      42.808  22.344  25.100  1.00  0.00     0.022 A 
BRANCH  85  88
ATOM     88  S   UNL A   1      41.593  20.364  26.555  1.00  0.00     0.127 S 
ATOM     89  O   UNL A   1      40.153  20.600  26.584  1.00  0.00    -0.237 OA
ATOM     90  O   UNL A   1      42.083  19.689  25.353  1.00  0.00    -0.237 OA
ATOM     91  O   UNL A   1      42.185  19.879  27.795  1.00  0.00    -0.744 OA
ENDBRANCH  85  88
ENDBRANCH  57  81
BRANCH  69  92
ATOM     92  C   UNL A   1      47.615  26.292  31.834  1.00  0.00     0.023 A 
ATOM     93  C   UNL A   1      47.866  25.366  32.865  1.00  0.00     0.012 A 
ATOM     94  C   UNL A   1      48.681  26.727  31.021  1.00  0.00     0.148 A 
ATOM     95  C   UNL A   1      49.158  24.898  33.100  1.00  0.00     0.002 A 
ATOM     96  C   UNL A   1      49.959  26.220  31.230  1.00  0.00     0.091 A 
ATOM     97  F   UNL A   1      48.425  27.619  30.053  1.00  0.00    -0.205 F 
ATOM     98  C   UNL A   1      50.201  25.315  32.275  1.00  0.00     0.022 A 
BRANCH  96  99
ATOM     99  S   UNL A   1      51.346  26.624  30.161  1.00  0.00     0.127 S 
ATOM    100  O   UNL A   1      50.849  26.196  28.854  1.00  0.00    -0.237 OA
ATOM    101  O   UNL A   1      51.456  28.073  30.328  1.00  0.00    -0.237 OA
ATOM    102  O   UNL A   1      52.482  25.868  30.672  1.00  0.00    -0.744 OA
ENDBRANCH  96  99
ENDBRANCH  69  92
ENDBRANCH  43  44
ENDBRANCH  36  38
ENDBRANCH  35  36
ENDBRANCH  34  35
ENDBRANCH  33  34
ENDBRANCH  32  33
ENDBRANCH  31  32
ENDBRANCH  30  31
ENDBRANCH  29  30
ENDBRANCH   1  29
TORSDOF 27
ENDMDL
MODEL 3
REMARK VINA RESULT:      -8.4      3.002      3.312
REMARK SMILES O=C(CCc1cncc([C@@H]2CN(c3ccccc3)CCO2)n1)OCCOCCOCCOCCOC(=O)c1ccc(-c2c3nc(c(-c4cccc(S(=O)(=O)[O-])c4F)c4ccc([nH]4)c(-c4cccc(S(=O)(=O)[O-])c4F)c4nc(c(-c5cccc(S(=O)(=O)[O-])c5F)c5ccc2[nH]5)C=C4)C=C3)cc1
REMARK SMILES IDX 28 1 27 2 26 3 25 4 24 5 23 6 2 7 1 8 3 9 4 10 5 11 6 12
REMARK SMILES IDX 22 13 7 14 9 15 8 16 10 17 11 18 21 19 12 20 20 21 19 22
REMARK SMILES IDX 13 23 14 24 18 25 15 26 17 27 16 28 29 29 30 30 31 31 32 32
REMARK SMILES IDX 33 33 34 34 35 35 36 36 37 37 38 38 39 39 100 40 40 41 99 42
REMARK SMILES IDX 41 43 42 44 43 45 93 46 44 47 98 48 92 49 94 50 45 51 97 52
REMARK SMILES IDX 91 53 90 54 46 56 78 57 58 58 77 59 59 60 62 61 76 62 95 63
REMARK SMILES IDX 60 64 61 65 75 67 96 68 63 69 47 70 48 71 56 72 49 73 51 74
REMARK SMILES IDX 57 75 50 76 52 77 53 78 54 79 55 80 79 81 80 82 88 83 81 84
REMARK SMILES IDX 83 85 89 86 82 87 84 88 85 89 86 90 87 91 64 92 65 93 73 94
REMARK SMILES IDX 66 95 68 96 74 97 67 98 69 99 70 100 71 101 72 102
REMARK H PARENT 94 55 62 66
REMARK Flexibility Score: inf
ROOT
ATOM      1  C   UNL A   1      36.392  23.903  25.086  1.00  0.00     0.188 C 
ENDROOT
BRANCH   1   2
ATOM      2  C   UNL A   1      36.742  23.028  23.883  1.00  0.00     0.188 C 
BRANCH   2   3
ATOM      3  O   UNL A   1      35.845  23.037  22.783  1.00  0.00    -0.376 OA
BRANCH   3   4
ATOM      4  C   UNL A   1      34.510  23.493  23.007  1.00  0.00     0.202 C 
BRANCH   4   5
ATOM      5  C   UNL A   1      33.342  22.603  22.582  1.00  0.00     0.261 C 
BRANCH   5   6
ATOM      6  O   UNL A   1      33.210  21.306  23.198  1.00  0.00    -0.463 OA
BRANCH   6   7
ATOM      7  C   UNL A   1      33.654  20.879  24.387  1.00  0.00     0.306 C 
ATOM      8  O   UNL A   1      34.708  20.246  24.454  1.00  0.00    -0.252 OA
BRANCH   7   9
ATOM      9  C   UNL A   1      32.856  21.126  25.631  1.00  0.00     0.129 C 
BRANCH   9  10
ATOM     10  C   UNL A   1      31.353  21.252  25.413  1.00  0.00     0.069 C 
BRANCH  10  11
ATOM     11  C   UNL A   1      30.728  22.589  25.723  1.00  0.00     0.060 A 
ATOM     12  C   UNL A   1      29.988  22.766  26.887  1.00  0.00     0.134 A 
ATOM     13  N   UNL A   1      30.943  23.625  24.864  1.00  0.00    -0.252 NA
ATOM     14  N   UNL A   1      29.465  23.959  27.244  1.00  0.00    -0.261 NA
ATOM     15  C   UNL A   1      30.445  24.847  25.227  1.00  0.00     0.090 A 
ATOM     16  C   UNL A   1      29.727  24.991  26.410  1.00  0.00     0.137 A 
BRANCH  15  17
ATOM     17  C   UNL A   1      30.698  26.071  24.363  1.00  0.00     0.188 C 
ATOM     18  C   UNL A   1      29.421  26.519  23.623  1.00  0.00     0.155 C 
ATOM     19  O   UNL A   1      31.769  25.822  23.419  1.00  0.00    -0.368 OA
ATOM     20  N   UNL A   1      29.698  27.693  22.776  1.00  0.00    -0.366 N 
ATOM     21  C   UNL A   1      32.069  27.020  22.671  1.00  0.00     0.182 C 
ATOM     22  C   UNL A   1      30.852  27.542  21.879  1.00  0.00     0.145 C 
BRANCH  20  23
ATOM     23  C   UNL A   1      29.291  28.960  23.146  1.00  0.00     0.037 A 
ATOM     24  C   UNL A   1      30.181  29.798  23.833  1.00  0.00     0.026 A 
ATOM     25  C   UNL A   1      28.021  29.467  22.850  1.00  0.00     0.026 A 
ATOM     26  C   UNL A   1      29.830  31.107  24.180  1.00  0.00     0.002 A 
ATOM     27  C   UNL A   1      27.654  30.767  23.213  1.00  0.00     0.002 A 
ATOM     28  C   UNL A   1      28.564  31.592  23.869  1.00  0.00     0.000 A 
ENDBRANCH  20  23
ENDBRANCH  15  17
ENDBRANCH  10  11
ENDBRANCH   9  10
ENDBRANCH   7   9
ENDBRANCH   6   7
ENDBRANCH   5   6
ENDBRANCH   4   5
ENDBRANCH   3   4
ENDBRANCH   2   3
ENDBRANCH   1   2
BRANCH   1  29
ATOM     29  O   UNL A   1      35.522  23.258  25.996  1.00  0.00    -0.377 OA
BRANCH  29  30
ATOM     30  C   UNL A   1      34.466  24.065  26.493  1.00  0.00     0.188 C 
BRANCH  30  31
ATOM     31  C   UNL A   1      34.108  25.341  25.698  1.00  0.00     0.188 C 
BRANCH  31  32
ATOM     32  O   UNL A   1      34.300  26.623  26.265  1.00  0.00    -0.376 OA
BRANCH  32  33
ATOM     33  C   UNL A   1      33.381  27.685  26.110  1.00  0.00     0.202 C 
BRANCH  33  34
ATOM     34  C   UNL A   1      33.111  28.771  27.166  1.00  0.00     0.261 C 
BRANCH  34  35
ATOM     35  O   UNL A   1      34.175  29.062  28.077  1.00  0.00    -0.460 OA
BRANCH  35  36
ATOM     36  C   UNL A   1      34.948  30.134  27.767  1.00  0.00     0.338 C 
ATOM     37  O   UNL A   1      34.560  31.224  27.379  1.00  0.00    -0.246 OA
BRANCH  36  38
ATOM     38  C   UNL A   1      36.337  29.870  28.216  1.00  0.00     0.060 A 
ATOM     39  C   UNL A   1      37.361  29.920  27.258  1.00  0.00     0.016 A 
ATOM     40  C   UNL A   1      36.643  29.629  29.558  1.00  0.00     0.016 A 
ATOM     41  C   UNL A   1      38.690  29.717  27.635  1.00  0.00     0.010 A 
ATOM     42  C   UNL A   1      37.970  29.395  29.927  1.00  0.00     0.010 A 
ATOM     43  C   UNL A   1      38.997  29.415  28.966  1.00  0.00    -0.014 A 
BRANCH  43  44
ATOM     44  C   UNL A   1      40.354  28.935  29.328  1.00  0.00     0.031 A 
ATOM     45  C   UNL A   1      41.315  29.921  29.934  1.00  0.00     0.074 A 
ATOM     46  C   UNL A   1      40.745  27.671  29.085  1.00  0.00     0.049 A 
ATOM     47  N   UNL A   1      42.576  29.768  30.241  1.00  0.00    -0.248 NA
ATOM     48  C   UNL A   1      40.781  31.263  30.228  1.00  0.00     0.031 C 
ATOM     49  C   UNL A   1      39.909  26.618  28.511  1.00  0.00     0.029 A 
ATOM     50  N   UNL A   1      41.971  27.073  29.254  1.00  0.00    -0.354 N 
ATOM     51  C   UNL A   1      42.996  30.998  30.728  1.00  0.00     0.074 A 
ATOM     52  C   UNL A   1      41.856  31.887  30.688  1.00  0.00     0.031 C 
ATOM     53  C   UNL A   1      40.662  25.518  28.326  1.00  0.00     0.029 A 
ATOM     54  C   UNL A   1      42.035  25.797  28.742  1.00  0.00     0.049 A 
ATOM     55  H   UNL A   1      42.730  27.514  29.700  1.00  0.00     0.167 HD
ATOM     56  C   UNL A   1      44.222  31.357  31.173  1.00  0.00     0.034 A 
ATOM     57  C   UNL A   1      43.091  24.971  28.588  1.00  0.00     0.034 A 
ATOM     58  C   UNL A   1      45.353  30.473  31.230  1.00  0.00     0.049 A 
ATOM     59  C   UNL A   1      44.457  25.415  29.054  1.00  0.00     0.074 A 
ATOM     60  C   UNL A   1      46.616  30.730  31.734  1.00  0.00     0.029 A 
ATOM     61  N   UNL A   1      45.370  29.177  30.745  1.00  0.00    -0.354 N 
ATOM     62  N   UNL A   1      44.806  26.526  29.657  1.00  0.00    -0.248 NA
ATOM     63  C   UNL A   1      45.573  24.480  28.836  1.00  0.00     0.031 C 
ATOM     64  C   UNL A   1      47.408  29.598  31.521  1.00  0.00     0.029 A 
ATOM     65  C   UNL A   1      46.629  28.629  30.909  1.00  0.00     0.049 A 
ATOM     66  H   UNL A   1      44.599  28.715  30.342  1.00  0.00     0.167 HD
ATOM     67  C   UNL A   1      46.170  26.413  29.910  1.00  0.00     0.074 A 
ATOM     68  C   UNL A   1      46.579  25.113  29.425  1.00  0.00     0.031 C 
ATOM     69  C   UNL A   1      47.014  27.313  30.473  1.00  0.00     0.034 A 
BRANCH  56  70
ATOM     70  C   UNL A   1      44.412  32.768  31.653  1.00  0.00     0.023 A 
ATOM     71  C   UNL A   1      44.051  33.111  32.971  1.00  0.00     0.012 A 
ATOM     72  C   UNL A   1      45.030  33.726  30.827  1.00  0.00     0.148 A 
ATOM     73  C   UNL A   1      44.292  34.396  33.456  1.00  0.00     0.002 A 
ATOM     74  C   UNL A   1      45.301  34.992  31.330  1.00  0.00     0.091 A 
ATOM     75  F   UNL A   1      45.340  33.381  29.569  1.00  0.00    -0.205 F 
ATOM     76  C   UNL A   1      44.927  35.330  32.642  1.00  0.00     0.022 A 
BRANCH  74  77
ATOM     77  S   UNL A   1      46.179  36.244  30.389  1.00  0.00     0.127 S 
ATOM     78  O   UNL A   1      45.075  36.961  29.753  1.00  0.00    -0.237 OA
ATOM     79  O   UNL A   1      46.866  36.992  31.442  1.00  0.00    -0.237 OA
ATOM     80  O   UNL A   1      47.056  35.523  29.477  1.00  0.00    -0.744 OA
ENDBRANCH  74  77
ENDBRANCH  56  70
BRANCH  57  81
ATOM     81  C   UNL A   1      42.919  23.634  27.949  1.00  0.00     0.023 A 
ATOM     82  C   UNL A   1      42.005  22.711  28.494  1.00  0.00     0.012 A 
ATOM     83  C   UNL A   1      43.683  23.258  26.827  1.00  0.00     0.148 A 
ATOM     84  C   UNL A   1      41.883  21.428  27.958  1.00  0.00     0.002 A 
ATOM     85  C   UNL A   1      43.517  21.999  26.263  1.00  0.00     0.091 A 
ATOM     86  F   UNL A   1      44.571  24.137  26.340  1.00  0.00    -0.205 F 
ATOM     87  C   UNL A   1      42.631  21.075  26.837  1.00  0.00     0.022 A 
BRANCH  85  88
ATOM     88  S   UNL A   1      44.359  21.510  24.754  1.00  0.00     0.127 S 
ATOM     89  O   UNL A   1      44.016  22.605  23.851  1.00  0.00    -0.237 OA
ATOM     90  O   UNL A   1      45.758  21.478  25.181  1.00  0.00    -0.237 OA
ATOM     91  O   UNL A   1      43.808  20.205  24.411  1.00  0.00    -0.744 OA
ENDBRANCH  85  88
ENDBRANCH  57  81
BRANCH  69  92
ATOM     92  C   UNL A   1      48.464  26.929  30.621  1.00  0.00     0.023 A 
ATOM     93  C   UNL A   1      48.879  26.200  31.752  1.00  0.00     0.012 A 
ATOM     94  C   UNL A   1      49.393  27.208  29.599  1.00  0.00     0.148 A 
ATOM     95  C   UNL A   1      50.202  25.777  31.877  1.00  0.00     0.002 A 
ATOM     96  C   UNL A   1      50.699  26.742  29.707  1.00  0.00     0.091 A 
ATOM     97  F   UNL A   1      48.982  27.914  28.536  1.00  0.00    -0.205 F 
ATOM     98  C   UNL A   1      51.107  26.036  30.850  1.00  0.00     0.022 A 
BRANCH  96  99
ATOM     99  S   UNL A   1      51.909  26.944  28.395  1.00  0.00     0.127 S 
ATOM    100  O   UNL A   1      51.257  26.259  27.280  1.00  0.00    -0.237 OA
ATOM    101  O   UNL A   1      51.981  28.399  28.259  1.00  0.00    -0.237 OA
ATOM    102  O   UNL A   1      53.134  26.320  28.878  1.00  0.00    -0.744 OA
ENDBRANCH  96  99
ENDBRANCH  69  92
ENDBRANCH  43  44
ENDBRANCH  36  38
ENDBRANCH  35  36
ENDBRANCH  34  35
ENDBRANCH  33  34
ENDBRANCH  32  33
ENDBRANCH  31  32
ENDBRANCH  30  31
ENDBRANCH  29  30
ENDBRANCH   1  29
TORSDOF 27
ENDMDL
