MODEL 1
REMARK VINA RESULT:     -10.5      0.000      0.000
REMARK SMILES Cc1ccc(-c2cc(C(=O)OCCOCCOCCOCCOC(=O)c3ccc(-c4c5nc(c(-c6cccc(S(=O)(=O)[O-])c6F)c6ccc([nH]6)c(-c6cccc(S(=O)(=O)[O-])c6F)c6nc(c(-c7cccc(S(=O)(=O)[O-])c7F)c7ccc4[nH]7)C=C6)C=C5)cc3)c3cc(C)ccc3n2)c(C)c1
REMARK SMILES IDX 18 1 17 2 16 3 15 4 14 5 13 6 12 7 11 8 9 9 10 10 8 11 6 12
REMARK SMILES IDX 7 13 96 14 95 15 89 16 94 17 90 18 93 19 91 20 92 21 5 22
REMARK SMILES IDX 1 23 2 24 3 25 99 26 4 27 97 28 98 29 19 30 20 31 21 32
REMARK SMILES IDX 22 33 23 34 24 35 25 36 26 37 27 38 88 39 28 40 87 41 29 42
REMARK SMILES IDX 30 43 31 44 81 45 32 46 86 47 80 48 82 49 33 50 85 51 79 52
REMARK SMILES IDX 78 53 34 55 66 56 46 57 65 58 47 59 50 60 64 61 83 62 48 63
REMARK SMILES IDX 49 64 63 66 84 67 51 68 35 69 36 70 44 71 37 72 39 73 45 74
REMARK SMILES IDX 38 75 40 76 41 77 42 78 43 79 67 80 68 81 76 82 69 83 71 84
REMARK SMILES IDX 77 85 70 86 72 87 73 88 74 89 75 90 52 91 53 92 61 93 54 94
REMARK SMILES IDX 56 95 62 96 55 97 57 98 58 99 59 100 60 101
REMARK H PARENT 82 54 50 65
REMARK Flexibility Score: inf
ROOT
ATOM      1  C   UNL A   1      35.677  21.196  25.125  1.00  0.00     0.188 C 
ENDROOT
BRANCH   1   2
ATOM      2  O   UNL A   1      34.810  20.075  24.984  1.00  0.00    -0.377 OA
BRANCH   2   3
ATOM      3  C   UNL A   1      33.420  20.281  24.832  1.00  0.00     0.188 C 
BRANCH   3   4
ATOM      4  C   UNL A   1      32.983  21.723  24.501  1.00  0.00     0.188 C 
BRANCH   4   5
ATOM      5  O   UNL A   1      31.665  22.077  24.869  1.00  0.00    -0.376 OA
BRANCH   5   6
ATOM      6  C   UNL A   1      31.360  22.737  26.085  1.00  0.00     0.202 C 
BRANCH   6   7
ATOM      7  C   UNL A   1      32.157  23.891  26.718  1.00  0.00     0.261 C 
BRANCH   7   8
ATOM      8  O   UNL A   1      31.422  25.047  27.101  1.00  0.00    -0.460 OA
BRANCH   8   9
ATOM      9  C   UNL A   1      30.702  25.671  26.150  1.00  0.00     0.338 C 
ATOM     10  O   UNL A   1      29.501  25.581  25.966  1.00  0.00    -0.246 OA
BRANCH   9  11
ATOM     11  C   UNL A   1      31.557  26.701  25.513  1.00  0.00     0.071 A 
ATOM     12  C   UNL A   1      32.504  28.878  25.736  1.00  0.00     0.072 A 
ATOM     13  C   UNL A   1      31.702  27.878  26.250  1.00  0.00     0.045 A 
ATOM     14  N   UNL A   1      33.118  28.766  24.538  1.00  0.00    -0.248 NA
ATOM     15  C   UNL A   1      32.977  27.631  23.829  1.00  0.00     0.072 A 
ATOM     16  C   UNL A   1      32.225  26.528  24.278  1.00  0.00     0.015 A 
ATOM     17  C   UNL A   1      33.602  27.556  22.592  1.00  0.00     0.029 A 
ATOM     18  C   UNL A   1      32.202  25.352  23.481  1.00  0.00     0.014 A 
ATOM     19  C   UNL A   1      33.560  26.402  21.805  1.00  0.00     0.005 A 
ATOM     20  C   UNL A   1      32.874  25.278  22.256  1.00  0.00    -0.050 A 
ATOM     21  C   UNL A   1      32.909  23.987  21.490  1.00  0.00     0.044 C 
BRANCH  12  22
ATOM     22  C   UNL A   1      32.645  30.167  26.420  1.00  0.00     0.003 A 
ATOM     23  C   UNL A   1      33.094  34.038  28.311  1.00  0.00     0.044 C 
ATOM     24  C   UNL A   1      32.917  32.702  27.655  1.00  0.00    -0.051 A 
ATOM     25  C   UNL A   1      31.785  32.407  26.893  1.00  0.00     0.004 A 
ATOM     26  C   UNL A   1      33.906  31.723  27.804  1.00  0.00     0.007 A 
ATOM     27  C   UNL A   1      31.650  31.154  26.284  1.00  0.00     0.011 A 
ATOM     28  C   UNL A   1      33.786  30.462  27.194  1.00  0.00    -0.041 A 
ATOM     29  C   UNL A   1      34.894  29.465  27.414  1.00  0.00     0.045 C 
ENDBRANCH  12  22
ENDBRANCH   9  11
ENDBRANCH   8   9
ENDBRANCH   7   8
ENDBRANCH   6   7
ENDBRANCH   5   6
ENDBRANCH   4   5
ENDBRANCH   3   4
ENDBRANCH   2   3
ENDBRANCH   1   2
BRANCH   1  30
ATOM     30  C   UNL A   1      37.219  21.081  25.036  1.00  0.00     0.188 C 
BRANCH  30  31
ATOM     31  O   UNL A   1      37.709  19.831  24.579  1.00  0.00    -0.376 OA
BRANCH  31  32
ATOM     32  C   UNL A   1      38.724  19.188  25.328  1.00  0.00     0.202 C 
BRANCH  32  33
ATOM     33  C   UNL A   1      39.749  20.087  26.032  1.00  0.00     0.261 C 
BRANCH  33  34
ATOM     34  O   UNL A   1      40.921  19.429  26.531  1.00  0.00    -0.460 OA
BRANCH  34  35
ATOM     35  C   UNL A   1      42.100  19.749  25.950  1.00  0.00     0.338 C 
ATOM     36  O   UNL A   1      42.727  19.087  25.150  1.00  0.00    -0.246 OA
BRANCH  35  37
ATOM     37  C   UNL A   1      42.407  21.145  26.323  1.00  0.00     0.060 A 
ATOM     38  C   UNL A   1      42.490  22.116  25.317  1.00  0.00     0.016 A 
ATOM     39  C   UNL A   1      42.597  21.492  27.662  1.00  0.00     0.016 A 
ATOM     40  C   UNL A   1      42.801  23.436  25.647  1.00  0.00     0.010 A 
ATOM     41  C   UNL A   1      42.927  22.808  27.989  1.00  0.00     0.010 A 
ATOM     42  C   UNL A   1      43.065  23.778  26.980  1.00  0.00    -0.014 A 
BRANCH  42  43
ATOM     43  C   UNL A   1      43.681  25.088  27.300  1.00  0.00     0.031 A 
ATOM     44  C   UNL A   1      42.797  26.170  27.856  1.00  0.00     0.074 A 
ATOM     45  C   UNL A   1      44.992  25.315  27.101  1.00  0.00     0.049 A 
ATOM     46  N   UNL A   1      43.087  27.410  28.152  1.00  0.00    -0.248 NA
ATOM     47  C   UNL A   1      41.392  25.804  28.110  1.00  0.00     0.031 C 
ATOM     48  C   UNL A   1      45.954  24.342  26.588  1.00  0.00     0.029 A 
ATOM     49  N   UNL A   1      45.733  26.457  27.284  1.00  0.00    -0.354 N 
ATOM     50  C   UNL A   1      41.901  27.977  28.603  1.00  0.00     0.074 A 
ATOM     51  C   UNL A   1      40.883  26.954  28.524  1.00  0.00     0.031 C 
ATOM     52  C   UNL A   1      47.154  24.936  26.472  1.00  0.00     0.029 A 
ATOM     53  C   UNL A   1      47.039  26.337  26.870  1.00  0.00     0.049 A 
ATOM     54  H   UNL A   1      45.364  27.281  27.677  1.00  0.00     0.167 HD
ATOM     55  C   UNL A   1      41.682  29.233  29.059  1.00  0.00     0.034 A 
ATOM     56  C   UNL A   1      48.015  27.264  26.795  1.00  0.00     0.034 A 
ATOM     57  C   UNL A   1      42.696  30.247  29.140  1.00  0.00     0.049 A 
ATOM     58  C   UNL A   1      47.727  28.675  27.251  1.00  0.00     0.074 A 
ATOM     59  C   UNL A   1      42.580  31.545  29.603  1.00  0.00     0.029 A 
ATOM     60  N   UNL A   1      44.011  30.083  28.734  1.00  0.00    -0.354 N 
ATOM     61  N   UNL A   1      46.627  29.171  27.764  1.00  0.00    -0.248 NA
ATOM     62  C   UNL A   1      48.828  29.645  27.148  1.00  0.00     0.031 C 
ATOM     63  C   UNL A   1      43.818  32.176  29.448  1.00  0.00     0.029 A 
ATOM     64  C   UNL A   1      44.716  31.258  28.929  1.00  0.00     0.049 A 
ATOM     65  H   UNL A   1      44.389  29.252  28.362  1.00  0.00     0.167 HD
ATOM     66  C   UNL A   1      46.918  30.494  28.088  1.00  0.00     0.074 A 
ATOM     67  C   UNL A   1      48.303  30.715  27.728  1.00  0.00     0.031 C 
ATOM     68  C   UNL A   1      46.112  31.443  28.624  1.00  0.00     0.034 A 
BRANCH  55  69
ATOM     69  C   UNL A   1      40.290  29.573  29.525  1.00  0.00     0.023 A 
ATOM     70  C   UNL A   1      39.366  30.131  28.617  1.00  0.00     0.012 A 
ATOM     71  C   UNL A   1      39.881  29.295  30.843  1.00  0.00     0.148 A 
ATOM     72  C   UNL A   1      38.068  30.437  29.022  1.00  0.00     0.002 A 
ATOM     73  C   UNL A   1      38.571  29.558  31.227  1.00  0.00     0.091 A 
ATOM     74  F   UNL A   1      40.779  28.783  31.697  1.00  0.00    -0.205 F 
ATOM     75  C   UNL A   1      37.668  30.141  30.323  1.00  0.00     0.022 A 
BRANCH  73  76
ATOM     76  S   UNL A   1      37.934  29.142  32.854  1.00  0.00     0.127 S 
ATOM     77  O   UNL A   1      38.964  29.705  33.726  1.00  0.00    -0.237 OA
ATOM     78  O   UNL A   1      36.659  29.860  32.874  1.00  0.00    -0.237 OA
ATOM     79  O   UNL A   1      37.818  27.691  32.884  1.00  0.00    -0.744 OA
ENDBRANCH  73  76
ENDBRANCH  55  69
BRANCH  56  80
ATOM     80  C   UNL A   1      49.369  26.901  26.285  1.00  0.00     0.023 A 
ATOM     81  C   UNL A   1      50.262  26.199  27.118  1.00  0.00     0.012 A 
ATOM     82  C   UNL A   1      49.786  27.268  24.990  1.00  0.00     0.148 A 
ATOM     83  C   UNL A   1      51.560  25.912  26.690  1.00  0.00     0.002 A 
ATOM     84  C   UNL A   1      51.059  26.926  24.548  1.00  0.00     0.091 A 
ATOM     85  F   UNL A   1      48.930  27.951  24.216  1.00  0.00    -0.205 F 
ATOM     86  C   UNL A   1      51.955  26.268  25.405  1.00  0.00     0.022 A 
BRANCH  84  87
ATOM     87  S   UNL A   1      51.608  27.232  22.866  1.00  0.00     0.127 S 
ATOM     88  O   UNL A   1      51.709  28.689  22.844  1.00  0.00    -0.237 OA
ATOM     89  O   UNL A   1      52.888  26.523  22.834  1.00  0.00    -0.237 OA
ATOM     90  O   UNL A   1      50.584  26.655  22.006  1.00  0.00    -0.744 OA
ENDBRANCH  84  87
ENDBRANCH  56  80
BRANCH  68  91
ATOM     91  C   UNL A   1      46.714  32.793  28.922  1.00  0.00     0.023 A 
ATOM     92  C   UNL A   1      47.494  32.983  30.079  1.00  0.00     0.012 A 
ATOM     93  C   UNL A   1      46.566  33.855  28.007  1.00  0.00     0.148 A 
ATOM     94  C   UNL A   1      48.084  34.219  30.342  1.00  0.00     0.002 A 
ATOM     95  C   UNL A   1      47.202  35.067  28.246  1.00  0.00     0.091 A 
ATOM     96  F   UNL A   1      45.809  33.659  26.918  1.00  0.00    -0.205 F 
ATOM     97  C   UNL A   1      47.949  35.256  29.421  1.00  0.00     0.022 A 
BRANCH  95  98
ATOM     98  S   UNL A   1      47.168  36.425  27.071  1.00  0.00     0.127 S 
ATOM     99  O   UNL A   1      45.733  36.598  26.857  1.00  0.00    -0.237 OA
ATOM    100  O   UNL A   1      47.807  37.502  27.826  1.00  0.00    -0.237 OA
ATOM    101  O   UNL A   1      47.919  35.971  25.908  1.00  0.00    -0.744 OA
ENDBRANCH  95  98
ENDBRANCH  68  91
ENDBRANCH  42  43
ENDBRANCH  35  37
ENDBRANCH  34  35
ENDBRANCH  33  34
ENDBRANCH  32  33
ENDBRANCH  31  32
ENDBRANCH  30  31
ENDBRANCH   1  30
TORSDOF 24
ENDMDL
MODEL 2
REMARK VINA RESULT:      -9.9      3.262      9.228
REMARK SMILES Cc1ccc(-c2cc(C(=O)OCCOCCOCCOCCOC(=O)c3ccc(-c4c5nc(c(-c6cccc(S(=O)(=O)[O-])c6F)c6ccc([nH]6)c(-c6cccc(S(=O)(=O)[O-])c6F)c6nc(c(-c7cccc(S(=O)(=O)[O-])c7F)c7ccc4[nH]7)C=C6)C=C5)cc3)c3cc(C)ccc3n2)c(C)c1
REMARK SMILES IDX 18 1 17 2 16 3 15 4 14 5 13 6 12 7 11 8 9 9 10 10 8 11 6 12
REMARK SMILES IDX 7 13 96 14 95 15 89 16 94 17 90 18 93 19 91 20 92 21 5 22
REMARK SMILES IDX 1 23 2 24 3 25 99 26 4 27 97 28 98 29 19 30 20 31 21 32
REMARK SMILES IDX 22 33 23 34 24 35 25 36 26 37 27 38 88 39 28 40 87 41 29 42
REMARK SMILES IDX 30 43 31 44 81 45 32 46 86 47 80 48 82 49 33 50 85 51 79 52
REMARK SMILES IDX 78 53 34 55 66 56 46 57 65 58 47 59 50 60 64 61 83 62 48 63
REMARK SMILES IDX 49 64 63 66 84 67 51 68 35 69 36 70 44 71 37 72 39 73 45 74
REMARK SMILES IDX 38 75 40 76 41 77 42 78 43 79 67 80 68 81 76 82 69 83 71 84
REMARK SMILES IDX 77 85 70 86 72 87 73 88 74 89 75 90 52 91 53 92 61 93 54 94
REMARK SMILES IDX 56 95 62 96 55 97 57 98 58 99 59 100 60 101
REMARK H PARENT 82 54 50 65
REMARK Flexibility Score: inf
ROOT
ATOM      1  C   UNL A   1      40.835  20.248  26.173  1.00  0.00     0.188 C 
ENDROOT
BRANCH   1   2
ATOM      2  O   UNL A   1      41.029  21.637  26.422  1.00  0.00    -0.377 OA
BRANCH   2   3
ATOM      3  C   UNL A   1      40.452  22.229  27.568  1.00  0.00     0.188 C 
BRANCH   3   4
ATOM      4  C   UNL A   1      40.200  23.749  27.488  1.00  0.00     0.188 C 
BRANCH   4   5
ATOM      5  O   UNL A   1      38.942  24.149  26.985  1.00  0.00    -0.376 OA
BRANCH   5   6
ATOM      6  C   UNL A   1      38.371  23.586  25.817  1.00  0.00     0.202 C 
BRANCH   6   7
ATOM      7  C   UNL A   1      36.922  23.091  25.661  1.00  0.00     0.261 C 
BRANCH   7   8
ATOM      8  O   UNL A   1      36.063  23.866  24.835  1.00  0.00    -0.460 OA
BRANCH   8   9
ATOM      9  C   UNL A   1      35.729  23.359  23.633  1.00  0.00     0.338 C 
ATOM     10  O   UNL A   1      36.477  23.154  22.693  1.00  0.00    -0.246 OA
BRANCH   9  11
ATOM     11  C   UNL A   1      34.344  22.836  23.710  1.00  0.00     0.071 A 
ATOM     12  C   UNL A   1      32.988  20.936  24.192  1.00  0.00     0.072 A 
ATOM     13  C   UNL A   1      34.246  21.492  24.073  1.00  0.00     0.045 A 
ATOM     14  N   UNL A   1      31.861  21.637  23.936  1.00  0.00    -0.248 NA
ATOM     15  C   UNL A   1      31.958  22.933  23.587  1.00  0.00     0.072 A 
ATOM     16  C   UNL A   1      33.186  23.617  23.485  1.00  0.00     0.015 A 
ATOM     17  C   UNL A   1      30.784  23.621  23.311  1.00  0.00     0.029 A 
ATOM     18  C   UNL A   1      33.167  25.004  23.178  1.00  0.00     0.014 A 
ATOM     19  C   UNL A   1      30.776  24.981  22.992  1.00  0.00     0.005 A 
ATOM     20  C   UNL A   1      31.971  25.692  22.945  1.00  0.00    -0.050 A 
ATOM     21  C   UNL A   1      31.986  27.176  22.722  1.00  0.00     0.044 C 
BRANCH  12  22
ATOM     22  C   UNL A   1      32.811  19.513  24.498  1.00  0.00     0.003 A 
ATOM     23  C   UNL A   1      32.432  15.298  25.422  1.00  0.00     0.044 C 
ATOM     24  C   UNL A   1      32.559  16.762  25.123  1.00  0.00    -0.051 A 
ATOM     25  C   UNL A   1      32.783  17.696  26.136  1.00  0.00     0.004 A 
ATOM     26  C   UNL A   1      32.453  17.208  23.801  1.00  0.00     0.007 A 
ATOM     27  C   UNL A   1      32.906  19.056  25.826  1.00  0.00     0.011 A 
ATOM     28  C   UNL A   1      32.579  18.570  23.475  1.00  0.00    -0.041 A 
ATOM     29  C   UNL A   1      32.442  18.963  22.028  1.00  0.00     0.045 C 
ENDBRANCH  12  22
ENDBRANCH   9  11
ENDBRANCH   8   9
ENDBRANCH   7   8
ENDBRANCH   6   7
ENDBRANCH   5   6
ENDBRANCH   4   5
ENDBRANCH   3   4
ENDBRANCH   2   3
ENDBRANCH   1   2
BRANCH   1  30
ATOM     30  C   UNL A   1      41.996  19.224  26.177  1.00  0.00     0.188 C 
BRANCH  30  31
ATOM     31  O   UNL A   1      42.857  19.277  25.051  1.00  0.00    -0.376 OA
BRANCH  31  32
ATOM     32  C   UNL A   1      44.256  19.284  25.268  1.00  0.00     0.202 C 
BRANCH  32  33
ATOM     33  C   UNL A   1      44.986  20.620  25.075  1.00  0.00     0.261 C 
BRANCH  33  34
ATOM     34  O   UNL A   1      44.327  21.776  25.608  1.00  0.00    -0.460 OA
BRANCH  34  35
ATOM     35  C   UNL A   1      43.940  22.725  24.725  1.00  0.00     0.338 C 
ATOM     36  O   UNL A   1      43.706  22.577  23.544  1.00  0.00    -0.246 OA
BRANCH  35  37
ATOM     37  C   UNL A   1      43.668  23.956  25.496  1.00  0.00     0.060 A 
ATOM     38  C   UNL A   1      43.183  25.086  24.826  1.00  0.00     0.016 A 
ATOM     39  C   UNL A   1      43.877  23.983  26.876  1.00  0.00     0.016 A 
ATOM     40  C   UNL A   1      42.941  26.264  25.533  1.00  0.00     0.010 A 
ATOM     41  C   UNL A   1      43.653  25.168  27.580  1.00  0.00     0.010 A 
ATOM     42  C   UNL A   1      43.218  26.323  26.905  1.00  0.00    -0.014 A 
BRANCH  42  43
ATOM     43  C   UNL A   1      43.251  27.634  27.598  1.00  0.00     0.031 A 
ATOM     44  C   UNL A   1      44.590  28.282  27.825  1.00  0.00     0.074 A 
ATOM     45  C   UNL A   1      42.123  28.234  28.020  1.00  0.00     0.049 A 
ATOM     46  N   UNL A   1      44.880  29.388  28.459  1.00  0.00    -0.248 NA
ATOM     47  C   UNL A   1      45.760  27.586  27.261  1.00  0.00     0.031 C 
ATOM     48  C   UNL A   1      40.769  27.717  27.842  1.00  0.00     0.029 A 
ATOM     49  N   UNL A   1      41.948  29.406  28.714  1.00  0.00    -0.354 N 
ATOM     50  C   UNL A   1      46.263  29.508  28.392  1.00  0.00     0.074 A 
ATOM     51  C   UNL A   1      46.757  28.355  27.673  1.00  0.00     0.031 C 
ATOM     52  C   UNL A   1      39.901  28.554  28.436  1.00  0.00     0.029 A 
ATOM     53  C   UNL A   1      40.640  29.648  29.064  1.00  0.00     0.049 A 
ATOM     54  H   UNL A   1      42.688  30.016  28.938  1.00  0.00     0.167 HD
ATOM     55  C   UNL A   1      47.052  30.499  28.870  1.00  0.00     0.034 A 
ATOM     56  C   UNL A   1      40.111  30.625  29.827  1.00  0.00     0.034 A 
ATOM     57  C   UNL A   1      46.560  31.646  29.581  1.00  0.00     0.049 A 
ATOM     58  C   UNL A   1      41.021  31.684  30.402  1.00  0.00     0.074 A 
ATOM     59  C   UNL A   1      47.275  32.714  30.091  1.00  0.00     0.029 A 
ATOM     60  N   UNL A   1      45.229  31.868  29.895  1.00  0.00    -0.354 N 
ATOM     61  N   UNL A   1      42.315  31.836  30.251  1.00  0.00    -0.248 NA
ATOM     62  C   UNL A   1      40.392  32.725  31.228  1.00  0.00     0.031 C 
ATOM     63  C   UNL A   1      46.379  33.567  30.743  1.00  0.00     0.029 A 
ATOM     64  C   UNL A   1      45.100  33.053  30.599  1.00  0.00     0.049 A 
ATOM     65  H   UNL A   1      44.482  31.272  29.652  1.00  0.00     0.167 HD
ATOM     66  C   UNL A   1      42.644  33.012  30.919  1.00  0.00     0.074 A 
ATOM     67  C   UNL A   1      41.410  33.540  31.462  1.00  0.00     0.031 C 
ATOM     68  C   UNL A   1      43.856  33.598  31.079  1.00  0.00     0.034 A 
BRANCH  55  69
ATOM     69  C   UNL A   1      48.534  30.392  28.621  1.00  0.00     0.023 A 
ATOM     70  C   UNL A   1      49.325  29.573  29.454  1.00  0.00     0.012 A 
ATOM     71  C   UNL A   1      49.135  31.059  27.537  1.00  0.00     0.148 A 
ATOM     72  C   UNL A   1      50.695  29.446  29.232  1.00  0.00     0.002 A 
ATOM     73  C   UNL A   1      50.493  30.889  27.292  1.00  0.00     0.091 A 
ATOM     74  F   UNL A   1      48.371  31.848  26.769  1.00  0.00    -0.205 F 
ATOM     75  C   UNL A   1      51.276  30.096  28.145  1.00  0.00     0.022 A 
BRANCH  73  76
ATOM     76  S   UNL A   1      51.322  31.618  25.875  1.00  0.00     0.127 S 
ATOM     77  O   UNL A   1      52.613  31.993  26.449  1.00  0.00    -0.237 OA
ATOM     78  O   UNL A   1      51.374  30.492  24.941  1.00  0.00    -0.237 OA
ATOM     79  O   UNL A   1      50.486  32.729  25.444  1.00  0.00    -0.744 OA
ENDBRANCH  73  76
ENDBRANCH  55  69
BRANCH  56  80
ATOM     80  C   UNL A   1      38.643  30.671  30.090  1.00  0.00     0.023 A 
ATOM     81  C   UNL A   1      38.062  29.732  30.965  1.00  0.00     0.012 A 
ATOM     82  C   UNL A   1      37.817  31.622  29.460  1.00  0.00     0.148 A 
ATOM     83  C   UNL A   1      36.682  29.708  31.171  1.00  0.00     0.002 A 
ATOM     84  C   UNL A   1      36.450  31.631  29.716  1.00  0.00     0.091 A 
ATOM     85  F   UNL A   1      38.383  32.498  28.618  1.00  0.00    -0.205 F 
ATOM     86  C   UNL A   1      35.877  30.661  30.554  1.00  0.00     0.022 A 
BRANCH  84  87
ATOM     87  S   UNL A   1      35.358  32.900  29.066  1.00  0.00     0.127 S 
ATOM     88  O   UNL A   1      36.117  34.117  29.340  1.00  0.00    -0.237 OA
ATOM     89  O   UNL A   1      35.274  32.529  27.653  1.00  0.00    -0.237 OA
ATOM     90  O   UNL A   1      34.107  32.755  29.797  1.00  0.00    -0.744 OA
ENDBRANCH  84  87
ENDBRANCH  56  80
BRANCH  68  91
ATOM     91  C   UNL A   1      43.912  34.913  31.814  1.00  0.00     0.023 A 
ATOM     92  C   UNL A   1      44.074  34.940  33.213  1.00  0.00     0.012 A 
ATOM     93  C   UNL A   1      43.878  36.128  31.099  1.00  0.00     0.148 A 
ATOM     94  C   UNL A   1      44.161  36.155  33.893  1.00  0.00     0.002 A 
ATOM     95  C   UNL A   1      44.022  37.332  31.776  1.00  0.00     0.091 A 
ATOM     96  F   UNL A   1      43.710  36.082  29.769  1.00  0.00    -0.205 F 
ATOM     97  C   UNL A   1      44.148  37.349  33.175  1.00  0.00     0.022 A 
BRANCH  95  98
ATOM     98  S   UNL A   1      44.118  38.913  30.928  1.00  0.00     0.127 S 
ATOM     99  O   UNL A   1      43.442  38.615  29.666  1.00  0.00    -0.237 OA
ATOM    100  O   UNL A   1      43.371  39.792  31.827  1.00  0.00    -0.237 OA
ATOM    101  O   UNL A   1      45.536  39.225  30.814  1.00  0.00    -0.744 OA
ENDBRANCH  95  98
ENDBRANCH  68  91
ENDBRANCH  42  43
ENDBRANCH  35  37
ENDBRANCH  34  35
ENDBRANCH  33  34
ENDBRANCH  32  33
ENDBRANCH  31  32
ENDBRANCH  30  31
ENDBRANCH   1  30
TORSDOF 24
ENDMDL
MODEL 3
REMARK VINA RESULT:      -9.8      3.514      8.545
REMARK SMILES Cc1ccc(-c2cc(C(=O)OCCOCCOCCOCCOC(=O)c3ccc(-c4c5nc(c(-c6cccc(S(=O)(=O)[O-])c6F)c6ccc([nH]6)c(-c6cccc(S(=O)(=O)[O-])c6F)c6nc(c(-c7cccc(S(=O)(=O)[O-])c7F)c7ccc4[nH]7)C=C6)C=C5)cc3)c3cc(C)ccc3n2)c(C)c1
REMARK SMILES IDX 18 1 17 2 16 3 15 4 14 5 13 6 12 7 11 8 9 9 10 10 8 11 6 12
REMARK SMILES IDX 7 13 96 14 95 15 89 16 94 17 90 18 93 19 91 20 92 21 5 22
REMARK SMILES IDX 1 23 2 24 3 25 99 26 4 27 97 28 98 29 19 30 20 31 21 32
REMARK SMILES IDX 22 33 23 34 24 35 25 36 26 37 27 38 88 39 28 40 87 41 29 42
REMARK SMILES IDX 30 43 31 44 81 45 32 46 86 47 80 48 82 49 33 50 85 51 79 52
REMARK SMILES IDX 78 53 34 55 66 56 46 57 65 58 47 59 50 60 64 61 83 62 48 63
REMARK SMILES IDX 49 64 63 66 84 67 51 68 35 69 36 70 44 71 37 72 39 73 45 74
REMARK SMILES IDX 38 75 40 76 41 77 42 78 43 79 67 80 68 81 76 82 69 83 71 84
REMARK SMILES IDX 77 85 70 86 72 87 73 88 74 89 75 90 52 91 53 92 61 93 54 94
REMARK SMILES IDX 56 95 62 96 55 97 57 98 58 99 59 100 60 101
REMARK H PARENT 82 54 50 65
REMARK Flexibility Score: inf
ROOT
ATOM      1  C   UNL A   1      41.471  19.769  26.138  1.00  0.00     0.188 C 
ENDROOT
BRANCH   1   2
ATOM      2  O   UNL A   1      41.342  21.182  26.263  1.00  0.00    -0.377 OA
BRANCH   2   3
ATOM      3  C   UNL A   1      41.098  21.753  27.533  1.00  0.00     0.188 C 
BRANCH   3   4
ATOM      4  C   UNL A   1      40.594  23.211  27.532  1.00  0.00     0.188 C 
BRANCH   4   5
ATOM      5  O   UNL A   1      39.259  23.411  27.114  1.00  0.00    -0.376 OA
BRANCH   5   6
ATOM      6  C   UNL A   1      38.701  22.746  25.994  1.00  0.00     0.202 C 
BRANCH   6   7
ATOM      7  C   UNL A   1      37.212  22.712  25.606  1.00  0.00     0.261 C 
BRANCH   7   8
ATOM      8  O   UNL A   1      36.744  23.749  24.754  1.00  0.00    -0.460 OA
BRANCH   8   9
ATOM      9  C   UNL A   1      36.131  23.389  23.611  1.00  0.00     0.338 C 
ATOM     10  O   UNL A   1      36.662  22.956  22.603  1.00  0.00    -0.246 OA
BRANCH   9  11
ATOM     11  C   UNL A   1      34.670  23.351  23.852  1.00  0.00     0.071 A 
ATOM     12  C   UNL A   1      32.650  24.617  23.868  1.00  0.00     0.072 A 
ATOM     13  C   UNL A   1      34.017  24.574  23.686  1.00  0.00     0.045 A 
ATOM     14  N   UNL A   1      31.935  23.529  24.231  1.00  0.00    -0.248 NA
ATOM     15  C   UNL A   1      32.565  22.350  24.390  1.00  0.00     0.072 A 
ATOM     16  C   UNL A   1      33.948  22.179  24.181  1.00  0.00     0.015 A 
ATOM     17  C   UNL A   1      31.807  21.256  24.784  1.00  0.00     0.029 A 
ATOM     18  C   UNL A   1      34.498  20.875  24.309  1.00  0.00     0.014 A 
ATOM     19  C   UNL A   1      32.359  19.980  24.924  1.00  0.00     0.005 A 
ATOM     20  C   UNL A   1      33.710  19.774  24.665  1.00  0.00    -0.050 A 
ATOM     21  C   UNL A   1      34.307  18.397  24.692  1.00  0.00     0.044 C 
BRANCH  12  22
ATOM     22  C   UNL A   1      31.910  25.880  23.781  1.00  0.00     0.003 A 
ATOM     23  C   UNL A   1      29.842  29.672  23.461  1.00  0.00     0.044 C 
ATOM     24  C   UNL A   1      30.548  28.353  23.553  1.00  0.00    -0.051 A 
ATOM     25  C   UNL A   1      30.718  27.536  22.433  1.00  0.00     0.004 A 
ATOM     26  C   UNL A   1      31.054  27.925  24.786  1.00  0.00     0.007 A 
ATOM     27  C   UNL A   1      31.390  26.314  22.547  1.00  0.00     0.011 A 
ATOM     28  C   UNL A   1      31.735  26.702  24.913  1.00  0.00    -0.041 A 
ATOM     29  C   UNL A   1      32.238  26.315  26.280  1.00  0.00     0.045 C 
ENDBRANCH  12  22
ENDBRANCH   9  11
ENDBRANCH   8   9
ENDBRANCH   7   8
ENDBRANCH   6   7
ENDBRANCH   5   6
ENDBRANCH   4   5
ENDBRANCH   3   4
ENDBRANCH   2   3
ENDBRANCH   1   2
BRANCH   1  30
ATOM     30  C   UNL A   1      42.829  19.070  25.888  1.00  0.00     0.188 C 
BRANCH  30  31
ATOM     31  O   UNL A   1      43.615  19.626  24.845  1.00  0.00    -0.376 OA
BRANCH  31  32
ATOM     32  C   UNL A   1      45.000  19.816  25.070  1.00  0.00     0.202 C 
BRANCH  32  33
ATOM     33  C   UNL A   1      45.481  21.257  25.288  1.00  0.00     0.261 C 
BRANCH  33  34
ATOM     34  O   UNL A   1      44.519  22.160  25.848  1.00  0.00    -0.460 OA
BRANCH  34  35
ATOM     35  C   UNL A   1      43.912  23.018  24.997  1.00  0.00     0.338 C 
ATOM     36  O   UNL A   1      43.519  22.783  23.874  1.00  0.00    -0.246 OA
BRANCH  35  37
ATOM     37  C   UNL A   1      43.639  24.261  25.749  1.00  0.00     0.060 A 
ATOM     38  C   UNL A   1      43.134  25.374  25.065  1.00  0.00     0.016 A 
ATOM     39  C   UNL A   1      43.868  24.317  27.125  1.00  0.00     0.016 A 
ATOM     40  C   UNL A   1      42.891  26.563  25.753  1.00  0.00     0.010 A 
ATOM     41  C   UNL A   1      43.643  25.513  27.810  1.00  0.00     0.010 A 
ATOM     42  C   UNL A   1      43.187  26.650  27.120  1.00  0.00    -0.014 A 
BRANCH  42  43
ATOM     43  C   UNL A   1      43.217  27.974  27.788  1.00  0.00     0.031 A 
ATOM     44  C   UNL A   1      44.542  28.678  27.905  1.00  0.00     0.074 A 
ATOM     45  C   UNL A   1      42.100  28.538  28.282  1.00  0.00     0.049 A 
ATOM     46  N   UNL A   1      44.833  29.806  28.499  1.00  0.00    -0.248 NA
ATOM     47  C   UNL A   1      45.695  28.018  27.268  1.00  0.00     0.031 C 
ATOM     48  C   UNL A   1      40.758  27.964  28.212  1.00  0.00     0.029 A 
ATOM     49  N   UNL A   1      41.929  29.715  28.968  1.00  0.00    -0.354 N 
ATOM     50  C   UNL A   1      46.201  29.979  28.328  1.00  0.00     0.074 A 
ATOM     51  C   UNL A   1      46.687  28.833  27.594  1.00  0.00     0.031 C 
ATOM     52  C   UNL A   1      39.903  28.779  28.854  1.00  0.00     0.029 A 
ATOM     53  C   UNL A   1      40.641  29.911  29.408  1.00  0.00     0.049 A 
ATOM     54  H   UNL A   1      42.658  30.357  29.127  1.00  0.00     0.167 HD
ATOM     55  C   UNL A   1      46.983  31.009  28.731  1.00  0.00     0.034 A 
ATOM     56  C   UNL A   1      40.130  30.881  30.193  1.00  0.00     0.034 A 
ATOM     57  C   UNL A   1      46.497  32.149  29.458  1.00  0.00     0.049 A 
ATOM     58  C   UNL A   1      41.036  31.986  30.683  1.00  0.00     0.074 A 
ATOM     59  C   UNL A   1      47.203  33.254  29.897  1.00  0.00     0.029 A 
ATOM     60  N   UNL A   1      45.184  32.325  29.865  1.00  0.00    -0.354 N 
ATOM     61  N   UNL A   1      42.308  32.185  30.435  1.00  0.00    -0.248 NA
ATOM     62  C   UNL A   1      40.426  33.017  31.536  1.00  0.00     0.031 C 
ATOM     63  C   UNL A   1      46.323  34.084  30.599  1.00  0.00     0.029 A 
ATOM     64  C   UNL A   1      45.060  33.517  30.558  1.00  0.00     0.049 A 
ATOM     65  H   UNL A   1      44.447  31.696  29.687  1.00  0.00     0.167 HD
ATOM     66  C   UNL A   1      42.637  33.386  31.058  1.00  0.00     0.074 A 
ATOM     67  C   UNL A   1      41.425  33.876  31.682  1.00  0.00     0.031 C 
ATOM     68  C   UNL A   1      43.833  34.021  31.119  1.00  0.00     0.034 A 
BRANCH  55  69
ATOM     69  C   UNL A   1      48.446  30.955  28.376  1.00  0.00     0.023 A 
ATOM     70  C   UNL A   1      48.881  31.457  27.132  1.00  0.00     0.012 A 
ATOM     71  C   UNL A   1      49.393  30.456  29.289  1.00  0.00     0.148 A 
ATOM     72  C   UNL A   1      50.232  31.432  26.789  1.00  0.00     0.002 A 
ATOM     73  C   UNL A   1      50.744  30.479  28.960  1.00  0.00     0.091 A 
ATOM     74  F   UNL A   1      48.958  29.965  30.458  1.00  0.00    -0.205 F 
ATOM     75  C   UNL A   1      51.163  30.954  27.707  1.00  0.00     0.022 A 
BRANCH  73  76
ATOM     76  S   UNL A   1      52.029  29.959  30.102  1.00  0.00     0.127 S 
ATOM     77  O   UNL A   1      51.562  30.543  31.358  1.00  0.00    -0.237 OA
ATOM     78  O   UNL A   1      51.926  28.501  30.032  1.00  0.00    -0.237 OA
ATOM     79  O   UNL A   1      53.275  30.508  29.586  1.00  0.00    -0.744 OA
ENDBRANCH  73  76
ENDBRANCH  55  69
BRANCH  56  80
ATOM     80  C   UNL A   1      38.685  30.876  30.563  1.00  0.00     0.023 A 
ATOM     81  C   UNL A   1      38.245  30.084  31.642  1.00  0.00     0.012 A 
ATOM     82  C   UNL A   1      37.741  31.627  29.836  1.00  0.00     0.148 A 
ATOM     83  C   UNL A   1      36.888  30.005  31.962  1.00  0.00     0.002 A 
ATOM     84  C   UNL A   1      36.398  31.590  30.197  1.00  0.00     0.091 A 
ATOM     85  F   UNL A   1      38.173  32.361  28.800  1.00  0.00    -0.205 F 
ATOM     86  C   UNL A   1      35.967  30.762  31.245  1.00  0.00     0.022 A 
BRANCH  84  87
ATOM     87  S   UNL A   1      35.162  32.629  29.412  1.00  0.00     0.127 S 
ATOM     88  O   UNL A   1      34.625  31.735  28.390  1.00  0.00    -0.237 OA
ATOM     89  O   UNL A   1      34.255  32.910  30.525  1.00  0.00    -0.237 OA
ATOM     90  O   UNL A   1      35.882  33.795  28.919  1.00  0.00    -0.744 OA
ENDBRANCH  84  87
ENDBRANCH  56  80
BRANCH  68  91
ATOM     91  C   UNL A   1      43.889  35.352  31.827  1.00  0.00     0.023 A 
ATOM     92  C   UNL A   1      44.100  35.409  33.218  1.00  0.00     0.012 A 
ATOM     93  C   UNL A   1      43.805  36.551  31.091  1.00  0.00     0.148 A 
ATOM     94  C   UNL A   1      44.188  36.638  33.872  1.00  0.00     0.002 A 
ATOM     95  C   UNL A   1      43.950  37.772  31.740  1.00  0.00     0.091 A 
ATOM     96  F   UNL A   1      43.590  36.477  29.769  1.00  0.00    -0.205 F 
ATOM     97  C   UNL A   1      44.125  37.817  33.133  1.00  0.00     0.022 A 
BRANCH  95  98
ATOM     98  S   UNL A   1      43.984  39.337  30.860  1.00  0.00     0.127 S 
ATOM     99  O   UNL A   1      43.028  40.132  31.629  1.00  0.00    -0.237 OA
ATOM    100  O   UNL A   1      45.380  39.746  31.011  1.00  0.00    -0.237 OA
ATOM    101  O   UNL A   1      43.584  39.039  29.491  1.00  0.00    -0.744 OA
ENDBRANCH  95  98
ENDBRANCH  68  91
ENDBRANCH  42  43
ENDBRANCH  35  37
ENDBRANCH  34  35
ENDBRANCH  33  34
ENDBRANCH  32  33
ENDBRANCH  31  32
ENDBRANCH  30  31
ENDBRANCH   1  30
TORSDOF 24
ENDMDL
