MODEL 1
REMARK VINA RESULT:      -9.6      0.000      0.000
REMARK SMILES O=C(OCCOCCOCCOCCOC(=O)c1ccc(-c2c3nc(c(-c4cccc(S(=O)(=O)[O-])c4F)c4ccc([nH]4)c(-c4cccc(S(=O)(=O)[O-])c4F)c4nc(c(-c5cccc(S(=O)(=O)[O-])c5F)c5ccc2[nH]5)C=C4)C=C3)cc1)C1=Cc2c(ccc(Cl)c2Cl)O[C@H]1C(F)(F)F
REMARK SMILES IDX 10 1 9 2 8 3 7 4 6 5 5 6 4 7 3 8 2 9 1 10 81 11 82 12 92 13
REMARK SMILES IDX 83 14 91 15 84 16 89 17 85 18 87 19 90 20 86 21 88 22 93 23
REMARK SMILES IDX 94 24 95 25 96 26 11 27 12 28 13 29 14 30 15 31 16 32 17 33
REMARK SMILES IDX 18 34 19 35 80 36 20 37 79 38 21 39 22 40 23 41 73 42 24 43
REMARK SMILES IDX 78 44 72 45 74 46 25 47 77 48 71 49 70 50 26 52 58 53 38 54
REMARK SMILES IDX 57 55 39 56 42 57 56 58 75 59 40 60 41 61 55 63 76 64 43 65
REMARK SMILES IDX 27 66 28 67 36 68 29 69 31 70 37 71 30 72 32 73 33 74 34 75
REMARK SMILES IDX 35 76 59 77 60 78 68 79 61 80 63 81 69 82 62 83 64 84 65 85
REMARK SMILES IDX 66 86 67 87 44 88 45 89 53 90 46 91 48 92 54 93 47 94 49 95
REMARK SMILES IDX 50 96 51 97 52 98
REMARK H PARENT 74 51 42 62
REMARK Flexibility Score: inf
ROOT
ATOM      1  C   UNL A   1      34.059  23.440  25.627  1.00  0.00     0.188 C 
ENDROOT
BRANCH   1   2
ATOM      2  O   UNL A   1      33.234  23.949  24.580  1.00  0.00    -0.377 OA
BRANCH   2   3
ATOM      3  C   UNL A   1      33.884  24.485  23.437  1.00  0.00     0.188 C 
BRANCH   3   4
ATOM      4  C   UNL A   1      33.117  24.292  22.126  1.00  0.00     0.188 C 
BRANCH   4   5
ATOM      5  O   UNL A   1      32.047  25.213  21.981  1.00  0.00    -0.376 OA
BRANCH   5   6
ATOM      6  C   UNL A   1      32.452  26.578  21.926  1.00  0.00     0.202 C 
BRANCH   6   7
ATOM      7  C   UNL A   1      31.360  27.526  22.398  1.00  0.00     0.261 C 
BRANCH   7   8
ATOM      8  O   UNL A   1      31.888  28.704  23.045  1.00  0.00    -0.460 OA
BRANCH   8   9
ATOM      9  C   UNL A   1      31.460  29.297  24.186  1.00  0.00     0.338 C 
ATOM     10  O   UNL A   1      30.271  29.592  24.301  1.00  0.00    -0.246 OA
BRANCH   9  11
ATOM     11  C   UNL A   1      32.340  29.424  25.372  1.00  0.00     0.087 C 
ATOM     12  C   UNL A   1      32.230  30.332  26.341  1.00  0.00     0.029 C 
ATOM     13  C   UNL A   1      33.164  28.196  25.711  1.00  0.00     0.316 C 
ATOM     14  C   UNL A   1      33.368  30.625  27.180  1.00  0.00     0.037 A 
ATOM     15  O   UNL A   1      34.190  28.387  26.742  1.00  0.00    -0.475 OA
ATOM     16  C   UNL A   1      34.291  29.602  27.363  1.00  0.00     0.129 A 
ATOM     17  C   UNL A   1      33.597  31.908  27.731  1.00  0.00     0.070 A 
ATOM     18  C   UNL A   1      35.393  29.819  28.186  1.00  0.00     0.049 A 
ATOM     19  C   UNL A   1      34.714  32.122  28.539  1.00  0.00     0.060 A 
ATOM     20  Cl  UNL A   1      32.562  33.248  27.334  1.00  0.00    -0.082 Cl
ATOM     21  C   UNL A   1      35.599  31.070  28.779  1.00  0.00     0.026 A 
ATOM     22  Cl  UNL A   1      35.063  33.653  29.264  1.00  0.00    -0.083 Cl
BRANCH  13  23
ATOM     23  C   UNL A   1      32.188  27.056  26.152  1.00  0.00     0.430 C 
ATOM     24  F   UNL A   1      31.150  27.504  26.905  1.00  0.00    -0.167 F 
ATOM     25  F   UNL A   1      31.661  26.406  25.087  1.00  0.00    -0.167 F 
ATOM     26  F   UNL A   1      32.813  26.118  26.907  1.00  0.00    -0.167 F 
ENDBRANCH  13  23
ENDBRANCH   9  11
ENDBRANCH   8   9
ENDBRANCH   7   8
ENDBRANCH   6   7
ENDBRANCH   5   6
ENDBRANCH   4   5
ENDBRANCH   3   4
ENDBRANCH   2   3
ENDBRANCH   1   2
BRANCH   1  27
ATOM     27  C   UNL A   1      34.190  21.900  25.626  1.00  0.00     0.188 C 
BRANCH  27  28
ATOM     28  O   UNL A   1      34.920  21.222  24.599  1.00  0.00    -0.376 OA
BRANCH  28  29
ATOM     29  C   UNL A   1      36.170  20.646  24.939  1.00  0.00     0.202 C 
BRANCH  29  30
ATOM     30  C   UNL A   1      37.358  21.613  24.754  1.00  0.00     0.261 C 
BRANCH  30  31
ATOM     31  O   UNL A   1      37.834  22.228  25.968  1.00  0.00    -0.460 OA
BRANCH  31  32
ATOM     32  C   UNL A   1      39.124  21.974  26.300  1.00  0.00     0.338 C 
ATOM     33  O   UNL A   1      39.734  20.933  26.085  1.00  0.00    -0.246 OA
BRANCH  32  34
ATOM     34  C   UNL A   1      39.773  23.200  26.844  1.00  0.00     0.060 A 
ATOM     35  C   UNL A   1      39.450  24.434  26.259  1.00  0.00     0.016 A 
ATOM     36  C   UNL A   1      40.684  23.165  27.905  1.00  0.00     0.016 A 
ATOM     37  C   UNL A   1      40.080  25.613  26.680  1.00  0.00     0.010 A 
ATOM     38  C   UNL A   1      41.321  24.346  28.324  1.00  0.00     0.010 A 
ATOM     39  C   UNL A   1      41.062  25.571  27.679  1.00  0.00    -0.014 A 
BRANCH  39  40
ATOM     40  C   UNL A   1      41.988  26.727  27.857  1.00  0.00     0.031 A 
ATOM     41  C   UNL A   1      41.475  27.930  28.613  1.00  0.00     0.074 A 
ATOM     42  C   UNL A   1      43.255  26.732  27.396  1.00  0.00     0.049 A 
ATOM     43  N   UNL A   1      42.064  29.070  28.870  1.00  0.00    -0.248 NA
ATOM     44  C   UNL A   1      40.108  27.828  29.149  1.00  0.00     0.031 C 
ATOM     45  C   UNL A   1      43.904  25.639  26.679  1.00  0.00     0.029 A 
ATOM     46  N   UNL A   1      44.218  27.715  27.453  1.00  0.00    -0.354 N 
ATOM     47  C   UNL A   1      41.131  29.829  29.568  1.00  0.00     0.074 A 
ATOM     48  C   UNL A   1      39.932  29.028  29.680  1.00  0.00     0.031 C 
ATOM     49  C   UNL A   1      45.151  26.019  26.341  1.00  0.00     0.029 A 
ATOM     50  C   UNL A   1      45.382  27.392  26.793  1.00  0.00     0.049 A 
ATOM     51  H   UNL A   1      44.087  28.570  27.924  1.00  0.00     0.167 HD
ATOM     52  C   UNL A   1      41.255  31.074  30.086  1.00  0.00     0.034 A 
ATOM     53  C   UNL A   1      46.493  28.123  26.562  1.00  0.00     0.034 A 
ATOM     54  C   UNL A   1      42.444  31.875  29.997  1.00  0.00     0.049 A 
ATOM     55  C   UNL A   1      46.593  29.531  27.106  1.00  0.00     0.074 A 
ATOM     56  C   UNL A   1      42.670  33.137  30.518  1.00  0.00     0.029 A 
ATOM     57  N   UNL A   1      43.602  31.504  29.333  1.00  0.00    -0.354 N 
ATOM     58  N   UNL A   1      45.735  30.198  27.841  1.00  0.00    -0.248 NA
ATOM     59  C   UNL A   1      47.827  30.277  26.811  1.00  0.00     0.031 C 
ATOM     60  C   UNL A   1      43.952  33.545  30.136  1.00  0.00     0.029 A 
ATOM     61  C   UNL A   1      44.541  32.518  29.417  1.00  0.00     0.049 A 
ATOM     62  H   UNL A   1      43.737  30.646  28.870  1.00  0.00     0.167 HD
ATOM     63  C   UNL A   1      46.342  31.418  28.129  1.00  0.00     0.074 A 
ATOM     64  C   UNL A   1      47.647  31.394  27.503  1.00  0.00     0.031 C 
ATOM     65  C   UNL A   1      45.859  32.467  28.840  1.00  0.00     0.034 A 
BRANCH  52  66
ATOM     66  C   UNL A   1      40.064  31.647  30.811  1.00  0.00     0.023 A 
ATOM     67  C   UNL A   1      39.136  32.447  30.114  1.00  0.00     0.012 A 
ATOM     68  C   UNL A   1      39.843  31.357  32.171  1.00  0.00     0.148 A 
ATOM     69  C   UNL A   1      38.027  32.982  30.769  1.00  0.00     0.002 A 
ATOM     70  C   UNL A   1      38.710  31.852  32.804  1.00  0.00     0.091 A 
ATOM     71  F   UNL A   1      40.748  30.613  32.821  1.00  0.00    -0.205 F 
ATOM     72  C   UNL A   1      37.808  32.675  32.109  1.00  0.00     0.022 A 
BRANCH  70  73
ATOM     73  S   UNL A   1      38.296  31.448  34.504  1.00  0.00     0.127 S 
ATOM     74  O   UNL A   1      39.366  32.124  35.237  1.00  0.00    -0.237 OA
ATOM     75  O   UNL A   1      36.975  32.060  34.651  1.00  0.00    -0.237 OA
ATOM     76  O   UNL A   1      38.307  29.995  34.588  1.00  0.00    -0.744 OA
ENDBRANCH  70  73
ENDBRANCH  52  66
BRANCH  53  77
ATOM     77  C   UNL A   1      47.632  27.542  25.789  1.00  0.00     0.023 A 
ATOM     78  C   UNL A   1      47.622  27.598  24.380  1.00  0.00     0.012 A 
ATOM     79  C   UNL A   1      48.715  26.918  26.440  1.00  0.00     0.148 A 
ATOM     80  C   UNL A   1      48.650  27.015  23.636  1.00  0.00     0.002 A 
ATOM     81  C   UNL A   1      49.764  26.392  25.695  1.00  0.00     0.091 A 
ATOM     82  F   UNL A   1      48.696  26.853  27.779  1.00  0.00    -0.205 F 
ATOM     83  C   UNL A   1      49.725  26.422  24.292  1.00  0.00     0.022 A 
BRANCH  81  84
ATOM     84  S   UNL A   1      51.248  25.721  26.454  1.00  0.00     0.127 S 
ATOM     85  O   UNL A   1      52.022  25.307  25.285  1.00  0.00    -0.237 OA
ATOM     86  O   UNL A   1      51.775  26.887  27.162  1.00  0.00    -0.237 OA
ATOM     87  O   UNL A   1      50.795  24.644  27.323  1.00  0.00    -0.744 OA
ENDBRANCH  81  84
ENDBRANCH  53  77
BRANCH  65  88
ATOM     88  C   UNL A   1      46.752  33.669  29.037  1.00  0.00     0.023 A 
ATOM     89  C   UNL A   1      47.648  33.717  30.123  1.00  0.00     0.012 A 
ATOM     90  C   UNL A   1      46.763  34.713  28.088  1.00  0.00     0.148 A 
ATOM     91  C   UNL A   1      48.513  34.799  30.283  1.00  0.00     0.002 A 
ATOM     92  C   UNL A   1      47.665  35.762  28.225  1.00  0.00     0.091 A 
ATOM     93  F   UNL A   1      45.896  34.657  27.067  1.00  0.00    -0.205 F 
ATOM     94  C   UNL A   1      48.530  35.815  29.329  1.00  0.00     0.022 A 
BRANCH  92  95
ATOM     95  S   UNL A   1      47.828  37.064  26.996  1.00  0.00     0.127 S 
ATOM     96  O   UNL A   1      47.980  36.293  25.764  1.00  0.00    -0.237 OA
ATOM     97  O   UNL A   1      46.551  37.768  27.121  1.00  0.00    -0.237 OA
ATOM     98  O   UNL A   1      48.992  37.846  27.389  1.00  0.00    -0.744 OA
ENDBRANCH  92  95
ENDBRANCH  65  88
ENDBRANCH  39  40
ENDBRANCH  32  34
ENDBRANCH  31  32
ENDBRANCH  30  31
ENDBRANCH  29  30
ENDBRANCH  28  29
ENDBRANCH  27  28
ENDBRANCH   1  27
TORSDOF 24
ENDMDL
MODEL 2
REMARK VINA RESULT:      -9.6      2.725      8.084
REMARK SMILES O=C(OCCOCCOCCOCCOC(=O)c1ccc(-c2c3nc(c(-c4cccc(S(=O)(=O)[O-])c4F)c4ccc([nH]4)c(-c4cccc(S(=O)(=O)[O-])c4F)c4nc(c(-c5cccc(S(=O)(=O)[O-])c5F)c5ccc2[nH]5)C=C4)C=C3)cc1)C1=Cc2c(ccc(Cl)c2Cl)O[C@H]1C(F)(F)F
REMARK SMILES IDX 10 1 9 2 8 3 7 4 6 5 5 6 4 7 3 8 2 9 1 10 81 11 82 12 92 13
REMARK SMILES IDX 83 14 91 15 84 16 89 17 85 18 87 19 90 20 86 21 88 22 93 23
REMARK SMILES IDX 94 24 95 25 96 26 11 27 12 28 13 29 14 30 15 31 16 32 17 33
REMARK SMILES IDX 18 34 19 35 80 36 20 37 79 38 21 39 22 40 23 41 73 42 24 43
REMARK SMILES IDX 78 44 72 45 74 46 25 47 77 48 71 49 70 50 26 52 58 53 38 54
REMARK SMILES IDX 57 55 39 56 42 57 56 58 75 59 40 60 41 61 55 63 76 64 43 65
REMARK SMILES IDX 27 66 28 67 36 68 29 69 31 70 37 71 30 72 32 73 33 74 34 75
REMARK SMILES IDX 35 76 59 77 60 78 68 79 61 80 63 81 69 82 62 83 64 84 65 85
REMARK SMILES IDX 66 86 67 87 44 88 45 89 53 90 46 91 48 92 54 93 47 94 49 95
REMARK SMILES IDX 50 96 51 97 52 98
REMARK H PARENT 74 51 42 62
REMARK Flexibility Score: inf
ROOT
ATOM      1  C   UNL A   1      35.490  20.897  25.422  1.00  0.00     0.188 C 
ENDROOT
BRANCH   1   2
ATOM      2  O   UNL A   1      35.094  19.671  24.811  1.00  0.00    -0.377 OA
BRANCH   2   3
ATOM      3  C   UNL A   1      33.738  19.273  24.961  1.00  0.00     0.188 C 
BRANCH   3   4
ATOM      4  C   UNL A   1      32.730  20.201  24.278  1.00  0.00     0.188 C 
BRANCH   4   5
ATOM      5  O   UNL A   1      31.755  20.704  25.180  1.00  0.00    -0.376 OA
BRANCH   5   6
ATOM      6  C   UNL A   1      32.102  21.947  25.783  1.00  0.00     0.202 C 
BRANCH   6   7
ATOM      7  C   UNL A   1      32.607  22.961  24.768  1.00  0.00     0.261 C 
BRANCH   7   8
ATOM      8  O   UNL A   1      32.353  24.325  25.171  1.00  0.00    -0.460 OA
BRANCH   8   9
ATOM      9  C   UNL A   1      32.956  25.456  24.732  1.00  0.00     0.338 C 
ATOM     10  O   UNL A   1      34.178  25.563  24.832  1.00  0.00    -0.246 OA
BRANCH   9  11
ATOM     11  C   UNL A   1      32.215  26.483  23.961  1.00  0.00     0.087 C 
ATOM     12  C   UNL A   1      32.278  27.801  24.142  1.00  0.00     0.029 C 
ATOM     13  C   UNL A   1      31.667  26.027  22.622  1.00  0.00     0.316 C 
ATOM     14  C   UNL A   1      31.214  28.643  23.647  1.00  0.00     0.037 A 
ATOM     15  O   UNL A   1      30.753  26.964  21.960  1.00  0.00    -0.475 OA
ATOM     16  C   UNL A   1      30.514  28.181  22.539  1.00  0.00     0.129 A 
ATOM     17  C   UNL A   1      30.831  29.843  24.292  1.00  0.00     0.070 A 
ATOM     18  C   UNL A   1      29.497  28.966  22.001  1.00  0.00     0.049 A 
ATOM     19  C   UNL A   1      29.797  30.613  23.757  1.00  0.00     0.060 A 
ATOM     20  Cl  UNL A   1      31.559  30.319  25.798  1.00  0.00    -0.082 Cl
ATOM     21  C   UNL A   1      29.147  30.180  22.602  1.00  0.00     0.026 A 
ATOM     22  Cl  UNL A   1      29.274  32.097  24.473  1.00  0.00    -0.083 Cl
BRANCH  13  23
ATOM     23  C   UNL A   1      32.873  25.719  21.676  1.00  0.00     0.430 C 
ATOM     24  F   UNL A   1      32.507  25.563  20.378  1.00  0.00    -0.167 F 
ATOM     25  F   UNL A   1      33.806  26.701  21.716  1.00  0.00    -0.167 F 
ATOM     26  F   UNL A   1      33.507  24.570  22.021  1.00  0.00    -0.167 F 
ENDBRANCH  13  23
ENDBRANCH   9  11
ENDBRANCH   8   9
ENDBRANCH   7   8
ENDBRANCH   6   7
ENDBRANCH   5   6
ENDBRANCH   4   5
ENDBRANCH   3   4
ENDBRANCH   2   3
ENDBRANCH   1   2
BRANCH   1  27
ATOM     27  C   UNL A   1      36.251  21.851  24.473  1.00  0.00     0.188 C 
BRANCH  27  28
ATOM     28  O   UNL A   1      37.681  21.849  24.416  1.00  0.00    -0.376 OA
BRANCH  28  29
ATOM     29  C   UNL A   1      38.394  21.458  25.578  1.00  0.00     0.202 C 
BRANCH  29  30
ATOM     30  C   UNL A   1      39.155  20.127  25.406  1.00  0.00     0.261 C 
BRANCH  30  31
ATOM     31  O   UNL A   1      40.039  19.789  26.495  1.00  0.00    -0.460 OA
BRANCH  31  32
ATOM     32  C   UNL A   1      41.361  19.748  26.200  1.00  0.00     0.338 C 
ATOM     33  O   UNL A   1      41.961  18.807  25.693  1.00  0.00    -0.246 OA
BRANCH  32  34
ATOM     34  C   UNL A   1      41.990  21.079  26.440  1.00  0.00     0.060 A 
ATOM     35  C   UNL A   1      42.274  21.446  27.764  1.00  0.00     0.016 A 
ATOM     36  C   UNL A   1      42.302  21.965  25.403  1.00  0.00     0.016 A 
ATOM     37  C   UNL A   1      42.800  22.711  28.059  1.00  0.00     0.010 A 
ATOM     38  C   UNL A   1      42.823  23.237  25.699  1.00  0.00     0.010 A 
ATOM     39  C   UNL A   1      43.027  23.638  27.033  1.00  0.00    -0.014 A 
BRANCH  39  40
ATOM     40  C   UNL A   1      43.214  25.080  27.366  1.00  0.00     0.031 A 
ATOM     41  C   UNL A   1      44.588  25.676  27.167  1.00  0.00     0.074 A 
ATOM     42  C   UNL A   1      42.215  25.868  27.810  1.00  0.00     0.049 A 
ATOM     43  N   UNL A   1      45.019  26.886  27.415  1.00  0.00    -0.248 NA
ATOM     44  C   UNL A   1      45.614  24.777  26.613  1.00  0.00     0.031 C 
ATOM     45  C   UNL A   1      40.833  25.451  28.022  1.00  0.00     0.029 A 
ATOM     46  N   UNL A   1      42.226  27.195  28.182  1.00  0.00    -0.354 N 
ATOM     47  C   UNL A   1      46.369  26.884  27.078  1.00  0.00     0.074 A 
ATOM     48  C   UNL A   1      46.689  25.550  26.624  1.00  0.00     0.031 C 
ATOM     49  C   UNL A   1      40.132  26.493  28.509  1.00  0.00     0.029 A 
ATOM     50  C   UNL A   1      41.021  27.645  28.670  1.00  0.00     0.049 A 
ATOM     51  H   UNL A   1      43.023  27.768  28.105  1.00  0.00     0.167 HD
ATOM     52  C   UNL A   1      47.264  27.899  27.124  1.00  0.00     0.034 A 
ATOM     53  C   UNL A   1      40.679  28.838  29.202  1.00  0.00     0.034 A 
ATOM     54  C   UNL A   1      46.957  29.234  27.558  1.00  0.00     0.049 A 
ATOM     55  C   UNL A   1      41.708  29.943  29.291  1.00  0.00     0.074 A 
ATOM     56  C   UNL A   1      47.795  30.333  27.611  1.00  0.00     0.029 A 
ATOM     57  N   UNL A   1      45.722  29.649  28.029  1.00  0.00    -0.354 N 
ATOM     58  N   UNL A   1      42.954  29.950  28.884  1.00  0.00    -0.248 NA
ATOM     59  C   UNL A   1      41.273  31.216  29.890  1.00  0.00     0.031 C 
ATOM     60  C   UNL A   1      47.076  31.405  28.149  1.00  0.00     0.029 A 
ATOM     61  C   UNL A   1      45.778  30.985  28.389  1.00  0.00     0.049 A 
ATOM     62  H   UNL A   1      44.923  29.079  28.097  1.00  0.00     0.167 HD
ATOM     63  C   UNL A   1      43.435  31.233  29.138  1.00  0.00     0.074 A 
ATOM     64  C   UNL A   1      42.342  31.982  29.720  1.00  0.00     0.031 C 
ATOM     65  C   UNL A   1      44.673  31.741  28.916  1.00  0.00     0.034 A 
BRANCH  52  66
ATOM     66  C   UNL A   1      48.674  27.602  26.681  1.00  0.00     0.023 A 
ATOM     67  C   UNL A   1      49.612  27.105  27.608  1.00  0.00     0.012 A 
ATOM     68  C   UNL A   1      49.056  27.777  25.337  1.00  0.00     0.148 A 
ATOM     69  C   UNL A   1      50.919  26.821  27.214  1.00  0.00     0.002 A 
ATOM     70  C   UNL A   1      50.346  27.445  24.940  1.00  0.00     0.091 A 
ATOM     71  F   UNL A   1      48.156  28.271  24.476  1.00  0.00    -0.205 F 
ATOM     72  C   UNL A   1      51.282  26.981  25.878  1.00  0.00     0.022 A 
BRANCH  70  73
ATOM     73  S   UNL A   1      50.887  27.538  23.230  1.00  0.00     0.127 S 
ATOM     74  O   UNL A   1      52.002  26.593  23.222  1.00  0.00    -0.237 OA
ATOM     75  O   UNL A   1      49.698  27.085  22.508  1.00  0.00    -0.237 OA
ATOM     76  O   UNL A   1      51.249  28.929  22.996  1.00  0.00    -0.744 OA
ENDBRANCH  70  73
ENDBRANCH  52  66
BRANCH  53  77
ATOM     77  C   UNL A   1      39.285  29.078  29.685  1.00  0.00     0.023 A 
ATOM     78  C   UNL A   1      38.911  28.657  30.977  1.00  0.00     0.012 A 
ATOM     79  C   UNL A   1      38.325  29.702  28.865  1.00  0.00     0.148 A 
ATOM     80  C   UNL A   1      37.600  28.823  31.430  1.00  0.00     0.002 A 
ATOM     81  C   UNL A   1      37.038  29.919  29.344  1.00  0.00     0.091 A 
ATOM     82  F   UNL A   1      38.691  30.074  27.630  1.00  0.00    -0.205 F 
ATOM     83  C   UNL A   1      36.667  29.462  30.619  1.00  0.00     0.022 A 
BRANCH  81  84
ATOM     84  S   UNL A   1      35.804  30.843  28.420  1.00  0.00     0.127 S 
ATOM     85  O   UNL A   1      34.791  31.095  29.442  1.00  0.00    -0.237 OA
ATOM     86  O   UNL A   1      36.565  32.020  28.001  1.00  0.00    -0.237 OA
ATOM     87  O   UNL A   1      35.394  29.972  27.327  1.00  0.00    -0.744 OA
ENDBRANCH  81  84
ENDBRANCH  53  77
BRANCH  65  88
ATOM     88  C   UNL A   1      44.918  33.193  29.250  1.00  0.00     0.023 A 
ATOM     89  C   UNL A   1      45.367  33.560  30.534  1.00  0.00     0.012 A 
ATOM     90  C   UNL A   1      44.786  34.186  28.257  1.00  0.00     0.148 A 
ATOM     91  C   UNL A   1      45.646  34.893  30.835  1.00  0.00     0.002 A 
ATOM     92  C   UNL A   1      45.116  35.505  28.549  1.00  0.00     0.091 A 
ATOM     93  F   UNL A   1      44.346  33.822  27.044  1.00  0.00    -0.205 F 
ATOM     94  C   UNL A   1      45.532  35.863  29.841  1.00  0.00     0.022 A 
BRANCH  92  95
ATOM     95  S   UNL A   1      45.095  36.805  27.308  1.00  0.00     0.127 S 
ATOM     96  O   UNL A   1      43.675  36.864  26.963  1.00  0.00    -0.237 OA
ATOM     97  O   UNL A   1      45.587  37.959  28.061  1.00  0.00    -0.237 OA
ATOM     98  O   UNL A   1      45.977  36.357  26.239  1.00  0.00    -0.744 OA
ENDBRANCH  92  95
ENDBRANCH  65  88
ENDBRANCH  39  40
ENDBRANCH  32  34
ENDBRANCH  31  32
ENDBRANCH  30  31
ENDBRANCH  29  30
ENDBRANCH  28  29
ENDBRANCH  27  28
ENDBRANCH   1  27
TORSDOF 24
ENDMDL
MODEL 3
REMARK VINA RESULT:      -9.5      2.110      7.829
REMARK SMILES O=C(OCCOCCOCCOCCOC(=O)c1ccc(-c2c3nc(c(-c4cccc(S(=O)(=O)[O-])c4F)c4ccc([nH]4)c(-c4cccc(S(=O)(=O)[O-])c4F)c4nc(c(-c5cccc(S(=O)(=O)[O-])c5F)c5ccc2[nH]5)C=C4)C=C3)cc1)C1=Cc2c(ccc(Cl)c2Cl)O[C@H]1C(F)(F)F
REMARK SMILES IDX 10 1 9 2 8 3 7 4 6 5 5 6 4 7 3 8 2 9 1 10 81 11 82 12 92 13
REMARK SMILES IDX 83 14 91 15 84 16 89 17 85 18 87 19 90 20 86 21 88 22 93 23
REMARK SMILES IDX 94 24 95 25 96 26 11 27 12 28 13 29 14 30 15 31 16 32 17 33
REMARK SMILES IDX 18 34 19 35 80 36 20 37 79 38 21 39 22 40 23 41 73 42 24 43
REMARK SMILES IDX 78 44 72 45 74 46 25 47 77 48 71 49 70 50 26 52 58 53 38 54
REMARK SMILES IDX 57 55 39 56 42 57 56 58 75 59 40 60 41 61 55 63 76 64 43 65
REMARK SMILES IDX 27 66 28 67 36 68 29 69 31 70 37 71 30 72 32 73 33 74 34 75
REMARK SMILES IDX 35 76 59 77 60 78 68 79 61 80 63 81 69 82 62 83 64 84 65 85
REMARK SMILES IDX 66 86 67 87 44 88 45 89 53 90 46 91 48 92 54 93 47 94 49 95
REMARK SMILES IDX 50 96 51 97 52 98
REMARK H PARENT 74 51 42 62
REMARK Flexibility Score: inf
ROOT
ATOM      1  C   UNL A   1      35.515  21.069  25.559  1.00  0.00     0.188 C 
ENDROOT
BRANCH   1   2
ATOM      2  O   UNL A   1      34.516  20.277  24.920  1.00  0.00    -0.377 OA
BRANCH   2   3
ATOM      3  C   UNL A   1      33.224  20.255  25.509  1.00  0.00     0.188 C 
BRANCH   3   4
ATOM      4  C   UNL A   1      32.140  20.946  24.677  1.00  0.00     0.188 C 
BRANCH   4   5
ATOM      5  O   UNL A   1      31.052  21.400  25.469  1.00  0.00    -0.376 OA
BRANCH   5   6
ATOM      6  C   UNL A   1      31.022  22.810  25.668  1.00  0.00     0.202 C 
BRANCH   6   7
ATOM      7  C   UNL A   1      31.540  23.576  24.461  1.00  0.00     0.261 C 
BRANCH   7   8
ATOM      8  O   UNL A   1      31.527  25.007  24.663  1.00  0.00    -0.460 OA
BRANCH   8   9
ATOM      9  C   UNL A   1      32.491  25.906  24.352  1.00  0.00     0.338 C 
ATOM     10  O   UNL A   1      33.427  25.561  23.633  1.00  0.00    -0.246 OA
BRANCH   9  11
ATOM     11  C   UNL A   1      32.351  27.342  24.694  1.00  0.00     0.087 C 
ATOM     12  C   UNL A   1      33.324  28.150  25.113  1.00  0.00     0.029 C 
ATOM     13  C   UNL A   1      31.116  28.030  24.142  1.00  0.00     0.316 C 
ATOM     14  C   UNL A   1      32.991  29.369  25.814  1.00  0.00     0.037 A 
ATOM     15  O   UNL A   1      30.862  29.381  24.653  1.00  0.00    -0.475 OA
ATOM     16  C   UNL A   1      31.762  29.946  25.516  1.00  0.00     0.129 A 
ATOM     17  C   UNL A   1      33.820  29.919  26.819  1.00  0.00     0.070 A 
ATOM     18  C   UNL A   1      31.401  31.138  26.140  1.00  0.00     0.049 A 
ATOM     19  C   UNL A   1      33.441  31.103  27.453  1.00  0.00     0.060 A 
ATOM     20  Cl  UNL A   1      35.254  29.089  27.348  1.00  0.00    -0.082 Cl
ATOM     21  C   UNL A   1      32.241  31.718  27.097  1.00  0.00     0.026 A 
ATOM     22  Cl  UNL A   1      34.401  31.852  28.682  1.00  0.00    -0.083 Cl
BRANCH  13  23
ATOM     23  C   UNL A   1      31.235  28.077  22.583  1.00  0.00     0.430 C 
ATOM     24  F   UNL A   1      31.035  26.869  21.996  1.00  0.00    -0.167 F 
ATOM     25  F   UNL A   1      30.347  28.942  22.037  1.00  0.00    -0.167 F 
ATOM     26  F   UNL A   1      32.466  28.483  22.181  1.00  0.00    -0.167 F 
ENDBRANCH  13  23
ENDBRANCH   9  11
ENDBRANCH   8   9
ENDBRANCH   7   8
ENDBRANCH   6   7
ENDBRANCH   5   6
ENDBRANCH   4   5
ENDBRANCH   3   4
ENDBRANCH   2   3
ENDBRANCH   1   2
BRANCH   1  27
ATOM     27  C   UNL A   1      36.392  21.880  24.576  1.00  0.00     0.188 C 
BRANCH  27  28
ATOM     28  O   UNL A   1      37.819  21.777  24.602  1.00  0.00    -0.376 OA
BRANCH  28  29
ATOM     29  C   UNL A   1      38.432  21.320  25.796  1.00  0.00     0.202 C 
BRANCH  29  30
ATOM     30  C   UNL A   1      39.273  20.041  25.599  1.00  0.00     0.261 C 
BRANCH  30  31
ATOM     31  O   UNL A   1      40.236  19.783  26.641  1.00  0.00    -0.460 OA
BRANCH  31  32
ATOM     32  C   UNL A   1      41.523  19.635  26.240  1.00  0.00     0.338 C 
ATOM     33  O   UNL A   1      42.003  18.645  25.700  1.00  0.00    -0.246 OA
BRANCH  32  34
ATOM     34  C   UNL A   1      42.271  20.913  26.410  1.00  0.00     0.060 A 
ATOM     35  C   UNL A   1      42.677  21.274  27.704  1.00  0.00     0.016 A 
ATOM     36  C   UNL A   1      42.578  21.757  25.337  1.00  0.00     0.016 A 
ATOM     37  C   UNL A   1      43.321  22.497  27.937  1.00  0.00     0.010 A 
ATOM     38  C   UNL A   1      43.219  22.986  25.571  1.00  0.00     0.010 A 
ATOM     39  C   UNL A   1      43.548  23.388  26.880  1.00  0.00    -0.014 A 
BRANCH  39  40
ATOM     40  C   UNL A   1      43.873  24.815  27.171  1.00  0.00     0.031 A 
ATOM     41  C   UNL A   1      45.295  25.273  26.946  1.00  0.00     0.074 A 
ATOM     42  C   UNL A   1      42.956  25.705  27.599  1.00  0.00     0.049 A 
ATOM     43  N   UNL A   1      45.840  26.444  27.158  1.00  0.00    -0.248 NA
ATOM     44  C   UNL A   1      46.227  24.266  26.411  1.00  0.00     0.031 C 
ATOM     45  C   UNL A   1      41.543  25.426  27.831  1.00  0.00     0.029 A 
ATOM     46  N   UNL A   1      43.095  27.034  27.933  1.00  0.00    -0.354 N 
ATOM     47  C   UNL A   1      47.180  26.306  26.812  1.00  0.00     0.074 A 
ATOM     48  C   UNL A   1      47.370  24.935  26.393  1.00  0.00     0.031 C 
ATOM     49  C   UNL A   1      40.947  26.542  28.292  1.00  0.00     0.029 A 
ATOM     50  C   UNL A   1      41.942  27.610  28.415  1.00  0.00     0.049 A 
ATOM     51  H   UNL A   1      43.942  27.528  27.835  1.00  0.00     0.167 HD
ATOM     52  C   UNL A   1      48.167  27.233  26.824  1.00  0.00     0.034 A 
ATOM     53  C   UNL A   1      41.718  28.844  28.916  1.00  0.00     0.034 A 
ATOM     54  C   UNL A   1      47.990  28.601  27.222  1.00  0.00     0.049 A 
ATOM     55  C   UNL A   1      42.847  29.849  28.967  1.00  0.00     0.074 A 
ATOM     56  C   UNL A   1      48.928  29.618  27.238  1.00  0.00     0.029 A 
ATOM     57  N   UNL A   1      46.805  29.144  27.688  1.00  0.00    -0.354 N 
ATOM     58  N   UNL A   1      44.084  29.728  28.552  1.00  0.00    -0.248 NA
ATOM     59  C   UNL A   1      42.539  31.173  29.533  1.00  0.00     0.031 C 
ATOM     60  C   UNL A   1      48.318  30.768  27.750  1.00  0.00     0.029 A 
ATOM     61  C   UNL A   1      46.989  30.478  28.010  1.00  0.00     0.049 A 
ATOM     62  H   UNL A   1      45.956  28.653  27.778  1.00  0.00     0.167 HD
ATOM     63  C   UNL A   1      44.686  30.966  28.766  1.00  0.00     0.074 A 
ATOM     64  C   UNL A   1      43.674  31.830  29.334  1.00  0.00     0.031 C 
ATOM     65  C   UNL A   1      45.964  31.349  28.523  1.00  0.00     0.034 A 
BRANCH  52  66
ATOM     66  C   UNL A   1      49.539  26.793  26.380  1.00  0.00     0.023 A 
ATOM     67  C   UNL A   1      50.314  25.962  27.214  1.00  0.00     0.012 A 
ATOM     68  C   UNL A   1      50.041  27.168  25.119  1.00  0.00     0.148 A 
ATOM     69  C   UNL A   1      51.583  25.542  26.817  1.00  0.00     0.002 A 
ATOM     70  C   UNL A   1      51.285  26.706  24.709  1.00  0.00     0.091 A 
ATOM     71  F   UNL A   1      49.298  27.976  24.350  1.00  0.00    -0.205 F 
ATOM     72  C   UNL A   1      52.063  25.905  25.561  1.00  0.00     0.022 A 
BRANCH  70  73
ATOM     73  S   UNL A   1      51.957  27.049  23.079  1.00  0.00     0.127 S 
ATOM     74  O   UNL A   1      50.823  26.722  22.217  1.00  0.00    -0.237 OA
ATOM     75  O   UNL A   1      52.264  28.478  23.170  1.00  0.00    -0.237 OA
ATOM     76  O   UNL A   1      53.120  26.186  22.932  1.00  0.00    -0.744 OA
ENDBRANCH  70  73
ENDBRANCH  52  66
BRANCH  53  77
ATOM     77  C   UNL A   1      40.357  29.227  29.401  1.00  0.00     0.023 A 
ATOM     78  C   UNL A   1      39.460  29.874  28.527  1.00  0.00     0.012 A 
ATOM     79  C   UNL A   1      39.955  28.970  30.726  1.00  0.00     0.148 A 
ATOM     80  C   UNL A   1      38.203  30.288  28.974  1.00  0.00     0.002 A 
ATOM     81  C   UNL A   1      38.681  29.331  31.148  1.00  0.00     0.091 A 
ATOM     82  F   UNL A   1      40.830  28.375  31.550  1.00  0.00    -0.205 F 
ATOM     83  C   UNL A   1      37.810  30.008  30.279  1.00  0.00     0.022 A 
BRANCH  81  84
ATOM     84  S   UNL A   1      38.040  28.901  32.771  1.00  0.00     0.127 S 
ATOM     85  O   UNL A   1      38.916  29.670  33.652  1.00  0.00    -0.237 OA
ATOM     86  O   UNL A   1      36.664  29.391  32.688  1.00  0.00    -0.237 OA
ATOM     87  O   UNL A   1      38.158  27.453  32.872  1.00  0.00    -0.744 OA
ENDBRANCH  81  84
ENDBRANCH  53  77
BRANCH  65  88
ATOM     88  C   UNL A   1      46.348  32.780  28.814  1.00  0.00     0.023 A 
ATOM     89  C   UNL A   1      46.788  33.150  30.100  1.00  0.00     0.012 A 
ATOM     90  C   UNL A   1      46.355  33.742  27.782  1.00  0.00     0.148 A 
ATOM     91  C   UNL A   1      47.193  34.457  30.365  1.00  0.00     0.002 A 
ATOM     92  C   UNL A   1      46.809  35.030  28.039  1.00  0.00     0.091 A 
ATOM     93  F   UNL A   1      45.921  33.377  26.566  1.00  0.00    -0.205 F 
ATOM     94  C   UNL A   1      47.215  35.394  29.333  1.00  0.00     0.022 A 
BRANCH  92  95
ATOM     95  S   UNL A   1      46.967  36.275  26.753  1.00  0.00     0.127 S 
ATOM     96  O   UNL A   1      46.746  37.510  27.504  1.00  0.00    -0.237 OA
ATOM     97  O   UNL A   1      48.344  36.077  26.298  1.00  0.00    -0.237 OA
ATOM     98  O   UNL A   1      45.949  35.960  25.759  1.00  0.00    -0.744 OA
ENDBRANCH  92  95
ENDBRANCH  65  88
ENDBRANCH  39  40
ENDBRANCH  32  34
ENDBRANCH  31  32
ENDBRANCH  30  31
ENDBRANCH  29  30
ENDBRANCH  28  29
ENDBRANCH  27  28
ENDBRANCH   1  27
TORSDOF 24
ENDMDL
