MODEL 1
REMARK VINA RESULT:      -6.0      0.000      0.000
REMARK SMILES Cc1ccc(S(=O)(=O)n2cc(C(=O)C(=O)N[C@@H](Cc3cnc[nH]3)C(=O)OCCOCCOCCOCCOC(=O)c3ccc(-c4c5nc(c(-c6cccc(S(=O)(=O)[O-])c6F)c6ccc([nH]6)c(-c6cccc(S(=O)(=O)[O-])c6F)c6nc(c(-c7cccc(S(=O)(=O)[O-])c7F)c7ccc4[nH]7)C=C6)C=C5)cc3)c3ccccc32)cc1
REMARK SMILES IDX 31 1 30 2 29 3 28 4 27 5 26 6 24 7 25 8 17 9 16 10 14 11
REMARK SMILES IDX 15 12 12 14 13 15 11 16 9 17 10 18 109 19 104 20 108 21
REMARK SMILES IDX 105 22 107 23 106 24 6 25 7 26 8 27 5 28 1 29 2 30 3 31
REMARK SMILES IDX 111 32 4 33 110 34 18 35 19 36 20 37 23 38 21 39 22 40 32 42
REMARK SMILES IDX 33 43 34 44 35 45 36 46 37 47 38 48 39 49 40 50 41 51 42 52
REMARK SMILES IDX 103 53 43 54 102 55 44 56 45 57 46 58 96 59 47 60 101 61
REMARK SMILES IDX 95 62 97 63 48 64 100 65 94 66 93 67 49 69 81 70 61 71 80 72
REMARK SMILES IDX 62 73 65 74 79 75 98 76 63 77 64 78 78 80 99 81 66 82 50 83
REMARK SMILES IDX 51 84 59 85 52 86 54 87 60 88 53 89 55 90 56 91 57 92 58 93
REMARK SMILES IDX 82 94 83 95 91 96 84 97 86 98 92 99 85 100 87 101 88 102
REMARK SMILES IDX 89 103 90 104 67 105 68 106 76 107 69 108 71 109 77 110
REMARK SMILES IDX 70 111 72 112 73 113 74 114 75 115
REMARK H PARENT 16 13 23 41 97 68 65 79
REMARK Flexibility Score: inf
ROOT
ATOM      1  C   UNL A   1      41.894  29.320  29.070  1.00  0.00     0.188 C 
ENDROOT
BRANCH   1   2
ATOM      2  C   UNL A   1      42.204  27.979  29.744  1.00  0.00     0.188 C 
BRANCH   2   3
ATOM      3  O   UNL A   1      43.559  27.630  29.967  1.00  0.00    -0.376 OA
BRANCH   3   4
ATOM      4  C   UNL A   1      43.776  26.243  30.209  1.00  0.00     0.202 C 
BRANCH   4   5
ATOM      5  C   UNL A   1      45.066  25.644  29.660  1.00  0.00     0.261 C 
BRANCH   5   6
ATOM      6  O   UNL A   1      45.117  24.259  30.065  1.00  0.00    -0.462 OA
BRANCH   6   7
ATOM      7  C   UNL A   1      44.078  23.490  29.677  1.00  0.00     0.329 C 
ATOM      8  O   UNL A   1      43.349  22.855  30.430  1.00  0.00    -0.250 OA
BRANCH   7   9
ATOM      9  C   UNL A   1      43.957  23.433  28.149  1.00  0.00     0.198 C 
BRANCH   9  10
ATOM     10  N   UNL A   1      44.950  22.612  27.427  1.00  0.00    -0.335 N 
ATOM     11  C   UNL A   1      45.507  22.856  26.179  1.00  0.00     0.293 C 
ATOM     12  O   UNL A   1      46.097  21.973  25.567  1.00  0.00    -0.265 OA
ATOM     13  H   UNL A   1      45.252  21.794  27.885  1.00  0.00     0.164 HD
BRANCH  11  14
ATOM     14  C   UNL A   1      45.430  24.285  25.580  1.00  0.00     0.252 C 
ATOM     15  O   UNL A   1      44.407  24.593  24.976  1.00  0.00    -0.283 OA
BRANCH  14  16
ATOM     16  C   UNL A   1      46.483  25.306  25.716  1.00  0.00     0.054 A 
ATOM     17  N   UNL A   1      48.360  26.504  25.562  1.00  0.00    -0.240 N 
ATOM     18  C   UNL A   1      47.838  25.234  25.445  1.00  0.00     0.117 A 
ATOM     19  C   UNL A   1      47.380  27.418  25.886  1.00  0.00     0.065 A 
ATOM     20  C   UNL A   1      46.234  26.660  26.146  1.00  0.00     0.012 A 
ATOM     21  C   UNL A   1      47.369  28.822  25.992  1.00  0.00     0.028 A 
ATOM     22  C   UNL A   1      45.095  27.313  26.669  1.00  0.00     0.011 A 
ATOM     23  C   UNL A   1      46.210  29.442  26.468  1.00  0.00     0.002 A 
ATOM     24  C   UNL A   1      45.097  28.696  26.834  1.00  0.00     0.001 A 
BRANCH  17  25
ATOM     25  S   UNL A   1      49.955  26.917  25.131  1.00  0.00     0.268 S 
ATOM     26  O   UNL A   1      50.745  25.754  25.466  1.00  0.00    -0.201 OA
ATOM     27  O   UNL A   1      50.208  28.220  25.737  1.00  0.00    -0.201 OA
BRANCH  25  28
ATOM     28  C   UNL A   1      50.062  27.148  23.373  1.00  0.00     0.088 A 
ATOM     29  C   UNL A   1      50.608  27.429  19.109  1.00  0.00     0.044 C 
ATOM     30  C   UNL A   1      50.412  27.347  20.596  1.00  0.00    -0.051 A 
ATOM     31  C   UNL A   1      51.523  27.241  21.439  1.00  0.00     0.005 A 
ATOM     32  C   UNL A   1      49.129  27.383  21.159  1.00  0.00     0.005 A 
ATOM     33  C   UNL A   1      51.350  27.134  22.821  1.00  0.00     0.022 A 
ATOM     34  C   UNL A   1      48.950  27.301  22.545  1.00  0.00     0.022 A 
ENDBRANCH  25  28
ENDBRANCH  17  25
ENDBRANCH  14  16
ENDBRANCH  11  14
ENDBRANCH   9  10
BRANCH   9  35
ATOM     35  C   UNL A   1      42.496  23.180  27.749  1.00  0.00     0.092 C 
BRANCH  35  36
ATOM     36  C   UNL A   1      41.642  24.355  27.415  1.00  0.00     0.037 A 
ATOM     37  C   UNL A   1      40.284  24.568  27.540  1.00  0.00     0.134 A 
ATOM     38  N   UNL A   1      42.101  25.465  26.752  1.00  0.00    -0.348 N 
ATOM     39  N   UNL A   1      39.902  25.711  26.889  1.00  0.00    -0.245 NA
ATOM     40  C   UNL A   1      41.012  26.209  26.395  1.00  0.00     0.196 A 
ATOM     41  H   UNL A   1      43.042  25.685  26.567  1.00  0.00     0.167 HD
ENDBRANCH  35  36
ENDBRANCH   9  35
ENDBRANCH   7   9
ENDBRANCH   6   7
ENDBRANCH   5   6
ENDBRANCH   4   5
ENDBRANCH   3   4
ENDBRANCH   2   3
ENDBRANCH   1   2
BRANCH   1  42
ATOM     42  O   UNL A   1      42.144  30.523  29.777  1.00  0.00    -0.377 OA
BRANCH  42  43
ATOM     43  C   UNL A   1      42.413  30.400  31.181  1.00  0.00     0.188 C 
BRANCH  43  44
ATOM     44  C   UNL A   1      41.223  30.569  32.122  1.00  0.00     0.188 C 
BRANCH  44  45
ATOM     45  O   UNL A   1      41.598  30.067  33.408  1.00  0.00    -0.376 OA
BRANCH  45  46
ATOM     46  C   UNL A   1      40.607  30.167  34.420  1.00  0.00     0.202 C 
BRANCH  46  47
ATOM     47  C   UNL A   1      41.062  31.023  35.598  1.00  0.00     0.261 C 
BRANCH  47  48
ATOM     48  O   UNL A   1      42.501  31.058  35.590  1.00  0.00    -0.460 OA
BRANCH  48  49
ATOM     49  C   UNL A   1      43.079  30.480  36.679  1.00  0.00     0.338 C 
ATOM     50  O   UNL A   1      42.696  30.664  37.822  1.00  0.00    -0.246 OA
BRANCH  49  51
ATOM     51  C   UNL A   1      44.322  29.752  36.277  1.00  0.00     0.060 A 
ATOM     52  C   UNL A   1      45.579  30.324  36.503  1.00  0.00     0.016 A 
ATOM     53  C   UNL A   1      44.230  28.641  35.446  1.00  0.00     0.016 A 
ATOM     54  C   UNL A   1      46.692  29.926  35.743  1.00  0.00     0.010 A 
ATOM     55  C   UNL A   1      45.311  28.305  34.647  1.00  0.00     0.010 A 
ATOM     56  C   UNL A   1      46.534  28.993  34.731  1.00  0.00    -0.014 A 
BRANCH  56  57
ATOM     57  C   UNL A   1      47.513  28.715  33.660  1.00  0.00     0.031 A 
ATOM     58  C   UNL A   1      48.561  27.681  33.898  1.00  0.00     0.074 A 
ATOM     59  C   UNL A   1      47.180  29.017  32.378  1.00  0.00     0.049 A 
ATOM     60  N   UNL A   1      49.355  27.206  32.996  1.00  0.00    -0.248 NA
ATOM     61  C   UNL A   1      48.795  27.090  35.209  1.00  0.00     0.031 C 
ATOM     62  C   UNL A   1      47.502  28.188  31.219  1.00  0.00     0.029 A 
ATOM     63  N   UNL A   1      46.398  30.033  31.823  1.00  0.00    -0.354 N 
ATOM     64  C   UNL A   1      49.974  26.083  33.501  1.00  0.00     0.074 A 
ATOM     65  C   UNL A   1      49.686  26.135  34.913  1.00  0.00     0.031 C 
ATOM     66  C   UNL A   1      46.876  28.642  30.134  1.00  0.00     0.029 A 
ATOM     67  C   UNL A   1      46.528  30.001  30.424  1.00  0.00     0.049 A 
ATOM     68  H   UNL A   1      45.845  30.670  32.331  1.00  0.00     0.167 HD
ATOM     69  C   UNL A   1      50.555  25.194  32.640  1.00  0.00     0.034 A 
ATOM     70  C   UNL A   1      46.995  31.008  29.631  1.00  0.00     0.034 A 
ATOM     71  C   UNL A   1      50.585  25.706  31.231  1.00  0.00     0.049 A 
ATOM     72  C   UNL A   1      48.394  30.711  29.076  1.00  0.00     0.074 A 
ATOM     73  C   UNL A   1      50.258  25.180  29.990  1.00  0.00     0.029 A 
ATOM     74  N   UNL A   1      50.942  27.042  30.973  1.00  0.00    -0.354 N 
ATOM     75  N   UNL A   1      49.031  29.573  29.262  1.00  0.00    -0.248 NA
ATOM     76  C   UNL A   1      49.200  31.623  28.273  1.00  0.00     0.031 C 
ATOM     77  C   UNL A   1      50.397  26.206  29.009  1.00  0.00     0.029 A 
ATOM     78  C   UNL A   1      50.776  27.382  29.637  1.00  0.00     0.049 A 
ATOM     79  H   UNL A   1      51.273  27.663  31.661  1.00  0.00     0.167 HD
ATOM     80  C   UNL A   1      50.321  29.640  28.821  1.00  0.00     0.074 A 
ATOM     81  C   UNL A   1      50.342  30.919  28.121  1.00  0.00     0.031 C 
ATOM     82  C   UNL A   1      51.257  28.675  29.120  1.00  0.00     0.034 A 
BRANCH  69  83
ATOM     83  C   UNL A   1      51.005  23.755  33.007  1.00  0.00     0.023 A 
ATOM     84  C   UNL A   1      52.319  23.368  32.647  1.00  0.00     0.012 A 
ATOM     85  C   UNL A   1      50.236  22.723  33.617  1.00  0.00     0.148 A 
ATOM     86  C   UNL A   1      52.818  22.066  32.825  1.00  0.00     0.002 A 
ATOM     87  C   UNL A   1      50.759  21.443  33.871  1.00  0.00     0.091 A 
ATOM     88  F   UNL A   1      48.952  22.924  33.908  1.00  0.00    -0.205 F 
ATOM     89  C   UNL A   1      52.042  21.103  33.448  1.00  0.00     0.022 A 
BRANCH  87  90
ATOM     90  S   UNL A   1      49.844  20.157  34.757  1.00  0.00     0.127 S 
ATOM     91  O   UNL A   1      49.389  20.867  35.952  1.00  0.00    -0.237 OA
ATOM     92  O   UNL A   1      48.782  19.823  33.808  1.00  0.00    -0.237 OA
ATOM     93  O   UNL A   1      50.791  19.078  35.011  1.00  0.00    -0.744 OA
ENDBRANCH  87  90
ENDBRANCH  69  83
BRANCH  70  94
ATOM     94  C   UNL A   1      46.198  32.261  29.796  1.00  0.00     0.023 A 
ATOM     95  C   UNL A   1      46.897  33.260  30.528  1.00  0.00     0.012 A 
ATOM     96  C   UNL A   1      45.393  32.668  28.724  1.00  0.00     0.148 A 
ATOM     97  C   UNL A   1      47.042  34.552  30.013  1.00  0.00     0.002 A 
ATOM     98  C   UNL A   1      45.595  33.937  28.177  1.00  0.00     0.091 A 
ATOM     99  F   UNL A   1      44.624  31.748  28.127  1.00  0.00    -0.205 F 
ATOM    100  C   UNL A   1      46.448  34.866  28.797  1.00  0.00     0.022 A 
BRANCH  98 101
ATOM    101  S   UNL A   1      45.147  34.256  26.463  1.00  0.00     0.127 S 
ATOM    102  O   UNL A   1      45.629  35.615  26.254  1.00  0.00    -0.237 OA
ATOM    103  O   UNL A   1      45.893  33.215  25.760  1.00  0.00    -0.237 OA
ATOM    104  O   UNL A   1      43.703  34.069  26.434  1.00  0.00    -0.744 OA
ENDBRANCH  98 101
ENDBRANCH  70  94
BRANCH  82 105
ATOM    105  C   UNL A   1      52.770  28.842  28.972  1.00  0.00     0.023 A 
ATOM    106  C   UNL A   1      53.534  29.624  29.857  1.00  0.00     0.012 A 
ATOM    107  C   UNL A   1      53.506  28.071  28.026  1.00  0.00     0.148 A 
ATOM    108  C   UNL A   1      54.931  29.680  29.788  1.00  0.00     0.002 A 
ATOM    109  C   UNL A   1      54.896  28.037  28.038  1.00  0.00     0.091 A 
ATOM    110  F   UNL A   1      52.866  27.372  27.080  1.00  0.00    -0.205 F 
ATOM    111  C   UNL A   1      55.614  28.865  28.899  1.00  0.00     0.022 A 
BRANCH 109 112
ATOM    112  S   UNL A   1      55.824  26.835  27.072  1.00  0.00     0.127 S 
ATOM    113  O   UNL A   1      55.593  27.310  25.710  1.00  0.00    -0.237 OA
ATOM    114  O   UNL A   1      57.186  27.035  27.569  1.00  0.00    -0.237 OA
ATOM    115  O   UNL A   1      55.250  25.538  27.399  1.00  0.00    -0.744 OA
ENDBRANCH 109 112
ENDBRANCH  82 105
ENDBRANCH  56  57
ENDBRANCH  49  51
ENDBRANCH  48  49
ENDBRANCH  47  48
ENDBRANCH  46  47
ENDBRANCH  45  46
ENDBRANCH  44  45
ENDBRANCH  43  44
ENDBRANCH  42  43
ENDBRANCH   1  42
TORSDOF 30
ENDMDL
MODEL 2
REMARK VINA RESULT:      -5.4     11.121     18.478
REMARK SMILES Cc1ccc(S(=O)(=O)n2cc(C(=O)C(=O)N[C@@H](Cc3cnc[nH]3)C(=O)OCCOCCOCCOCCOC(=O)c3ccc(-c4c5nc(c(-c6cccc(S(=O)(=O)[O-])c6F)c6ccc([nH]6)c(-c6cccc(S(=O)(=O)[O-])c6F)c6nc(c(-c7cccc(S(=O)(=O)[O-])c7F)c7ccc4[nH]7)C=C6)C=C5)cc3)c3ccccc32)cc1
REMARK SMILES IDX 31 1 30 2 29 3 28 4 27 5 26 6 24 7 25 8 17 9 16 10 14 11
REMARK SMILES IDX 15 12 12 14 13 15 11 16 9 17 10 18 109 19 104 20 108 21
REMARK SMILES IDX 105 22 107 23 106 24 6 25 7 26 8 27 5 28 1 29 2 30 3 31
REMARK SMILES IDX 111 32 4 33 110 34 18 35 19 36 20 37 23 38 21 39 22 40 32 42
REMARK SMILES IDX 33 43 34 44 35 45 36 46 37 47 38 48 39 49 40 50 41 51 42 52
REMARK SMILES IDX 103 53 43 54 102 55 44 56 45 57 46 58 96 59 47 60 101 61
REMARK SMILES IDX 95 62 97 63 48 64 100 65 94 66 93 67 49 69 81 70 61 71 80 72
REMARK SMILES IDX 62 73 65 74 79 75 98 76 63 77 64 78 78 80 99 81 66 82 50 83
REMARK SMILES IDX 51 84 59 85 52 86 54 87 60 88 53 89 55 90 56 91 57 92 58 93
REMARK SMILES IDX 82 94 83 95 91 96 84 97 86 98 92 99 85 100 87 101 88 102
REMARK SMILES IDX 89 103 90 104 67 105 68 106 76 107 69 108 71 109 77 110
REMARK SMILES IDX 70 111 72 112 73 113 74 114 75 115
REMARK H PARENT 16 13 23 41 97 68 65 79
REMARK Flexibility Score: inf
ROOT
ATOM      1  C   UNL A   1      55.658  41.001  22.787  1.00  0.00     0.188 C 
ENDROOT
BRANCH   1   2
ATOM      2  C   UNL A   1      55.558  42.438  22.261  1.00  0.00     0.188 C 
BRANCH   2   3
ATOM      3  O   UNL A   1      55.267  42.638  20.890  1.00  0.00    -0.376 OA
BRANCH   3   4
ATOM      4  C   UNL A   1      53.880  42.577  20.568  1.00  0.00     0.202 C 
BRANCH   4   5
ATOM      5  C   UNL A   1      52.978  43.619  21.219  1.00  0.00     0.261 C 
BRANCH   5   6
ATOM      6  O   UNL A   1      51.619  43.137  21.141  1.00  0.00    -0.462 OA
BRANCH   6   7
ATOM      7  C   UNL A   1      50.942  43.451  20.017  1.00  0.00     0.329 C 
ATOM      8  O   UNL A   1      51.294  43.167  18.877  1.00  0.00    -0.250 OA
BRANCH   7   9
ATOM      9  C   UNL A   1      49.695  44.289  20.323  1.00  0.00     0.198 C 
BRANCH   9  10
ATOM     10  N   UNL A   1      49.093  44.130  21.662  1.00  0.00    -0.335 N 
ATOM     11  C   UNL A   1      47.776  43.815  21.968  1.00  0.00     0.293 C 
ATOM     12  O   UNL A   1      47.331  43.987  23.098  1.00  0.00    -0.265 OA
ATOM     13  H   UNL A   1      49.696  44.265  22.428  1.00  0.00     0.164 HD
BRANCH  11  14
ATOM     14  C   UNL A   1      46.873  43.181  20.877  1.00  0.00     0.252 C 
ATOM     15  O   UNL A   1      47.214  42.095  20.420  1.00  0.00    -0.283 OA
BRANCH  14  16
ATOM     16  C   UNL A   1      45.620  43.774  20.381  1.00  0.00     0.054 A 
ATOM     17  N   UNL A   1      44.023  44.722  19.143  1.00  0.00    -0.240 N 
ATOM     18  C   UNL A   1      45.387  44.579  19.280  1.00  0.00     0.117 A 
ATOM     19  C   UNL A   1      43.347  44.016  20.115  1.00  0.00     0.065 A 
ATOM     20  C   UNL A   1      44.333  43.554  20.994  1.00  0.00     0.012 A 
ATOM     21  C   UNL A   1      41.984  43.740  20.334  1.00  0.00     0.028 A 
ATOM     22  C   UNL A   1      43.930  42.930  22.195  1.00  0.00     0.011 A 
ATOM     23  C   UNL A   1      41.622  43.078  21.511  1.00  0.00     0.002 A 
ATOM     24  C   UNL A   1      42.578  42.706  22.447  1.00  0.00     0.001 A 
BRANCH  17  25
ATOM     25  S   UNL A   1      43.277  45.475  17.809  1.00  0.00     0.268 S 
ATOM     26  O   UNL A   1      41.878  45.554  18.160  1.00  0.00    -0.201 OA
ATOM     27  O   UNL A   1      43.735  44.746  16.631  1.00  0.00    -0.201 OA
BRANCH  25  28
ATOM     28  C   UNL A   1      43.882  47.136  17.642  1.00  0.00     0.088 A 
ATOM     29  C   UNL A   1      45.388  51.093  16.844  1.00  0.00     0.044 C 
ATOM     30  C   UNL A   1      44.869  49.715  17.138  1.00  0.00    -0.051 A 
ATOM     31  C   UNL A   1      45.454  48.604  16.520  1.00  0.00     0.005 A 
ATOM     32  C   UNL A   1      43.807  49.518  18.031  1.00  0.00     0.005 A 
ATOM     33  C   UNL A   1      44.960  47.321  16.764  1.00  0.00     0.022 A 
ATOM     34  C   UNL A   1      43.321  48.232  18.298  1.00  0.00     0.022 A 
ENDBRANCH  25  28
ENDBRANCH  17  25
ENDBRANCH  14  16
ENDBRANCH  11  14
ENDBRANCH   9  10
BRANCH   9  35
ATOM     35  C   UNL A   1      49.920  45.743  19.884  1.00  0.00     0.092 C 
BRANCH  35  36
ATOM     36  C   UNL A   1      49.274  46.209  18.625  1.00  0.00     0.037 A 
ATOM     37  C   UNL A   1      48.768  45.520  17.542  1.00  0.00     0.134 A 
ATOM     38  N   UNL A   1      49.188  47.528  18.258  1.00  0.00    -0.348 N 
ATOM     39  N   UNL A   1      48.479  46.368  16.507  1.00  0.00    -0.245 NA
ATOM     40  C   UNL A   1      48.775  47.566  16.956  1.00  0.00     0.196 A 
ATOM     41  H   UNL A   1      49.386  48.305  18.828  1.00  0.00     0.167 HD
ENDBRANCH  35  36
ENDBRANCH   9  35
ENDBRANCH   7   9
ENDBRANCH   6   7
ENDBRANCH   5   6
ENDBRANCH   4   5
ENDBRANCH   3   4
ENDBRANCH   2   3
ENDBRANCH   1   2
BRANCH   1  42
ATOM     42  O   UNL A   1      54.547  40.431  23.456  1.00  0.00    -0.377 OA
BRANCH  42  43
ATOM     43  C   UNL A   1      54.692  39.075  23.903  1.00  0.00     0.188 C 
BRANCH  43  44
ATOM     44  C   UNL A   1      55.965  38.348  23.478  1.00  0.00     0.188 C 
BRANCH  44  45
ATOM     45  O   UNL A   1      56.241  37.332  24.446  1.00  0.00    -0.376 OA
BRANCH  45  46
ATOM     46  C   UNL A   1      55.218  37.101  25.404  1.00  0.00     0.202 C 
BRANCH  46  47
ATOM     47  C   UNL A   1      54.917  35.617  25.588  1.00  0.00     0.261 C 
BRANCH  47  48
ATOM     48  O   UNL A   1      53.494  35.437  25.473  1.00  0.00    -0.460 OA
BRANCH  48  49
ATOM     49  C   UNL A   1      52.896  34.965  26.602  1.00  0.00     0.338 C 
ATOM     50  O   UNL A   1      53.389  34.108  27.316  1.00  0.00    -0.246 OA
BRANCH  49  51
ATOM     51  C   UNL A   1      51.513  35.519  26.723  1.00  0.00     0.060 A 
ATOM     52  C   UNL A   1      50.955  36.257  25.673  1.00  0.00     0.016 A 
ATOM     53  C   UNL A   1      50.884  35.534  27.963  1.00  0.00     0.016 A 
ATOM     54  C   UNL A   1      49.909  37.165  25.915  1.00  0.00     0.010 A 
ATOM     55  C   UNL A   1      49.906  36.483  28.212  1.00  0.00     0.010 A 
ATOM     56  C   UNL A   1      49.458  37.363  27.211  1.00  0.00    -0.014 A 
BRANCH  56  57
ATOM     57  C   UNL A   1      48.611  38.486  27.661  1.00  0.00     0.031 A 
ATOM     58  C   UNL A   1      49.268  39.765  28.060  1.00  0.00     0.074 A 
ATOM     59  C   UNL A   1      47.312  38.521  27.266  1.00  0.00     0.049 A 
ATOM     60  N   UNL A   1      48.652  40.877  28.290  1.00  0.00    -0.248 NA
ATOM     61  C   UNL A   1      50.710  39.884  28.231  1.00  0.00     0.031 C 
ATOM     62  C   UNL A   1      46.597  39.732  26.868  1.00  0.00     0.029 A 
ATOM     63  N   UNL A   1      46.377  37.514  27.013  1.00  0.00    -0.354 N 
ATOM     64  C   UNL A   1      49.581  41.892  28.342  1.00  0.00     0.074 A 
ATOM     65  C   UNL A   1      50.844  41.201  28.426  1.00  0.00     0.031 C 
ATOM     66  C   UNL A   1      45.410  39.421  26.347  1.00  0.00     0.029 A 
ATOM     67  C   UNL A   1      45.115  38.098  26.809  1.00  0.00     0.049 A 
ATOM     68  H   UNL A   1      46.572  36.550  26.983  1.00  0.00     0.167 HD
ATOM     69  C   UNL A   1      49.168  43.187  28.192  1.00  0.00     0.034 A 
ATOM     70  C   UNL A   1      43.989  37.868  27.544  1.00  0.00     0.034 A 
ATOM     71  C   UNL A   1      47.673  43.307  28.180  1.00  0.00     0.049 A 
ATOM     72  C   UNL A   1      43.627  39.058  28.443  1.00  0.00     0.074 A 
ATOM     73  C   UNL A   1      46.749  43.959  27.377  1.00  0.00     0.029 A 
ATOM     74  N   UNL A   1      46.899  42.581  29.103  1.00  0.00    -0.354 N 
ATOM     75  N   UNL A   1      44.272  40.206  28.434  1.00  0.00    -0.248 NA
ATOM     76  C   UNL A   1      42.536  39.090  29.409  1.00  0.00     0.031 C 
ATOM     77  C   UNL A   1      45.438  43.600  27.807  1.00  0.00     0.029 A 
ATOM     78  C   UNL A   1      45.537  42.698  28.855  1.00  0.00     0.049 A 
ATOM     79  H   UNL A   1      47.280  42.052  29.841  1.00  0.00     0.167 HD
ATOM     80  C   UNL A   1      43.864  41.020  29.451  1.00  0.00     0.074 A 
ATOM     81  C   UNL A   1      42.705  40.306  29.972  1.00  0.00     0.031 C 
ATOM     82  C   UNL A   1      44.547  42.162  29.805  1.00  0.00     0.034 A 
BRANCH  69  83
ATOM     83  C   UNL A   1      50.097  44.398  27.913  1.00  0.00     0.023 A 
ATOM     84  C   UNL A   1      50.996  44.784  28.937  1.00  0.00     0.012 A 
ATOM     85  C   UNL A   1      50.127  45.235  26.761  1.00  0.00     0.148 A 
ATOM     86  C   UNL A   1      51.817  45.922  28.857  1.00  0.00     0.002 A 
ATOM     87  C   UNL A   1      51.005  46.326  26.644  1.00  0.00     0.091 A 
ATOM     88  F   UNL A   1      49.258  45.044  25.769  1.00  0.00    -0.205 F 
ATOM     89  C   UNL A   1      51.832  46.689  27.705  1.00  0.00     0.022 A 
BRANCH  87  90
ATOM     90  S   UNL A   1      51.150  47.325  25.142  1.00  0.00     0.127 S 
ATOM     91  O   UNL A   1      49.910  48.103  25.166  1.00  0.00    -0.237 OA
ATOM     92  O   UNL A   1      52.360  48.105  25.403  1.00  0.00    -0.237 OA
ATOM     93  O   UNL A   1      51.261  46.387  24.031  1.00  0.00    -0.744 OA
ENDBRANCH  87  90
ENDBRANCH  69  83
BRANCH  70  94
ATOM     94  C   UNL A   1      43.615  36.422  27.551  1.00  0.00     0.023 A 
ATOM     95  C   UNL A   1      42.906  36.035  26.380  1.00  0.00     0.012 A 
ATOM     96  C   UNL A   1      44.531  35.515  28.100  1.00  0.00     0.148 A 
ATOM     97  C   UNL A   1      43.329  34.942  25.618  1.00  0.00     0.002 A 
ATOM     98  C   UNL A   1      44.995  34.465  27.303  1.00  0.00     0.091 A 
ATOM     99  F   UNL A   1      45.091  35.817  29.278  1.00  0.00    -0.205 F 
ATOM    100  C   UNL A   1      44.424  34.201  26.047  1.00  0.00     0.022 A 
BRANCH  98 101
ATOM    101  S   UNL A   1      46.601  33.725  27.642  1.00  0.00     0.127 S 
ATOM    102  O   UNL A   1      46.478  32.404  27.040  1.00  0.00    -0.237 OA
ATOM    103  O   UNL A   1      47.505  34.643  26.954  1.00  0.00    -0.237 OA
ATOM    104  O   UNL A   1      46.709  33.767  29.094  1.00  0.00    -0.744 OA
ENDBRANCH  98 101
ENDBRANCH  70  94
BRANCH  82 105
ATOM    105  C   UNL A   1      44.370  42.920  31.122  1.00  0.00     0.023 A 
ATOM    106  C   UNL A   1      43.836  44.219  31.180  1.00  0.00     0.012 A 
ATOM    107  C   UNL A   1      44.582  42.275  32.375  1.00  0.00     0.148 A 
ATOM    108  C   UNL A   1      43.567  44.863  32.394  1.00  0.00     0.002 A 
ATOM    109  C   UNL A   1      44.204  42.872  33.574  1.00  0.00     0.091 A 
ATOM    110  F   UNL A   1      45.178  41.078  32.427  1.00  0.00    -0.205 F 
ATOM    111  C   UNL A   1      43.723  44.180  33.590  1.00  0.00     0.022 A 
BRANCH 109 112
ATOM    112  S   UNL A   1      44.168  41.952  35.120  1.00  0.00     0.127 S 
ATOM    113  O   UNL A   1      43.333  42.812  35.955  1.00  0.00    -0.237 OA
ATOM    114  O   UNL A   1      43.538  40.696  34.710  1.00  0.00    -0.237 OA
ATOM    115  O   UNL A   1      45.558  41.820  35.533  1.00  0.00    -0.744 OA
ENDBRANCH 109 112
ENDBRANCH  82 105
ENDBRANCH  56  57
ENDBRANCH  49  51
ENDBRANCH  48  49
ENDBRANCH  47  48
ENDBRANCH  46  47
ENDBRANCH  45  46
ENDBRANCH  44  45
ENDBRANCH  43  44
ENDBRANCH  42  43
ENDBRANCH   1  42
TORSDOF 30
ENDMDL
MODEL 3
REMARK VINA RESULT:      -5.4      4.838     10.905
REMARK SMILES Cc1ccc(S(=O)(=O)n2cc(C(=O)C(=O)N[C@@H](Cc3cnc[nH]3)C(=O)OCCOCCOCCOCCOC(=O)c3ccc(-c4c5nc(c(-c6cccc(S(=O)(=O)[O-])c6F)c6ccc([nH]6)c(-c6cccc(S(=O)(=O)[O-])c6F)c6nc(c(-c7cccc(S(=O)(=O)[O-])c7F)c7ccc4[nH]7)C=C6)C=C5)cc3)c3ccccc32)cc1
REMARK SMILES IDX 31 1 30 2 29 3 28 4 27 5 26 6 24 7 25 8 17 9 16 10 14 11
REMARK SMILES IDX 15 12 12 14 13 15 11 16 9 17 10 18 109 19 104 20 108 21
REMARK SMILES IDX 105 22 107 23 106 24 6 25 7 26 8 27 5 28 1 29 2 30 3 31
REMARK SMILES IDX 111 32 4 33 110 34 18 35 19 36 20 37 23 38 21 39 22 40 32 42
REMARK SMILES IDX 33 43 34 44 35 45 36 46 37 47 38 48 39 49 40 50 41 51 42 52
REMARK SMILES IDX 103 53 43 54 102 55 44 56 45 57 46 58 96 59 47 60 101 61
REMARK SMILES IDX 95 62 97 63 48 64 100 65 94 66 93 67 49 69 81 70 61 71 80 72
REMARK SMILES IDX 62 73 65 74 79 75 98 76 63 77 64 78 78 80 99 81 66 82 50 83
REMARK SMILES IDX 51 84 59 85 52 86 54 87 60 88 53 89 55 90 56 91 57 92 58 93
REMARK SMILES IDX 82 94 83 95 91 96 84 97 86 98 92 99 85 100 87 101 88 102
REMARK SMILES IDX 89 103 90 104 67 105 68 106 76 107 69 108 71 109 77 110
REMARK SMILES IDX 70 111 72 112 73 113 74 114 75 115
REMARK H PARENT 16 13 23 41 97 68 65 79
REMARK Flexibility Score: inf
ROOT
ATOM      1  C   UNL A   1      42.672  30.760  42.985  1.00  0.00     0.188 C 
ENDROOT
BRANCH   1   2
ATOM      2  C   UNL A   1      41.596  31.814  42.701  1.00  0.00     0.188 C 
BRANCH   2   3
ATOM      3  O   UNL A   1      41.874  32.827  41.752  1.00  0.00    -0.376 OA
BRANCH   3   4
ATOM      4  C   UNL A   1      40.747  33.241  40.985  1.00  0.00     0.202 C 
BRANCH   4   5
ATOM      5  C   UNL A   1      40.986  33.511  39.504  1.00  0.00     0.261 C 
BRANCH   5   6
ATOM      6  O   UNL A   1      39.891  32.926  38.766  1.00  0.00    -0.462 OA
BRANCH   6   7
ATOM      7  C   UNL A   1      38.927  33.779  38.360  1.00  0.00     0.329 C 
ATOM      8  O   UNL A   1      38.911  34.984  38.581  1.00  0.00    -0.250 OA
BRANCH   7   9
ATOM      9  C   UNL A   1      37.788  33.044  37.643  1.00  0.00     0.198 C 
BRANCH   9  10
ATOM     10  N   UNL A   1      38.130  31.780  36.961  1.00  0.00    -0.335 N 
ATOM     11  C   UNL A   1      38.235  31.553  35.596  1.00  0.00     0.293 C 
ATOM     12  O   UNL A   1      38.245  30.413  35.143  1.00  0.00    -0.265 OA
ATOM     13  H   UNL A   1      38.303  31.005  37.545  1.00  0.00     0.164 HD
BRANCH  11  14
ATOM     14  C   UNL A   1      38.401  32.761  34.635  1.00  0.00     0.252 C 
ATOM     15  O   UNL A   1      39.205  33.630  34.952  1.00  0.00    -0.283 OA
BRANCH  14  16
ATOM     16  C   UNL A   1      37.686  32.915  33.357  1.00  0.00     0.054 A 
ATOM     17  N   UNL A   1      36.883  32.663  31.290  1.00  0.00    -0.240 N 
ATOM     18  C   UNL A   1      37.940  32.353  32.118  1.00  0.00     0.117 A 
ATOM     19  C   UNL A   1      35.927  33.400  31.955  1.00  0.00     0.065 A 
ATOM     20  C   UNL A   1      36.490  33.705  33.199  1.00  0.00     0.012 A 
ATOM     21  C   UNL A   1      34.638  33.845  31.606  1.00  0.00     0.028 A 
ATOM     22  C   UNL A   1      35.806  34.601  34.050  1.00  0.00     0.011 A 
ATOM     23  C   UNL A   1      33.967  34.694  32.492  1.00  0.00     0.002 A 
ATOM     24  C   UNL A   1      34.555  35.095  33.684  1.00  0.00     0.001 A 
BRANCH  17  25
ATOM     25  S   UNL A   1      36.683  32.017  29.726  1.00  0.00     0.268 S 
ATOM     26  O   UNL A   1      37.182  33.038  28.834  1.00  0.00    -0.201 OA
ATOM     27  O   UNL A   1      35.303  31.547  29.662  1.00  0.00    -0.201 OA
BRANCH  25  28
ATOM     28  C   UNL A   1      37.714  30.584  29.531  1.00  0.00     0.088 A 
ATOM     29  C   UNL A   1      40.487  27.297  29.286  1.00  0.00     0.044 C 
ATOM     30  C   UNL A   1      39.514  28.438  29.357  1.00  0.00    -0.051 A 
ATOM     31  C   UNL A   1      39.976  29.754  29.252  1.00  0.00     0.005 A 
ATOM     32  C   UNL A   1      38.141  28.208  29.518  1.00  0.00     0.005 A 
ATOM     33  C   UNL A   1      39.083  30.823  29.347  1.00  0.00     0.022 A 
ATOM     34  C   UNL A   1      37.237  29.275  29.589  1.00  0.00     0.022 A 
ENDBRANCH  25  28
ENDBRANCH  17  25
ENDBRANCH  14  16
ENDBRANCH  11  14
ENDBRANCH   9  10
BRANCH   9  35
ATOM     35  C   UNL A   1      36.554  32.974  38.553  1.00  0.00     0.092 C 
BRANCH  35  36
ATOM     36  C   UNL A   1      36.697  32.329  39.889  1.00  0.00     0.037 A 
ATOM     37  C   UNL A   1      37.518  31.315  40.336  1.00  0.00     0.134 A 
ATOM     38  N   UNL A   1      35.864  32.584  40.949  1.00  0.00    -0.348 N 
ATOM     39  N   UNL A   1      37.143  30.887  41.582  1.00  0.00    -0.245 NA
ATOM     40  C   UNL A   1      36.123  31.647  41.909  1.00  0.00     0.196 A 
ATOM     41  H   UNL A   1      35.202  33.310  41.008  1.00  0.00     0.167 HD
ENDBRANCH  35  36
ENDBRANCH   9  35
ENDBRANCH   7   9
ENDBRANCH   6   7
ENDBRANCH   5   6
ENDBRANCH   4   5
ENDBRANCH   3   4
ENDBRANCH   2   3
ENDBRANCH   1   2
BRANCH   1  42
ATOM     42  O   UNL A   1      44.037  31.141  42.959  1.00  0.00    -0.377 OA
BRANCH  42  43
ATOM     43  C   UNL A   1      44.751  30.888  41.740  1.00  0.00     0.188 C 
BRANCH  43  44
ATOM     44  C   UNL A   1      46.081  30.150  41.869  1.00  0.00     0.188 C 
BRANCH  44  45
ATOM     45  O   UNL A   1      46.367  29.526  40.614  1.00  0.00    -0.376 OA
BRANCH  45  46
ATOM     46  C   UNL A   1      46.125  28.128  40.553  1.00  0.00     0.202 C 
BRANCH  46  47
ATOM     47  C   UNL A   1      45.341  27.725  39.308  1.00  0.00     0.261 C 
BRANCH  47  48
ATOM     48  O   UNL A   1      46.281  27.535  38.235  1.00  0.00    -0.460 OA
BRANCH  48  49
ATOM     49  C   UNL A   1      46.228  26.303  37.658  1.00  0.00     0.338 C 
ATOM     50  O   UNL A   1      46.200  25.263  38.294  1.00  0.00    -0.246 OA
BRANCH  49  51
ATOM     51  C   UNL A   1      46.384  26.421  36.176  1.00  0.00     0.060 A 
ATOM     52  C   UNL A   1      47.360  27.265  35.634  1.00  0.00     0.016 A 
ATOM     53  C   UNL A   1      45.400  25.908  35.337  1.00  0.00     0.016 A 
ATOM     54  C   UNL A   1      47.230  27.761  34.325  1.00  0.00     0.010 A 
ATOM     55  C   UNL A   1      45.236  26.456  34.076  1.00  0.00     0.010 A 
ATOM     56  C   UNL A   1      46.104  27.445  33.581  1.00  0.00    -0.014 A 
BRANCH  56  57
ATOM     57  C   UNL A   1      45.676  28.129  32.343  1.00  0.00     0.031 A 
ATOM     58  C   UNL A   1      46.196  27.633  31.035  1.00  0.00     0.074 A 
ATOM     59  C   UNL A   1      44.513  28.830  32.354  1.00  0.00     0.049 A 
ATOM     60  N   UNL A   1      45.766  28.007  29.875  1.00  0.00    -0.248 NA
ATOM     61  C   UNL A   1      47.268  26.652  30.940  1.00  0.00     0.031 C 
ATOM     62  C   UNL A   1      43.547  28.854  31.257  1.00  0.00     0.029 A 
ATOM     63  N   UNL A   1      43.868  29.567  33.350  1.00  0.00    -0.354 N 
ATOM     64  C   UNL A   1      46.262  27.142  28.924  1.00  0.00     0.074 A 
ATOM     65  C   UNL A   1      47.284  26.405  29.624  1.00  0.00     0.031 C 
ATOM     66  C   UNL A   1      42.424  29.463  31.640  1.00  0.00     0.029 A 
ATOM     67  C   UNL A   1      42.777  30.250  32.783  1.00  0.00     0.049 A 
ATOM     68  H   UNL A   1      44.134  29.603  34.296  1.00  0.00     0.167 HD
ATOM     69  C   UNL A   1      45.664  27.085  27.695  1.00  0.00     0.034 A 
ATOM     70  C   UNL A   1      42.590  31.601  32.763  1.00  0.00     0.034 A 
ATOM     71  C   UNL A   1      44.633  28.158  27.516  1.00  0.00     0.049 A 
ATOM     72  C   UNL A   1      42.803  32.199  31.366  1.00  0.00     0.074 A 
ATOM     73  C   UNL A   1      43.325  28.194  27.054  1.00  0.00     0.029 A 
ATOM     74  N   UNL A   1      44.899  29.472  27.941  1.00  0.00    -0.354 N 
ATOM     75  N   UNL A   1      43.041  31.479  30.289  1.00  0.00    -0.248 NA
ATOM     76  C   UNL A   1      42.764  33.618  31.035  1.00  0.00     0.031 C 
ATOM     77  C   UNL A   1      42.815  29.513  27.230  1.00  0.00     0.029 A 
ATOM     78  C   UNL A   1      43.787  30.297  27.833  1.00  0.00     0.049 A 
ATOM     79  H   UNL A   1      45.775  29.772  28.277  1.00  0.00     0.167 HD
ATOM     80  C   UNL A   1      43.370  32.263  29.222  1.00  0.00     0.074 A 
ATOM     81  C   UNL A   1      43.085  33.602  29.724  1.00  0.00     0.031 C 
ATOM     82  C   UNL A   1      43.897  31.749  28.058  1.00  0.00     0.034 A 
BRANCH  69  83
ATOM     83  C   UNL A   1      45.888  25.969  26.641  1.00  0.00     0.023 A 
ATOM     84  C   UNL A   1      47.128  25.952  25.957  1.00  0.00     0.012 A 
ATOM     85  C   UNL A   1      44.968  24.969  26.212  1.00  0.00     0.148 A 
ATOM     86  C   UNL A   1      47.421  25.063  24.908  1.00  0.00     0.002 A 
ATOM     87  C   UNL A   1      45.289  24.026  25.220  1.00  0.00     0.091 A 
ATOM     88  F   UNL A   1      43.730  24.941  26.701  1.00  0.00    -0.205 F 
ATOM     89  C   UNL A   1      46.505  24.090  24.545  1.00  0.00     0.022 A 
BRANCH  87  90
ATOM     90  S   UNL A   1      44.185  22.671  24.748  1.00  0.00     0.127 S 
ATOM     91  O   UNL A   1      42.863  23.240  25.011  1.00  0.00    -0.237 OA
ATOM     92  O   UNL A   1      44.499  22.496  23.330  1.00  0.00    -0.237 OA
ATOM     93  O   UNL A   1      44.541  21.537  25.592  1.00  0.00    -0.744 OA
ENDBRANCH  87  90
ENDBRANCH  69  83
BRANCH  70  94
ATOM     94  C   UNL A   1      42.581  32.181  34.140  1.00  0.00     0.023 A 
ATOM     95  C   UNL A   1      41.723  31.473  35.025  1.00  0.00     0.012 A 
ATOM     96  C   UNL A   1      43.790  32.678  34.646  1.00  0.00     0.148 A 
ATOM     97  C   UNL A   1      42.196  31.005  36.255  1.00  0.00     0.002 A 
ATOM     98  C   UNL A   1      44.282  32.152  35.843  1.00  0.00     0.091 A 
ATOM     99  F   UNL A   1      44.530  33.466  33.855  1.00  0.00    -0.205 F 
ATOM    100  C   UNL A   1      43.504  31.285  36.629  1.00  0.00     0.022 A 
BRANCH  98 101
ATOM    101  S   UNL A   1      46.050  32.194  36.180  1.00  0.00     0.127 S 
ATOM    102  O   UNL A   1      46.122  32.955  37.420  1.00  0.00    -0.237 OA
ATOM    103  O   UNL A   1      46.366  30.773  36.300  1.00  0.00    -0.237 OA
ATOM    104  O   UNL A   1      46.620  32.827  34.998  1.00  0.00    -0.744 OA
ENDBRANCH  98 101
ENDBRANCH  70  94
BRANCH  82 105
ATOM    105  C   UNL A   1      44.606  32.565  26.977  1.00  0.00     0.023 A 
ATOM    106  C   UNL A   1      43.910  33.216  25.943  1.00  0.00     0.012 A 
ATOM    107  C   UNL A   1      46.000  32.849  27.066  1.00  0.00     0.148 A 
ATOM    108  C   UNL A   1      44.551  34.057  25.025  1.00  0.00     0.002 A 
ATOM    109  C   UNL A   1      46.609  33.776  26.227  1.00  0.00     0.091 A 
ATOM    110  F   UNL A   1      46.766  32.204  27.955  1.00  0.00    -0.205 F 
ATOM    111  C   UNL A   1      45.893  34.361  25.184  1.00  0.00     0.022 A 
BRANCH 109 112
ATOM    112  S   UNL A   1      48.278  34.377  26.531  1.00  0.00     0.127 S 
ATOM    113  O   UNL A   1      48.267  35.653  25.819  1.00  0.00    -0.237 OA
ATOM    114  O   UNL A   1      48.297  34.489  27.991  1.00  0.00    -0.237 OA
ATOM    115  O   UNL A   1      49.168  33.357  25.996  1.00  0.00    -0.744 OA
ENDBRANCH 109 112
ENDBRANCH  82 105
ENDBRANCH  56  57
ENDBRANCH  49  51
ENDBRANCH  48  49
ENDBRANCH  47  48
ENDBRANCH  46  47
ENDBRANCH  45  46
ENDBRANCH  44  45
ENDBRANCH  43  44
ENDBRANCH  42  43
ENDBRANCH   1  42
TORSDOF 30
ENDMDL
