MODEL 1
REMARK VINA RESULT:      -8.0      0.000      0.000
REMARK SMILES O=C(OCCOCCOCCOCCOC(=O)[C@@]1([C@@H]2CCO[C@@]3(CCOC3)C2)CCOC1)c1ccc(-c2c3nc(c(-c4cccc(S(=O)(=O)[O-])c4F)c4ccc([nH]4)c(-c4cccc(S(=O)(=O)[O-])c4F)c4nc(c(-c5cccc(S(=O)(=O)[O-])c5F)c5ccc2[nH]5)C=C4)C=C3)cc1
REMARK SMILES IDX 8 1 7 2 6 3 5 4 4 5 3 6 2 7 1 8 33 9 34 10 95 11 35 12 94 13
REMARK SMILES IDX 36 14 37 15 38 16 88 17 39 18 93 19 87 20 89 21 40 22 92 23
REMARK SMILES IDX 86 24 85 25 41 27 73 28 53 29 72 30 54 31 57 32 71 33 90 34
REMARK SMILES IDX 55 35 56 36 70 38 91 39 58 40 42 41 43 42 51 43 44 44 46 45
REMARK SMILES IDX 52 46 45 47 47 48 48 49 49 50 50 51 74 52 75 53 83 54 76 55
REMARK SMILES IDX 78 56 84 57 77 58 79 59 80 60 81 61 82 62 59 63 60 64 68 65
REMARK SMILES IDX 61 66 63 67 69 68 62 69 64 70 65 71 66 72 67 73 9 74 10 75
REMARK SMILES IDX 11 76 12 77 13 78 14 79 15 80 16 81 17 82 18 83 29 84 32 85
REMARK SMILES IDX 30 86 31 87 19 88 20 89 28 90 21 91 23 92 22 93 24 94 27 95
REMARK SMILES IDX 25 96 26 97
REMARK H PARENT 89 26 57 37
REMARK Flexibility Score: inf
ROOT
ATOM      1  C   UNL A   1      35.713  33.413  30.239  1.00  0.00     0.188 C 
ENDROOT
BRANCH   1   2
ATOM      2  C   UNL A   1      34.934  32.455  31.153  1.00  0.00     0.188 C 
BRANCH   2   3
ATOM      3  O   UNL A   1      34.076  33.066  32.110  1.00  0.00    -0.376 OA
BRANCH   3   4
ATOM      4  C   UNL A   1      34.571  33.409  33.407  1.00  0.00     0.202 C 
BRANCH   4   5
ATOM      5  C   UNL A   1      35.429  34.665  33.528  1.00  0.00     0.261 C 
BRANCH   5   6
ATOM      6  O   UNL A   1      36.548  34.540  34.412  1.00  0.00    -0.460 OA
BRANCH   6   7
ATOM      7  C   UNL A   1      37.142  33.420  34.892  1.00  0.00     0.338 C 
ATOM      8  O   UNL A   1      36.755  32.990  35.977  1.00  0.00    -0.246 OA
BRANCH   7   9
ATOM      9  C   UNL A   1      38.267  32.702  34.213  1.00  0.00     0.060 A 
ATOM     10  C   UNL A   1      39.598  32.727  34.618  1.00  0.00     0.016 A 
ATOM     11  C   UNL A   1      37.943  31.883  33.118  1.00  0.00     0.016 A 
ATOM     12  C   UNL A   1      40.585  32.004  33.988  1.00  0.00     0.010 A 
ATOM     13  C   UNL A   1      38.936  31.164  32.443  1.00  0.00     0.010 A 
ATOM     14  C   UNL A   1      40.264  31.257  32.869  1.00  0.00    -0.014 A 
BRANCH  14  15
ATOM     15  C   UNL A   1      41.410  30.871  32.042  1.00  0.00     0.031 A 
ATOM     16  C   UNL A   1      41.965  31.926  31.135  1.00  0.00     0.074 A 
ATOM     17  C   UNL A   1      42.054  29.720  32.292  1.00  0.00     0.049 A 
ATOM     18  N   UNL A   1      42.956  31.855  30.296  1.00  0.00    -0.248 NA
ATOM     19  C   UNL A   1      41.330  33.257  31.206  1.00  0.00     0.031 C 
ATOM     20  C   UNL A   1      41.678  28.747  33.325  1.00  0.00     0.029 A 
ATOM     21  N   UNL A   1      43.178  29.190  31.727  1.00  0.00    -0.354 N 
ATOM     22  C   UNL A   1      43.007  33.099  29.682  1.00  0.00     0.074 A 
ATOM     23  C   UNL A   1      41.978  33.921  30.266  1.00  0.00     0.031 C 
ATOM     24  C   UNL A   1      42.557  27.732  33.310  1.00  0.00     0.029 A 
ATOM     25  C   UNL A   1      43.500  27.949  32.222  1.00  0.00     0.049 A 
ATOM     26  H   UNL A   1      43.705  29.651  31.035  1.00  0.00     0.167 HD
ATOM     27  C   UNL A   1      43.838  33.499  28.695  1.00  0.00     0.034 A 
ATOM     28  C   UNL A   1      44.427  27.077  31.786  1.00  0.00     0.034 A 
ATOM     29  C   UNL A   1      44.852  32.643  28.156  1.00  0.00     0.049 A 
ATOM     30  C   UNL A   1      45.271  27.506  30.617  1.00  0.00     0.074 A 
ATOM     31  C   UNL A   1      45.723  32.880  27.113  1.00  0.00     0.029 A 
ATOM     32  N   UNL A   1      45.117  31.362  28.627  1.00  0.00    -0.354 N 
ATOM     33  N   UNL A   1      45.291  28.664  29.996  1.00  0.00    -0.248 NA
ATOM     34  C   UNL A   1      46.223  26.523  30.093  1.00  0.00     0.031 C 
ATOM     35  C   UNL A   1      46.487  31.722  26.927  1.00  0.00     0.029 A 
ATOM     36  C   UNL A   1      46.128  30.785  27.888  1.00  0.00     0.049 A 
ATOM     37  H   UNL A   1      44.651  30.930  29.378  1.00  0.00     0.167 HD
ATOM     38  C   UNL A   1      46.280  28.563  29.028  1.00  0.00     0.074 A 
ATOM     39  C   UNL A   1      46.847  27.233  29.162  1.00  0.00     0.031 C 
ATOM     40  C   UNL A   1      46.680  29.470  28.102  1.00  0.00     0.034 A 
BRANCH  27  41
ATOM     41  C   UNL A   1      43.593  34.861  28.107  1.00  0.00     0.023 A 
ATOM     42  C   UNL A   1      42.780  35.022  26.968  1.00  0.00     0.012 A 
ATOM     43  C   UNL A   1      44.237  35.985  28.661  1.00  0.00     0.148 A 
ATOM     44  C   UNL A   1      42.651  36.272  26.360  1.00  0.00     0.002 A 
ATOM     45  C   UNL A   1      44.064  37.234  28.081  1.00  0.00     0.091 A 
ATOM     46  F   UNL A   1      45.038  35.803  29.720  1.00  0.00    -0.205 F 
ATOM     47  C   UNL A   1      43.287  37.378  26.920  1.00  0.00     0.022 A 
BRANCH  45  48
ATOM     48  S   UNL A   1      44.791  38.725  28.764  1.00  0.00     0.127 S 
ATOM     49  O   UNL A   1      43.944  38.959  29.933  1.00  0.00    -0.237 OA
ATOM     50  O   UNL A   1      46.151  38.283  29.074  1.00  0.00    -0.237 OA
ATOM     51  O   UNL A   1      44.701  39.735  27.720  1.00  0.00    -0.744 OA
ENDBRANCH  45  48
ENDBRANCH  27  41
BRANCH  28  52
ATOM     52  C   UNL A   1      44.573  25.736  32.421  1.00  0.00     0.023 A 
ATOM     53  C   UNL A   1      44.013  24.603  31.802  1.00  0.00     0.012 A 
ATOM     54  C   UNL A   1      45.268  25.574  33.638  1.00  0.00     0.148 A 
ATOM     55  C   UNL A   1      44.112  23.343  32.397  1.00  0.00     0.002 A 
ATOM     56  C   UNL A   1      45.410  24.311  34.198  1.00  0.00     0.091 A 
ATOM     57  F   UNL A   1      45.783  26.664  34.226  1.00  0.00    -0.205 F 
ATOM     58  C   UNL A   1      44.816  23.195  33.589  1.00  0.00     0.022 A 
BRANCH  56  59
ATOM     59  S   UNL A   1      46.391  24.006  35.672  1.00  0.00     0.127 S 
ATOM     60  O   UNL A   1      46.208  22.573  35.865  1.00  0.00    -0.237 OA
ATOM     61  O   UNL A   1      47.726  24.408  35.237  1.00  0.00    -0.237 OA
ATOM     62  O   UNL A   1      45.816  24.861  36.711  1.00  0.00    -0.744 OA
ENDBRANCH  56  59
ENDBRANCH  28  52
BRANCH  40  63
ATOM     63  C   UNL A   1      47.822  29.071  27.212  1.00  0.00     0.023 A 
ATOM     64  C   UNL A   1      49.149  29.198  27.664  1.00  0.00     0.012 A 
ATOM     65  C   UNL A   1      47.560  28.487  25.958  1.00  0.00     0.148 A 
ATOM     66  C   UNL A   1      50.206  28.779  26.860  1.00  0.00     0.002 A 
ATOM     67  C   UNL A   1      48.613  28.015  25.192  1.00  0.00     0.091 A 
ATOM     68  F   UNL A   1      46.287  28.397  25.547  1.00  0.00    -0.205 F 
ATOM     69  C   UNL A   1      49.938  28.173  25.632  1.00  0.00     0.022 A 
BRANCH  67  70
ATOM     70  S   UNL A   1      48.349  27.117  23.661  1.00  0.00     0.127 S 
ATOM     71  O   UNL A   1      49.719  26.930  23.186  1.00  0.00    -0.237 OA
ATOM     72  O   UNL A   1      47.693  25.896  24.130  1.00  0.00    -0.237 OA
ATOM     73  O   UNL A   1      47.511  27.971  22.831  1.00  0.00    -0.744 OA
ENDBRANCH  67  70
ENDBRANCH  40  63
ENDBRANCH  14  15
ENDBRANCH   7   9
ENDBRANCH   6   7
ENDBRANCH   5   6
ENDBRANCH   4   5
ENDBRANCH   3   4
ENDBRANCH   2   3
ENDBRANCH   1   2
BRANCH   1  74
ATOM     74  O   UNL A   1      36.327  32.872  29.079  1.00  0.00    -0.377 OA
BRANCH  74  75
ATOM     75  C   UNL A   1      35.465  32.181  28.194  1.00  0.00     0.188 C 
BRANCH  75  76
ATOM     76  C   UNL A   1      35.665  30.666  27.969  1.00  0.00     0.188 C 
BRANCH  76  77
ATOM     77  O   UNL A   1      36.119  30.014  29.128  1.00  0.00    -0.376 OA
BRANCH  77  78
ATOM     78  C   UNL A   1      37.525  29.898  29.276  1.00  0.00     0.202 C 
BRANCH  78  79
ATOM     79  C   UNL A   1      38.190  28.546  29.640  1.00  0.00     0.261 C 
BRANCH  79  80
ATOM     80  O   UNL A   1      39.045  27.845  28.699  1.00  0.00    -0.463 OA
BRANCH  80  81
ATOM     81  C   UNL A   1      40.373  27.716  28.930  1.00  0.00     0.314 C 
ATOM     82  O   UNL A   1      40.841  27.704  30.060  1.00  0.00    -0.252 OA
BRANCH  81  83
ATOM     83  C   UNL A   1      41.216  27.466  27.633  1.00  0.00     0.096 C 
ATOM     84  C   UNL A   1      40.733  28.309  26.438  1.00  0.00     0.050 C 
ATOM     85  C   UNL A   1      42.687  27.920  27.772  1.00  0.00     0.179 C 
ATOM     86  C   UNL A   1      41.992  28.867  25.782  1.00  0.00     0.161 C 
ATOM     87  O   UNL A   1      43.119  28.320  26.467  1.00  0.00    -0.380 OA
BRANCH  83  88
ATOM     88  C   UNL A   1      41.240  25.947  27.280  1.00  0.00     0.014 C 
ATOM     89  C   UNL A   1      39.945  25.331  26.672  1.00  0.00     0.033 C 
ATOM     90  C   UNL A   1      41.759  24.999  28.361  1.00  0.00     0.043 C 
ATOM     91  C   UNL A   1      39.454  24.081  27.417  1.00  0.00     0.161 C 
ATOM     92  C   UNL A   1      41.777  23.575  27.781  1.00  0.00     0.094 C 
ATOM     93  O   UNL A   1      40.449  23.078  27.643  1.00  0.00    -0.372 OA
ATOM     94  C   UNL A   1      42.515  23.437  26.447  1.00  0.00     0.066 C 
ATOM     95  C   UNL A   1      42.691  22.693  28.637  1.00  0.00     0.195 C 
ATOM     96  C   UNL A   1      43.949  23.588  26.881  1.00  0.00     0.163 C 
ATOM     97  O   UNL A   1      44.036  22.871  28.122  1.00  0.00    -0.378 OA
ENDBRANCH  83  88
ENDBRANCH  81  83
ENDBRANCH  80  81
ENDBRANCH  79  80
ENDBRANCH  78  79
ENDBRANCH  77  78
ENDBRANCH  76  77
ENDBRANCH  75  76
ENDBRANCH  74  75
ENDBRANCH   1  74
TORSDOF 24
ENDMDL
MODEL 2
REMARK VINA RESULT:      -7.8      2.793     10.475
REMARK SMILES O=C(OCCOCCOCCOCCOC(=O)[C@@]1([C@@H]2CCO[C@@]3(CCOC3)C2)CCOC1)c1ccc(-c2c3nc(c(-c4cccc(S(=O)(=O)[O-])c4F)c4ccc([nH]4)c(-c4cccc(S(=O)(=O)[O-])c4F)c4nc(c(-c5cccc(S(=O)(=O)[O-])c5F)c5ccc2[nH]5)C=C4)C=C3)cc1
REMARK SMILES IDX 8 1 7 2 6 3 5 4 4 5 3 6 2 7 1 8 33 9 34 10 95 11 35 12 94 13
REMARK SMILES IDX 36 14 37 15 38 16 88 17 39 18 93 19 87 20 89 21 40 22 92 23
REMARK SMILES IDX 86 24 85 25 41 27 73 28 53 29 72 30 54 31 57 32 71 33 90 34
REMARK SMILES IDX 55 35 56 36 70 38 91 39 58 40 42 41 43 42 51 43 44 44 46 45
REMARK SMILES IDX 52 46 45 47 47 48 48 49 49 50 50 51 74 52 75 53 83 54 76 55
REMARK SMILES IDX 78 56 84 57 77 58 79 59 80 60 81 61 82 62 59 63 60 64 68 65
REMARK SMILES IDX 61 66 63 67 69 68 62 69 64 70 65 71 66 72 67 73 9 74 10 75
REMARK SMILES IDX 11 76 12 77 13 78 14 79 15 80 16 81 17 82 18 83 29 84 32 85
REMARK SMILES IDX 30 86 31 87 19 88 20 89 28 90 21 91 23 92 22 93 24 94 27 95
REMARK SMILES IDX 25 96 26 97
REMARK H PARENT 89 26 57 37
REMARK Flexibility Score: inf
ROOT
ATOM      1  C   UNL A   1      44.885  24.363  24.775  1.00  0.00     0.188 C 
ENDROOT
BRANCH   1   2
ATOM      2  C   UNL A   1      43.824  23.265  24.941  1.00  0.00     0.188 C 
BRANCH   2   3
ATOM      3  O   UNL A   1      44.295  22.009  25.415  1.00  0.00    -0.376 OA
BRANCH   3   4
ATOM      4  C   UNL A   1      43.380  21.053  25.957  1.00  0.00     0.202 C 
BRANCH   4   5
ATOM      5  C   UNL A   1      42.221  21.580  26.798  1.00  0.00     0.261 C 
BRANCH   5   6
ATOM      6  O   UNL A   1      40.978  21.691  26.097  1.00  0.00    -0.460 OA
BRANCH   6   7
ATOM      7  C   UNL A   1      39.903  22.468  26.376  1.00  0.00     0.338 C 
ATOM      8  O   UNL A   1      38.786  21.985  26.188  1.00  0.00    -0.246 OA
BRANCH   7   9
ATOM      9  C   UNL A   1      39.983  23.886  26.850  1.00  0.00     0.060 A 
ATOM     10  C   UNL A   1      40.296  24.984  26.053  1.00  0.00     0.016 A 
ATOM     11  C   UNL A   1      39.651  24.139  28.191  1.00  0.00     0.016 A 
ATOM     12  C   UNL A   1      40.303  26.275  26.529  1.00  0.00     0.010 A 
ATOM     13  C   UNL A   1      39.683  25.440  28.704  1.00  0.00     0.010 A 
ATOM     14  C   UNL A   1      40.043  26.501  27.868  1.00  0.00    -0.014 A 
BRANCH  14  15
ATOM     15  C   UNL A   1      40.471  27.813  28.361  1.00  0.00     0.031 A 
ATOM     16  C   UNL A   1      41.921  28.148  28.195  1.00  0.00     0.074 A 
ATOM     17  C   UNL A   1      39.551  28.729  28.701  1.00  0.00     0.049 A 
ATOM     18  N   UNL A   1      42.566  29.222  28.547  1.00  0.00    -0.248 NA
ATOM     19  C   UNL A   1      42.756  27.142  27.508  1.00  0.00     0.031 C 
ATOM     20  C   UNL A   1      38.098  28.522  28.671  1.00  0.00     0.029 A 
ATOM     21  N   UNL A   1      39.694  30.027  29.100  1.00  0.00    -0.354 N 
ATOM     22  C   UNL A   1      43.890  28.984  28.204  1.00  0.00     0.074 A 
ATOM     23  C   UNL A   1      43.958  27.687  27.581  1.00  0.00     0.031 C 
ATOM     24  C   UNL A   1      37.486  29.656  29.048  1.00  0.00     0.029 A 
ATOM     25  C   UNL A   1      38.502  30.632  29.416  1.00  0.00     0.049 A 
ATOM     26  H   UNL A   1      40.565  30.483  29.156  1.00  0.00     0.167 HD
ATOM     27  C   UNL A   1      44.955  29.786  28.419  1.00  0.00     0.034 A 
ATOM     28  C   UNL A   1      38.284  31.827  29.993  1.00  0.00     0.034 A 
ATOM     29  C   UNL A   1      44.830  31.074  29.035  1.00  0.00     0.049 A 
ATOM     30  C   UNL A   1      39.495  32.659  30.318  1.00  0.00     0.074 A 
ATOM     31  C   UNL A   1      45.821  31.969  29.380  1.00  0.00     0.029 A 
ATOM     32  N   UNL A   1      43.617  31.640  29.410  1.00  0.00    -0.354 N 
ATOM     33  N   UNL A   1      40.757  32.419  30.042  1.00  0.00    -0.248 NA
ATOM     34  C   UNL A   1      39.261  33.922  31.021  1.00  0.00     0.031 C 
ATOM     35  C   UNL A   1      45.206  33.062  30.004  1.00  0.00     0.029 A 
ATOM     36  C   UNL A   1      43.830  32.869  29.998  1.00  0.00     0.049 A 
ATOM     37  H   UNL A   1      42.736  31.225  29.276  1.00  0.00     0.167 HD
ATOM     38  C   UNL A   1      41.467  33.516  30.508  1.00  0.00     0.074 A 
ATOM     39  C   UNL A   1      40.486  34.429  31.065  1.00  0.00     0.031 C 
ATOM     40  C   UNL A   1      42.803  33.752  30.494  1.00  0.00     0.034 A 
BRANCH  27  41
ATOM     41  C   UNL A   1      46.308  29.230  28.072  1.00  0.00     0.023 A 
ATOM     42  C   UNL A   1      46.800  29.292  26.753  1.00  0.00     0.012 A 
ATOM     43  C   UNL A   1      47.069  28.580  29.064  1.00  0.00     0.148 A 
ATOM     44  C   UNL A   1      48.005  28.672  26.416  1.00  0.00     0.002 A 
ATOM     45  C   UNL A   1      48.290  28.010  28.732  1.00  0.00     0.091 A 
ATOM     46  F   UNL A   1      46.565  28.498  30.303  1.00  0.00    -0.205 F 
ATOM     47  C   UNL A   1      48.752  28.038  27.406  1.00  0.00     0.022 A 
BRANCH  45  48
ATOM     48  S   UNL A   1      49.352  27.226  29.948  1.00  0.00     0.127 S 
ATOM     49  O   UNL A   1      48.636  25.977  30.205  1.00  0.00    -0.237 OA
ATOM     50  O   UNL A   1      50.601  27.072  29.204  1.00  0.00    -0.237 OA
ATOM     51  O   UNL A   1      49.423  28.144  31.075  1.00  0.00    -0.744 OA
ENDBRANCH  45  48
ENDBRANCH  27  41
BRANCH  28  52
ATOM     52  C   UNL A   1      36.902  32.277  30.323  1.00  0.00     0.023 A 
ATOM     53  C   UNL A   1      36.384  32.062  31.614  1.00  0.00     0.012 A 
ATOM     54  C   UNL A   1      36.093  32.921  29.362  1.00  0.00     0.148 A 
ATOM     55  C   UNL A   1      35.080  32.448  31.932  1.00  0.00     0.002 A 
ATOM     56  C   UNL A   1      34.816  33.350  29.701  1.00  0.00     0.091 A 
ATOM     57  F   UNL A   1      36.592  33.105  28.132  1.00  0.00    -0.205 F 
ATOM     58  C   UNL A   1      34.298  33.098  30.980  1.00  0.00     0.022 A 
BRANCH  56  59
ATOM     59  S   UNL A   1      33.778  34.293  28.576  1.00  0.00     0.127 S 
ATOM     60  O   UNL A   1      33.158  33.239  27.783  1.00  0.00    -0.237 OA
ATOM     61  O   UNL A   1      32.882  34.985  29.498  1.00  0.00    -0.237 OA
ATOM     62  O   UNL A   1      34.689  35.177  27.848  1.00  0.00    -0.744 OA
ENDBRANCH  56  59
ENDBRANCH  28  52
BRANCH  40  63
ATOM     63  C   UNL A   1      43.264  35.072  31.041  1.00  0.00     0.023 A 
ATOM     64  C   UNL A   1      43.572  35.202  32.409  1.00  0.00     0.012 A 
ATOM     65  C   UNL A   1      43.472  36.158  30.169  1.00  0.00     0.148 A 
ATOM     66  C   UNL A   1      44.050  36.411  32.908  1.00  0.00     0.002 A 
ATOM     67  C   UNL A   1      44.008  37.336  30.662  1.00  0.00     0.091 A 
ATOM     68  F   UNL A   1      43.151  36.010  28.875  1.00  0.00    -0.205 F 
ATOM     69  C   UNL A   1      44.282  37.472  32.033  1.00  0.00     0.022 A 
BRANCH  67  70
ATOM     70  S   UNL A   1      44.450  38.703  29.588  1.00  0.00     0.127 S 
ATOM     71  O   UNL A   1      44.772  39.750  30.556  1.00  0.00    -0.237 OA
ATOM     72  O   UNL A   1      45.602  38.165  28.863  1.00  0.00    -0.237 OA
ATOM     73  O   UNL A   1      43.281  38.958  28.757  1.00  0.00    -0.744 OA
ENDBRANCH  67  70
ENDBRANCH  40  63
ENDBRANCH  14  15
ENDBRANCH   7   9
ENDBRANCH   6   7
ENDBRANCH   5   6
ENDBRANCH   4   5
ENDBRANCH   3   4
ENDBRANCH   2   3
ENDBRANCH   1   2
BRANCH   1  74
ATOM     74  O   UNL A   1      46.103  24.222  25.492  1.00  0.00    -0.377 OA
BRANCH  74  75
ATOM     75  C   UNL A   1      46.368  25.223  26.456  1.00  0.00     0.188 C 
BRANCH  75  76
ATOM     76  C   UNL A   1      46.483  24.831  27.945  1.00  0.00     0.188 C 
BRANCH  76  77
ATOM     77  O   UNL A   1      45.690  23.714  28.261  1.00  0.00    -0.376 OA
BRANCH  77  78
ATOM     78  C   UNL A   1      44.362  23.983  28.680  1.00  0.00     0.202 C 
BRANCH  78  79
ATOM     79  C   UNL A   1      44.058  24.545  30.092  1.00  0.00     0.261 C 
BRANCH  79  80
ATOM     80  O   UNL A   1      45.011  24.414  31.180  1.00  0.00    -0.463 OA
BRANCH  80  81
ATOM     81  C   UNL A   1      44.591  24.212  32.452  1.00  0.00     0.314 C 
ATOM     82  O   UNL A   1      43.787  23.338  32.742  1.00  0.00    -0.252 OA
BRANCH  81  83
ATOM     83  C   UNL A   1      45.319  25.116  33.505  1.00  0.00     0.096 C 
ATOM     84  C   UNL A   1      45.753  24.335  34.760  1.00  0.00     0.050 C 
ATOM     85  C   UNL A   1      46.667  25.673  32.993  1.00  0.00     0.179 C 
ATOM     86  C   UNL A   1      47.176  24.792  35.067  1.00  0.00     0.161 C 
ATOM     87  O   UNL A   1      47.513  25.823  34.139  1.00  0.00    -0.380 OA
BRANCH  83  88
ATOM     88  C   UNL A   1      44.432  26.341  33.881  1.00  0.00     0.014 C 
ATOM     89  C   UNL A   1      43.783  26.351  35.296  1.00  0.00     0.033 C 
ATOM     90  C   UNL A   1      43.369  26.757  32.864  1.00  0.00     0.043 C 
ATOM     91  C   UNL A   1      42.265  26.585  35.272  1.00  0.00     0.161 C 
ATOM     92  C   UNL A   1      42.673  28.024  33.389  1.00  0.00     0.094 C 
ATOM     93  O   UNL A   1      41.836  27.708  34.496  1.00  0.00    -0.372 OA
ATOM     94  C   UNL A   1      43.622  29.161  33.774  1.00  0.00     0.066 C 
ATOM     95  C   UNL A   1      41.948  28.717  32.232  1.00  0.00     0.195 C 
ATOM     96  C   UNL A   1      44.092  29.631  32.423  1.00  0.00     0.163 C 
ATOM     97  O   UNL A   1      42.925  29.576  31.588  1.00  0.00    -0.378 OA
ENDBRANCH  83  88
ENDBRANCH  81  83
ENDBRANCH  80  81
ENDBRANCH  79  80
ENDBRANCH  78  79
ENDBRANCH  77  78
ENDBRANCH  76  77
ENDBRANCH  75  76
ENDBRANCH  74  75
ENDBRANCH   1  74
TORSDOF 24
ENDMDL
MODEL 3
REMARK VINA RESULT:      -7.6      3.880      9.049
REMARK SMILES O=C(OCCOCCOCCOCCOC(=O)[C@@]1([C@@H]2CCO[C@@]3(CCOC3)C2)CCOC1)c1ccc(-c2c3nc(c(-c4cccc(S(=O)(=O)[O-])c4F)c4ccc([nH]4)c(-c4cccc(S(=O)(=O)[O-])c4F)c4nc(c(-c5cccc(S(=O)(=O)[O-])c5F)c5ccc2[nH]5)C=C4)C=C3)cc1
REMARK SMILES IDX 8 1 7 2 6 3 5 4 4 5 3 6 2 7 1 8 33 9 34 10 95 11 35 12 94 13
REMARK SMILES IDX 36 14 37 15 38 16 88 17 39 18 93 19 87 20 89 21 40 22 92 23
REMARK SMILES IDX 86 24 85 25 41 27 73 28 53 29 72 30 54 31 57 32 71 33 90 34
REMARK SMILES IDX 55 35 56 36 70 38 91 39 58 40 42 41 43 42 51 43 44 44 46 45
REMARK SMILES IDX 52 46 45 47 47 48 48 49 49 50 50 51 74 52 75 53 83 54 76 55
REMARK SMILES IDX 78 56 84 57 77 58 79 59 80 60 81 61 82 62 59 63 60 64 68 65
REMARK SMILES IDX 61 66 63 67 69 68 62 69 64 70 65 71 66 72 67 73 9 74 10 75
REMARK SMILES IDX 11 76 12 77 13 78 14 79 15 80 16 81 17 82 18 83 29 84 32 85
REMARK SMILES IDX 30 86 31 87 19 88 20 89 28 90 21 91 23 92 22 93 24 94 27 95
REMARK SMILES IDX 25 96 26 97
REMARK H PARENT 89 26 57 37
REMARK Flexibility Score: inf
ROOT
ATOM      1  C   UNL A   1      36.351  32.373  29.994  1.00  0.00     0.188 C 
ENDROOT
BRANCH   1   2
ATOM      2  C   UNL A   1      35.389  32.417  31.190  1.00  0.00     0.188 C 
BRANCH   2   3
ATOM      3  O   UNL A   1      35.293  33.665  31.867  1.00  0.00    -0.376 OA
BRANCH   3   4
ATOM      4  C   UNL A   1      35.696  33.777  33.234  1.00  0.00     0.202 C 
BRANCH   4   5
ATOM      5  C   UNL A   1      37.128  34.222  33.517  1.00  0.00     0.261 C 
BRANCH   5   6
ATOM      6  O   UNL A   1      37.861  33.356  34.389  1.00  0.00    -0.460 OA
BRANCH   6   7
ATOM      7  C   UNL A   1      38.051  32.017  34.307  1.00  0.00     0.338 C 
ATOM      8  O   UNL A   1      37.465  31.307  35.123  1.00  0.00    -0.246 OA
BRANCH   7   9
ATOM      9  C   UNL A   1      38.962  31.350  33.324  1.00  0.00     0.060 A 
ATOM     10  C   UNL A   1      40.056  30.554  33.652  1.00  0.00     0.016 A 
ATOM     11  C   UNL A   1      38.649  31.482  31.960  1.00  0.00     0.016 A 
ATOM     12  C   UNL A   1      40.829  29.919  32.707  1.00  0.00     0.010 A 
ATOM     13  C   UNL A   1      39.441  30.872  30.981  1.00  0.00     0.010 A 
ATOM     14  C   UNL A   1      40.552  30.116  31.367  1.00  0.00    -0.014 A 
BRANCH  14  15
ATOM     15  C   UNL A   1      41.643  29.757  30.457  1.00  0.00     0.031 A 
ATOM     16  C   UNL A   1      41.494  28.465  29.712  1.00  0.00     0.074 A 
ATOM     17  C   UNL A   1      42.576  30.669  30.143  1.00  0.00     0.049 A 
ATOM     18  N   UNL A   1      42.303  27.904  28.862  1.00  0.00    -0.248 NA
ATOM     19  C   UNL A   1      40.242  27.715  29.938  1.00  0.00     0.031 C 
ATOM     20  C   UNL A   1      42.641  32.033  30.680  1.00  0.00     0.029 A 
ATOM     21  N   UNL A   1      43.624  30.604  29.269  1.00  0.00    -0.354 N 
ATOM     22  C   UNL A   1      41.699  26.702  28.520  1.00  0.00     0.074 A 
ATOM     23  C   UNL A   1      40.441  26.625  29.218  1.00  0.00     0.031 C 
ATOM     24  C   UNL A   1      43.685  32.672  30.127  1.00  0.00     0.029 A 
ATOM     25  C   UNL A   1      44.397  31.740  29.265  1.00  0.00     0.049 A 
ATOM     26  H   UNL A   1      43.806  29.822  28.700  1.00  0.00     0.167 HD
ATOM     27  C   UNL A   1      42.181  25.740  27.704  1.00  0.00     0.034 A 
ATOM     28  C   UNL A   1      45.581  31.958  28.665  1.00  0.00     0.034 A 
ATOM     29  C   UNL A   1      43.436  25.871  27.025  1.00  0.00     0.049 A 
ATOM     30  C   UNL A   1      46.147  30.830  27.844  1.00  0.00     0.074 A 
ATOM     31  C   UNL A   1      44.087  24.958  26.222  1.00  0.00     0.029 A 
ATOM     32  N   UNL A   1      44.238  27.005  27.089  1.00  0.00    -0.354 N 
ATOM     33  N   UNL A   1      45.606  29.668  27.557  1.00  0.00    -0.248 NA
ATOM     34  C   UNL A   1      47.474  31.040  27.260  1.00  0.00     0.031 C 
ATOM     35  C   UNL A   1      45.306  25.527  25.835  1.00  0.00     0.029 A 
ATOM     36  C   UNL A   1      45.388  26.813  26.353  1.00  0.00     0.049 A 
ATOM     37  H   UNL A   1      44.017  27.824  27.588  1.00  0.00     0.167 HD
ATOM     38  C   UNL A   1      46.510  29.018  26.729  1.00  0.00     0.074 A 
ATOM     39  C   UNL A   1      47.625  29.930  26.549  1.00  0.00     0.031 C 
ATOM     40  C   UNL A   1      46.443  27.781  26.176  1.00  0.00     0.034 A 
BRANCH  27  41
ATOM     41  C   UNL A   1      41.388  24.466  27.609  1.00  0.00     0.023 A 
ATOM     42  C   UNL A   1      41.859  23.274  28.196  1.00  0.00     0.012 A 
ATOM     43  C   UNL A   1      40.191  24.444  26.867  1.00  0.00     0.148 A 
ATOM     44  C   UNL A   1      41.176  22.072  28.004  1.00  0.00     0.002 A 
ATOM     45  C   UNL A   1      39.491  23.255  26.723  1.00  0.00     0.091 A 
ATOM     46  F   UNL A   1      39.782  25.580  26.282  1.00  0.00    -0.205 F 
ATOM     47  C   UNL A   1      39.989  22.064  27.274  1.00  0.00     0.022 A 
BRANCH  45  48
ATOM     48  S   UNL A   1      37.923  23.156  25.854  1.00  0.00     0.127 S 
ATOM     49  O   UNL A   1      37.774  21.712  25.676  1.00  0.00    -0.237 OA
ATOM     50  O   UNL A   1      37.003  23.751  26.823  1.00  0.00    -0.237 OA
ATOM     51  O   UNL A   1      38.093  23.920  24.626  1.00  0.00    -0.744 OA
ENDBRANCH  45  48
ENDBRANCH  27  41
BRANCH  28  52
ATOM     52  C   UNL A   1      46.304  33.249  28.845  1.00  0.00     0.023 A 
ATOM     53  C   UNL A   1      47.207  33.404  29.913  1.00  0.00     0.012 A 
ATOM     54  C   UNL A   1      46.103  34.329  27.959  1.00  0.00     0.148 A 
ATOM     55  C   UNL A   1      47.869  34.617  30.115  1.00  0.00     0.002 A 
ATOM     56  C   UNL A   1      46.805  35.515  28.135  1.00  0.00     0.091 A 
ATOM     57  F   UNL A   1      45.228  34.174  26.956  1.00  0.00    -0.205 F 
ATOM     58  C   UNL A   1      47.676  35.669  29.224  1.00  0.00     0.022 A 
BRANCH  56  59
ATOM     59  S   UNL A   1      46.704  36.884  26.976  1.00  0.00     0.127 S 
ATOM     60  O   UNL A   1      45.291  37.233  27.045  1.00  0.00    -0.237 OA
ATOM     61  O   UNL A   1      47.614  37.857  27.575  1.00  0.00    -0.237 OA
ATOM     62  O   UNL A   1      47.160  36.348  25.693  1.00  0.00    -0.744 OA
ENDBRANCH  56  59
ENDBRANCH  28  52
BRANCH  40  63
ATOM     63  C   UNL A   1      47.577  27.377  25.279  1.00  0.00     0.023 A 
ATOM     64  C   UNL A   1      48.628  26.585  25.780  1.00  0.00     0.012 A 
ATOM     65  C   UNL A   1      47.545  27.718  23.914  1.00  0.00     0.148 A 
ATOM     66  C   UNL A   1      49.653  26.166  24.936  1.00  0.00     0.002 A 
ATOM     67  C   UNL A   1      48.535  27.243  23.068  1.00  0.00     0.091 A 
ATOM     68  F   UNL A   1      46.542  28.489  23.469  1.00  0.00    -0.205 F 
ATOM     69  C   UNL A   1      49.598  26.481  23.579  1.00  0.00     0.022 A 
BRANCH  67  70
ATOM     70  S   UNL A   1      48.474  27.499  21.293  1.00  0.00     0.127 S 
ATOM     71  O   UNL A   1      48.630  26.135  20.791  1.00  0.00    -0.237 OA
ATOM     72  O   UNL A   1      47.139  28.070  21.110  1.00  0.00    -0.237 OA
ATOM     73  O   UNL A   1      49.568  28.410  20.980  1.00  0.00    -0.744 OA
ENDBRANCH  67  70
ENDBRANCH  40  63
ENDBRANCH  14  15
ENDBRANCH   7   9
ENDBRANCH   6   7
ENDBRANCH   5   6
ENDBRANCH   4   5
ENDBRANCH   3   4
ENDBRANCH   2   3
ENDBRANCH   1   2
BRANCH   1  74
ATOM     74  O   UNL A   1      36.014  31.530  28.902  1.00  0.00    -0.377 OA
BRANCH  74  75
ATOM     75  C   UNL A   1      35.350  32.159  27.822  1.00  0.00     0.188 C 
BRANCH  75  76
ATOM     76  C   UNL A   1      33.853  32.512  27.955  1.00  0.00     0.188 C 
BRANCH  76  77
ATOM     77  O   UNL A   1      33.021  31.437  27.597  1.00  0.00    -0.376 OA
BRANCH  77  78
ATOM     78  C   UNL A   1      33.640  30.368  26.901  1.00  0.00     0.202 C 
BRANCH  78  79
ATOM     79  C   UNL A   1      33.820  28.974  27.555  1.00  0.00     0.261 C 
BRANCH  79  80
ATOM     80  O   UNL A   1      33.438  27.757  26.862  1.00  0.00    -0.463 OA
BRANCH  80  81
ATOM     81  C   UNL A   1      32.176  27.274  26.949  1.00  0.00     0.314 C 
ATOM     82  O   UNL A   1      31.389  27.656  27.804  1.00  0.00    -0.252 OA
BRANCH  81  83
ATOM     83  C   UNL A   1      31.799  26.286  25.791  1.00  0.00     0.096 C 
ATOM     84  C   UNL A   1      32.854  25.184  25.583  1.00  0.00     0.050 C 
ATOM     85  C   UNL A   1      30.527  25.461  26.093  1.00  0.00     0.179 C 
ATOM     86  C   UNL A   1      32.073  23.884  25.415  1.00  0.00     0.161 C 
ATOM     87  O   UNL A   1      30.683  24.206  25.422  1.00  0.00    -0.380 OA
BRANCH  83  88
ATOM     88  C   UNL A   1      31.531  27.070  24.470  1.00  0.00     0.014 C 
ATOM     89  C   UNL A   1      32.649  27.052  23.386  1.00  0.00     0.033 C 
ATOM     90  C   UNL A   1      31.026  28.505  24.613  1.00  0.00     0.043 C 
ATOM     91  C   UNL A   1      33.056  28.452  22.904  1.00  0.00     0.161 C 
ATOM     92  C   UNL A   1      30.749  29.058  23.205  1.00  0.00     0.094 C 
ATOM     93  O   UNL A   1      31.972  29.301  22.517  1.00  0.00    -0.372 OA
ATOM     94  C   UNL A   1      29.843  28.179  22.340  1.00  0.00     0.066 C 
ATOM     95  C   UNL A   1      29.836  30.283  23.314  1.00  0.00     0.195 C 
ATOM     96  C   UNL A   1      28.505  28.387  22.997  1.00  0.00     0.163 C 
ATOM     97  O   UNL A   1      28.474  29.782  23.336  1.00  0.00    -0.378 OA
ENDBRANCH  83  88
ENDBRANCH  81  83
ENDBRANCH  80  81
ENDBRANCH  79  80
ENDBRANCH  78  79
ENDBRANCH  77  78
ENDBRANCH  76  77
ENDBRANCH  75  76
ENDBRANCH  74  75
ENDBRANCH   1  74
TORSDOF 24
ENDMDL
