MODEL 1
REMARK VINA RESULT:      -9.5      0.000      0.000
REMARK SMILES C[NH+](C)[C@@H]1CC[N@@H+](Cc2ccc(C(=O)OCCOCCOCCOCCOC(=O)c3ccc(-c4c5nc(c(-c6cccc(S(=O)(=O)[O-])c6F)c6ccc([nH]6)c(-c6cccc(S(=O)(=O)[O-])c6F)c6nc(c(-c7cccc(S(=O)(=O)[O-])c7F)c7ccc4[nH]7)C=C6)C=C5)cc3)cn2)C1
REMARK SMILES IDX 21 1 20 2 19 3 18 4 17 5 16 6 15 7 13 8 14 9 12 10 9 11
REMARK SMILES IDX 10 12 94 13 11 14 93 15 8 16 7 17 4 18 5 19 95 20 6 21 2 23
REMARK SMILES IDX 1 24 3 25 22 27 23 28 24 29 25 30 26 31 27 32 28 33 29 34
REMARK SMILES IDX 30 35 31 36 92 37 32 38 91 39 33 40 34 41 35 42 85 43 36 44
REMARK SMILES IDX 90 45 84 46 86 47 37 48 89 49 83 50 82 51 38 53 70 54 50 55
REMARK SMILES IDX 69 56 51 57 54 58 68 59 87 60 52 61 53 62 67 64 88 65 55 66
REMARK SMILES IDX 39 67 40 68 48 69 41 70 43 71 49 72 42 73 44 74 45 75 46 76
REMARK SMILES IDX 47 77 71 78 72 79 80 80 73 81 75 82 81 83 74 84 76 85 77 86
REMARK SMILES IDX 78 87 79 88 56 89 57 90 65 91 58 92 60 93 66 94 59 95 61 96
REMARK SMILES IDX 62 97 63 98 64 99
REMARK H PARENT 7 22 2 26 86 52 54 63
REMARK Flexibility Score: inf
ROOT
ATOM      1  O   UNL A   1      34.037  27.820  25.838  1.00  0.00    -0.377 OA
ENDROOT
BRANCH   1   2
ATOM      2  C   UNL A   1      33.130  26.809  26.238  1.00  0.00     0.188 C 
BRANCH   2   3
ATOM      3  C   UNL A   1      33.400  25.404  25.665  1.00  0.00     0.188 C 
BRANCH   3   4
ATOM      4  O   UNL A   1      34.769  25.160  25.398  1.00  0.00    -0.376 OA
BRANCH   4   5
ATOM      5  C   UNL A   1      35.249  23.850  25.154  1.00  0.00     0.202 C 
BRANCH   5   6
ATOM      6  C   UNL A   1      34.334  22.613  25.111  1.00  0.00     0.261 C 
BRANCH   6   7
ATOM      7  O   UNL A   1      34.039  22.088  23.821  1.00  0.00    -0.460 OA
BRANCH   7   8
ATOM      8  C   UNL A   1      32.744  21.910  23.509  1.00  0.00     0.339 C 
ATOM      9  O   UNL A   1      32.078  20.901  23.663  1.00  0.00    -0.246 OA
BRANCH   8  10
ATOM     10  C   UNL A   1      32.191  23.228  23.155  1.00  0.00     0.078 A 
ATOM     11  C   UNL A   1      31.363  25.728  22.422  1.00  0.00     0.095 A 
ATOM     12  C   UNL A   1      30.537  24.967  23.249  1.00  0.00     0.031 A 
ATOM     13  N   UNL A   1      32.488  25.226  21.843  1.00  0.00    -0.254 NA
ATOM     14  C   UNL A   1      30.973  23.706  23.640  1.00  0.00     0.019 A 
ATOM     15  C   UNL A   1      32.877  23.989  22.223  1.00  0.00     0.127 A 
BRANCH  11  16
ATOM     16  C   UNL A   1      31.182  27.233  22.361  1.00  0.00     0.319 C 
BRANCH  16  17
ATOM     17  N   UNL A   1      30.371  27.834  23.442  1.00  0.00    -0.325 N 
ATOM     18  C   UNL A   1      29.380  30.017  22.895  1.00  0.00     0.245 C 
ATOM     19  C   UNL A   1      28.361  28.900  22.631  1.00  0.00     0.132 C 
ATOM     20  C   UNL A   1      30.533  29.284  23.632  1.00  0.00     0.328 C 
ATOM     21  C   UNL A   1      28.926  27.645  23.286  1.00  0.00     0.269 C 
ATOM     22  H   UNL A   1      30.743  27.324  24.244  1.00  0.00     0.348 HD
BRANCH  18  23
ATOM     23  N   UNL A   1      28.818  31.187  23.611  1.00  0.00    -0.333 N 
ATOM     24  C   UNL A   1      29.088  32.437  22.886  1.00  0.00     0.332 C 
ATOM     25  C   UNL A   1      27.361  31.068  23.780  1.00  0.00     0.332 C 
ATOM     26  H   UNL A   1      29.270  31.208  24.525  1.00  0.00     0.348 HD
ENDBRANCH  18  23
ENDBRANCH  16  17
ENDBRANCH  11  16
ENDBRANCH   8  10
ENDBRANCH   7   8
ENDBRANCH   6   7
ENDBRANCH   5   6
ENDBRANCH   4   5
ENDBRANCH   3   4
ENDBRANCH   2   3
ENDBRANCH   1   2
BRANCH   1  27
ATOM     27  C   UNL A   1      33.818  29.162  26.276  1.00  0.00     0.188 C 
BRANCH  27  28
ATOM     28  C   UNL A   1      32.411  29.715  26.624  1.00  0.00     0.188 C 
BRANCH  28  29
ATOM     29  O   UNL A   1      32.391  30.988  27.253  1.00  0.00    -0.376 OA
BRANCH  29  30
ATOM     30  C   UNL A   1      31.481  31.958  26.764  1.00  0.00     0.202 C 
BRANCH  30  31
ATOM     31  C   UNL A   1      31.822  33.427  27.055  1.00  0.00     0.261 C 
BRANCH  31  32
ATOM     32  O   UNL A   1      33.169  33.683  27.478  1.00  0.00    -0.460 OA
BRANCH  32  33
ATOM     33  C   UNL A   1      33.339  34.467  28.564  1.00  0.00     0.338 C 
ATOM     34  O   UNL A   1      32.595  35.352  28.958  1.00  0.00    -0.246 OA
BRANCH  33  35
ATOM     35  C   UNL A   1      34.492  33.936  29.319  1.00  0.00     0.060 A 
ATOM     36  C   UNL A   1      35.788  34.192  28.853  1.00  0.00     0.016 A 
ATOM     37  C   UNL A   1      34.289  33.213  30.495  1.00  0.00     0.016 A 
ATOM     38  C   UNL A   1      36.889  33.693  29.550  1.00  0.00     0.010 A 
ATOM     39  C   UNL A   1      35.391  32.696  31.178  1.00  0.00     0.010 A 
ATOM     40  C   UNL A   1      36.693  32.906  30.691  1.00  0.00    -0.014 A 
BRANCH  40  41
ATOM     41  C   UNL A   1      37.828  32.145  31.266  1.00  0.00     0.031 A 
ATOM     42  C   UNL A   1      38.422  32.624  32.563  1.00  0.00     0.074 A 
ATOM     43  C   UNL A   1      38.329  31.058  30.652  1.00  0.00     0.049 A 
ATOM     44  N   UNL A   1      39.440  32.153  33.232  1.00  0.00    -0.248 NA
ATOM     45  C   UNL A   1      37.781  33.796  33.184  1.00  0.00     0.031 C 
ATOM     46  C   UNL A   1      37.836  30.492  29.399  1.00  0.00     0.029 A 
ATOM     47  N   UNL A   1      39.389  30.255  30.993  1.00  0.00    -0.354 N 
ATOM     48  C   UNL A   1      39.583  32.987  34.335  1.00  0.00     0.074 A 
ATOM     49  C   UNL A   1      38.555  33.999  34.239  1.00  0.00     0.031 C 
ATOM     50  C   UNL A   1      38.612  29.448  29.059  1.00  0.00     0.029 A 
ATOM     51  C   UNL A   1      39.672  29.292  30.054  1.00  0.00     0.049 A 
ATOM     52  H   UNL A   1      39.897  30.360  31.829  1.00  0.00     0.167 HD
ATOM     53  C   UNL A   1      40.482  32.912  35.344  1.00  0.00     0.034 A 
ATOM     54  C   UNL A   1      40.689  28.408  29.992  1.00  0.00     0.034 A 
ATOM     55  C   UNL A   1      41.498  31.900  35.442  1.00  0.00     0.049 A 
ATOM     56  C   UNL A   1      41.702  28.368  31.109  1.00  0.00     0.074 A 
ATOM     57  C   UNL A   1      42.425  31.709  36.451  1.00  0.00     0.029 A 
ATOM     58  N   UNL A   1      41.736  30.922  34.489  1.00  0.00    -0.354 N 
ATOM     59  N   UNL A   1      41.753  29.085  32.206  1.00  0.00    -0.248 NA
ATOM     60  C   UNL A   1      42.782  27.375  30.994  1.00  0.00     0.031 C 
ATOM     61  C   UNL A   1      43.252  30.641  36.088  1.00  0.00     0.029 A 
ATOM     62  C   UNL A   1      42.810  30.138  34.874  1.00  0.00     0.049 A 
ATOM     63  H   UNL A   1      41.218  30.804  33.661  1.00  0.00     0.167 HD
ATOM     64  C   UNL A   1      42.845  28.608  32.926  1.00  0.00     0.074 A 
ATOM     65  C   UNL A   1      43.413  27.525  32.150  1.00  0.00     0.031 C 
ATOM     66  C   UNL A   1      43.339  29.034  34.115  1.00  0.00     0.034 A 
BRANCH  53  67
ATOM     67  C   UNL A   1      40.400  33.952  36.429  1.00  0.00     0.023 A 
ATOM     68  C   UNL A   1      40.896  35.252  36.197  1.00  0.00     0.012 A 
ATOM     69  C   UNL A   1      39.792  33.654  37.664  1.00  0.00     0.148 A 
ATOM     70  C   UNL A   1      40.822  36.227  37.191  1.00  0.00     0.002 A 
ATOM     71  C   UNL A   1      39.677  34.645  38.630  1.00  0.00     0.091 A 
ATOM     72  F   UNL A   1      39.349  32.407  37.874  1.00  0.00    -0.205 F 
ATOM     73  C   UNL A   1      40.203  35.928  38.401  1.00  0.00     0.022 A 
BRANCH  71  74
ATOM     74  S   UNL A   1      38.827  34.383  40.191  1.00  0.00     0.127 S 
ATOM     75  O   UNL A   1      38.622  35.757  40.649  1.00  0.00    -0.237 OA
ATOM     76  O   UNL A   1      37.610  33.694  39.763  1.00  0.00    -0.237 OA
ATOM     77  O   UNL A   1      39.726  33.581  41.009  1.00  0.00    -0.744 OA
ENDBRANCH  71  74
ENDBRANCH  53  67
BRANCH  54  78
ATOM     78  C   UNL A   1      40.793  27.469  28.838  1.00  0.00     0.023 A 
ATOM     79  C   UNL A   1      39.902  26.383  28.739  1.00  0.00     0.012 A 
ATOM     80  C   UNL A   1      41.769  27.648  27.839  1.00  0.00     0.148 A 
ATOM     81  C   UNL A   1      40.001  25.475  27.684  1.00  0.00     0.002 A 
ATOM     82  C   UNL A   1      41.826  26.774  26.759  1.00  0.00     0.091 A 
ATOM     83  F   UNL A   1      42.620  28.678  27.960  1.00  0.00    -0.205 F 
ATOM     84  C   UNL A   1      40.955  25.676  26.690  1.00  0.00     0.022 A 
BRANCH  82  85
ATOM     85  S   UNL A   1      42.935  27.027  25.369  1.00  0.00     0.127 S 
ATOM     86  O   UNL A   1      42.835  25.748  24.670  1.00  0.00    -0.237 OA
ATOM     87  O   UNL A   1      42.303  28.154  24.684  1.00  0.00    -0.237 OA
ATOM     88  O   UNL A   1      44.235  27.330  25.949  1.00  0.00    -0.744 OA
ENDBRANCH  82  85
ENDBRANCH  54  78
BRANCH  66  89
ATOM     89  C   UNL A   1      44.534  28.308  34.683  1.00  0.00     0.023 A 
ATOM     90  C   UNL A   1      45.834  28.802  34.456  1.00  0.00     0.012 A 
ATOM     91  C   UNL A   1      44.359  27.178  35.508  1.00  0.00     0.148 A 
ATOM     92  C   UNL A   1      46.942  28.164  35.013  1.00  0.00     0.002 A 
ATOM     93  C   UNL A   1      45.464  26.579  36.103  1.00  0.00     0.091 A 
ATOM     94  F   UNL A   1      43.117  26.713  35.701  1.00  0.00    -0.205 F 
ATOM     95  C   UNL A   1      46.757  27.062  35.844  1.00  0.00     0.022 A 
BRANCH  93  96
ATOM     96  S   UNL A   1      45.316  25.217  37.264  1.00  0.00     0.127 S 
ATOM     97  O   UNL A   1      45.374  24.059  36.374  1.00  0.00    -0.237 OA
ATOM     98  O   UNL A   1      46.499  25.399  38.105  1.00  0.00    -0.237 OA
ATOM     99  O   UNL A   1      44.046  25.410  37.954  1.00  0.00    -0.744 OA
ENDBRANCH  93  96
ENDBRANCH  66  89
ENDBRANCH  40  41
ENDBRANCH  33  35
ENDBRANCH  32  33
ENDBRANCH  31  32
ENDBRANCH  30  31
ENDBRANCH  29  30
ENDBRANCH  28  29
ENDBRANCH  27  28
ENDBRANCH   1  27
TORSDOF 26
ENDMDL
MODEL 2
REMARK VINA RESULT:      -9.3      1.438      7.373
REMARK SMILES C[NH+](C)[C@@H]1CC[N@@H+](Cc2ccc(C(=O)OCCOCCOCCOCCOC(=O)c3ccc(-c4c5nc(c(-c6cccc(S(=O)(=O)[O-])c6F)c6ccc([nH]6)c(-c6cccc(S(=O)(=O)[O-])c6F)c6nc(c(-c7cccc(S(=O)(=O)[O-])c7F)c7ccc4[nH]7)C=C6)C=C5)cc3)cn2)C1
REMARK SMILES IDX 21 1 20 2 19 3 18 4 17 5 16 6 15 7 13 8 14 9 12 10 9 11
REMARK SMILES IDX 10 12 94 13 11 14 93 15 8 16 7 17 4 18 5 19 95 20 6 21 2 23
REMARK SMILES IDX 1 24 3 25 22 27 23 28 24 29 25 30 26 31 27 32 28 33 29 34
REMARK SMILES IDX 30 35 31 36 92 37 32 38 91 39 33 40 34 41 35 42 85 43 36 44
REMARK SMILES IDX 90 45 84 46 86 47 37 48 89 49 83 50 82 51 38 53 70 54 50 55
REMARK SMILES IDX 69 56 51 57 54 58 68 59 87 60 52 61 53 62 67 64 88 65 55 66
REMARK SMILES IDX 39 67 40 68 48 69 41 70 43 71 49 72 42 73 44 74 45 75 46 76
REMARK SMILES IDX 47 77 71 78 72 79 80 80 73 81 75 82 81 83 74 84 76 85 77 86
REMARK SMILES IDX 78 87 79 88 56 89 57 90 65 91 58 92 60 93 66 94 59 95 61 96
REMARK SMILES IDX 62 97 63 98 64 99
REMARK H PARENT 7 22 2 26 86 52 54 63
REMARK Flexibility Score: inf
ROOT
ATOM      1  O   UNL A   1      33.615  27.610  24.942  1.00  0.00    -0.377 OA
ENDROOT
BRANCH   1   2
ATOM      2  C   UNL A   1      33.916  26.734  26.014  1.00  0.00     0.188 C 
BRANCH   2   3
ATOM      3  C   UNL A   1      33.895  25.231  25.673  1.00  0.00     0.188 C 
BRANCH   3   4
ATOM      4  O   UNL A   1      35.161  24.610  25.792  1.00  0.00    -0.376 OA
BRANCH   4   5
ATOM      5  C   UNL A   1      35.453  23.400  25.116  1.00  0.00     0.202 C 
BRANCH   5   6
ATOM      6  C   UNL A   1      34.445  22.246  24.982  1.00  0.00     0.261 C 
BRANCH   6   7
ATOM      7  O   UNL A   1      34.105  21.852  23.657  1.00  0.00    -0.460 OA
BRANCH   7   8
ATOM      8  C   UNL A   1      32.802  21.858  23.326  1.00  0.00     0.339 C 
ATOM      9  O   UNL A   1      32.010  20.937  23.425  1.00  0.00    -0.246 OA
BRANCH   8  10
ATOM     10  C   UNL A   1      32.428  23.251  23.033  1.00  0.00     0.078 A 
ATOM     11  C   UNL A   1      31.534  25.791  22.561  1.00  0.00     0.095 A 
ATOM     12  C   UNL A   1      32.757  25.403  22.016  1.00  0.00     0.031 A 
ATOM     13  N   UNL A   1      30.840  25.016  23.440  1.00  0.00    -0.254 NA
ATOM     14  C   UNL A   1      33.197  24.102  22.238  1.00  0.00     0.019 A 
ATOM     15  C   UNL A   1      31.301  23.765  23.654  1.00  0.00     0.127 A 
BRANCH  11  16
ATOM     16  C   UNL A   1      30.795  26.981  21.977  1.00  0.00     0.319 C 
BRANCH  16  17
ATOM     17  N   UNL A   1      30.580  28.123  22.892  1.00  0.00    -0.325 N 
ATOM     18  C   UNL A   1      29.463  30.063  21.873  1.00  0.00     0.245 C 
ATOM     19  C   UNL A   1      28.430  29.181  22.588  1.00  0.00     0.132 C 
ATOM     20  C   UNL A   1      30.821  29.456  22.318  1.00  0.00     0.328 C 
ATOM     21  C   UNL A   1      29.225  28.203  23.446  1.00  0.00     0.269 C 
ATOM     22  H   UNL A   1      31.277  27.910  23.606  1.00  0.00     0.348 HD
BRANCH  18  23
ATOM     23  N   UNL A   1      29.303  31.513  22.139  1.00  0.00    -0.333 N 
ATOM     24  C   UNL A   1      28.404  32.139  21.159  1.00  0.00     0.332 C 
ATOM     25  C   UNL A   1      28.751  31.758  23.481  1.00  0.00     0.332 C 
ATOM     26  H   UNL A   1      30.235  31.922  22.070  1.00  0.00     0.348 HD
ENDBRANCH  18  23
ENDBRANCH  16  17
ENDBRANCH  11  16
ENDBRANCH   8  10
ENDBRANCH   7   8
ENDBRANCH   6   7
ENDBRANCH   5   6
ENDBRANCH   4   5
ENDBRANCH   3   4
ENDBRANCH   2   3
ENDBRANCH   1   2
BRANCH   1  27
ATOM     27  C   UNL A   1      33.201  28.946  25.234  1.00  0.00     0.188 C 
BRANCH  27  28
ATOM     28  C   UNL A   1      32.177  29.287  26.348  1.00  0.00     0.188 C 
BRANCH  28  29
ATOM     29  O   UNL A   1      32.323  30.566  26.945  1.00  0.00    -0.376 OA
BRANCH  29  30
ATOM     30  C   UNL A   1      31.414  31.585  26.569  1.00  0.00     0.202 C 
BRANCH  30  31
ATOM     31  C   UNL A   1      31.812  33.025  26.920  1.00  0.00     0.261 C 
BRANCH  31  32
ATOM     32  O   UNL A   1      33.138  33.197  27.441  1.00  0.00    -0.460 OA
BRANCH  32  33
ATOM     33  C   UNL A   1      33.314  34.138  28.392  1.00  0.00     0.338 C 
ATOM     34  O   UNL A   1      32.571  35.073  28.650  1.00  0.00    -0.246 OA
BRANCH  33  35
ATOM     35  C   UNL A   1      34.473  33.732  29.211  1.00  0.00     0.060 A 
ATOM     36  C   UNL A   1      35.746  34.211  28.877  1.00  0.00     0.016 A 
ATOM     37  C   UNL A   1      34.294  32.902  30.319  1.00  0.00     0.016 A 
ATOM     38  C   UNL A   1      36.854  33.832  29.636  1.00  0.00     0.010 A 
ATOM     39  C   UNL A   1      35.406  32.507  31.064  1.00  0.00     0.010 A 
ATOM     40  C   UNL A   1      36.694  32.943  30.706  1.00  0.00    -0.014 A 
BRANCH  40  41
ATOM     41  C   UNL A   1      37.885  32.320  31.331  1.00  0.00     0.031 A 
ATOM     42  C   UNL A   1      38.639  31.280  30.547  1.00  0.00     0.074 A 
ATOM     43  C   UNL A   1      38.288  32.658  32.569  1.00  0.00     0.049 A 
ATOM     44  N   UNL A   1      39.677  30.569  30.897  1.00  0.00    -0.248 NA
ATOM     45  C   UNL A   1      38.150  31.005  29.184  1.00  0.00     0.031 C 
ATOM     46  C   UNL A   1      37.647  33.655  33.424  1.00  0.00     0.029 A 
ATOM     47  N   UNL A   1      39.322  32.172  33.330  1.00  0.00    -0.354 N 
ATOM     48  C   UNL A   1      39.948  29.741  29.814  1.00  0.00     0.074 A 
ATOM     49  C   UNL A   1      38.958  30.029  28.800  1.00  0.00     0.031 C 
ATOM     50  C   UNL A   1      38.285  33.686  34.607  1.00  0.00     0.029 A 
ATOM     51  C   UNL A   1      39.358  32.692  34.602  1.00  0.00     0.049 A 
ATOM     52  H   UNL A   1      39.973  31.514  32.997  1.00  0.00     0.167 HD
ATOM     53  C   UNL A   1      40.938  28.828  29.671  1.00  0.00     0.034 A 
ATOM     54  C   UNL A   1      40.148  32.378  35.650  1.00  0.00     0.034 A 
ATOM     55  C   UNL A   1      41.925  28.548  30.676  1.00  0.00     0.049 A 
ATOM     56  C   UNL A   1      41.219  31.330  35.479  1.00  0.00     0.074 A 
ATOM     57  C   UNL A   1      42.998  27.678  30.608  1.00  0.00     0.029 A 
ATOM     58  N   UNL A   1      41.950  29.116  31.941  1.00  0.00    -0.354 N 
ATOM     59  N   UNL A   1      41.540  30.641  34.410  1.00  0.00    -0.248 NA
ATOM     60  C   UNL A   1      42.059  31.038  36.651  1.00  0.00     0.031 C 
ATOM     61  C   UNL A   1      43.647  27.687  31.847  1.00  0.00     0.029 A 
ATOM     62  C   UNL A   1      43.006  28.598  32.671  1.00  0.00     0.049 A 
ATOM     63  H   UNL A   1      41.310  29.788  32.271  1.00  0.00     0.167 HD
ATOM     64  C   UNL A   1      42.637  29.862  34.769  1.00  0.00     0.074 A 
ATOM     65  C   UNL A   1      42.938  30.183  36.149  1.00  0.00     0.031 C 
ATOM     66  C   UNL A   1      43.324  28.958  34.029  1.00  0.00     0.034 A 
BRANCH  53  67
ATOM     67  C   UNL A   1      41.003  28.070  28.372  1.00  0.00     0.023 A 
ATOM     68  C   UNL A   1      41.607  28.660  27.242  1.00  0.00     0.012 A 
ATOM     69  C   UNL A   1      40.504  26.756  28.282  1.00  0.00     0.148 A 
ATOM     70  C   UNL A   1      41.680  27.968  26.034  1.00  0.00     0.002 A 
ATOM     71  C   UNL A   1      40.626  26.055  27.089  1.00  0.00     0.091 A 
ATOM     72  F   UNL A   1      39.913  26.221  29.359  1.00  0.00    -0.205 F 
ATOM     73  C   UNL A   1      41.201  26.664  25.961  1.00  0.00     0.022 A 
BRANCH  71  74
ATOM     74  S   UNL A   1      40.111  24.343  26.915  1.00  0.00     0.127 S 
ATOM     75  O   UNL A   1      40.166  23.877  28.301  1.00  0.00    -0.237 OA
ATOM     76  O   UNL A   1      38.761  24.484  26.372  1.00  0.00    -0.237 OA
ATOM     77  O   UNL A   1      41.070  23.724  26.011  1.00  0.00    -0.744 OA
ENDBRANCH  71  74
ENDBRANCH  53  67
BRANCH  54  78
ATOM     78  C   UNL A   1      39.971  33.078  36.955  1.00  0.00     0.023 A 
ATOM     79  C   UNL A   1      38.969  32.649  37.847  1.00  0.00     0.012 A 
ATOM     80  C   UNL A   1      40.792  34.164  37.316  1.00  0.00     0.148 A 
ATOM     81  C   UNL A   1      38.766  33.309  39.059  1.00  0.00     0.002 A 
ATOM     82  C   UNL A   1      40.623  34.780  38.551  1.00  0.00     0.091 A 
ATOM     83  F   UNL A   1      41.729  34.568  36.447  1.00  0.00    -0.205 F 
ATOM     84  C   UNL A   1      39.598  34.366  39.416  1.00  0.00     0.022 A 
BRANCH  82  85
ATOM     85  S   UNL A   1      41.728  36.064  39.149  1.00  0.00     0.127 S 
ATOM     86  O   UNL A   1      41.016  36.546  40.330  1.00  0.00    -0.237 OA
ATOM     87  O   UNL A   1      42.945  35.302  39.431  1.00  0.00    -0.237 OA
ATOM     88  O   UNL A   1      41.856  37.017  38.056  1.00  0.00    -0.744 OA
ENDBRANCH  82  85
ENDBRANCH  54  78
BRANCH  66  89
ATOM     89  C   UNL A   1      44.502  28.269  34.674  1.00  0.00     0.023 A 
ATOM     90  C   UNL A   1      45.771  28.881  34.663  1.00  0.00     0.012 A 
ATOM     91  C   UNL A   1      44.329  27.050  35.361  1.00  0.00     0.148 A 
ATOM     92  C   UNL A   1      46.857  28.274  35.294  1.00  0.00     0.002 A 
ATOM     93  C   UNL A   1      45.403  26.478  36.034  1.00  0.00     0.091 A 
ATOM     94  F   UNL A   1      43.119  26.475  35.350  1.00  0.00    -0.205 F 
ATOM     95  C   UNL A   1      46.671  27.081  35.988  1.00  0.00     0.022 A 
BRANCH  93  96
ATOM     96  S   UNL A   1      45.238  24.996  37.035  1.00  0.00     0.127 S 
ATOM     97  O   UNL A   1      43.924  25.194  37.646  1.00  0.00    -0.237 OA
ATOM     98  O   UNL A   1      45.287  23.936  36.027  1.00  0.00    -0.237 OA
ATOM     99  O   UNL A   1      46.364  25.005  37.960  1.00  0.00    -0.744 OA
ENDBRANCH  93  96
ENDBRANCH  66  89
ENDBRANCH  40  41
ENDBRANCH  33  35
ENDBRANCH  32  33
ENDBRANCH  31  32
ENDBRANCH  30  31
ENDBRANCH  29  30
ENDBRANCH  28  29
ENDBRANCH  27  28
ENDBRANCH   1  27
TORSDOF 26
ENDMDL
MODEL 3
REMARK VINA RESULT:      -9.3      3.542      4.645
REMARK SMILES C[NH+](C)[C@@H]1CC[N@@H+](Cc2ccc(C(=O)OCCOCCOCCOCCOC(=O)c3ccc(-c4c5nc(c(-c6cccc(S(=O)(=O)[O-])c6F)c6ccc([nH]6)c(-c6cccc(S(=O)(=O)[O-])c6F)c6nc(c(-c7cccc(S(=O)(=O)[O-])c7F)c7ccc4[nH]7)C=C6)C=C5)cc3)cn2)C1
REMARK SMILES IDX 21 1 20 2 19 3 18 4 17 5 16 6 15 7 13 8 14 9 12 10 9 11
REMARK SMILES IDX 10 12 94 13 11 14 93 15 8 16 7 17 4 18 5 19 95 20 6 21 2 23
REMARK SMILES IDX 1 24 3 25 22 27 23 28 24 29 25 30 26 31 27 32 28 33 29 34
REMARK SMILES IDX 30 35 31 36 92 37 32 38 91 39 33 40 34 41 35 42 85 43 36 44
REMARK SMILES IDX 90 45 84 46 86 47 37 48 89 49 83 50 82 51 38 53 70 54 50 55
REMARK SMILES IDX 69 56 51 57 54 58 68 59 87 60 52 61 53 62 67 64 88 65 55 66
REMARK SMILES IDX 39 67 40 68 48 69 41 70 43 71 49 72 42 73 44 74 45 75 46 76
REMARK SMILES IDX 47 77 71 78 72 79 80 80 73 81 75 82 81 83 74 84 76 85 77 86
REMARK SMILES IDX 78 87 79 88 56 89 57 90 65 91 58 92 60 93 66 94 59 95 61 96
REMARK SMILES IDX 62 97 63 98 64 99
REMARK H PARENT 7 22 2 26 86 52 54 63
REMARK Flexibility Score: inf
ROOT
ATOM      1  O   UNL A   1      33.699  25.451  23.264  1.00  0.00    -0.377 OA
ENDROOT
BRANCH   1   2
ATOM      2  C   UNL A   1      34.694  24.550  23.716  1.00  0.00     0.188 C 
BRANCH   2   3
ATOM      3  C   UNL A   1      34.694  24.258  25.229  1.00  0.00     0.188 C 
BRANCH   3   4
ATOM      4  O   UNL A   1      34.833  22.883  25.536  1.00  0.00    -0.376 OA
BRANCH   4   5
ATOM      5  C   UNL A   1      34.187  21.887  24.763  1.00  0.00     0.202 C 
BRANCH   5   6
ATOM      6  C   UNL A   1      32.691  21.937  24.407  1.00  0.00     0.261 C 
BRANCH   6   7
ATOM      7  O   UNL A   1      31.777  21.722  25.477  1.00  0.00    -0.460 OA
BRANCH   7   8
ATOM      8  C   UNL A   1      31.582  22.739  26.335  1.00  0.00     0.339 C 
ATOM      9  O   UNL A   1      32.007  22.836  27.474  1.00  0.00    -0.246 OA
BRANCH   8  10
ATOM     10  C   UNL A   1      30.953  23.836  25.583  1.00  0.00     0.078 A 
ATOM     11  C   UNL A   1      29.729  25.963  24.378  1.00  0.00     0.095 A 
ATOM     12  C   UNL A   1      30.063  24.856  23.599  1.00  0.00     0.031 A 
ATOM     13  N   UNL A   1      30.119  26.094  25.676  1.00  0.00    -0.254 NA
ATOM     14  C   UNL A   1      30.664  23.766  24.220  1.00  0.00     0.019 A 
ATOM     15  C   UNL A   1      30.720  25.029  26.249  1.00  0.00     0.127 A 
BRANCH  11  16
ATOM     16  C   UNL A   1      28.678  26.939  23.885  1.00  0.00     0.319 C 
BRANCH  16  17
ATOM     17  N   UNL A   1      29.060  27.771  22.723  1.00  0.00    -0.325 N 
ATOM     18  C   UNL A   1      29.298  30.171  23.207  1.00  0.00     0.245 C 
ATOM     19  C   UNL A   1      30.669  29.484  23.279  1.00  0.00     0.132 C 
ATOM     20  C   UNL A   1      28.377  29.070  22.614  1.00  0.00     0.328 C 
ATOM     21  C   UNL A   1      30.487  28.102  22.663  1.00  0.00     0.269 C 
ATOM     22  H   UNL A   1      28.775  27.153  21.963  1.00  0.00     0.348 HD
BRANCH  18  23
ATOM     23  N   UNL A   1      29.305  31.453  22.463  1.00  0.00    -0.333 N 
ATOM     24  C   UNL A   1      28.602  31.328  21.178  1.00  0.00     0.332 C 
ATOM     25  C   UNL A   1      28.654  32.526  23.231  1.00  0.00     0.332 C 
ATOM     26  H   UNL A   1      30.285  31.688  22.305  1.00  0.00     0.348 HD
ENDBRANCH  18  23
ENDBRANCH  16  17
ENDBRANCH  11  16
ENDBRANCH   8  10
ENDBRANCH   7   8
ENDBRANCH   6   7
ENDBRANCH   5   6
ENDBRANCH   4   5
ENDBRANCH   3   4
ENDBRANCH   2   3
ENDBRANCH   1   2
BRANCH   1  27
ATOM     27  C   UNL A   1      33.371  26.584  24.070  1.00  0.00     0.188 C 
BRANCH  27  28
ATOM     28  C   UNL A   1      34.062  27.963  23.904  1.00  0.00     0.188 C 
BRANCH  28  29
ATOM     29  O   UNL A   1      33.667  28.963  24.832  1.00  0.00    -0.376 OA
BRANCH  29  30
ATOM     30  C   UNL A   1      33.640  28.623  26.206  1.00  0.00     0.202 C 
BRANCH  30  31
ATOM     31  C   UNL A   1      33.313  29.757  27.188  1.00  0.00     0.261 C 
BRANCH  31  32
ATOM     32  O   UNL A   1      34.134  30.930  27.082  1.00  0.00    -0.460 OA
BRANCH  32  33
ATOM     33  C   UNL A   1      34.653  31.428  28.224  1.00  0.00     0.338 C 
ATOM     34  O   UNL A   1      34.154  32.269  28.955  1.00  0.00    -0.246 OA
BRANCH  33  35
ATOM     35  C   UNL A   1      35.852  30.631  28.551  1.00  0.00     0.060 A 
ATOM     36  C   UNL A   1      35.872  29.881  29.735  1.00  0.00     0.016 A 
ATOM     37  C   UNL A   1      36.940  30.607  27.677  1.00  0.00     0.016 A 
ATOM     38  C   UNL A   1      37.000  29.127  30.063  1.00  0.00     0.010 A 
ATOM     39  C   UNL A   1      38.076  29.870  28.018  1.00  0.00     0.010 A 
ATOM     40  C   UNL A   1      38.123  29.155  29.227  1.00  0.00    -0.014 A 
BRANCH  40  41
ATOM     41  C   UNL A   1      39.410  28.594  29.704  1.00  0.00     0.031 A 
ATOM     42  C   UNL A   1      40.075  29.243  30.887  1.00  0.00     0.074 A 
ATOM     43  C   UNL A   1      39.984  27.539  29.099  1.00  0.00     0.049 A 
ATOM     44  N   UNL A   1      41.217  28.962  31.453  1.00  0.00    -0.248 NA
ATOM     45  C   UNL A   1      39.352  30.366  31.511  1.00  0.00     0.031 C 
ATOM     46  C   UNL A   1      39.435  26.819  27.952  1.00  0.00     0.029 A 
ATOM     47  N   UNL A   1      41.177  26.909  29.356  1.00  0.00    -0.354 N 
ATOM     48  C   UNL A   1      41.367  29.888  32.478  1.00  0.00     0.074 A 
ATOM     49  C   UNL A   1      40.205  30.748  32.448  1.00  0.00     0.031 C 
ATOM     50  C   UNL A   1      40.305  25.863  27.583  1.00  0.00     0.029 A 
ATOM     51  C   UNL A   1      41.482  25.923  28.448  1.00  0.00     0.049 A 
ATOM     52  H   UNL A   1      41.757  27.142  30.115  1.00  0.00     0.167 HD
ATOM     53  C   UNL A   1      42.377  30.008  33.373  1.00  0.00     0.034 A 
ATOM     54  C   UNL A   1      42.599  25.176  28.315  1.00  0.00     0.034 A 
ATOM     55  C   UNL A   1      43.527  29.148  33.406  1.00  0.00     0.049 A 
ATOM     56  C   UNL A   1      43.727  25.354  29.300  1.00  0.00     0.074 A 
ATOM     57  C   UNL A   1      44.580  29.156  34.304  1.00  0.00     0.029 A 
ATOM     58  N   UNL A   1      43.789  28.140  32.492  1.00  0.00    -0.354 N 
ATOM     59  N   UNL A   1      43.802  26.152  30.337  1.00  0.00    -0.248 NA
ATOM     60  C   UNL A   1      44.914  24.504  29.114  1.00  0.00     0.031 C 
ATOM     61  C   UNL A   1      45.501  28.181  33.906  1.00  0.00     0.029 A 
ATOM     62  C   UNL A   1      44.998  27.534  32.788  1.00  0.00     0.049 A 
ATOM     63  H   UNL A   1      43.203  27.892  31.741  1.00  0.00     0.167 HD
ATOM     64  C   UNL A   1      45.024  25.878  30.946  1.00  0.00     0.074 A 
ATOM     65  C   UNL A   1      45.645  24.823  30.173  1.00  0.00     0.031 C 
ATOM     66  C   UNL A   1      45.586  26.454  32.038  1.00  0.00     0.034 A 
BRANCH  53  67
ATOM     67  C   UNL A   1      42.275  31.108  34.395  1.00  0.00     0.023 A 
ATOM     68  C   UNL A   1      41.719  30.842  35.663  1.00  0.00     0.012 A 
ATOM     69  C   UNL A   1      42.770  32.397  34.113  1.00  0.00     0.148 A 
ATOM     70  C   UNL A   1      41.623  31.850  36.621  1.00  0.00     0.002 A 
ATOM     71  C   UNL A   1      42.716  33.382  35.091  1.00  0.00     0.091 A 
ATOM     72  F   UNL A   1      43.272  32.637  32.895  1.00  0.00    -0.205 F 
ATOM     73  C   UNL A   1      42.131  33.115  36.340  1.00  0.00     0.022 A 
BRANCH  71  74
ATOM     74  S   UNL A   1      43.414  35.020  34.854  1.00  0.00     0.127 S 
ATOM     75  O   UNL A   1      42.540  35.565  33.815  1.00  0.00    -0.237 OA
ATOM     76  O   UNL A   1      43.237  35.621  36.176  1.00  0.00    -0.237 OA
ATOM     77  O   UNL A   1      44.799  34.814  34.458  1.00  0.00    -0.744 OA
ENDBRANCH  71  74
ENDBRANCH  53  67
BRANCH  54  78
ATOM     78  C   UNL A   1      42.700  24.174  27.215  1.00  0.00     0.023 A 
ATOM     79  C   UNL A   1      43.389  24.504  26.032  1.00  0.00     0.012 A 
ATOM     80  C   UNL A   1      42.120  22.897  27.337  1.00  0.00     0.148 A 
ATOM     81  C   UNL A   1      43.470  23.594  24.978  1.00  0.00     0.002 A 
ATOM     82  C   UNL A   1      42.255  21.973  26.307  1.00  0.00     0.091 A 
ATOM     83  F   UNL A   1      41.454  22.608  28.465  1.00  0.00    -0.205 F 
ATOM     84  C   UNL A   1      42.913  22.326  25.119  1.00  0.00     0.022 A 
BRANCH  82  85
ATOM     85  S   UNL A   1      41.682  20.277  26.452  1.00  0.00     0.127 S 
ATOM     86  O   UNL A   1      42.239  19.881  27.742  1.00  0.00    -0.237 OA
ATOM     87  O   UNL A   1      40.229  20.450  26.435  1.00  0.00    -0.237 OA
ATOM     88  O   UNL A   1      42.215  19.577  25.292  1.00  0.00    -0.744 OA
ENDBRANCH  82  85
ENDBRANCH  54  78
BRANCH  66  89
ATOM     89  C   UNL A   1      46.926  25.935  32.498  1.00  0.00     0.023 A 
ATOM     90  C   UNL A   1      46.995  24.956  33.508  1.00  0.00     0.012 A 
ATOM     91  C   UNL A   1      48.113  26.363  31.868  1.00  0.00     0.148 A 
ATOM     92  C   UNL A   1      48.226  24.437  33.910  1.00  0.00     0.002 A 
ATOM     93  C   UNL A   1      49.331  25.802  32.236  1.00  0.00     0.091 A 
ATOM     94  F   UNL A   1      48.029  27.305  30.919  1.00  0.00    -0.205 F 
ATOM     95  C   UNL A   1      49.390  24.850  33.267  1.00  0.00     0.022 A 
BRANCH  93  96
ATOM     96  S   UNL A   1      50.869  26.200  31.399  1.00  0.00     0.127 S 
ATOM     97  O   UNL A   1      51.861  25.852  32.416  1.00  0.00    -0.237 OA
ATOM     98  O   UNL A   1      50.835  25.299  30.247  1.00  0.00    -0.237 OA
ATOM     99  O   UNL A   1      50.792  27.616  31.064  1.00  0.00    -0.744 OA
ENDBRANCH  93  96
ENDBRANCH  66  89
ENDBRANCH  40  41
ENDBRANCH  33  35
ENDBRANCH  32  33
ENDBRANCH  31  32
ENDBRANCH  30  31
ENDBRANCH  29  30
ENDBRANCH  28  29
ENDBRANCH  27  28
ENDBRANCH   1  27
TORSDOF 26
ENDMDL
