MODEL 1
REMARK VINA RESULT:     -10.8      0.000      0.000
REMARK SMILES Cc1cc2c(c(C)c1Cl)C=C(C(=O)OCCOCCOCCOCCOC(=O)c1ccc(-c3c4nc(c(-c5cccc(S(=O)(=O)[O-])c5F)c5ccc([nH]5)c(-c5cccc(S(=O)(=O)[O-])c5F)c5nc(c(-c6cccc(S(=O)(=O)[O-])c6F)c6ccc3[nH]6)C=C5)C=C4)cc1)[C@H](C(F)(F)F)O2
REMARK SMILES IDX 21 1 20 2 19 3 18 4 17 5 16 6 15 7 14 8 12 9 13 10 11 11
REMARK SMILES IDX 1 12 2 13 3 14 8 15 4 16 6 17 9 18 5 19 97 20 7 21 10 22
REMARK SMILES IDX 92 23 93 24 94 25 95 26 96 27 22 28 23 29 24 30 25 31 26 32
REMARK SMILES IDX 27 33 28 34 29 35 30 36 91 37 31 38 90 39 32 40 33 41 34 42
REMARK SMILES IDX 84 43 35 44 89 45 83 46 85 47 36 48 88 49 82 50 81 51 37 53
REMARK SMILES IDX 69 54 49 55 68 56 50 57 53 58 67 59 86 60 51 61 52 62 66 64
REMARK SMILES IDX 87 65 54 66 38 67 39 68 47 69 40 70 42 71 48 72 41 73 43 74
REMARK SMILES IDX 44 75 45 76 46 77 70 78 71 79 79 80 72 81 74 82 80 83 73 84
REMARK SMILES IDX 75 85 76 86 77 87 78 88 55 89 56 90 64 91 57 92 59 93 65 94
REMARK SMILES IDX 58 95 60 96 61 97 62 98 63 99
REMARK H PARENT 85 52 53 63
REMARK Flexibility Score: inf
ROOT
ATOM      1  C   UNL A   1      33.248  21.420  24.760  1.00  0.00     0.188 C 
ENDROOT
BRANCH   1   2
ATOM      2  O   UNL A   1      33.675  22.775  24.639  1.00  0.00    -0.377 OA
BRANCH   2   3
ATOM      3  C   UNL A   1      34.197  23.249  23.410  1.00  0.00     0.188 C 
BRANCH   3   4
ATOM      4  C   UNL A   1      33.207  23.756  22.348  1.00  0.00     0.188 C 
BRANCH   4   5
ATOM      5  O   UNL A   1      33.599  24.983  21.766  1.00  0.00    -0.376 OA
BRANCH   5   6
ATOM      6  C   UNL A   1      32.630  25.771  21.096  1.00  0.00     0.202 C 
BRANCH   6   7
ATOM      7  C   UNL A   1      31.881  26.899  21.832  1.00  0.00     0.261 C 
BRANCH   7   8
ATOM      8  O   UNL A   1      30.578  26.574  22.329  1.00  0.00    -0.460 OA
BRANCH   8   9
ATOM      9  C   UNL A   1      30.065  27.382  23.272  1.00  0.00     0.338 C 
ATOM     10  O   UNL A   1      28.923  27.811  23.316  1.00  0.00    -0.246 OA
BRANCH   9  11
ATOM     11  C   UNL A   1      31.037  27.535  24.367  1.00  0.00     0.087 C 
ATOM     12  C   UNL A   1      35.801  29.718  28.169  1.00  0.00     0.046 C 
ATOM     13  C   UNL A   1      34.514  29.512  27.416  1.00  0.00    -0.028 A 
ATOM     14  C   UNL A   1      34.301  28.260  26.822  1.00  0.00     0.052 A 
ATOM     15  C   UNL A   1      33.572  30.540  27.202  1.00  0.00     0.047 A 
ATOM     16  C   UNL A   1      33.188  28.032  26.017  1.00  0.00     0.128 A 
ATOM     17  C   UNL A   1      32.416  30.315  26.416  1.00  0.00    -0.021 A 
ATOM     18  Cl  UNL A   1      33.881  32.112  27.878  1.00  0.00    -0.084 Cl
ATOM     19  C   UNL A   1      32.254  29.050  25.796  1.00  0.00     0.022 A 
ATOM     20  O   UNL A   1      33.142  26.804  25.410  1.00  0.00    -0.475 OA
ATOM     21  C   UNL A   1      31.373  31.389  26.206  1.00  0.00     0.047 C 
ATOM     22  C   UNL A   1      31.199  28.786  24.820  1.00  0.00     0.027 C 
ATOM     23  C   UNL A   1      31.878  26.374  24.821  1.00  0.00     0.316 C 
BRANCH  23  24
ATOM     24  C   UNL A   1      31.204  25.368  25.774  1.00  0.00     0.430 C 
ATOM     25  F   UNL A   1      32.041  24.966  26.758  1.00  0.00    -0.167 F 
ATOM     26  F   UNL A   1      30.081  25.859  26.335  1.00  0.00    -0.167 F 
ATOM     27  F   UNL A   1      30.835  24.252  25.094  1.00  0.00    -0.167 F 
ENDBRANCH  23  24
ENDBRANCH   9  11
ENDBRANCH   8   9
ENDBRANCH   7   8
ENDBRANCH   6   7
ENDBRANCH   5   6
ENDBRANCH   4   5
ENDBRANCH   3   4
ENDBRANCH   2   3
ENDBRANCH   1   2
BRANCH   1  28
ATOM     28  C   UNL A   1      34.256  20.281  25.039  1.00  0.00     0.188 C 
BRANCH  28  29
ATOM     29  O   UNL A   1      35.517  20.695  25.548  1.00  0.00    -0.376 OA
BRANCH  29  30
ATOM     30  C   UNL A   1      36.601  20.664  24.629  1.00  0.00     0.202 C 
BRANCH  30  31
ATOM     31  C   UNL A   1      37.951  20.247  25.226  1.00  0.00     0.261 C 
BRANCH  31  32
ATOM     32  O   UNL A   1      38.864  21.325  25.494  1.00  0.00    -0.460 OA
BRANCH  32  33
ATOM     33  C   UNL A   1      39.733  21.175  26.517  1.00  0.00     0.338 C 
ATOM     34  O   UNL A   1      40.283  20.150  26.882  1.00  0.00    -0.246 OA
BRANCH  33  35
ATOM     35  C   UNL A   1      40.058  22.522  27.018  1.00  0.00     0.060 A 
ATOM     36  C   UNL A   1      39.346  23.623  26.526  1.00  0.00     0.016 A 
ATOM     37  C   UNL A   1      41.068  22.688  27.967  1.00  0.00     0.016 A 
ATOM     38  C   UNL A   1      39.671  24.907  26.960  1.00  0.00     0.010 A 
ATOM     39  C   UNL A   1      41.406  23.975  28.384  1.00  0.00     0.010 A 
ATOM     40  C   UNL A   1      40.734  25.090  27.857  1.00  0.00    -0.014 A 
BRANCH  40  41
ATOM     41  C   UNL A   1      41.281  26.448  28.078  1.00  0.00     0.031 A 
ATOM     42  C   UNL A   1      42.619  26.776  27.473  1.00  0.00     0.074 A 
ATOM     43  C   UNL A   1      40.608  27.366  28.792  1.00  0.00     0.049 A 
ATOM     44  N   UNL A   1      43.315  27.878  27.554  1.00  0.00    -0.248 NA
ATOM     45  C   UNL A   1      43.256  25.719  26.666  1.00  0.00     0.031 C 
ATOM     46  C   UNL A   1      39.296  27.168  29.405  1.00  0.00     0.029 A 
ATOM     47  N   UNL A   1      40.950  28.652  29.134  1.00  0.00    -0.354 N 
ATOM     48  C   UNL A   1      44.472  27.645  26.823  1.00  0.00     0.074 A 
ATOM     49  C   UNL A   1      44.399  26.291  26.321  1.00  0.00     0.031 C 
ATOM     50  C   UNL A   1      38.951  28.288  30.064  1.00  0.00     0.029 A 
ATOM     51  C   UNL A   1      40.025  29.272  29.941  1.00  0.00     0.049 A 
ATOM     52  H   UNL A   1      41.777  29.088  28.829  1.00  0.00     0.167 HD
ATOM     53  C   UNL A   1      45.496  28.493  26.570  1.00  0.00     0.034 A 
ATOM     54  C   UNL A   1      40.056  30.489  30.523  1.00  0.00     0.034 A 
ATOM     55  C   UNL A   1      45.559  29.842  27.058  1.00  0.00     0.049 A 
ATOM     56  C   UNL A   1      41.240  31.392  30.272  1.00  0.00     0.074 A 
ATOM     57  C   UNL A   1      46.548  30.784  26.844  1.00  0.00     0.029 A 
ATOM     58  N   UNL A   1      44.601  30.439  27.862  1.00  0.00    -0.354 N 
ATOM     59  N   UNL A   1      42.282  31.195  29.499  1.00  0.00    -0.248 NA
ATOM     60  C   UNL A   1      41.242  32.697  30.953  1.00  0.00     0.031 C 
ATOM     61  C   UNL A   1      46.199  31.945  27.539  1.00  0.00     0.029 A 
ATOM     62  C   UNL A   1      44.979  31.736  28.160  1.00  0.00     0.049 A 
ATOM     63  H   UNL A   1      43.774  30.004  28.174  1.00  0.00     0.167 HD
ATOM     64  C   UNL A   1      43.040  32.360  29.572  1.00  0.00     0.074 A 
ATOM     65  C   UNL A   1      42.328  33.267  30.448  1.00  0.00     0.031 C 
ATOM     66  C   UNL A   1      44.228  32.648  28.984  1.00  0.00     0.034 A 
BRANCH  53  67
ATOM     67  C   UNL A   1      46.613  28.009  25.686  1.00  0.00     0.023 A 
ATOM     68  C   UNL A   1      46.488  28.129  24.288  1.00  0.00     0.012 A 
ATOM     69  C   UNL A   1      47.820  27.534  26.236  1.00  0.00     0.148 A 
ATOM     70  C   UNL A   1      47.541  27.772  23.448  1.00  0.00     0.002 A 
ATOM     71  C   UNL A   1      48.881  27.224  25.396  1.00  0.00     0.091 A 
ATOM     72  F   UNL A   1      47.908  27.409  27.568  1.00  0.00    -0.205 F 
ATOM     73  C   UNL A   1      48.741  27.334  24.003  1.00  0.00     0.022 A 
BRANCH  71  74
ATOM     74  S   UNL A   1      50.496  26.730  26.009  1.00  0.00     0.127 S 
ATOM     75  O   UNL A   1      51.309  26.812  24.796  1.00  0.00    -0.237 OA
ATOM     76  O   UNL A   1      50.774  27.767  27.001  1.00  0.00    -0.237 OA
ATOM     77  O   UNL A   1      50.330  25.389  26.552  1.00  0.00    -0.744 OA
ENDBRANCH  71  74
ENDBRANCH  53  67
BRANCH  54  78
ATOM     78  C   UNL A   1      38.910  30.951  31.360  1.00  0.00     0.023 A 
ATOM     79  C   UNL A   1      38.854  30.578  32.718  1.00  0.00     0.012 A 
ATOM     80  C   UNL A   1      37.886  31.760  30.831  1.00  0.00     0.148 A 
ATOM     81  C   UNL A   1      37.785  30.975  33.523  1.00  0.00     0.002 A 
ATOM     82  C   UNL A   1      36.855  32.201  31.654  1.00  0.00     0.091 A 
ATOM     83  F   UNL A   1      37.943  32.088  29.532  1.00  0.00    -0.205 F 
ATOM     84  C   UNL A   1      36.793  31.795  32.995  1.00  0.00     0.022 A 
BRANCH  82  85
ATOM     85  S   UNL A   1      35.605  33.366  31.098  1.00  0.00     0.127 S 
ATOM     86  O   UNL A   1      34.412  32.525  31.046  1.00  0.00    -0.237 OA
ATOM     87  O   UNL A   1      35.616  34.355  32.177  1.00  0.00    -0.237 OA
ATOM     88  O   UNL A   1      36.079  33.871  29.816  1.00  0.00    -0.744 OA
ENDBRANCH  82  85
ENDBRANCH  54  78
BRANCH  66  89
ATOM     89  C   UNL A   1      44.840  34.003  29.232  1.00  0.00     0.023 A 
ATOM     90  C   UNL A   1      45.804  34.155  30.248  1.00  0.00     0.012 A 
ATOM     91  C   UNL A   1      44.557  35.089  28.379  1.00  0.00     0.148 A 
ATOM     92  C   UNL A   1      46.462  35.371  30.423  1.00  0.00     0.002 A 
ATOM     93  C   UNL A   1      45.255  36.282  28.527  1.00  0.00     0.091 A 
ATOM     94  F   UNL A   1      43.627  34.927  27.427  1.00  0.00    -0.205 F 
ATOM     95  C   UNL A   1      46.199  36.429  29.555  1.00  0.00     0.022 A 
BRANCH  93  96
ATOM     96  S   UNL A   1      45.066  37.660  27.390  1.00  0.00     0.127 S 
ATOM     97  O   UNL A   1      46.128  37.394  26.421  1.00  0.00    -0.237 OA
ATOM     98  O   UNL A   1      43.710  37.459  26.880  1.00  0.00    -0.237 OA
ATOM     99  O   UNL A   1      45.240  38.868  28.187  1.00  0.00    -0.744 OA
ENDBRANCH  93  96
ENDBRANCH  66  89
ENDBRANCH  40  41
ENDBRANCH  33  35
ENDBRANCH  32  33
ENDBRANCH  31  32
ENDBRANCH  30  31
ENDBRANCH  29  30
ENDBRANCH  28  29
ENDBRANCH   1  28
TORSDOF 24
ENDMDL
MODEL 2
REMARK VINA RESULT:     -10.0      1.558      7.442
REMARK SMILES Cc1cc2c(c(C)c1Cl)C=C(C(=O)OCCOCCOCCOCCOC(=O)c1ccc(-c3c4nc(c(-c5cccc(S(=O)(=O)[O-])c5F)c5ccc([nH]5)c(-c5cccc(S(=O)(=O)[O-])c5F)c5nc(c(-c6cccc(S(=O)(=O)[O-])c6F)c6ccc3[nH]6)C=C5)C=C4)cc1)[C@H](C(F)(F)F)O2
REMARK SMILES IDX 21 1 20 2 19 3 18 4 17 5 16 6 15 7 14 8 12 9 13 10 11 11
REMARK SMILES IDX 1 12 2 13 3 14 8 15 4 16 6 17 9 18 5 19 97 20 7 21 10 22
REMARK SMILES IDX 92 23 93 24 94 25 95 26 96 27 22 28 23 29 24 30 25 31 26 32
REMARK SMILES IDX 27 33 28 34 29 35 30 36 91 37 31 38 90 39 32 40 33 41 34 42
REMARK SMILES IDX 84 43 35 44 89 45 83 46 85 47 36 48 88 49 82 50 81 51 37 53
REMARK SMILES IDX 69 54 49 55 68 56 50 57 53 58 67 59 86 60 51 61 52 62 66 64
REMARK SMILES IDX 87 65 54 66 38 67 39 68 47 69 40 70 42 71 48 72 41 73 43 74
REMARK SMILES IDX 44 75 45 76 46 77 70 78 71 79 79 80 72 81 74 82 80 83 73 84
REMARK SMILES IDX 75 85 76 86 77 87 78 88 55 89 56 90 64 91 57 92 59 93 65 94
REMARK SMILES IDX 58 95 60 96 61 97 62 98 63 99
REMARK H PARENT 85 52 53 63
REMARK Flexibility Score: inf
ROOT
ATOM      1  C   UNL A   1      34.036  22.306  25.205  1.00  0.00     0.188 C 
ENDROOT
BRANCH   1   2
ATOM      2  O   UNL A   1      34.351  23.615  24.735  1.00  0.00    -0.377 OA
BRANCH   2   3
ATOM      3  C   UNL A   1      34.567  23.842  23.353  1.00  0.00     0.188 C 
BRANCH   3   4
ATOM      4  C   UNL A   1      33.345  24.130  22.465  1.00  0.00     0.188 C 
BRANCH   4   5
ATOM      5  O   UNL A   1      33.460  25.338  21.738  1.00  0.00    -0.376 OA
BRANCH   5   6
ATOM      6  C   UNL A   1      32.315  25.871  21.097  1.00  0.00     0.202 C 
BRANCH   6   7
ATOM      7  C   UNL A   1      31.562  27.075  21.694  1.00  0.00     0.261 C 
BRANCH   7   8
ATOM      8  O   UNL A   1      30.405  26.771  22.482  1.00  0.00    -0.460 OA
BRANCH   8   9
ATOM      9  C   UNL A   1      30.013  27.697  23.373  1.00  0.00     0.338 C 
ATOM     10  O   UNL A   1      28.935  28.270  23.397  1.00  0.00    -0.246 OA
BRANCH   9  11
ATOM     11  C   UNL A   1      31.013  27.794  24.450  1.00  0.00     0.087 C 
ATOM     12  C   UNL A   1      35.900  29.763  28.214  1.00  0.00     0.046 C 
ATOM     13  C   UNL A   1      34.592  29.605  27.484  1.00  0.00    -0.028 A 
ATOM     14  C   UNL A   1      34.344  28.379  26.850  1.00  0.00     0.052 A 
ATOM     15  C   UNL A   1      33.662  30.654  27.331  1.00  0.00     0.047 A 
ATOM     16  C   UNL A   1      33.209  28.198  26.065  1.00  0.00     0.128 A 
ATOM     17  C   UNL A   1      32.484  30.476  26.565  1.00  0.00    -0.021 A 
ATOM     18  Cl  UNL A   1      34.011  32.196  28.056  1.00  0.00    -0.084 Cl
ATOM     19  C   UNL A   1      32.287  29.237  25.903  1.00  0.00     0.022 A 
ATOM     20  O   UNL A   1      33.130  26.994  25.415  1.00  0.00    -0.475 OA
ATOM     21  C   UNL A   1      31.454  31.572  26.420  1.00  0.00     0.047 C 
ATOM     22  C   UNL A   1      31.206  29.026  24.945  1.00  0.00     0.027 C 
ATOM     23  C   UNL A   1      31.846  26.605  24.841  1.00  0.00     0.316 C 
BRANCH  23  24
ATOM     24  C   UNL A   1      31.179  25.575  25.773  1.00  0.00     0.430 C 
ATOM     25  F   UNL A   1      31.122  24.346  25.210  1.00  0.00    -0.167 F 
ATOM     26  F   UNL A   1      31.801  25.477  26.964  1.00  0.00    -0.167 F 
ATOM     27  F   UNL A   1      29.899  25.944  26.040  1.00  0.00    -0.167 F 
ENDBRANCH  23  24
ENDBRANCH   9  11
ENDBRANCH   8   9
ENDBRANCH   7   8
ENDBRANCH   6   7
ENDBRANCH   5   6
ENDBRANCH   4   5
ENDBRANCH   3   4
ENDBRANCH   2   3
ENDBRANCH   1   2
BRANCH   1  28
ATOM     28  C   UNL A   1      35.146  21.304  25.597  1.00  0.00     0.188 C 
BRANCH  28  29
ATOM     29  O   UNL A   1      36.466  21.832  25.612  1.00  0.00    -0.376 OA
BRANCH  29  30
ATOM     30  C   UNL A   1      37.408  21.182  24.770  1.00  0.00     0.202 C 
BRANCH  30  31
ATOM     31  C   UNL A   1      38.605  20.553  25.493  1.00  0.00     0.261 C 
BRANCH  31  32
ATOM     32  O   UNL A   1      39.685  21.453  25.792  1.00  0.00    -0.460 OA
BRANCH  32  33
ATOM     33  C   UNL A   1      40.278  21.347  27.000  1.00  0.00     0.338 C 
ATOM     34  O   UNL A   1      40.518  20.328  27.625  1.00  0.00    -0.246 OA
BRANCH  33  35
ATOM     35  C   UNL A   1      40.766  22.687  27.369  1.00  0.00     0.060 A 
ATOM     36  C   UNL A   1      40.377  23.791  26.598  1.00  0.00     0.016 A 
ATOM     37  C   UNL A   1      41.609  22.844  28.470  1.00  0.00     0.016 A 
ATOM     38  C   UNL A   1      40.865  25.059  26.911  1.00  0.00     0.010 A 
ATOM     39  C   UNL A   1      42.112  24.110  28.769  1.00  0.00     0.010 A 
ATOM     40  C   UNL A   1      41.771  25.214  27.970  1.00  0.00    -0.014 A 
BRANCH  40  41
ATOM     41  C   UNL A   1      42.524  26.481  28.111  1.00  0.00     0.031 A 
ATOM     42  C   UNL A   1      41.832  27.644  28.768  1.00  0.00     0.074 A 
ATOM     43  C   UNL A   1      43.790  26.595  27.674  1.00  0.00     0.049 A 
ATOM     44  N   UNL A   1      42.270  28.856  28.975  1.00  0.00    -0.248 NA
ATOM     45  C   UNL A   1      40.463  27.406  29.259  1.00  0.00     0.031 C 
ATOM     46  C   UNL A   1      44.568  25.530  27.043  1.00  0.00     0.029 A 
ATOM     47  N   UNL A   1      44.640  27.674  27.681  1.00  0.00    -0.354 N 
ATOM     48  C   UNL A   1      41.231  29.528  29.607  1.00  0.00     0.074 A 
ATOM     49  C   UNL A   1      40.131  28.597  29.732  1.00  0.00     0.031 C 
ATOM     50  C   UNL A   1      45.777  26.015  26.708  1.00  0.00     0.029 A 
ATOM     51  C   UNL A   1      45.850  27.428  27.077  1.00  0.00     0.049 A 
ATOM     52  H   UNL A   1      44.405  28.542  28.083  1.00  0.00     0.167 HD
ATOM     53  C   UNL A   1      41.203  30.801  30.065  1.00  0.00     0.034 A 
ATOM     54  C   UNL A   1      46.888  28.257  26.838  1.00  0.00     0.034 A 
ATOM     55  C   UNL A   1      42.302  31.718  29.951  1.00  0.00     0.049 A 
ATOM     56  C   UNL A   1      46.805  29.689  27.308  1.00  0.00     0.074 A 
ATOM     57  C   UNL A   1      42.375  33.025  30.397  1.00  0.00     0.029 A 
ATOM     58  N   UNL A   1      43.513  31.431  29.344  1.00  0.00    -0.354 N 
ATOM     59  N   UNL A   1      45.855  30.283  27.991  1.00  0.00    -0.248 NA
ATOM     60  C   UNL A   1      47.949  30.562  26.997  1.00  0.00     0.031 C 
ATOM     61  C   UNL A   1      43.625  33.536  30.039  1.00  0.00     0.029 A 
ATOM     62  C   UNL A   1      44.340  32.538  29.397  1.00  0.00     0.049 A 
ATOM     63  H   UNL A   1      43.751  30.566  28.937  1.00  0.00     0.167 HD
ATOM     64  C   UNL A   1      46.301  31.581  28.222  1.00  0.00     0.074 A 
ATOM     65  C   UNL A   1      47.616  31.682  27.625  1.00  0.00     0.031 C 
ATOM     66  C   UNL A   1      45.672  32.604  28.853  1.00  0.00     0.034 A 
BRANCH  53  67
ATOM     67  C   UNL A   1      39.963  31.268  30.777  1.00  0.00     0.023 A 
ATOM     68  C   UNL A   1      38.828  31.628  30.023  1.00  0.00     0.012 A 
ATOM     69  C   UNL A   1      39.885  31.254  32.183  1.00  0.00     0.148 A 
ATOM     70  C   UNL A   1      37.638  31.979  30.657  1.00  0.00     0.002 A 
ATOM     71  C   UNL A   1      38.682  31.561  32.807  1.00  0.00     0.091 A 
ATOM     72  F   UNL A   1      40.984  30.928  32.880  1.00  0.00    -0.205 F 
ATOM     73  C   UNL A   1      37.561  31.931  32.046  1.00  0.00     0.022 A 
BRANCH  71  74
ATOM     74  S   UNL A   1      38.451  31.450  34.585  1.00  0.00     0.127 S 
ATOM     75  O   UNL A   1      38.576  30.010  34.809  1.00  0.00    -0.237 OA
ATOM     76  O   UNL A   1      39.570  32.246  35.087  1.00  0.00    -0.237 OA
ATOM     77  O   UNL A   1      37.132  32.005  34.856  1.00  0.00    -0.744 OA
ENDBRANCH  71  74
ENDBRANCH  53  67
BRANCH  54  78
ATOM     78  C   UNL A   1      48.119  27.746  26.165  1.00  0.00     0.023 A 
ATOM     79  C   UNL A   1      48.199  27.779  24.759  1.00  0.00     0.012 A 
ATOM     80  C   UNL A   1      49.207  27.239  26.901  1.00  0.00     0.148 A 
ATOM     81  C   UNL A   1      49.326  27.290  24.097  1.00  0.00     0.002 A 
ATOM     82  C   UNL A   1      50.352  26.808  26.238  1.00  0.00     0.091 A 
ATOM     83  F   UNL A   1      49.106  27.193  28.236  1.00  0.00    -0.205 F 
ATOM     84  C   UNL A   1      50.406  26.815  24.836  1.00  0.00     0.022 A 
BRANCH  82  85
ATOM     85  S   UNL A   1      51.841  26.304  27.107  1.00  0.00     0.127 S 
ATOM     86  O   UNL A   1      52.126  27.482  27.921  1.00  0.00    -0.237 OA
ATOM     87  O   UNL A   1      51.372  25.136  27.855  1.00  0.00    -0.237 OA
ATOM     88  O   UNL A   1      52.818  25.999  26.070  1.00  0.00    -0.744 OA
ENDBRANCH  82  85
ENDBRANCH  54  78
BRANCH  66  89
ATOM     89  C   UNL A   1      46.390  33.924  28.966  1.00  0.00     0.023 A 
ATOM     90  C   UNL A   1      47.343  34.112  29.987  1.00  0.00     0.012 A 
ATOM     91  C   UNL A   1      46.218  34.925  27.988  1.00  0.00     0.148 A 
ATOM     92  C   UNL A   1      48.097  35.283  30.044  1.00  0.00     0.002 A 
ATOM     93  C   UNL A   1      47.010  36.066  28.022  1.00  0.00     0.091 A 
ATOM     94  F   UNL A   1      45.298  34.732  27.032  1.00  0.00    -0.205 F 
ATOM     95  C   UNL A   1      47.943  36.252  29.055  1.00  0.00     0.022 A 
BRANCH  93  96
ATOM     96  S   UNL A   1      46.963  37.316  26.733  1.00  0.00     0.127 S 
ATOM     97  O   UNL A   1      47.322  36.537  25.549  1.00  0.00    -0.237 OA
ATOM     98  O   UNL A   1      45.567  37.753  26.775  1.00  0.00    -0.237 OA
ATOM     99  O   UNL A   1      47.927  38.336  27.122  1.00  0.00    -0.744 OA
ENDBRANCH  93  96
ENDBRANCH  66  89
ENDBRANCH  40  41
ENDBRANCH  33  35
ENDBRANCH  32  33
ENDBRANCH  31  32
ENDBRANCH  30  31
ENDBRANCH  29  30
ENDBRANCH  28  29
ENDBRANCH   1  28
TORSDOF 24
ENDMDL
MODEL 3
REMARK VINA RESULT:      -9.7      1.769      2.214
REMARK SMILES Cc1cc2c(c(C)c1Cl)C=C(C(=O)OCCOCCOCCOCCOC(=O)c1ccc(-c3c4nc(c(-c5cccc(S(=O)(=O)[O-])c5F)c5ccc([nH]5)c(-c5cccc(S(=O)(=O)[O-])c5F)c5nc(c(-c6cccc(S(=O)(=O)[O-])c6F)c6ccc3[nH]6)C=C5)C=C4)cc1)[C@H](C(F)(F)F)O2
REMARK SMILES IDX 21 1 20 2 19 3 18 4 17 5 16 6 15 7 14 8 12 9 13 10 11 11
REMARK SMILES IDX 1 12 2 13 3 14 8 15 4 16 6 17 9 18 5 19 97 20 7 21 10 22
REMARK SMILES IDX 92 23 93 24 94 25 95 26 96 27 22 28 23 29 24 30 25 31 26 32
REMARK SMILES IDX 27 33 28 34 29 35 30 36 91 37 31 38 90 39 32 40 33 41 34 42
REMARK SMILES IDX 84 43 35 44 89 45 83 46 85 47 36 48 88 49 82 50 81 51 37 53
REMARK SMILES IDX 69 54 49 55 68 56 50 57 53 58 67 59 86 60 51 61 52 62 66 64
REMARK SMILES IDX 87 65 54 66 38 67 39 68 47 69 40 70 42 71 48 72 41 73 43 74
REMARK SMILES IDX 44 75 45 76 46 77 70 78 71 79 79 80 72 81 74 82 80 83 73 84
REMARK SMILES IDX 75 85 76 86 77 87 78 88 55 89 56 90 64 91 57 92 59 93 65 94
REMARK SMILES IDX 58 95 60 96 61 97 62 98 63 99
REMARK H PARENT 85 52 53 63
REMARK Flexibility Score: inf
ROOT
ATOM      1  C   UNL A   1      34.803  23.173  25.781  1.00  0.00     0.188 C 
ENDROOT
BRANCH   1   2
ATOM      2  O   UNL A   1      34.715  24.011  24.631  1.00  0.00    -0.377 OA
BRANCH   2   3
ATOM      3  C   UNL A   1      34.374  23.458  23.372  1.00  0.00     0.188 C 
BRANCH   3   4
ATOM      4  C   UNL A   1      33.103  23.969  22.675  1.00  0.00     0.188 C 
BRANCH   4   5
ATOM      5  O   UNL A   1      33.331  25.111  21.873  1.00  0.00    -0.376 OA
BRANCH   5   6
ATOM      6  C   UNL A   1      32.253  25.672  21.145  1.00  0.00     0.202 C 
BRANCH   6   7
ATOM      7  C   UNL A   1      31.554  26.957  21.627  1.00  0.00     0.261 C 
BRANCH   7   8
ATOM      8  O   UNL A   1      30.319  26.781  22.331  1.00  0.00    -0.460 OA
BRANCH   8   9
ATOM      9  C   UNL A   1      29.958  27.754  23.183  1.00  0.00     0.338 C 
ATOM     10  O   UNL A   1      28.915  28.389  23.159  1.00  0.00    -0.246 OA
BRANCH   9  11
ATOM     11  C   UNL A   1      30.932  27.827  24.285  1.00  0.00     0.087 C 
ATOM     12  C   UNL A   1      35.757  29.684  28.184  1.00  0.00     0.046 C 
ATOM     13  C   UNL A   1      34.465  29.553  27.421  1.00  0.00    -0.028 A 
ATOM     14  C   UNL A   1      34.213  28.337  26.771  1.00  0.00     0.052 A 
ATOM     15  C   UNL A   1      33.557  30.619  27.252  1.00  0.00     0.047 A 
ATOM     16  C   UNL A   1      33.094  28.180  25.957  1.00  0.00     0.128 A 
ATOM     17  C   UNL A   1      32.397  30.467  26.456  1.00  0.00    -0.021 A 
ATOM     18  Cl  UNL A   1      33.916  32.150  27.997  1.00  0.00    -0.084 Cl
ATOM     19  C   UNL A   1      32.195  29.237  25.780  1.00  0.00     0.022 A 
ATOM     20  O   UNL A   1      33.011  26.983  25.296  1.00  0.00    -0.475 OA
ATOM     21  C   UNL A   1      31.390  31.583  26.293  1.00  0.00     0.047 C 
ATOM     22  C   UNL A   1      31.134  29.051  24.793  1.00  0.00     0.027 C 
ATOM     23  C   UNL A   1      31.735  26.621  24.688  1.00  0.00     0.316 C 
BRANCH  23  24
ATOM     24  C   UNL A   1      31.026  25.596  25.595  1.00  0.00     0.430 C 
ATOM     25  F   UNL A   1      30.239  26.196  26.517  1.00  0.00    -0.167 F 
ATOM     26  F   UNL A   1      30.283  24.715  24.898  1.00  0.00    -0.167 F 
ATOM     27  F   UNL A   1      31.943  24.864  26.280  1.00  0.00    -0.167 F 
ENDBRANCH  23  24
ENDBRANCH   9  11
ENDBRANCH   8   9
ENDBRANCH   7   8
ENDBRANCH   6   7
ENDBRANCH   5   6
ENDBRANCH   4   5
ENDBRANCH   3   4
ENDBRANCH   2   3
ENDBRANCH   1   2
BRANCH   1  28
ATOM     28  C   UNL A   1      36.094  22.384  26.104  1.00  0.00     0.188 C 
BRANCH  28  29
ATOM     29  O   UNL A   1      37.106  22.439  25.107  1.00  0.00    -0.376 OA
BRANCH  29  30
ATOM     30  C   UNL A   1      37.682  21.194  24.734  1.00  0.00     0.202 C 
BRANCH  30  31
ATOM     31  C   UNL A   1      38.639  20.583  25.765  1.00  0.00     0.261 C 
BRANCH  31  32
ATOM     32  O   UNL A   1      39.909  21.243  25.893  1.00  0.00    -0.460 OA
BRANCH  32  33
ATOM     33  C   UNL A   1      40.476  21.288  27.117  1.00  0.00     0.338 C 
ATOM     34  O   UNL A   1      40.513  20.402  27.953  1.00  0.00    -0.246 OA
BRANCH  33  35
ATOM     35  C   UNL A   1      41.222  22.555  27.210  1.00  0.00     0.060 A 
ATOM     36  C   UNL A   1      41.893  22.867  28.400  1.00  0.00     0.016 A 
ATOM     37  C   UNL A   1      41.249  23.430  26.123  1.00  0.00     0.016 A 
ATOM     38  C   UNL A   1      42.567  24.081  28.515  1.00  0.00     0.010 A 
ATOM     39  C   UNL A   1      41.907  24.653  26.247  1.00  0.00     0.010 A 
ATOM     40  C   UNL A   1      42.537  24.998  27.455  1.00  0.00    -0.014 A 
BRANCH  40  41
ATOM     41  C   UNL A   1      42.977  26.394  27.679  1.00  0.00     0.031 A 
ATOM     42  C   UNL A   1      44.361  26.778  27.231  1.00  0.00     0.074 A 
ATOM     43  C   UNL A   1      42.169  27.298  28.258  1.00  0.00     0.049 A 
ATOM     44  N   UNL A   1      44.979  27.922  27.347  1.00  0.00    -0.248 NA
ATOM     45  C   UNL A   1      45.153  25.730  26.562  1.00  0.00     0.031 C 
ATOM     46  C   UNL A   1      40.802  27.046  28.711  1.00  0.00     0.029 A 
ATOM     47  N   UNL A   1      42.393  28.614  28.579  1.00  0.00    -0.354 N 
ATOM     48  C   UNL A   1      46.232  27.731  26.778  1.00  0.00     0.074 A 
ATOM     49  C   UNL A   1      46.298  26.356  26.336  1.00  0.00     0.031 C 
ATOM     50  C   UNL A   1      40.314  28.168  29.268  1.00  0.00     0.029 A 
ATOM     51  C   UNL A   1      41.340  29.209  29.235  1.00  0.00     0.049 A 
ATOM     52  H   UNL A   1      43.228  29.087  28.360  1.00  0.00     0.167 HD
ATOM     53  C   UNL A   1      47.231  28.628  26.616  1.00  0.00     0.034 A 
ATOM     54  C   UNL A   1      41.230  30.448  29.758  1.00  0.00     0.034 A 
ATOM     55  C   UNL A   1      47.158  29.997  27.045  1.00  0.00     0.049 A 
ATOM     56  C   UNL A   1      42.385  31.410  29.614  1.00  0.00     0.074 A 
ATOM     57  C   UNL A   1      48.113  30.987  26.912  1.00  0.00     0.029 A 
ATOM     58  N   UNL A   1      46.073  30.566  27.693  1.00  0.00    -0.354 N 
ATOM     59  N   UNL A   1      43.526  31.246  28.988  1.00  0.00    -0.248 NA
ATOM     60  C   UNL A   1      42.228  32.739  30.228  1.00  0.00     0.031 C 
ATOM     61  C   UNL A   1      47.615  32.152  27.501  1.00  0.00     0.029 A 
ATOM     62  C   UNL A   1      46.338  31.894  27.975  1.00  0.00     0.049 A 
ATOM     63  H   UNL A   1      45.239  30.095  27.919  1.00  0.00     0.167 HD
ATOM     64  C   UNL A   1      44.204  32.457  29.100  1.00  0.00     0.074 A 
ATOM     65  C   UNL A   1      43.337  33.353  29.836  1.00  0.00     0.031 C 
ATOM     66  C   UNL A   1      45.440  32.791  28.653  1.00  0.00     0.034 A 
BRANCH  53  67
ATOM     67  C   UNL A   1      48.477  28.177  25.903  1.00  0.00     0.023 A 
ATOM     68  C   UNL A   1      49.592  27.763  26.658  1.00  0.00     0.012 A 
ATOM     69  C   UNL A   1      48.510  28.066  24.500  1.00  0.00     0.148 A 
ATOM     70  C   UNL A   1      50.727  27.256  26.027  1.00  0.00     0.002 A 
ATOM     71  C   UNL A   1      49.626  27.518  23.881  1.00  0.00     0.091 A 
ATOM     72  F   UNL A   1      47.445  28.486  23.802  1.00  0.00    -0.205 F 
ATOM     73  C   UNL A   1      50.738  27.121  24.642  1.00  0.00     0.022 A 
BRANCH  71  74
ATOM     74  S   UNL A   1      49.711  27.221  22.111  1.00  0.00     0.127 S 
ATOM     75  O   UNL A   1      51.071  26.704  21.964  1.00  0.00    -0.237 OA
ATOM     76  O   UNL A   1      48.656  26.226  21.919  1.00  0.00    -0.237 OA
ATOM     77  O   UNL A   1      49.466  28.507  21.473  1.00  0.00    -0.744 OA
ENDBRANCH  71  74
ENDBRANCH  53  67
BRANCH  54  78
ATOM     78  C   UNL A   1      39.962  30.874  30.422  1.00  0.00     0.023 A 
ATOM     79  C   UNL A   1      38.865  31.261  29.628  1.00  0.00     0.012 A 
ATOM     80  C   UNL A   1      39.832  30.891  31.824  1.00  0.00     0.148 A 
ATOM     81  C   UNL A   1      37.672  31.685  30.217  1.00  0.00     0.002 A 
ATOM     82  C   UNL A   1      38.621  31.257  32.404  1.00  0.00     0.091 A 
ATOM     83  F   UNL A   1      40.893  30.541  32.565  1.00  0.00    -0.205 F 
ATOM     84  C   UNL A   1      37.547  31.672  31.603  1.00  0.00     0.022 A 
BRANCH  82  85
ATOM     85  S   UNL A   1      38.323  31.146  34.172  1.00  0.00     0.127 S 
ATOM     86  O   UNL A   1      38.369  29.703  34.393  1.00  0.00    -0.237 OA
ATOM     87  O   UNL A   1      39.460  31.890  34.715  1.00  0.00    -0.237 OA
ATOM     88  O   UNL A   1      37.030  31.779  34.393  1.00  0.00    -0.744 OA
ENDBRANCH  82  85
ENDBRANCH  54  78
BRANCH  66  89
ATOM     89  C   UNL A   1      45.939  34.190  28.912  1.00  0.00     0.023 A 
ATOM     90  C   UNL A   1      46.749  34.442  30.038  1.00  0.00     0.012 A 
ATOM     91  C   UNL A   1      45.717  35.220  27.976  1.00  0.00     0.148 A 
ATOM     92  C   UNL A   1      47.312  35.701  30.237  1.00  0.00     0.002 A 
ATOM     93  C   UNL A   1      46.324  36.457  28.155  1.00  0.00     0.091 A 
ATOM     94  F   UNL A   1      44.933  34.963  26.919  1.00  0.00    -0.205 F 
ATOM     95  C   UNL A   1      47.112  36.704  29.290  1.00  0.00     0.022 A 
BRANCH  93  96
ATOM     96  S   UNL A   1      46.217  37.773  26.936  1.00  0.00     0.127 S 
ATOM     97  O   UNL A   1      46.777  37.126  25.750  1.00  0.00    -0.237 OA
ATOM     98  O   UNL A   1      44.776  38.021  26.872  1.00  0.00    -0.237 OA
ATOM     99  O   UNL A   1      46.999  38.881  27.467  1.00  0.00    -0.744 OA
ENDBRANCH  93  96
ENDBRANCH  66  89
ENDBRANCH  40  41
ENDBRANCH  33  35
ENDBRANCH  32  33
ENDBRANCH  31  32
ENDBRANCH  30  31
ENDBRANCH  29  30
ENDBRANCH  28  29
ENDBRANCH   1  28
TORSDOF 24
ENDMDL
