MODEL 1
REMARK VINA RESULT:      -8.6      0.000      0.000
REMARK SMILES Cc1nc(CSCC(=O)N2CCCC[C@@H]2C(=O)OCCOCCOCCOCCOC(=O)c2ccc(-c3c4nc(c(-c5cccc(S(=O)(=O)[O-])c5F)c5ccc([nH]5)c(-c5cccc(S(=O)(=O)[O-])c5F)c5nc(c(-c6cccc(S(=O)(=O)[O-])c6F)c6ccc3[nH]6)C=C5)C=C4)cc2)cs1
REMARK SMILES IDX 23 1 22 2 21 3 20 4 19 5 18 6 16 7 17 8 15 9 10 10 11 11
REMARK SMILES IDX 12 12 14 13 13 14 8 15 9 16 7 17 6 18 5 19 4 20 1 21 2 22
REMARK SMILES IDX 3 23 97 24 96 25 24 26 25 27 26 28 27 29 28 30 29 31 30 32
REMARK SMILES IDX 31 33 32 34 33 35 34 36 95 37 35 38 94 39 36 40 37 41 38 42
REMARK SMILES IDX 88 43 39 44 93 45 87 46 89 47 40 48 92 49 86 50 85 51 41 53
REMARK SMILES IDX 73 54 53 55 72 56 54 57 57 58 71 59 90 60 55 61 56 62 70 64
REMARK SMILES IDX 91 65 58 66 42 67 43 68 51 69 44 70 46 71 52 72 45 73 47 74
REMARK SMILES IDX 48 75 49 76 50 77 74 78 75 79 83 80 76 81 78 82 84 83 77 84
REMARK SMILES IDX 79 85 80 86 81 87 82 88 59 89 60 90 68 91 61 92 63 93 69 94
REMARK SMILES IDX 62 95 64 96 65 97 66 98 67 99
REMARK H PARENT 89 52 57 63
REMARK Flexibility Score: inf
ROOT
ATOM      1  C   UNL A   1      34.144  33.225  28.596  1.00  0.00     0.188 C 
ENDROOT
BRANCH   1   2
ATOM      2  C   UNL A   1      34.090  31.998  27.670  1.00  0.00     0.188 C 
BRANCH   2   3
ATOM      3  O   UNL A   1      32.929  31.183  27.784  1.00  0.00    -0.376 OA
BRANCH   3   4
ATOM      4  C   UNL A   1      32.620  30.289  26.724  1.00  0.00     0.202 C 
BRANCH   4   5
ATOM      5  C   UNL A   1      31.818  29.043  27.119  1.00  0.00     0.261 C 
BRANCH   5   6
ATOM      6  O   UNL A   1      31.344  28.178  26.066  1.00  0.00    -0.462 OA
BRANCH   6   7
ATOM      7  C   UNL A   1      32.071  27.146  25.581  1.00  0.00     0.328 C 
ATOM      8  O   UNL A   1      32.611  26.270  26.248  1.00  0.00    -0.250 OA
BRANCH   7   9
ATOM      9  C   UNL A   1      32.246  27.231  24.062  1.00  0.00     0.195 C 
ATOM     10  N   UNL A   1      31.105  26.634  23.347  1.00  0.00    -0.328 N 
ATOM     11  C   UNL A   1      31.216  26.529  21.897  1.00  0.00     0.120 C 
ATOM     12  C   UNL A   1      32.595  26.069  21.419  1.00  0.00     0.022 C 
ATOM     13  C   UNL A   1      33.623  26.790  23.552  1.00  0.00     0.037 C 
ATOM     14  C   UNL A   1      33.699  26.914  22.037  1.00  0.00     0.005 C 
BRANCH  10  15
ATOM     15  C   UNL A   1      30.303  25.695  24.006  1.00  0.00     0.233 C 
ATOM     16  O   UNL A   1      29.457  26.030  24.823  1.00  0.00    -0.274 OA
BRANCH  15  17
ATOM     17  C   UNL A   1      30.625  24.254  23.585  1.00  0.00     0.170 C 
BRANCH  17  18
ATOM     18  S   UNL A   1      31.384  23.209  24.883  1.00  0.00    -0.146 SA
BRANCH  18  19
ATOM     19  C   UNL A   1      33.106  23.281  24.340  1.00  0.00     0.127 C 
BRANCH  19  20
ATOM     20  C   UNL A   1      33.958  22.101  24.679  1.00  0.00     0.061 A 
ATOM     21  C   UNL A   1      34.074  18.451  24.563  1.00  0.00     0.079 C 
ATOM     22  C   UNL A   1      34.341  19.910  24.688  1.00  0.00     0.090 A 
ATOM     23  N   UNL A   1      33.425  20.834  24.514  1.00  0.00    -0.246 NA
ATOM     24  S   UNL A   1      35.909  20.502  25.064  1.00  0.00    -0.127 S 
ATOM     25  C   UNL A   1      35.312  22.109  24.965  1.00  0.00     0.091 A 
ENDBRANCH  19  20
ENDBRANCH  18  19
ENDBRANCH  17  18
ENDBRANCH  15  17
ENDBRANCH  10  15
ENDBRANCH   7   9
ENDBRANCH   6   7
ENDBRANCH   5   6
ENDBRANCH   4   5
ENDBRANCH   3   4
ENDBRANCH   2   3
ENDBRANCH   1   2
BRANCH   1  26
ATOM     26  O   UNL A   1      33.455  34.430  28.310  1.00  0.00    -0.377 OA
BRANCH  26  27
ATOM     27  C   UNL A   1      34.178  35.650  28.358  1.00  0.00     0.188 C 
BRANCH  27  28
ATOM     28  C   UNL A   1      33.337  36.820  28.881  1.00  0.00     0.188 C 
BRANCH  28  29
ATOM     29  O   UNL A   1      32.546  36.443  30.001  1.00  0.00    -0.376 OA
BRANCH  29  30
ATOM     30  C   UNL A   1      33.010  36.822  31.291  1.00  0.00     0.202 C 
BRANCH  30  31
ATOM     31  C   UNL A   1      33.467  35.767  32.319  1.00  0.00     0.261 C 
BRANCH  31  32
ATOM     32  O   UNL A   1      33.996  34.518  31.841  1.00  0.00    -0.460 OA
BRANCH  32  33
ATOM     33  C   UNL A   1      34.490  33.615  32.712  1.00  0.00     0.338 C 
ATOM     34  O   UNL A   1      33.911  33.127  33.667  1.00  0.00    -0.246 OA
BRANCH  33  35
ATOM     35  C   UNL A   1      35.790  33.141  32.169  1.00  0.00     0.060 A 
ATOM     36  C   UNL A   1      36.428  32.049  32.777  1.00  0.00     0.016 A 
ATOM     37  C   UNL A   1      36.356  33.740  31.039  1.00  0.00     0.016 A 
ATOM     38  C   UNL A   1      37.655  31.590  32.290  1.00  0.00     0.010 A 
ATOM     39  C   UNL A   1      37.598  33.298  30.569  1.00  0.00     0.010 A 
ATOM     40  C   UNL A   1      38.274  32.252  31.223  1.00  0.00    -0.014 A 
BRANCH  40  41
ATOM     41  C   UNL A   1      39.729  32.064  30.993  1.00  0.00     0.031 A 
ATOM     42  C   UNL A   1      40.667  33.017  31.689  1.00  0.00     0.074 A 
ATOM     43  C   UNL A   1      40.221  31.093  30.202  1.00  0.00     0.049 A 
ATOM     44  N   UNL A   1      41.970  33.095  31.633  1.00  0.00    -0.248 NA
ATOM     45  C   UNL A   1      40.040  34.024  32.563  1.00  0.00     0.031 C 
ATOM     46  C   UNL A   1      39.429  30.096  29.487  1.00  0.00     0.029 A 
ATOM     47  N   UNL A   1      41.519  30.808  29.855  1.00  0.00    -0.354 N 
ATOM     48  C   UNL A   1      42.315  34.172  32.442  1.00  0.00     0.074 A 
ATOM     49  C   UNL A   1      41.087  34.726  32.964  1.00  0.00     0.031 C 
ATOM     50  C   UNL A   1      40.258  29.322  28.762  1.00  0.00     0.029 A 
ATOM     51  C   UNL A   1      41.635  29.783  28.945  1.00  0.00     0.049 A 
ATOM     52  H   UNL A   1      42.294  31.292  30.223  1.00  0.00     0.167 HD
ATOM     53  C   UNL A   1      43.545  34.652  32.741  1.00  0.00     0.034 A 
ATOM     54  C   UNL A   1      42.725  29.292  28.320  1.00  0.00     0.034 A 
ATOM     55  C   UNL A   1      44.768  34.103  32.230  1.00  0.00     0.049 A 
ATOM     56  C   UNL A   1      44.084  29.873  28.630  1.00  0.00     0.074 A 
ATOM     57  C   UNL A   1      46.066  34.496  32.499  1.00  0.00     0.029 A 
ATOM     58  N   UNL A   1      44.843  33.051  31.331  1.00  0.00    -0.354 N 
ATOM     59  N   UNL A   1      44.405  30.817  29.483  1.00  0.00    -0.248 NA
ATOM     60  C   UNL A   1      45.233  29.299  27.913  1.00  0.00     0.031 C 
ATOM     61  C   UNL A   1      46.928  33.699  31.739  1.00  0.00     0.029 A 
ATOM     62  C   UNL A   1      46.167  32.789  31.022  1.00  0.00     0.049 A 
ATOM     63  H   UNL A   1      44.071  32.563  30.966  1.00  0.00     0.167 HD
ATOM     64  C   UNL A   1      45.793  30.923  29.432  1.00  0.00     0.074 A 
ATOM     65  C   UNL A   1      46.251  29.937  28.476  1.00  0.00     0.031 C 
ATOM     66  C   UNL A   1      46.613  31.767  30.107  1.00  0.00     0.034 A 
BRANCH  53  67
ATOM     67  C   UNL A   1      43.613  35.830  33.675  1.00  0.00     0.023 A 
ATOM     68  C   UNL A   1      43.646  35.616  35.070  1.00  0.00     0.012 A 
ATOM     69  C   UNL A   1      43.653  37.147  33.177  1.00  0.00     0.148 A 
ATOM     70  C   UNL A   1      43.676  36.693  35.953  1.00  0.00     0.002 A 
ATOM     71  C   UNL A   1      43.730  38.214  34.064  1.00  0.00     0.091 A 
ATOM     72  F   UNL A   1      43.588  37.331  31.851  1.00  0.00    -0.205 F 
ATOM     73  C   UNL A   1      43.728  37.991  35.450  1.00  0.00     0.022 A 
BRANCH  71  74
ATOM     74  S   UNL A   1      43.876  39.915  33.509  1.00  0.00     0.127 S 
ATOM     75  O   UNL A   1      43.756  40.648  34.769  1.00  0.00    -0.237 OA
ATOM     76  O   UNL A   1      45.215  39.934  32.919  1.00  0.00    -0.237 OA
ATOM     77  O   UNL A   1      42.793  40.120  32.557  1.00  0.00    -0.744 OA
ENDBRANCH  71  74
ENDBRANCH  53  67
BRANCH  54  78
ATOM     78  C   UNL A   1      42.589  28.160  27.360  1.00  0.00     0.023 A 
ATOM     79  C   UNL A   1      42.420  28.431  25.987  1.00  0.00     0.012 A 
ATOM     80  C   UNL A   1      42.632  26.821  27.793  1.00  0.00     0.148 A 
ATOM     81  C   UNL A   1      42.276  27.392  25.068  1.00  0.00     0.002 A 
ATOM     82  C   UNL A   1      42.539  25.790  26.865  1.00  0.00     0.091 A 
ATOM     83  F   UNL A   1      42.772  26.583  29.104  1.00  0.00    -0.205 F 
ATOM     84  C   UNL A   1      42.346  26.073  25.504  1.00  0.00     0.022 A 
BRANCH  82  85
ATOM     85  S   UNL A   1      42.728  24.061  27.316  1.00  0.00     0.127 S 
ATOM     86  O   UNL A   1      42.265  23.384  26.108  1.00  0.00    -0.237 OA
ATOM     87  O   UNL A   1      44.169  23.975  27.558  1.00  0.00    -0.237 OA
ATOM     88  O   UNL A   1      41.903  23.870  28.500  1.00  0.00    -0.744 OA
ENDBRANCH  82  85
ENDBRANCH  54  78
BRANCH  66  89
ATOM     89  C   UNL A   1      48.098  31.647  29.878  1.00  0.00     0.023 A 
ATOM     90  C   UNL A   1      48.861  30.760  30.662  1.00  0.00     0.012 A 
ATOM     91  C   UNL A   1      48.720  32.347  28.825  1.00  0.00     0.148 A 
ATOM     92  C   UNL A   1      50.225  30.594  30.421  1.00  0.00     0.002 A 
ATOM     93  C   UNL A   1      50.068  32.140  28.558  1.00  0.00     0.091 A 
ATOM     94  F   UNL A   1      47.980  33.199  28.098  1.00  0.00    -0.205 F 
ATOM     95  C   UNL A   1      50.825  31.273  29.363  1.00  0.00     0.022 A 
BRANCH  93  96
ATOM     96  S   UNL A   1      50.900  32.894  27.156  1.00  0.00     0.127 S 
ATOM     97  O   UNL A   1      50.179  32.305  26.029  1.00  0.00    -0.237 OA
ATOM     98  O   UNL A   1      50.640  34.318  27.369  1.00  0.00    -0.237 OA
ATOM     99  O   UNL A   1      52.302  32.513  27.269  1.00  0.00    -0.744 OA
ENDBRANCH  93  96
ENDBRANCH  66  89
ENDBRANCH  40  41
ENDBRANCH  33  35
ENDBRANCH  32  33
ENDBRANCH  31  32
ENDBRANCH  30  31
ENDBRANCH  29  30
ENDBRANCH  28  29
ENDBRANCH  27  28
ENDBRANCH  26  27
ENDBRANCH   1  26
TORSDOF 28
ENDMDL
MODEL 2
REMARK VINA RESULT:      -8.3      1.732      2.091
REMARK SMILES Cc1nc(CSCC(=O)N2CCCC[C@@H]2C(=O)OCCOCCOCCOCCOC(=O)c2ccc(-c3c4nc(c(-c5cccc(S(=O)(=O)[O-])c5F)c5ccc([nH]5)c(-c5cccc(S(=O)(=O)[O-])c5F)c5nc(c(-c6cccc(S(=O)(=O)[O-])c6F)c6ccc3[nH]6)C=C5)C=C4)cc2)cs1
REMARK SMILES IDX 23 1 22 2 21 3 20 4 19 5 18 6 16 7 17 8 15 9 10 10 11 11
REMARK SMILES IDX 12 12 14 13 13 14 8 15 9 16 7 17 6 18 5 19 4 20 1 21 2 22
REMARK SMILES IDX 3 23 97 24 96 25 24 26 25 27 26 28 27 29 28 30 29 31 30 32
REMARK SMILES IDX 31 33 32 34 33 35 34 36 95 37 35 38 94 39 36 40 37 41 38 42
REMARK SMILES IDX 88 43 39 44 93 45 87 46 89 47 40 48 92 49 86 50 85 51 41 53
REMARK SMILES IDX 73 54 53 55 72 56 54 57 57 58 71 59 90 60 55 61 56 62 70 64
REMARK SMILES IDX 91 65 58 66 42 67 43 68 51 69 44 70 46 71 52 72 45 73 47 74
REMARK SMILES IDX 48 75 49 76 50 77 74 78 75 79 83 80 76 81 78 82 84 83 77 84
REMARK SMILES IDX 79 85 80 86 81 87 82 88 59 89 60 90 68 91 61 92 63 93 69 94
REMARK SMILES IDX 62 95 64 96 65 97 66 98 67 99
REMARK H PARENT 89 52 57 63
REMARK Flexibility Score: inf
ROOT
ATOM      1  C   UNL A   1      34.378  32.055  28.719  1.00  0.00     0.188 C 
ENDROOT
BRANCH   1   2
ATOM      2  C   UNL A   1      34.005  31.221  27.482  1.00  0.00     0.188 C 
BRANCH   2   3
ATOM      3  O   UNL A   1      32.619  30.949  27.310  1.00  0.00    -0.376 OA
BRANCH   3   4
ATOM      4  C   UNL A   1      32.239  29.857  26.485  1.00  0.00     0.202 C 
BRANCH   4   5
ATOM      5  C   UNL A   1      31.755  28.603  27.222  1.00  0.00     0.261 C 
BRANCH   5   6
ATOM      6  O   UNL A   1      31.691  27.364  26.486  1.00  0.00    -0.462 OA
BRANCH   6   7
ATOM      7  C   UNL A   1      32.743  26.863  25.800  1.00  0.00     0.328 C 
ATOM      8  O   UNL A   1      33.836  26.570  26.273  1.00  0.00    -0.250 OA
BRANCH   7   9
ATOM      9  C   UNL A   1      32.462  26.781  24.297  1.00  0.00     0.195 C 
ATOM     10  N   UNL A   1      31.758  25.538  23.939  1.00  0.00    -0.328 N 
ATOM     11  C   UNL A   1      31.556  25.278  22.520  1.00  0.00     0.120 C 
ATOM     12  C   UNL A   1      32.776  25.604  21.656  1.00  0.00     0.022 C 
ATOM     13  C   UNL A   1      33.662  27.117  23.404  1.00  0.00     0.037 C 
ATOM     14  C   UNL A   1      33.284  27.011  21.934  1.00  0.00     0.005 C 
BRANCH  10  15
ATOM     15  C   UNL A   1      31.848  24.434  24.795  1.00  0.00     0.233 C 
ATOM     16  O   UNL A   1      30.983  24.189  25.624  1.00  0.00    -0.274 OA
BRANCH  15  17
ATOM     17  C   UNL A   1      33.127  23.617  24.563  1.00  0.00     0.170 C 
BRANCH  17  18
ATOM     18  S   UNL A   1      33.814  22.797  26.049  1.00  0.00    -0.146 SA
BRANCH  18  19
ATOM     19  C   UNL A   1      34.768  21.492  25.242  1.00  0.00     0.127 C 
BRANCH  19  20
ATOM     20  C   UNL A   1      34.042  20.216  24.963  1.00  0.00     0.061 A 
ATOM     21  C   UNL A   1      34.540  16.676  24.210  1.00  0.00     0.079 C 
ATOM     22  C   UNL A   1      34.027  18.029  24.556  1.00  0.00     0.090 A 
ATOM     23  N   UNL A   1      34.782  19.102  24.601  1.00  0.00    -0.246 NA
ATOM     24  S   UNL A   1      32.374  18.285  24.945  1.00  0.00    -0.127 S 
ATOM     25  C   UNL A   1      32.707  19.949  25.209  1.00  0.00     0.091 A 
ENDBRANCH  19  20
ENDBRANCH  18  19
ENDBRANCH  17  18
ENDBRANCH  15  17
ENDBRANCH  10  15
ENDBRANCH   7   9
ENDBRANCH   6   7
ENDBRANCH   5   6
ENDBRANCH   4   5
ENDBRANCH   3   4
ENDBRANCH   2   3
ENDBRANCH   1   2
BRANCH   1  26
ATOM     26  O   UNL A   1      33.801  33.322  28.991  1.00  0.00    -0.377 OA
BRANCH  26  27
ATOM     27  C   UNL A   1      34.309  34.457  28.309  1.00  0.00     0.188 C 
BRANCH  27  28
ATOM     28  C   UNL A   1      33.584  35.753  28.689  1.00  0.00     0.188 C 
BRANCH  28  29
ATOM     29  O   UNL A   1      32.727  35.571  29.810  1.00  0.00    -0.376 OA
BRANCH  29  30
ATOM     30  C   UNL A   1      33.167  36.080  31.062  1.00  0.00     0.202 C 
BRANCH  30  31
ATOM     31  C   UNL A   1      33.233  35.181  32.314  1.00  0.00     0.261 C 
BRANCH  31  32
ATOM     32  O   UNL A   1      33.921  33.921  32.226  1.00  0.00    -0.460 OA
BRANCH  32  33
ATOM     33  C   UNL A   1      34.793  33.559  33.188  1.00  0.00     0.338 C 
ATOM     34  O   UNL A   1      34.586  33.524  34.388  1.00  0.00    -0.246 OA
BRANCH  33  35
ATOM     35  C   UNL A   1      35.984  32.982  32.510  1.00  0.00     0.060 A 
ATOM     36  C   UNL A   1      36.626  31.873  33.082  1.00  0.00     0.016 A 
ATOM     37  C   UNL A   1      36.440  33.502  31.295  1.00  0.00     0.016 A 
ATOM     38  C   UNL A   1      37.753  31.317  32.469  1.00  0.00     0.010 A 
ATOM     39  C   UNL A   1      37.584  32.963  30.696  1.00  0.00     0.010 A 
ATOM     40  C   UNL A   1      38.273  31.899  31.306  1.00  0.00    -0.014 A 
BRANCH  40  41
ATOM     41  C   UNL A   1      39.673  31.608  30.909  1.00  0.00     0.031 A 
ATOM     42  C   UNL A   1      40.717  32.641  31.249  1.00  0.00     0.074 A 
ATOM     43  C   UNL A   1      40.028  30.479  30.269  1.00  0.00     0.049 A 
ATOM     44  N   UNL A   1      41.996  32.653  30.988  1.00  0.00    -0.248 NA
ATOM     45  C   UNL A   1      40.241  33.829  31.982  1.00  0.00     0.031 C 
ATOM     46  C   UNL A   1      39.126  29.393  29.897  1.00  0.00     0.029 A 
ATOM     47  N   UNL A   1      41.255  30.076  29.801  1.00  0.00    -0.354 N 
ATOM     48  C   UNL A   1      42.472  33.854  31.500  1.00  0.00     0.074 A 
ATOM     49  C   UNL A   1      41.345  34.553  32.072  1.00  0.00     0.031 C 
ATOM     50  C   UNL A   1      39.826  28.455  29.232  1.00  0.00     0.029 A 
ATOM     51  C   UNL A   1      41.220  28.886  29.112  1.00  0.00     0.049 A 
ATOM     52  H   UNL A   1      42.082  30.591  29.944  1.00  0.00     0.167 HD
ATOM     53  C   UNL A   1      43.739  34.334  31.510  1.00  0.00     0.034 A 
ATOM     54  C   UNL A   1      42.197  28.234  28.448  1.00  0.00     0.034 A 
ATOM     55  C   UNL A   1      44.864  33.643  30.948  1.00  0.00     0.049 A 
ATOM     56  C   UNL A   1      43.593  28.809  28.429  1.00  0.00     0.074 A 
ATOM     57  C   UNL A   1      46.191  34.027  30.936  1.00  0.00     0.029 A 
ATOM     58  N   UNL A   1      44.790  32.429  30.281  1.00  0.00    -0.354 N 
ATOM     59  N   UNL A   1      44.051  29.891  29.014  1.00  0.00    -0.248 NA
ATOM     60  C   UNL A   1      44.613  28.056  27.683  1.00  0.00     0.031 C 
ATOM     61  C   UNL A   1      46.919  33.058  30.237  1.00  0.00     0.029 A 
ATOM     62  C   UNL A   1      46.047  32.056  29.841  1.00  0.00     0.049 A 
ATOM     63  H   UNL A   1      43.966  31.911  30.141  1.00  0.00     0.167 HD
ATOM     64  C   UNL A   1      45.416  29.927  28.739  1.00  0.00     0.074 A 
ATOM     65  C   UNL A   1      45.712  28.751  27.948  1.00  0.00     0.031 C 
ATOM     66  C   UNL A   1      46.338  30.854  29.099  1.00  0.00     0.034 A 
BRANCH  53  67
ATOM     67  C   UNL A   1      43.961  35.671  32.163  1.00  0.00     0.023 A 
ATOM     68  C   UNL A   1      44.114  35.748  33.564  1.00  0.00     0.012 A 
ATOM     69  C   UNL A   1      44.028  36.849  31.395  1.00  0.00     0.148 A 
ATOM     70  C   UNL A   1      44.288  36.980  34.192  1.00  0.00     0.002 A 
ATOM     71  C   UNL A   1      44.249  38.068  32.024  1.00  0.00     0.091 A 
ATOM     72  F   UNL A   1      43.848  36.759  30.069  1.00  0.00    -0.205 F 
ATOM     73  C   UNL A   1      44.365  38.137  33.422  1.00  0.00     0.022 A 
BRANCH  71  74
ATOM     74  S   UNL A   1      44.437  39.601  31.111  1.00  0.00     0.127 S 
ATOM     75  O   UNL A   1      45.610  39.312  30.286  1.00  0.00    -0.237 OA
ATOM     76  O   UNL A   1      43.176  39.677  30.371  1.00  0.00    -0.237 OA
ATOM     77  O   UNL A   1      44.613  40.644  32.111  1.00  0.00    -0.744 OA
ENDBRANCH  71  74
ENDBRANCH  53  67
BRANCH  54  78
ATOM     78  C   UNL A   1      41.903  26.940  27.769  1.00  0.00     0.023 A 
ATOM     79  C   UNL A   1      41.289  26.945  26.501  1.00  0.00     0.012 A 
ATOM     80  C   UNL A   1      42.233  25.708  28.366  1.00  0.00     0.148 A 
ATOM     81  C   UNL A   1      40.990  25.749  25.849  1.00  0.00     0.002 A 
ATOM     82  C   UNL A   1      41.978  24.521  27.689  1.00  0.00     0.091 A 
ATOM     83  F   UNL A   1      42.797  25.723  29.582  1.00  0.00    -0.205 F 
ATOM     84  C   UNL A   1      41.344  24.538  26.437  1.00  0.00     0.022 A 
BRANCH  82  85
ATOM     85  S   UNL A   1      42.497  22.919  28.315  1.00  0.00     0.127 S 
ATOM     86  O   UNL A   1      41.288  22.119  28.129  1.00  0.00    -0.237 OA
ATOM     87  O   UNL A   1      43.600  22.590  27.410  1.00  0.00    -0.237 OA
ATOM     88  O   UNL A   1      42.894  23.145  29.697  1.00  0.00    -0.744 OA
ENDBRANCH  82  85
ENDBRANCH  54  78
BRANCH  66  89
ATOM     89  C   UNL A   1      47.769  30.628  28.683  1.00  0.00     0.023 A 
ATOM     90  C   UNL A   1      48.273  31.259  27.529  1.00  0.00     0.012 A 
ATOM     91  C   UNL A   1      48.638  29.863  29.486  1.00  0.00     0.148 A 
ATOM     92  C   UNL A   1      49.611  31.107  27.165  1.00  0.00     0.002 A 
ATOM     93  C   UNL A   1      49.981  29.757  29.146  1.00  0.00     0.091 A 
ATOM     94  F   UNL A   1      48.136  29.258  30.574  1.00  0.00    -0.205 F 
ATOM     95  C   UNL A   1      50.466  30.368  27.978  1.00  0.00     0.022 A 
BRANCH  93  96
ATOM     96  S   UNL A   1      51.175  28.909  30.186  1.00  0.00     0.127 S 
ATOM     97  O   UNL A   1      50.452  27.689  30.537  1.00  0.00    -0.237 OA
ATOM     98  O   UNL A   1      52.300  28.711  29.272  1.00  0.00    -0.237 OA
ATOM     99  O   UNL A   1      51.452  29.812  31.296  1.00  0.00    -0.744 OA
ENDBRANCH  93  96
ENDBRANCH  66  89
ENDBRANCH  40  41
ENDBRANCH  33  35
ENDBRANCH  32  33
ENDBRANCH  31  32
ENDBRANCH  30  31
ENDBRANCH  29  30
ENDBRANCH  28  29
ENDBRANCH  27  28
ENDBRANCH  26  27
ENDBRANCH   1  26
TORSDOF 28
ENDMDL
MODEL 3
REMARK VINA RESULT:      -8.2      4.471      5.457
REMARK SMILES Cc1nc(CSCC(=O)N2CCCC[C@@H]2C(=O)OCCOCCOCCOCCOC(=O)c2ccc(-c3c4nc(c(-c5cccc(S(=O)(=O)[O-])c5F)c5ccc([nH]5)c(-c5cccc(S(=O)(=O)[O-])c5F)c5nc(c(-c6cccc(S(=O)(=O)[O-])c6F)c6ccc3[nH]6)C=C5)C=C4)cc2)cs1
REMARK SMILES IDX 23 1 22 2 21 3 20 4 19 5 18 6 16 7 17 8 15 9 10 10 11 11
REMARK SMILES IDX 12 12 14 13 13 14 8 15 9 16 7 17 6 18 5 19 4 20 1 21 2 22
REMARK SMILES IDX 3 23 97 24 96 25 24 26 25 27 26 28 27 29 28 30 29 31 30 32
REMARK SMILES IDX 31 33 32 34 33 35 34 36 95 37 35 38 94 39 36 40 37 41 38 42
REMARK SMILES IDX 88 43 39 44 93 45 87 46 89 47 40 48 92 49 86 50 85 51 41 53
REMARK SMILES IDX 73 54 53 55 72 56 54 57 57 58 71 59 90 60 55 61 56 62 70 64
REMARK SMILES IDX 91 65 58 66 42 67 43 68 51 69 44 70 46 71 52 72 45 73 47 74
REMARK SMILES IDX 48 75 49 76 50 77 74 78 75 79 83 80 76 81 78 82 84 83 77 84
REMARK SMILES IDX 79 85 80 86 81 87 82 88 59 89 60 90 68 91 61 92 63 93 69 94
REMARK SMILES IDX 62 95 64 96 65 97 66 98 67 99
REMARK H PARENT 89 52 57 63
REMARK Flexibility Score: inf
ROOT
ATOM      1  C   UNL A   1      35.245  31.401  28.832  1.00  0.00     0.188 C 
ENDROOT
BRANCH   1   2
ATOM      2  C   UNL A   1      34.572  30.751  27.612  1.00  0.00     0.188 C 
BRANCH   2   3
ATOM      3  O   UNL A   1      33.150  30.802  27.586  1.00  0.00    -0.376 OA
BRANCH   3   4
ATOM      4  C   UNL A   1      32.516  31.578  26.578  1.00  0.00     0.202 C 
BRANCH   4   5
ATOM      5  C   UNL A   1      31.147  31.069  26.111  1.00  0.00     0.261 C 
BRANCH   5   6
ATOM      6  O   UNL A   1      31.111  30.077  25.065  1.00  0.00    -0.462 OA
BRANCH   6   7
ATOM      7  C   UNL A   1      31.682  28.857  25.192  1.00  0.00     0.328 C 
ATOM      8  O   UNL A   1      31.830  28.238  26.240  1.00  0.00    -0.250 OA
BRANCH   7   9
ATOM      9  C   UNL A   1      32.233  28.341  23.860  1.00  0.00     0.195 C 
ATOM     10  N   UNL A   1      31.325  27.366  23.232  1.00  0.00    -0.328 N 
ATOM     11  C   UNL A   1      31.802  26.698  22.028  1.00  0.00     0.120 C 
ATOM     12  C   UNL A   1      33.266  26.262  22.108  1.00  0.00     0.022 C 
ATOM     13  C   UNL A   1      33.704  27.908  23.903  1.00  0.00     0.037 C 
ATOM     14  C   UNL A   1      34.160  27.416  22.538  1.00  0.00     0.005 C 
BRANCH  10  15
ATOM     15  C   UNL A   1      30.402  26.682  24.032  1.00  0.00     0.233 C 
ATOM     16  O   UNL A   1      29.302  27.150  24.292  1.00  0.00    -0.274 OA
BRANCH  15  17
ATOM     17  C   UNL A   1      30.941  25.330  24.520  1.00  0.00     0.170 C 
BRANCH  17  18
ATOM     18  S   UNL A   1      31.440  25.274  26.281  1.00  0.00    -0.146 SA
BRANCH  18  19
ATOM     19  C   UNL A   1      30.926  23.587  26.673  1.00  0.00     0.127 C 
BRANCH  19  20
ATOM     20  C   UNL A   1      31.860  22.496  26.261  1.00  0.00     0.061 A 
ATOM     21  C   UNL A   1      32.474  20.001  23.663  1.00  0.00     0.079 C 
ATOM     22  C   UNL A   1      32.523  20.936  24.820  1.00  0.00     0.090 A 
ATOM     23  N   UNL A   1      31.532  21.731  25.154  1.00  0.00    -0.246 NA
ATOM     24  S   UNL A   1      33.917  21.053  25.816  1.00  0.00    -0.127 S 
ATOM     25  C   UNL A   1      33.138  22.270  26.743  1.00  0.00     0.091 A 
ENDBRANCH  19  20
ENDBRANCH  18  19
ENDBRANCH  17  18
ENDBRANCH  15  17
ENDBRANCH  10  15
ENDBRANCH   7   9
ENDBRANCH   6   7
ENDBRANCH   5   6
ENDBRANCH   4   5
ENDBRANCH   3   4
ENDBRANCH   2   3
ENDBRANCH   1   2
BRANCH   1  26
ATOM     26  O   UNL A   1      34.829  32.648  29.363  1.00  0.00    -0.377 OA
BRANCH  26  27
ATOM     27  C   UNL A   1      35.389  33.834  28.822  1.00  0.00     0.188 C 
BRANCH  27  28
ATOM     28  C   UNL A   1      34.387  34.634  27.982  1.00  0.00     0.188 C 
BRANCH  28  29
ATOM     29  O   UNL A   1      33.251  35.025  28.743  1.00  0.00    -0.376 OA
BRANCH  29  30
ATOM     30  C   UNL A   1      33.217  36.360  29.234  1.00  0.00     0.202 C 
BRANCH  30  31
ATOM     31  C   UNL A   1      32.521  36.706  30.566  1.00  0.00     0.261 C 
BRANCH  31  32
ATOM     32  O   UNL A   1      33.204  36.419  31.799  1.00  0.00    -0.460 OA
BRANCH  32  33
ATOM     33  C   UNL A   1      33.009  35.239  32.421  1.00  0.00     0.338 C 
ATOM     34  O   UNL A   1      31.938  34.733  32.712  1.00  0.00    -0.246 OA
BRANCH  33  35
ATOM     35  C   UNL A   1      34.324  34.548  32.484  1.00  0.00     0.060 A 
ATOM     36  C   UNL A   1      34.371  33.203  32.880  1.00  0.00     0.016 A 
ATOM     37  C   UNL A   1      35.499  35.208  32.111  1.00  0.00     0.016 A 
ATOM     38  C   UNL A   1      35.596  32.534  32.956  1.00  0.00     0.010 A 
ATOM     39  C   UNL A   1      36.727  34.546  32.213  1.00  0.00     0.010 A 
ATOM     40  C   UNL A   1      36.785  33.221  32.682  1.00  0.00    -0.014 A 
BRANCH  40  41
ATOM     41  C   UNL A   1      38.074  32.673  33.173  1.00  0.00     0.031 A 
ATOM     42  C   UNL A   1      38.452  32.971  34.601  1.00  0.00     0.074 A 
ATOM     43  C   UNL A   1      38.893  31.938  32.400  1.00  0.00     0.049 A 
ATOM     44  N   UNL A   1      39.529  32.644  35.265  1.00  0.00    -0.248 NA
ATOM     45  C   UNL A   1      37.477  33.752  35.383  1.00  0.00     0.031 C 
ATOM     46  C   UNL A   1      38.641  31.561  31.011  1.00  0.00     0.029 A 
ATOM     47  N   UNL A   1      40.124  31.394  32.680  1.00  0.00    -0.354 N 
ATOM     48  C   UNL A   1      39.372  33.201  36.529  1.00  0.00     0.074 A 
ATOM     49  C   UNL A   1      38.107  33.897  36.537  1.00  0.00     0.031 C 
ATOM     50  C   UNL A   1      39.699  30.869  30.550  1.00  0.00     0.029 A 
ATOM     51  C   UNL A   1      40.711  30.773  31.603  1.00  0.00     0.049 A 
ATOM     52  H   UNL A   1      40.545  31.445  33.569  1.00  0.00     0.167 HD
ATOM     53  C   UNL A   1      40.198  33.128  37.600  1.00  0.00     0.034 A 
ATOM     54  C   UNL A   1      41.932  30.211  31.481  1.00  0.00     0.034 A 
ATOM     55  C   UNL A   1      41.453  32.433  37.600  1.00  0.00     0.049 A 
ATOM     56  C   UNL A   1      42.859  30.183  32.672  1.00  0.00     0.074 A 
ATOM     57  C   UNL A   1      42.348  32.273  38.642  1.00  0.00     0.029 A 
ATOM     58  N   UNL A   1      42.002  31.797  36.497  1.00  0.00    -0.354 N 
ATOM     59  N   UNL A   1      42.651  30.614  33.894  1.00  0.00    -0.248 NA
ATOM     60  C   UNL A   1      44.179  29.562  32.475  1.00  0.00     0.031 C 
ATOM     61  C   UNL A   1      43.452  31.561  38.162  1.00  0.00     0.029 A 
ATOM     62  C   UNL A   1      43.230  31.253  36.829  1.00  0.00     0.049 A 
ATOM     63  H   UNL A   1      41.581  31.740  35.610  1.00  0.00     0.167 HD
ATOM     64  C   UNL A   1      43.794  30.284  34.618  1.00  0.00     0.074 A 
ATOM     65  C   UNL A   1      44.685  29.604  33.701  1.00  0.00     0.031 C 
ATOM     66  C   UNL A   1      44.085  30.530  35.919  1.00  0.00     0.034 A 
BRANCH  53  67
ATOM     67  C   UNL A   1      39.750  33.817  38.860  1.00  0.00     0.023 A 
ATOM     68  C   UNL A   1      39.189  33.060  39.910  1.00  0.00     0.012 A 
ATOM     69  C   UNL A   1      39.890  35.210  39.011  1.00  0.00     0.148 A 
ATOM     70  C   UNL A   1      38.738  33.682  41.073  1.00  0.00     0.002 A 
ATOM     71  C   UNL A   1      39.481  35.818  40.192  1.00  0.00     0.091 A 
ATOM     72  F   UNL A   1      40.395  35.917  37.990  1.00  0.00    -0.205 F 
ATOM     73  C   UNL A   1      38.892  35.059  41.217  1.00  0.00     0.022 A 
BRANCH  71  74
ATOM     74  S   UNL A   1      39.707  37.571  40.500  1.00  0.00     0.127 S 
ATOM     75  O   UNL A   1      41.129  37.743  40.201  1.00  0.00    -0.237 OA
ATOM     76  O   UNL A   1      38.802  38.176  39.521  1.00  0.00    -0.237 OA
ATOM     77  O   UNL A   1      39.325  37.786  41.889  1.00  0.00    -0.744 OA
ENDBRANCH  71  74
ENDBRANCH  53  67
BRANCH  54  78
ATOM     78  C   UNL A   1      42.344  29.593  30.188  1.00  0.00     0.023 A 
ATOM     79  C   UNL A   1      42.977  30.387  29.211  1.00  0.00     0.012 A 
ATOM     80  C   UNL A   1      42.121  28.229  29.923  1.00  0.00     0.148 A 
ATOM     81  C   UNL A   1      43.361  29.839  27.987  1.00  0.00     0.002 A 
ATOM     82  C   UNL A   1      42.550  27.677  28.722  1.00  0.00     0.091 A 
ATOM     83  F   UNL A   1      41.498  27.496  30.857  1.00  0.00    -0.205 F 
ATOM     84  C   UNL A   1      43.158  28.483  27.746  1.00  0.00     0.022 A 
BRANCH  82  85
ATOM     85  S   UNL A   1      42.433  25.920  28.366  1.00  0.00     0.127 S 
ATOM     86  O   UNL A   1      40.989  25.704  28.398  1.00  0.00    -0.237 OA
ATOM     87  O   UNL A   1      43.039  25.846  27.036  1.00  0.00    -0.237 OA
ATOM     88  O   UNL A   1      43.192  25.254  29.415  1.00  0.00    -0.744 OA
ENDBRANCH  82  85
ENDBRANCH  54  78
BRANCH  66  89
ATOM     89  C   UNL A   1      45.402  30.032  36.458  1.00  0.00     0.023 A 
ATOM     90  C   UNL A   1      46.539  30.862  36.412  1.00  0.00     0.012 A 
ATOM     91  C   UNL A   1      45.489  28.775  37.089  1.00  0.00     0.148 A 
ATOM     92  C   UNL A   1      47.749  30.437  36.960  1.00  0.00     0.002 A 
ATOM     93  C   UNL A   1      46.684  28.379  37.678  1.00  0.00     0.091 A 
ATOM     94  F   UNL A   1      44.399  27.993  37.110  1.00  0.00    -0.205 F 
ATOM     95  C   UNL A   1      47.819  29.204  37.603  1.00  0.00     0.022 A 
BRANCH  93  96
ATOM     96  S   UNL A   1      46.839  26.853  38.612  1.00  0.00     0.127 S 
ATOM     97  O   UNL A   1      46.610  25.845  37.579  1.00  0.00    -0.237 OA
ATOM     98  O   UNL A   1      48.216  26.925  39.100  1.00  0.00    -0.237 OA
ATOM     99  O   UNL A   1      45.825  26.918  39.657  1.00  0.00    -0.744 OA
ENDBRANCH  93  96
ENDBRANCH  66  89
ENDBRANCH  40  41
ENDBRANCH  33  35
ENDBRANCH  32  33
ENDBRANCH  31  32
ENDBRANCH  30  31
ENDBRANCH  29  30
ENDBRANCH  28  29
ENDBRANCH  27  28
ENDBRANCH  26  27
ENDBRANCH   1  26
TORSDOF 28
ENDMDL
