MODEL 1
REMARK VINA RESULT:      -8.6      0.000      0.000
REMARK SMILES CCN(Cc1cn(CC)nc1C)C(=O)c1ccn([C@@H](C)C(=O)OCCOCCOCCOCCOC(=O)c2ccc(-c3c4nc(c(-c5cccc(S(=O)(=O)[O-])c5F)c5ccc([nH]5)c(-c5cccc(S(=O)(=O)[O-])c5F)c5nc(c(-c6cccc(S(=O)(=O)[O-])c6F)c6ccc3[nH]6)C=C5)C=C4)cc2)n1
REMARK SMILES IDX 27 1 26 2 25 3 24 4 23 5 21 6 22 7 19 8 20 9 18 10 15 11
REMARK SMILES IDX 16 12 101 13 17 14 13 15 14 16 3 17 2 18 1 19 4 20 5 21 6 22
REMARK SMILES IDX 11 23 7 24 10 25 12 26 8 27 9 28 28 29 29 30 30 31 31 32
REMARK SMILES IDX 32 33 33 34 34 35 35 36 36 37 37 38 38 39 39 40 100 41 40 42
REMARK SMILES IDX 99 43 41 44 42 45 43 46 93 47 44 48 98 49 92 50 94 51 45 52
REMARK SMILES IDX 97 53 91 54 90 55 46 57 78 58 58 59 77 60 59 61 62 62 76 63
REMARK SMILES IDX 95 64 60 65 61 66 75 68 96 69 63 70 47 71 48 72 56 73 49 74
REMARK SMILES IDX 51 75 57 76 50 77 52 78 53 79 54 80 55 81 79 82 80 83 88 84
REMARK SMILES IDX 81 85 83 86 89 87 82 88 84 89 85 90 86 91 87 92 64 93 65 94
REMARK SMILES IDX 73 95 66 96 68 97 74 98 67 99 69 100 70 101 71 102 72 103
REMARK H PARENT 94 56 62 67
REMARK Flexibility Score: inf
ROOT
ATOM      1  C   UNL A   1      38.375  21.061  25.064  1.00  0.00     0.188 C 
ENDROOT
BRANCH   1   2
ATOM      2  O   UNL A   1      37.152  20.542  24.547  1.00  0.00    -0.376 OA
BRANCH   2   3
ATOM      3  C   UNL A   1      35.944  20.718  25.265  1.00  0.00     0.202 C 
BRANCH   3   4
ATOM      4  C   UNL A   1      34.725  19.882  24.855  1.00  0.00     0.261 C 
BRANCH   4   5
ATOM      5  O   UNL A   1      33.445  20.531  24.983  1.00  0.00    -0.462 OA
BRANCH   5   6
ATOM      6  C   UNL A   1      32.625  20.485  23.904  1.00  0.00     0.330 C 
ATOM      7  O   UNL A   1      32.447  19.463  23.238  1.00  0.00    -0.250 OA
BRANCH   6   8
ATOM      8  C   UNL A   1      31.971  21.799  23.506  1.00  0.00     0.213 C 
ATOM      9  C   UNL A   1      32.916  22.565  22.592  1.00  0.00     0.046 C 
BRANCH   8  10
ATOM     10  N   UNL A   1      31.461  22.663  24.572  1.00  0.00    -0.258 N 
ATOM     11  C   UNL A   1      30.777  24.503  25.451  1.00  0.00     0.150 A 
ATOM     12  C   UNL A   1      30.442  23.439  26.325  1.00  0.00     0.056 A 
ATOM     13  N   UNL A   1      31.439  24.007  24.380  1.00  0.00    -0.167 NA
ATOM     14  C   UNL A   1      30.995  22.300  25.797  1.00  0.00     0.110 A 
BRANCH  11  15
ATOM     15  C   UNL A   1      30.339  25.923  25.529  1.00  0.00     0.274 C 
ATOM     16  O   UNL A   1      30.443  26.531  26.598  1.00  0.00    -0.267 OA
BRANCH  15  17
ATOM     17  N   UNL A   1      29.834  26.565  24.382  1.00  0.00    -0.333 N 
BRANCH  17  18
ATOM     18  C   UNL A   1      28.398  26.464  24.098  1.00  0.00     0.117 C 
ATOM     19  C   UNL A   1      27.854  27.711  23.409  1.00  0.00     0.027 C 
ENDBRANCH  17  18
BRANCH  17  20
ATOM     20  C   UNL A   1      30.656  27.201  23.348  1.00  0.00     0.159 C 
BRANCH  20  21
ATOM     21  C   UNL A   1      31.740  28.039  23.937  1.00  0.00     0.012 A 
ATOM     22  C   UNL A   1      31.653  29.240  24.619  1.00  0.00     0.114 A 
ATOM     23  C   UNL A   1      33.130  27.726  23.978  1.00  0.00     0.064 A 
ATOM     24  N   UNL A   1      32.894  29.471  25.144  1.00  0.00    -0.272 N 
ATOM     25  N   UNL A   1      33.811  28.572  24.757  1.00  0.00    -0.178 NA
ATOM     26  C   UNL A   1      33.846  26.581  23.368  1.00  0.00     0.069 C 
BRANCH  24  27
ATOM     27  C   UNL A   1      33.235  30.440  26.166  1.00  0.00     0.141 C 
ATOM     28  C   UNL A   1      33.114  29.872  27.575  1.00  0.00     0.029 C 
ENDBRANCH  24  27
ENDBRANCH  20  21
ENDBRANCH  17  20
ENDBRANCH  15  17
ENDBRANCH  11  15
ENDBRANCH   8  10
ENDBRANCH   6   8
ENDBRANCH   5   6
ENDBRANCH   4   5
ENDBRANCH   3   4
ENDBRANCH   2   3
ENDBRANCH   1   2
BRANCH   1  29
ATOM     29  C   UNL A   1      38.415  22.305  25.974  1.00  0.00     0.188 C 
BRANCH  29  30
ATOM     30  O   UNL A   1      39.480  22.368  26.907  1.00  0.00    -0.377 OA
BRANCH  30  31
ATOM     31  C   UNL A   1      40.690  21.772  26.450  1.00  0.00     0.188 C 
BRANCH  31  32
ATOM     32  C   UNL A   1      41.938  22.676  26.522  1.00  0.00     0.188 C 
BRANCH  32  33
ATOM     33  O   UNL A   1      42.782  22.599  25.373  1.00  0.00    -0.376 OA
BRANCH  33  34
ATOM     34  C   UNL A   1      43.582  23.718  25.008  1.00  0.00     0.202 C 
BRANCH  34  35
ATOM     35  C   UNL A   1      43.747  24.795  26.078  1.00  0.00     0.261 C 
BRANCH  35  36
ATOM     36  O   UNL A   1      43.550  26.108  25.584  1.00  0.00    -0.460 OA
BRANCH  36  37
ATOM     37  C   UNL A   1      44.629  26.905  25.471  1.00  0.00     0.338 C 
ATOM     38  O   UNL A   1      45.729  26.618  25.044  1.00  0.00    -0.246 OA
BRANCH  37  39
ATOM     39  C   UNL A   1      44.253  28.219  26.002  1.00  0.00     0.060 A 
ATOM     40  C   UNL A   1      45.245  28.958  26.651  1.00  0.00     0.016 A 
ATOM     41  C   UNL A   1      42.892  28.543  26.092  1.00  0.00     0.016 A 
ATOM     42  C   UNL A   1      44.851  29.853  27.620  1.00  0.00     0.010 A 
ATOM     43  C   UNL A   1      42.503  29.414  27.067  1.00  0.00     0.010 A 
ATOM     44  C   UNL A   1      43.487  29.957  27.887  1.00  0.00    -0.014 A 
BRANCH  44  45
ATOM     45  C   UNL A   1      43.054  30.466  29.164  1.00  0.00     0.031 A 
ATOM     46  C   UNL A   1      42.911  29.461  30.226  1.00  0.00     0.074 A 
ATOM     47  C   UNL A   1      43.050  31.792  29.391  1.00  0.00     0.049 A 
ATOM     48  N   UNL A   1      41.824  28.967  30.714  1.00  0.00    -0.248 NA
ATOM     49  C   UNL A   1      44.137  28.806  30.691  1.00  0.00     0.031 C 
ATOM     50  C   UNL A   1      43.593  32.862  28.541  1.00  0.00     0.029 A 
ATOM     51  N   UNL A   1      42.703  32.444  30.524  1.00  0.00    -0.354 N 
ATOM     52  C   UNL A   1      42.251  28.109  31.723  1.00  0.00     0.074 A 
ATOM     53  C   UNL A   1      43.643  27.846  31.471  1.00  0.00     0.031 C 
ATOM     54  C   UNL A   1      43.759  33.977  29.289  1.00  0.00     0.029 A 
ATOM     55  C   UNL A   1      43.189  33.739  30.603  1.00  0.00     0.049 A 
ATOM     56  H   UNL A   1      42.153  32.034  31.231  1.00  0.00     0.167 HD
ATOM     57  C   UNL A   1      41.525  27.922  32.857  1.00  0.00     0.034 A 
ATOM     58  C   UNL A   1      43.188  34.515  31.710  1.00  0.00     0.034 A 
ATOM     59  C   UNL A   1      40.206  28.488  32.742  1.00  0.00     0.049 A 
ATOM     60  C   UNL A   1      42.201  33.932  32.653  1.00  0.00     0.074 A 
ATOM     61  C   UNL A   1      39.127  28.302  31.904  1.00  0.00     0.029 A 
ATOM     62  N   UNL A   1      40.007  29.702  33.359  1.00  0.00    -0.354 N 
ATOM     63  N   UNL A   1      40.918  33.869  32.416  1.00  0.00    -0.248 NA
ATOM     64  C   UNL A   1      42.685  33.029  33.685  1.00  0.00     0.031 C 
ATOM     65  C   UNL A   1      38.566  29.601  31.727  1.00  0.00     0.029 A 
ATOM     66  C   UNL A   1      39.306  30.503  32.495  1.00  0.00     0.049 A 
ATOM     67  H   UNL A   1      40.312  29.949  34.261  1.00  0.00     0.167 HD
ATOM     68  C   UNL A   1      40.517  32.646  32.943  1.00  0.00     0.074 A 
ATOM     69  C   UNL A   1      41.613  32.242  33.821  1.00  0.00     0.031 C 
ATOM     70  C   UNL A   1      39.481  31.942  32.394  1.00  0.00     0.034 A 
BRANCH  57  71
ATOM     71  C   UNL A   1      42.102  27.544  34.199  1.00  0.00     0.023 A 
ATOM     72  C   UNL A   1      41.635  26.349  34.786  1.00  0.00     0.012 A 
ATOM     73  C   UNL A   1      42.893  28.388  35.013  1.00  0.00     0.148 A 
ATOM     74  C   UNL A   1      41.921  26.022  36.116  1.00  0.00     0.002 A 
ATOM     75  C   UNL A   1      43.258  28.012  36.300  1.00  0.00     0.091 A 
ATOM     76  F   UNL A   1      43.185  29.631  34.615  1.00  0.00    -0.205 F 
ATOM     77  C   UNL A   1      42.750  26.844  36.869  1.00  0.00     0.022 A 
BRANCH  75  78
ATOM     78  S   UNL A   1      44.396  29.010  37.266  1.00  0.00     0.127 S 
ATOM     79  O   UNL A   1      44.690  28.121  38.385  1.00  0.00    -0.237 OA
ATOM     80  O   UNL A   1      45.499  29.212  36.326  1.00  0.00    -0.237 OA
ATOM     81  O   UNL A   1      43.654  30.226  37.579  1.00  0.00    -0.744 OA
ENDBRANCH  75  78
ENDBRANCH  57  71
BRANCH  58  82
ATOM     82  C   UNL A   1      44.171  35.544  32.108  1.00  0.00     0.023 A 
ATOM     83  C   UNL A   1      45.224  35.203  32.975  1.00  0.00     0.012 A 
ATOM     84  C   UNL A   1      44.221  36.792  31.447  1.00  0.00     0.148 A 
ATOM     85  C   UNL A   1      46.306  36.070  33.162  1.00  0.00     0.002 A 
ATOM     86  C   UNL A   1      45.293  37.656  31.645  1.00  0.00     0.091 A 
ATOM     87  F   UNL A   1      43.260  37.093  30.560  1.00  0.00    -0.205 F 
ATOM     88  C   UNL A   1      46.344  37.293  32.494  1.00  0.00     0.022 A 
BRANCH  86  89
ATOM     89  S   UNL A   1      45.413  39.244  30.807  1.00  0.00     0.127 S 
ATOM     90  O   UNL A   1      46.592  39.834  31.441  1.00  0.00    -0.237 OA
ATOM     91  O   UNL A   1      45.604  38.838  29.418  1.00  0.00    -0.237 OA
ATOM     92  O   UNL A   1      44.167  39.943  31.096  1.00  0.00    -0.744 OA
ENDBRANCH  86  89
ENDBRANCH  58  82
BRANCH  70  93
ATOM     93  C   UNL A   1      38.610  32.639  31.372  1.00  0.00     0.023 A 
ATOM     94  C   UNL A   1      38.939  32.656  30.000  1.00  0.00     0.012 A 
ATOM     95  C   UNL A   1      37.347  33.113  31.766  1.00  0.00     0.148 A 
ATOM     96  C   UNL A   1      38.043  33.150  29.047  1.00  0.00     0.002 A 
ATOM     97  C   UNL A   1      36.438  33.560  30.811  1.00  0.00     0.091 A 
ATOM     98  F   UNL A   1      37.038  33.085  33.072  1.00  0.00    -0.205 F 
ATOM     99  C   UNL A   1      36.786  33.588  29.452  1.00  0.00     0.022 A 
BRANCH  97 100
ATOM    100  S   UNL A   1      34.757  34.008  31.252  1.00  0.00     0.127 S 
ATOM    101  O   UNL A   1      34.242  34.545  29.994  1.00  0.00    -0.237 OA
ATOM    102  O   UNL A   1      34.180  32.722  31.650  1.00  0.00    -0.237 OA
ATOM    103  O   UNL A   1      34.876  34.966  32.345  1.00  0.00    -0.744 OA
ENDBRANCH  97 100
ENDBRANCH  70  93
ENDBRANCH  44  45
ENDBRANCH  37  39
ENDBRANCH  36  37
ENDBRANCH  35  36
ENDBRANCH  34  35
ENDBRANCH  33  34
ENDBRANCH  32  33
ENDBRANCH  31  32
ENDBRANCH  30  31
ENDBRANCH  29  30
ENDBRANCH   1  29
TORSDOF 30
ENDMDL
MODEL 2
REMARK VINA RESULT:      -8.3      1.868      2.843
REMARK SMILES CCN(Cc1cn(CC)nc1C)C(=O)c1ccn([C@@H](C)C(=O)OCCOCCOCCOCCOC(=O)c2ccc(-c3c4nc(c(-c5cccc(S(=O)(=O)[O-])c5F)c5ccc([nH]5)c(-c5cccc(S(=O)(=O)[O-])c5F)c5nc(c(-c6cccc(S(=O)(=O)[O-])c6F)c6ccc3[nH]6)C=C5)C=C4)cc2)n1
REMARK SMILES IDX 27 1 26 2 25 3 24 4 23 5 21 6 22 7 19 8 20 9 18 10 15 11
REMARK SMILES IDX 16 12 101 13 17 14 13 15 14 16 3 17 2 18 1 19 4 20 5 21 6 22
REMARK SMILES IDX 11 23 7 24 10 25 12 26 8 27 9 28 28 29 29 30 30 31 31 32
REMARK SMILES IDX 32 33 33 34 34 35 35 36 36 37 37 38 38 39 39 40 100 41 40 42
REMARK SMILES IDX 99 43 41 44 42 45 43 46 93 47 44 48 98 49 92 50 94 51 45 52
REMARK SMILES IDX 97 53 91 54 90 55 46 57 78 58 58 59 77 60 59 61 62 62 76 63
REMARK SMILES IDX 95 64 60 65 61 66 75 68 96 69 63 70 47 71 48 72 56 73 49 74
REMARK SMILES IDX 51 75 57 76 50 77 52 78 53 79 54 80 55 81 79 82 80 83 88 84
REMARK SMILES IDX 81 85 83 86 89 87 82 88 84 89 85 90 86 91 87 92 64 93 65 94
REMARK SMILES IDX 73 95 66 96 68 97 74 98 67 99 69 100 70 101 71 102 72 103
REMARK H PARENT 94 56 62 67
REMARK Flexibility Score: inf
ROOT
ATOM      1  C   UNL A   1      37.734  20.885  25.130  1.00  0.00     0.188 C 
ENDROOT
BRANCH   1   2
ATOM      2  O   UNL A   1      36.318  20.753  25.045  1.00  0.00    -0.376 OA
BRANCH   2   3
ATOM      3  C   UNL A   1      35.490  21.312  26.050  1.00  0.00     0.202 C 
BRANCH   3   4
ATOM      4  C   UNL A   1      34.020  20.877  26.107  1.00  0.00     0.261 C 
BRANCH   4   5
ATOM      5  O   UNL A   1      33.053  21.869  25.711  1.00  0.00    -0.462 OA
BRANCH   5   6
ATOM      6  C   UNL A   1      32.364  21.630  24.568  1.00  0.00     0.330 C 
ATOM      7  O   UNL A   1      32.199  20.499  24.107  1.00  0.00    -0.250 OA
BRANCH   6   8
ATOM      8  C   UNL A   1      31.845  22.856  23.832  1.00  0.00     0.213 C 
ATOM      9  C   UNL A   1      32.779  23.167  22.672  1.00  0.00     0.046 C 
BRANCH   8  10
ATOM     10  N   UNL A   1      31.566  24.060  24.615  1.00  0.00    -0.258 N 
ATOM     11  C   UNL A   1      31.534  26.171  25.029  1.00  0.00     0.150 A 
ATOM     12  C   UNL A   1      30.691  25.519  25.965  1.00  0.00     0.056 A 
ATOM     13  N   UNL A   1      32.096  25.246  24.216  1.00  0.00    -0.167 NA
ATOM     14  C   UNL A   1      30.827  24.171  25.752  1.00  0.00     0.110 A 
BRANCH  11  15
ATOM     15  C   UNL A   1      31.676  27.633  24.789  1.00  0.00     0.274 C 
ATOM     16  O   UNL A   1      31.653  28.409  25.748  1.00  0.00    -0.267 OA
BRANCH  15  17
ATOM     17  N   UNL A   1      31.858  28.114  23.478  1.00  0.00    -0.333 N 
BRANCH  17  18
ATOM     18  C   UNL A   1      33.021  28.965  23.200  1.00  0.00     0.117 C 
ATOM     19  C   UNL A   1      34.341  28.253  23.479  1.00  0.00     0.027 C 
ENDBRANCH  17  18
BRANCH  17  20
ATOM     20  C   UNL A   1      30.888  27.967  22.390  1.00  0.00     0.159 C 
BRANCH  20  21
ATOM     21  C   UNL A   1      29.684  28.822  22.598  1.00  0.00     0.012 A 
ATOM     22  C   UNL A   1      29.490  30.158  22.295  1.00  0.00     0.114 A 
ATOM     23  C   UNL A   1      28.421  28.402  23.105  1.00  0.00     0.064 A 
ATOM     24  N   UNL A   1      28.156  30.397  22.468  1.00  0.00    -0.272 N 
ATOM     25  N   UNL A   1      27.488  29.350  22.972  1.00  0.00    -0.178 NA
ATOM     26  C   UNL A   1      28.025  27.080  23.644  1.00  0.00     0.069 C 
BRANCH  24  27
ATOM     27  C   UNL A   1      27.417  31.556  22.007  1.00  0.00     0.141 C 
ATOM     28  C   UNL A   1      28.326  32.650  21.459  1.00  0.00     0.029 C 
ENDBRANCH  24  27
ENDBRANCH  20  21
ENDBRANCH  17  20
ENDBRANCH  15  17
ENDBRANCH  11  15
ENDBRANCH   8  10
ENDBRANCH   6   8
ENDBRANCH   5   6
ENDBRANCH   4   5
ENDBRANCH   3   4
ENDBRANCH   2   3
ENDBRANCH   1   2
BRANCH   1  29
ATOM     29  C   UNL A   1      38.409  22.208  25.546  1.00  0.00     0.188 C 
BRANCH  29  30
ATOM     30  O   UNL A   1      39.441  22.110  26.513  1.00  0.00    -0.377 OA
BRANCH  30  31
ATOM     31  C   UNL A   1      40.497  21.227  26.150  1.00  0.00     0.188 C 
BRANCH  31  32
ATOM     32  C   UNL A   1      41.874  21.894  25.947  1.00  0.00     0.188 C 
BRANCH  32  33
ATOM     33  O   UNL A   1      42.910  20.991  25.558  1.00  0.00    -0.376 OA
BRANCH  33  34
ATOM     34  C   UNL A   1      44.005  21.465  24.783  1.00  0.00     0.202 C 
BRANCH  34  35
ATOM     35  C   UNL A   1      44.087  22.979  24.603  1.00  0.00     0.261 C 
BRANCH  35  36
ATOM     36  O   UNL A   1      45.087  23.583  25.404  1.00  0.00    -0.460 OA
BRANCH  36  37
ATOM     37  C   UNL A   1      44.779  23.869  26.684  1.00  0.00     0.338 C 
ATOM     38  O   UNL A   1      44.891  23.152  27.658  1.00  0.00    -0.246 OA
BRANCH  37  39
ATOM     39  C   UNL A   1      44.233  25.230  26.703  1.00  0.00     0.060 A 
ATOM     40  C   UNL A   1      45.143  26.289  26.653  1.00  0.00     0.016 A 
ATOM     41  C   UNL A   1      42.887  25.409  27.052  1.00  0.00     0.016 A 
ATOM     42  C   UNL A   1      44.773  27.484  27.228  1.00  0.00     0.010 A 
ATOM     43  C   UNL A   1      42.529  26.586  27.640  1.00  0.00     0.010 A 
ATOM     44  C   UNL A   1      43.514  27.551  27.822  1.00  0.00    -0.014 A 
BRANCH  44  45
ATOM     45  C   UNL A   1      43.264  28.546  28.834  1.00  0.00     0.031 A 
ATOM     46  C   UNL A   1      43.384  28.077  30.221  1.00  0.00     0.074 A 
ATOM     47  C   UNL A   1      43.190  29.846  28.493  1.00  0.00     0.049 A 
ATOM     48  N   UNL A   1      42.440  27.829  31.063  1.00  0.00    -0.248 NA
ATOM     49  C   UNL A   1      44.721  27.682  30.674  1.00  0.00     0.031 C 
ATOM     50  C   UNL A   1      43.491  30.464  27.193  1.00  0.00     0.029 A 
ATOM     51  N   UNL A   1      42.988  30.912  29.301  1.00  0.00    -0.354 N 
ATOM     52  C   UNL A   1      43.100  27.474  32.235  1.00  0.00     0.074 A 
ATOM     53  C   UNL A   1      44.446  27.135  31.857  1.00  0.00     0.031 C 
ATOM     54  C   UNL A   1      43.690  31.790  27.372  1.00  0.00     0.029 A 
ATOM     55  C   UNL A   1      43.373  32.122  28.749  1.00  0.00     0.049 A 
ATOM     56  H   UNL A   1      42.601  30.833  30.204  1.00  0.00     0.167 HD
ATOM     57  C   UNL A   1      42.594  27.776  33.461  1.00  0.00     0.034 A 
ATOM     58  C   UNL A   1      43.495  33.290  29.419  1.00  0.00     0.034 A 
ATOM     59  C   UNL A   1      41.233  28.238  33.374  1.00  0.00     0.049 A 
ATOM     60  C   UNL A   1      42.733  33.152  30.685  1.00  0.00     0.074 A 
ATOM     61  C   UNL A   1      40.046  27.714  32.905  1.00  0.00     0.029 A 
ATOM     62  N   UNL A   1      41.043  29.598  33.463  1.00  0.00    -0.354 N 
ATOM     63  N   UNL A   1      41.439  32.991  30.740  1.00  0.00    -0.248 NA
ATOM     64  C   UNL A   1      43.457  32.765  31.886  1.00  0.00     0.031 C 
ATOM     65  C   UNL A   1      39.360  28.819  32.320  1.00  0.00     0.029 A 
ATOM     66  C   UNL A   1      40.143  29.962  32.495  1.00  0.00     0.049 A 
ATOM     67  H   UNL A   1      41.476  30.201  34.109  1.00  0.00     0.167 HD
ATOM     68  C   UNL A   1      41.233  32.099  31.788  1.00  0.00     0.074 A 
ATOM     69  C   UNL A   1      42.492  32.104  32.531  1.00  0.00     0.031 C 
ATOM     70  C   UNL A   1      40.181  31.227  31.782  1.00  0.00     0.034 A 
BRANCH  57  71
ATOM     71  C   UNL A   1      43.419  27.996  34.705  1.00  0.00     0.023 A 
ATOM     72  C   UNL A   1      43.036  27.289  35.863  1.00  0.00     0.012 A 
ATOM     73  C   UNL A   1      44.393  29.008  34.869  1.00  0.00     0.148 A 
ATOM     74  C   UNL A   1      43.575  27.587  37.119  1.00  0.00     0.002 A 
ATOM     75  C   UNL A   1      44.999  29.233  36.099  1.00  0.00     0.091 A 
ATOM     76  F   UNL A   1      44.646  29.869  33.877  1.00  0.00    -0.205 F 
ATOM     77  C   UNL A   1      44.573  28.547  37.235  1.00  0.00     0.022 A 
BRANCH  75  78
ATOM     78  S   UNL A   1      46.351  30.405  36.262  1.00  0.00     0.127 S 
ATOM     79  O   UNL A   1      45.686  31.665  35.947  1.00  0.00    -0.237 OA
ATOM     80  O   UNL A   1      46.733  30.238  37.665  1.00  0.00    -0.237 OA
ATOM     81  O   UNL A   1      47.360  29.946  35.314  1.00  0.00    -0.744 OA
ENDBRANCH  75  78
ENDBRANCH  57  71
BRANCH  58  82
ATOM     82  C   UNL A   1      44.444  34.394  29.167  1.00  0.00     0.023 A 
ATOM     83  C   UNL A   1      45.795  34.105  28.903  1.00  0.00     0.012 A 
ATOM     84  C   UNL A   1      43.981  35.710  28.942  1.00  0.00     0.148 A 
ATOM     85  C   UNL A   1      46.654  35.093  28.409  1.00  0.00     0.002 A 
ATOM     86  C   UNL A   1      44.842  36.692  28.461  1.00  0.00     0.091 A 
ATOM     87  F   UNL A   1      42.679  35.976  29.117  1.00  0.00    -0.205 F 
ATOM     88  C   UNL A   1      46.179  36.383  28.182  1.00  0.00     0.022 A 
BRANCH  86  89
ATOM     89  S   UNL A   1      44.293  38.374  28.135  1.00  0.00     0.127 S 
ATOM     90  O   UNL A   1      45.336  39.165  28.788  1.00  0.00    -0.237 OA
ATOM     91  O   UNL A   1      44.313  38.420  26.676  1.00  0.00    -0.237 OA
ATOM     92  O   UNL A   1      42.978  38.492  28.755  1.00  0.00    -0.744 OA
ENDBRANCH  86  89
ENDBRANCH  58  82
BRANCH  70  93
ATOM     93  C   UNL A   1      39.095  31.429  30.747  1.00  0.00     0.023 A 
ATOM     94  C   UNL A   1      39.150  30.814  29.478  1.00  0.00     0.012 A 
ATOM     95  C   UNL A   1      37.912  32.086  31.124  1.00  0.00     0.148 A 
ATOM     96  C   UNL A   1      38.063  30.867  28.601  1.00  0.00     0.002 A 
ATOM     97  C   UNL A   1      36.814  32.098  30.268  1.00  0.00     0.091 A 
ATOM     98  F   UNL A   1      37.863  32.662  32.336  1.00  0.00    -0.205 F 
ATOM     99  C   UNL A   1      36.890  31.497  29.002  1.00  0.00     0.022 A 
BRANCH  97 100
ATOM    100  S   UNL A   1      35.231  32.771  30.779  1.00  0.00     0.127 S 
ATOM    101  O   UNL A   1      35.556  34.176  31.013  1.00  0.00    -0.237 OA
ATOM    102  O   UNL A   1      34.387  32.526  29.607  1.00  0.00    -0.237 OA
ATOM    103  O   UNL A   1      34.839  32.009  31.959  1.00  0.00    -0.744 OA
ENDBRANCH  97 100
ENDBRANCH  70  93
ENDBRANCH  44  45
ENDBRANCH  37  39
ENDBRANCH  36  37
ENDBRANCH  35  36
ENDBRANCH  34  35
ENDBRANCH  33  34
ENDBRANCH  32  33
ENDBRANCH  31  32
ENDBRANCH  30  31
ENDBRANCH  29  30
ENDBRANCH   1  29
TORSDOF 30
ENDMDL
MODEL 3
REMARK VINA RESULT:      -7.7      3.034      4.058
REMARK SMILES CCN(Cc1cn(CC)nc1C)C(=O)c1ccn([C@@H](C)C(=O)OCCOCCOCCOCCOC(=O)c2ccc(-c3c4nc(c(-c5cccc(S(=O)(=O)[O-])c5F)c5ccc([nH]5)c(-c5cccc(S(=O)(=O)[O-])c5F)c5nc(c(-c6cccc(S(=O)(=O)[O-])c6F)c6ccc3[nH]6)C=C5)C=C4)cc2)n1
REMARK SMILES IDX 27 1 26 2 25 3 24 4 23 5 21 6 22 7 19 8 20 9 18 10 15 11
REMARK SMILES IDX 16 12 101 13 17 14 13 15 14 16 3 17 2 18 1 19 4 20 5 21 6 22
REMARK SMILES IDX 11 23 7 24 10 25 12 26 8 27 9 28 28 29 29 30 30 31 31 32
REMARK SMILES IDX 32 33 33 34 34 35 35 36 36 37 37 38 38 39 39 40 100 41 40 42
REMARK SMILES IDX 99 43 41 44 42 45 43 46 93 47 44 48 98 49 92 50 94 51 45 52
REMARK SMILES IDX 97 53 91 54 90 55 46 57 78 58 58 59 77 60 59 61 62 62 76 63
REMARK SMILES IDX 95 64 60 65 61 66 75 68 96 69 63 70 47 71 48 72 56 73 49 74
REMARK SMILES IDX 51 75 57 76 50 77 52 78 53 79 54 80 55 81 79 82 80 83 88 84
REMARK SMILES IDX 81 85 83 86 89 87 82 88 84 89 85 90 86 91 87 92 64 93 65 94
REMARK SMILES IDX 73 95 66 96 68 97 74 98 67 99 69 100 70 101 71 102 72 103
REMARK H PARENT 94 56 62 67
REMARK Flexibility Score: inf
ROOT
ATOM      1  C   UNL A   1      37.521  20.770  24.899  1.00  0.00     0.188 C 
ENDROOT
BRANCH   1   2
ATOM      2  O   UNL A   1      36.125  20.659  24.635  1.00  0.00    -0.376 OA
BRANCH   2   3
ATOM      3  C   UNL A   1      35.192  20.737  25.698  1.00  0.00     0.202 C 
BRANCH   3   4
ATOM      4  C   UNL A   1      33.707  20.515  25.382  1.00  0.00     0.261 C 
BRANCH   4   5
ATOM      5  O   UNL A   1      33.009  21.640  24.814  1.00  0.00    -0.462 OA
BRANCH   5   6
ATOM      6  C   UNL A   1      32.481  21.472  23.577  1.00  0.00     0.330 C 
ATOM      7  O   UNL A   1      32.092  20.382  23.154  1.00  0.00    -0.250 OA
BRANCH   6   8
ATOM      8  C   UNL A   1      32.450  22.708  22.691  1.00  0.00     0.213 C 
ATOM      9  C   UNL A   1      33.825  22.909  22.072  1.00  0.00     0.046 C 
BRANCH   8  10
ATOM     10  N   UNL A   1      31.952  23.957  23.271  1.00  0.00    -0.258 N 
ATOM     11  C   UNL A   1      32.082  25.985  23.974  1.00  0.00     0.150 A 
ATOM     12  C   UNL A   1      30.712  25.640  23.859  1.00  0.00     0.056 A 
ATOM     13  N   UNL A   1      32.841  24.917  23.636  1.00  0.00    -0.167 NA
ATOM     14  C   UNL A   1      30.663  24.310  23.526  1.00  0.00     0.110 A 
BRANCH  11  15
ATOM     15  C   UNL A   1      32.668  27.330  24.227  1.00  0.00     0.274 C 
ATOM     16  O   UNL A   1      33.878  27.505  24.055  1.00  0.00    -0.267 OA
BRANCH  15  17
ATOM     17  N   UNL A   1      31.838  28.392  24.633  1.00  0.00    -0.333 N 
BRANCH  17  18
ATOM     18  C   UNL A   1      31.435  29.388  23.634  1.00  0.00     0.117 C 
ATOM     19  C   UNL A   1      29.927  29.611  23.611  1.00  0.00     0.027 C 
ENDBRANCH  17  18
BRANCH  17  20
ATOM     20  C   UNL A   1      31.466  28.680  26.021  1.00  0.00     0.159 C 
BRANCH  20  21
ATOM     21  C   UNL A   1      32.480  29.534  26.703  1.00  0.00     0.012 A 
ATOM     22  C   UNL A   1      33.720  29.192  27.214  1.00  0.00     0.114 A 
ATOM     23  C   UNL A   1      32.403  30.942  26.912  1.00  0.00     0.064 A 
ATOM     24  N   UNL A   1      34.343  30.369  27.521  1.00  0.00    -0.272 N 
ATOM     25  N   UNL A   1      33.559  31.445  27.359  1.00  0.00    -0.178 NA
ATOM     26  C   UNL A   1      31.287  31.869  26.617  1.00  0.00     0.069 C 
BRANCH  24  27
ATOM     27  C   UNL A   1      35.750  30.554  27.813  1.00  0.00     0.141 C 
ATOM     28  C   UNL A   1      36.105  32.009  28.090  1.00  0.00     0.029 C 
ENDBRANCH  24  27
ENDBRANCH  20  21
ENDBRANCH  17  20
ENDBRANCH  15  17
ENDBRANCH  11  15
ENDBRANCH   8  10
ENDBRANCH   6   8
ENDBRANCH   5   6
ENDBRANCH   4   5
ENDBRANCH   3   4
ENDBRANCH   2   3
ENDBRANCH   1   2
BRANCH   1  29
ATOM     29  C   UNL A   1      38.138  22.042  25.515  1.00  0.00     0.188 C 
BRANCH  29  30
ATOM     30  O   UNL A   1      39.116  21.842  26.522  1.00  0.00    -0.377 OA
BRANCH  30  31
ATOM     31  C   UNL A   1      40.152  20.936  26.156  1.00  0.00     0.188 C 
BRANCH  31  32
ATOM     32  C   UNL A   1      41.583  21.508  26.232  1.00  0.00     0.188 C 
BRANCH  32  33
ATOM     33  O   UNL A   1      42.597  20.605  25.790  1.00  0.00    -0.376 OA
BRANCH  33  34
ATOM     34  C   UNL A   1      43.820  21.116  25.272  1.00  0.00     0.202 C 
BRANCH  34  35
ATOM     35  C   UNL A   1      43.953  22.637  25.259  1.00  0.00     0.261 C 
BRANCH  35  36
ATOM     36  O   UNL A   1      44.866  23.126  26.226  1.00  0.00    -0.460 OA
BRANCH  36  37
ATOM     37  C   UNL A   1      44.376  23.491  27.425  1.00  0.00     0.338 C 
ATOM     38  O   UNL A   1      44.239  22.805  28.417  1.00  0.00    -0.246 OA
BRANCH  37  39
ATOM     39  C   UNL A   1      43.987  24.902  27.321  1.00  0.00     0.060 A 
ATOM     40  C   UNL A   1      44.928  25.791  26.795  1.00  0.00     0.016 A 
ATOM     41  C   UNL A   1      42.839  25.334  28.000  1.00  0.00     0.016 A 
ATOM     42  C   UNL A   1      44.863  27.107  27.193  1.00  0.00     0.010 A 
ATOM     43  C   UNL A   1      42.789  26.633  28.411  1.00  0.00     0.010 A 
ATOM     44  C   UNL A   1      43.863  27.459  28.098  1.00  0.00    -0.014 A 
BRANCH  44  45
ATOM     45  C   UNL A   1      44.031  28.636  28.913  1.00  0.00     0.031 A 
ATOM     46  C   UNL A   1      44.721  28.423  30.193  1.00  0.00     0.074 A 
ATOM     47  C   UNL A   1      43.797  29.853  28.389  1.00  0.00     0.049 A 
ATOM     48  N   UNL A   1      44.212  28.391  31.376  1.00  0.00    -0.248 NA
ATOM     49  C   UNL A   1      46.134  28.037  30.129  1.00  0.00     0.031 C 
ATOM     50  C   UNL A   1      43.525  30.203  26.986  1.00  0.00     0.029 A 
ATOM     51  N   UNL A   1      43.924  31.059  28.988  1.00  0.00    -0.354 N 
ATOM     52  C   UNL A   1      45.302  28.218  32.223  1.00  0.00     0.074 A 
ATOM     53  C   UNL A   1      46.380  27.733  31.402  1.00  0.00     0.031 C 
ATOM     54  C   UNL A   1      43.753  31.524  26.810  1.00  0.00     0.029 A 
ATOM     55  C   UNL A   1      44.023  32.122  28.105  1.00  0.00     0.049 A 
ATOM     56  H   UNL A   1      43.944  31.172  29.967  1.00  0.00     0.167 HD
ATOM     57  C   UNL A   1      45.338  28.770  33.465  1.00  0.00     0.034 A 
ATOM     58  C   UNL A   1      44.387  33.383  28.429  1.00  0.00     0.034 A 
ATOM     59  C   UNL A   1      44.053  29.290  33.852  1.00  0.00     0.049 A 
ATOM     60  C   UNL A   1      44.216  33.526  29.896  1.00  0.00     0.074 A 
ATOM     61  C   UNL A   1      42.789  28.763  34.018  1.00  0.00     0.029 A 
ATOM     62  N   UNL A   1      43.889  30.652  33.748  1.00  0.00    -0.354 N 
ATOM     63  N   UNL A   1      43.062  33.458  30.503  1.00  0.00    -0.248 NA
ATOM     64  C   UNL A   1      45.377  33.323  30.748  1.00  0.00     0.031 C 
ATOM     65  C   UNL A   1      41.901  29.780  33.562  1.00  0.00     0.029 A 
ATOM     66  C   UNL A   1      42.664  30.887  33.180  1.00  0.00     0.049 A 
ATOM     67  H   UNL A   1      44.537  31.336  34.033  1.00  0.00     0.167 HD
ATOM     68  C   UNL A   1      43.323  32.787  31.694  1.00  0.00     0.074 A 
ATOM     69  C   UNL A   1      44.775  32.852  31.845  1.00  0.00     0.031 C 
ATOM     70  C   UNL A   1      42.379  31.995  32.285  1.00  0.00     0.034 A 
BRANCH  57  71
ATOM     71  C   UNL A   1      46.598  29.164  34.198  1.00  0.00     0.023 A 
ATOM     72  C   UNL A   1      46.768  28.654  35.502  1.00  0.00     0.012 A 
ATOM     73  C   UNL A   1      47.502  30.169  33.783  1.00  0.00     0.148 A 
ATOM     74  C   UNL A   1      47.769  29.132  36.353  1.00  0.00     0.002 A 
ATOM     75  C   UNL A   1      48.556  30.569  34.595  1.00  0.00     0.091 A 
ATOM     76  F   UNL A   1      47.275  30.859  32.660  1.00  0.00    -0.205 F 
ATOM     77  C   UNL A   1      48.678  30.077  35.893  1.00  0.00     0.022 A 
BRANCH  75  78
ATOM     78  S   UNL A   1      49.795  31.724  33.996  1.00  0.00     0.127 S 
ATOM     79  O   UNL A   1      49.046  32.976  33.979  1.00  0.00    -0.237 OA
ATOM     80  O   UNL A   1      50.826  31.630  35.031  1.00  0.00    -0.237 OA
ATOM     81  O   UNL A   1      50.205  31.194  32.701  1.00  0.00    -0.744 OA
ENDBRANCH  75  78
ENDBRANCH  57  71
BRANCH  58  82
ATOM     82  C   UNL A   1      45.126  34.362  27.605  1.00  0.00     0.023 A 
ATOM     83  C   UNL A   1      44.592  35.648  27.405  1.00  0.00     0.012 A 
ATOM     84  C   UNL A   1      46.465  34.122  27.221  1.00  0.00     0.148 A 
ATOM     85  C   UNL A   1      45.375  36.670  26.858  1.00  0.00     0.002 A 
ATOM     86  C   UNL A   1      47.236  35.139  26.667  1.00  0.00     0.091 A 
ATOM     87  F   UNL A   1      47.006  32.923  27.479  1.00  0.00    -0.205 F 
ATOM     88  C   UNL A   1      46.697  36.419  26.495  1.00  0.00     0.022 A 
BRANCH  86  89
ATOM     89  S   UNL A   1      48.952  34.888  26.186  1.00  0.00     0.127 S 
ATOM     90  O   UNL A   1      49.236  36.109  25.431  1.00  0.00    -0.237 OA
ATOM     91  O   UNL A   1      49.618  34.801  27.482  1.00  0.00    -0.237 OA
ATOM     92  O   UNL A   1      48.967  33.672  25.383  1.00  0.00    -0.744 OA
ENDBRANCH  86  89
ENDBRANCH  58  82
BRANCH  70  93
ATOM     93  C   UNL A   1      40.960  32.069  31.764  1.00  0.00     0.023 A 
ATOM     94  C   UNL A   1      40.527  31.295  30.667  1.00  0.00     0.012 A 
ATOM     95  C   UNL A   1      40.001  32.779  32.506  1.00  0.00     0.148 A 
ATOM     96  C   UNL A   1      39.177  31.242  30.307  1.00  0.00     0.002 A 
ATOM     97  C   UNL A   1      38.651  32.688  32.175  1.00  0.00     0.091 A 
ATOM     98  F   UNL A   1      40.419  33.507  33.554  1.00  0.00    -0.205 F 
ATOM     99  C   UNL A   1      38.238  31.927  31.071  1.00  0.00     0.022 A 
BRANCH  97 100
ATOM    100  S   UNL A   1      37.380  33.434  33.199  1.00  0.00     0.127 S 
ATOM    101  O   UNL A   1      36.160  33.089  32.474  1.00  0.00    -0.237 OA
ATOM    102  O   UNL A   1      37.551  32.736  34.476  1.00  0.00    -0.237 OA
ATOM    103  O   UNL A   1      37.701  34.855  33.255  1.00  0.00    -0.744 OA
ENDBRANCH  97 100
ENDBRANCH  70  93
ENDBRANCH  44  45
ENDBRANCH  37  39
ENDBRANCH  36  37
ENDBRANCH  35  36
ENDBRANCH  34  35
ENDBRANCH  33  34
ENDBRANCH  32  33
ENDBRANCH  31  32
ENDBRANCH  30  31
ENDBRANCH  29  30
ENDBRANCH   1  29
TORSDOF 30
ENDMDL
