MODEL 1
REMARK VINA RESULT:      -9.1      0.000      0.000
REMARK SMILES C[C@@H]1CCC[C@H](NC(=O)N(C)CC(=O)OCCOCCOCCOCCOC(=O)c2ccc(-c3c4nc(c(-c5cccc(S(=O)(=O)[O-])c5F)c5ccc([nH]5)c(-c5cccc(S(=O)(=O)[O-])c5F)c5nc(c(-c6cccc(S(=O)(=O)[O-])c6F)c6ccc3[nH]6)C=C5)C=C4)cc2)C1
REMARK SMILES IDX 21 1 20 2 19 3 18 4 17 5 16 6 15 7 13 8 14 9 12 10 10 11
REMARK SMILES IDX 11 12 8 13 7 14 9 16 6 17 1 18 2 19 3 20 93 21 4 22 5 23
REMARK SMILES IDX 22 24 23 25 24 26 25 27 26 28 27 29 28 30 29 31 30 32 31 33
REMARK SMILES IDX 92 34 32 35 91 36 33 37 34 38 35 39 85 40 36 41 90 42 84 43
REMARK SMILES IDX 86 44 37 45 89 46 83 47 82 48 38 50 70 51 50 52 69 53 51 54
REMARK SMILES IDX 54 55 68 56 87 57 52 58 53 59 67 61 88 62 55 63 39 64 40 65
REMARK SMILES IDX 48 66 41 67 43 68 49 69 42 70 44 71 45 72 46 73 47 74 71 75
REMARK SMILES IDX 72 76 80 77 73 78 75 79 81 80 74 81 76 82 77 83 78 84 79 85
REMARK SMILES IDX 56 86 57 87 65 88 58 89 60 90 66 91 59 92 61 93 62 94 63 95
REMARK SMILES IDX 64 96
REMARK H PARENT 7 15 86 49 54 60
REMARK Flexibility Score: inf
ROOT
ATOM      1  O   UNL A   1      29.832  29.042  23.453  1.00  0.00    -0.377 OA
ENDROOT
BRANCH   1   2
ATOM      2  C   UNL A   1      29.291  27.775  23.139  1.00  0.00     0.188 C 
BRANCH   2   3
ATOM      3  C   UNL A   1      29.984  26.481  23.610  1.00  0.00     0.188 C 
BRANCH   3   4
ATOM      4  O   UNL A   1      29.464  25.955  24.815  1.00  0.00    -0.376 OA
BRANCH   4   5
ATOM      5  C   UNL A   1      30.306  25.615  25.899  1.00  0.00     0.202 C 
BRANCH   5   6
ATOM      6  C   UNL A   1      31.843  25.751  25.878  1.00  0.00     0.261 C 
BRANCH   6   7
ATOM      7  O   UNL A   1      32.609  24.629  25.409  1.00  0.00    -0.462 OA
BRANCH   7   8
ATOM      8  C   UNL A   1      33.491  24.813  24.399  1.00  0.00     0.325 C 
ATOM      9  O   UNL A   1      34.241  25.782  24.324  1.00  0.00    -0.250 OA
BRANCH   8  10
ATOM     10  C   UNL A   1      33.531  23.639  23.384  1.00  0.00     0.243 C 
BRANCH  10  11
ATOM     11  N   UNL A   1      33.879  22.243  23.779  1.00  0.00    -0.317 N 
ATOM     12  C   UNL A   1      35.200  22.095  24.362  1.00  0.00     0.149 C 
BRANCH  11  13
ATOM     13  C   UNL A   1      32.932  21.268  23.602  1.00  0.00     0.317 C 
ATOM     14  N   UNL A   1      33.054  19.987  24.014  1.00  0.00    -0.335 N 
ATOM     15  H   UNL A   1      32.557  19.370  23.430  1.00  0.00     0.165 HD
ATOM     16  O   UNL A   1      31.900  21.502  22.959  1.00  0.00    -0.249 OA
BRANCH  14  17
ATOM     17  C   UNL A   1      33.735  19.272  25.100  1.00  0.00     0.084 C 
ATOM     18  C   UNL A   1      34.022  16.921  22.686  1.00  0.00     0.008 C 
ATOM     19  C   UNL A   1      34.520  16.950  24.128  1.00  0.00    -0.012 C 
ATOM     20  C   UNL A   1      33.524  16.259  25.061  1.00  0.00     0.003 C 
ATOM     21  C   UNL A   1      34.886  18.372  24.608  1.00  0.00     0.028 C 
ATOM     22  C   UNL A   1      32.304  17.130  25.334  1.00  0.00     0.002 C 
ATOM     23  C   UNL A   1      32.707  18.477  25.932  1.00  0.00     0.025 C 
ENDBRANCH  14  17
ENDBRANCH  11  13
ENDBRANCH  10  11
ENDBRANCH   8  10
ENDBRANCH   7   8
ENDBRANCH   6   7
ENDBRANCH   5   6
ENDBRANCH   4   5
ENDBRANCH   3   4
ENDBRANCH   2   3
ENDBRANCH   1   2
BRANCH   1  24
ATOM     24  C   UNL A   1      31.156  29.050  23.922  1.00  0.00     0.188 C 
BRANCH  24  25
ATOM     25  C   UNL A   1      31.328  29.954  25.152  1.00  0.00     0.188 C 
BRANCH  25  26
ATOM     26  O   UNL A   1      32.215  29.599  26.209  1.00  0.00    -0.376 OA
BRANCH  26  27
ATOM     27  C   UNL A   1      33.388  30.357  26.478  1.00  0.00     0.202 C 
BRANCH  27  28
ATOM     28  C   UNL A   1      33.944  30.595  27.894  1.00  0.00     0.261 C 
BRANCH  28  29
ATOM     29  O   UNL A   1      34.314  31.935  28.229  1.00  0.00    -0.460 OA
BRANCH  29  30
ATOM     30  C   UNL A   1      34.863  32.130  29.443  1.00  0.00     0.338 C 
ATOM     31  O   UNL A   1      34.377  32.741  30.385  1.00  0.00    -0.246 OA
BRANCH  30  32
ATOM     32  C   UNL A   1      36.096  31.326  29.534  1.00  0.00     0.060 A 
ATOM     33  C   UNL A   1      36.085  30.195  30.361  1.00  0.00     0.016 A 
ATOM     34  C   UNL A   1      37.250  31.678  28.830  1.00  0.00     0.016 A 
ATOM     35  C   UNL A   1      37.233  29.419  30.501  1.00  0.00     0.010 A 
ATOM     36  C   UNL A   1      38.413  30.919  29.000  1.00  0.00     0.010 A 
ATOM     37  C   UNL A   1      38.415  29.807  29.861  1.00  0.00    -0.014 A 
BRANCH  37  38
ATOM     38  C   UNL A   1      39.688  29.169  30.268  1.00  0.00     0.031 A 
ATOM     39  C   UNL A   1      40.384  29.692  31.493  1.00  0.00     0.074 A 
ATOM     40  C   UNL A   1      40.204  28.132  29.585  1.00  0.00     0.049 A 
ATOM     41  N   UNL A   1      41.503  29.298  32.042  1.00  0.00    -0.248 NA
ATOM     42  C   UNL A   1      39.729  30.811  32.193  1.00  0.00     0.031 C 
ATOM     43  C   UNL A   1      39.614  27.527  28.393  1.00  0.00     0.029 A 
ATOM     44  N   UNL A   1      41.360  27.422  29.790  1.00  0.00    -0.354 N 
ATOM     45  C   UNL A   1      41.703  30.139  33.130  1.00  0.00     0.074 A 
ATOM     46  C   UNL A   1      40.595  31.068  33.161  1.00  0.00     0.031 C 
ATOM     47  C   UNL A   1      40.432  26.557  27.950  1.00  0.00     0.029 A 
ATOM     48  C   UNL A   1      41.613  26.492  28.811  1.00  0.00     0.049 A 
ATOM     49  H   UNL A   1      41.952  27.564  30.565  1.00  0.00     0.167 HD
ATOM     50  C   UNL A   1      42.715  30.134  34.028  1.00  0.00     0.034 A 
ATOM     51  C   UNL A   1      42.690  25.702  28.616  1.00  0.00     0.034 A 
ATOM     52  C   UNL A   1      43.812  29.207  33.998  1.00  0.00     0.049 A 
ATOM     53  C   UNL A   1      43.824  25.741  29.609  1.00  0.00     0.074 A 
ATOM     54  C   UNL A   1      44.857  29.084  34.897  1.00  0.00     0.029 A 
ATOM     55  N   UNL A   1      44.024  28.262  33.007  1.00  0.00    -0.354 N 
ATOM     56  N   UNL A   1      43.940  26.452  30.704  1.00  0.00    -0.248 NA
ATOM     57  C   UNL A   1      44.963  24.845  29.356  1.00  0.00     0.031 C 
ATOM     58  C   UNL A   1      45.728  28.101  34.420  1.00  0.00     0.029 A 
ATOM     59  C   UNL A   1      45.199  27.573  33.254  1.00  0.00     0.049 A 
ATOM     60  H   UNL A   1      43.427  28.105  32.240  1.00  0.00     0.167 HD
ATOM     61  C   UNL A   1      45.144  26.069  31.286  1.00  0.00     0.074 A 
ATOM     62  C   UNL A   1      45.711  25.045  30.432  1.00  0.00     0.031 C 
ATOM     63  C   UNL A   1      45.733  26.527  32.419  1.00  0.00     0.034 A 
BRANCH  50  64
ATOM     64  C   UNL A   1      42.687  31.174  35.116  1.00  0.00     0.023 A 
ATOM     65  C   UNL A   1      42.100  30.877  36.363  1.00  0.00     0.012 A 
ATOM     66  C   UNL A   1      43.285  32.433  34.914  1.00  0.00     0.148 A 
ATOM     67  C   UNL A   1      42.078  31.831  37.380  1.00  0.00     0.002 A 
ATOM     68  C   UNL A   1      43.305  33.359  35.949  1.00  0.00     0.091 A 
ATOM     69  F   UNL A   1      43.816  32.703  33.714  1.00  0.00    -0.205 F 
ATOM     70  C   UNL A   1      42.690  33.066  37.177  1.00  0.00     0.022 A 
BRANCH  68  71
ATOM     71  S   UNL A   1      44.138  34.943  35.812  1.00  0.00     0.127 S 
ATOM     72  O   UNL A   1      45.536  34.532  35.694  1.00  0.00    -0.237 OA
ATOM     73  O   UNL A   1      43.557  35.489  34.585  1.00  0.00    -0.237 OA
ATOM     74  O   UNL A   1      43.806  35.681  37.023  1.00  0.00    -0.744 OA
ENDBRANCH  68  71
ENDBRANCH  50  64
BRANCH  51  75
ATOM     75  C   UNL A   1      42.747  24.803  27.428  1.00  0.00     0.023 A 
ATOM     76  C   UNL A   1      43.392  25.232  26.253  1.00  0.00     0.012 A 
ATOM     77  C   UNL A   1      42.168  23.519  27.466  1.00  0.00     0.148 A 
ATOM     78  C   UNL A   1      43.434  24.409  25.125  1.00  0.00     0.002 A 
ATOM     79  C   UNL A   1      42.266  22.683  26.361  1.00  0.00     0.091 A 
ATOM     80  F   UNL A   1      41.544  23.137  28.589  1.00  0.00    -0.205 F 
ATOM     81  C   UNL A   1      42.880  23.133  25.183  1.00  0.00     0.022 A 
BRANCH  79  82
ATOM     82  S   UNL A   1      41.700  20.979  26.391  1.00  0.00     0.127 S 
ATOM     83  O   UNL A   1      42.510  20.375  25.337  1.00  0.00    -0.237 OA
ATOM     84  O   UNL A   1      42.053  20.571  27.752  1.00  0.00    -0.237 OA
ATOM     85  O   UNL A   1      40.267  21.030  26.133  1.00  0.00    -0.744 OA
ENDBRANCH  79  82
ENDBRANCH  51  75
BRANCH  63  86
ATOM     86  C   UNL A   1      47.045  25.908  32.834  1.00  0.00     0.023 A 
ATOM     87  C   UNL A   1      48.261  26.495  32.435  1.00  0.00     0.012 A 
ATOM     88  C   UNL A   1      47.067  24.792  33.696  1.00  0.00     0.148 A 
ATOM     89  C   UNL A   1      49.479  25.962  32.857  1.00  0.00     0.002 A 
ATOM     90  C   UNL A   1      48.281  24.299  34.157  1.00  0.00     0.091 A 
ATOM     91  F   UNL A   1      45.899  24.241  34.056  1.00  0.00    -0.205 F 
ATOM     92  C   UNL A   1      49.488  24.873  33.727  1.00  0.00     0.022 A 
BRANCH  90  93
ATOM     93  S   UNL A   1      48.392  22.966  35.356  1.00  0.00     0.127 S 
ATOM     94  O   UNL A   1      49.838  22.849  35.538  1.00  0.00    -0.237 OA
ATOM     95  O   UNL A   1      47.675  23.523  36.503  1.00  0.00    -0.237 OA
ATOM     96  O   UNL A   1      47.748  21.814  34.739  1.00  0.00    -0.744 OA
ENDBRANCH  90  93
ENDBRANCH  63  86
ENDBRANCH  37  38
ENDBRANCH  30  32
ENDBRANCH  29  30
ENDBRANCH  28  29
ENDBRANCH  27  28
ENDBRANCH  26  27
ENDBRANCH  25  26
ENDBRANCH  24  25
ENDBRANCH   1  24
TORSDOF 26
ENDMDL
MODEL 2
REMARK VINA RESULT:      -9.0      1.926      2.329
REMARK SMILES C[C@@H]1CCC[C@H](NC(=O)N(C)CC(=O)OCCOCCOCCOCCOC(=O)c2ccc(-c3c4nc(c(-c5cccc(S(=O)(=O)[O-])c5F)c5ccc([nH]5)c(-c5cccc(S(=O)(=O)[O-])c5F)c5nc(c(-c6cccc(S(=O)(=O)[O-])c6F)c6ccc3[nH]6)C=C5)C=C4)cc2)C1
REMARK SMILES IDX 21 1 20 2 19 3 18 4 17 5 16 6 15 7 13 8 14 9 12 10 10 11
REMARK SMILES IDX 11 12 8 13 7 14 9 16 6 17 1 18 2 19 3 20 93 21 4 22 5 23
REMARK SMILES IDX 22 24 23 25 24 26 25 27 26 28 27 29 28 30 29 31 30 32 31 33
REMARK SMILES IDX 92 34 32 35 91 36 33 37 34 38 35 39 85 40 36 41 90 42 84 43
REMARK SMILES IDX 86 44 37 45 89 46 83 47 82 48 38 50 70 51 50 52 69 53 51 54
REMARK SMILES IDX 54 55 68 56 87 57 52 58 53 59 67 61 88 62 55 63 39 64 40 65
REMARK SMILES IDX 48 66 41 67 43 68 49 69 42 70 44 71 45 72 46 73 47 74 71 75
REMARK SMILES IDX 72 76 80 77 73 78 75 79 81 80 74 81 76 82 77 83 78 84 79 85
REMARK SMILES IDX 56 86 57 87 65 88 58 89 60 90 66 91 59 92 61 93 62 94 63 95
REMARK SMILES IDX 64 96
REMARK H PARENT 7 15 86 49 54 60
REMARK Flexibility Score: inf
ROOT
ATOM      1  O   UNL A   1      29.700  29.401  23.484  1.00  0.00    -0.377 OA
ENDROOT
BRANCH   1   2
ATOM      2  C   UNL A   1      29.151  28.180  23.030  1.00  0.00     0.188 C 
BRANCH   2   3
ATOM      3  C   UNL A   1      29.719  26.831  23.511  1.00  0.00     0.188 C 
BRANCH   3   4
ATOM      4  O   UNL A   1      29.057  26.297  24.640  1.00  0.00    -0.376 OA
BRANCH   4   5
ATOM      5  C   UNL A   1      29.774  25.785  25.746  1.00  0.00     0.202 C 
BRANCH   5   6
ATOM      6  C   UNL A   1      31.225  26.179  26.096  1.00  0.00     0.261 C 
BRANCH   6   7
ATOM      7  O   UNL A   1      32.288  25.403  25.518  1.00  0.00    -0.462 OA
BRANCH   7   8
ATOM      8  C   UNL A   1      33.548  25.896  25.544  1.00  0.00     0.325 C 
ATOM      9  O   UNL A   1      33.871  26.895  26.179  1.00  0.00    -0.250 OA
BRANCH   8  10
ATOM     10  C   UNL A   1      34.574  25.028  24.765  1.00  0.00     0.243 C 
BRANCH  10  11
ATOM     11  N   UNL A   1      34.881  23.616  25.136  1.00  0.00    -0.317 N 
ATOM     12  C   UNL A   1      34.960  23.373  26.566  1.00  0.00     0.149 C 
BRANCH  11  13
ATOM     13  C   UNL A   1      35.012  22.698  24.127  1.00  0.00     0.317 C 
ATOM     14  N   UNL A   1      34.318  21.541  24.038  1.00  0.00    -0.335 N 
ATOM     15  H   UNL A   1      34.835  20.844  23.574  1.00  0.00     0.165 HD
ATOM     16  O   UNL A   1      35.866  22.851  23.244  1.00  0.00    -0.249 OA
BRANCH  14  17
ATOM     17  C   UNL A   1      32.998  21.050  24.452  1.00  0.00     0.084 C 
ATOM     18  C   UNL A   1      34.658  18.103  24.439  1.00  0.00     0.008 C 
ATOM     19  C   UNL A   1      33.216  18.445  24.803  1.00  0.00    -0.012 C 
ATOM     20  C   UNL A   1      32.288  18.239  23.605  1.00  0.00     0.003 C 
ATOM     21  C   UNL A   1      33.073  19.854  25.422  1.00  0.00     0.028 C 
ATOM     22  C   UNL A   1      32.426  19.358  22.581  1.00  0.00     0.002 C 
ATOM     23  C   UNL A   1      32.145  20.722  23.209  1.00  0.00     0.025 C 
ENDBRANCH  14  17
ENDBRANCH  11  13
ENDBRANCH  10  11
ENDBRANCH   8  10
ENDBRANCH   7   8
ENDBRANCH   6   7
ENDBRANCH   5   6
ENDBRANCH   4   5
ENDBRANCH   3   4
ENDBRANCH   2   3
ENDBRANCH   1   2
BRANCH   1  24
ATOM     24  C   UNL A   1      30.992  29.331  24.034  1.00  0.00     0.188 C 
BRANCH  24  25
ATOM     25  C   UNL A   1      31.165  30.286  25.225  1.00  0.00     0.188 C 
BRANCH  25  26
ATOM     26  O   UNL A   1      31.982  29.934  26.337  1.00  0.00    -0.376 OA
BRANCH  26  27
ATOM     27  C   UNL A   1      33.260  30.528  26.535  1.00  0.00     0.202 C 
BRANCH  27  28
ATOM     28  C   UNL A   1      33.917  30.696  27.917  1.00  0.00     0.261 C 
BRANCH  28  29
ATOM     29  O   UNL A   1      34.315  32.018  28.290  1.00  0.00    -0.460 OA
BRANCH  29  30
ATOM     30  C   UNL A   1      34.871  32.167  29.507  1.00  0.00     0.338 C 
ATOM     31  O   UNL A   1      34.384  32.728  30.479  1.00  0.00    -0.246 OA
BRANCH  30  32
ATOM     32  C   UNL A   1      36.116  31.378  29.553  1.00  0.00     0.060 A 
ATOM     33  C   UNL A   1      36.176  30.292  30.436  1.00  0.00     0.016 A 
ATOM     34  C   UNL A   1      37.214  31.702  28.753  1.00  0.00     0.016 A 
ATOM     35  C   UNL A   1      37.339  29.533  30.535  1.00  0.00     0.010 A 
ATOM     36  C   UNL A   1      38.395  30.962  28.879  1.00  0.00     0.010 A 
ATOM     37  C   UNL A   1      38.469  29.896  29.794  1.00  0.00    -0.014 A 
BRANCH  37  38
ATOM     38  C   UNL A   1      39.775  29.291  30.144  1.00  0.00     0.031 A 
ATOM     39  C   UNL A   1      40.568  29.908  31.261  1.00  0.00     0.074 A 
ATOM     40  C   UNL A   1      40.237  28.201  29.505  1.00  0.00     0.049 A 
ATOM     41  N   UNL A   1      41.730  29.557  31.744  1.00  0.00    -0.248 NA
ATOM     42  C   UNL A   1      39.969  31.081  31.921  1.00  0.00     0.031 C 
ATOM     43  C   UNL A   1      39.552  27.504  28.419  1.00  0.00     0.029 A 
ATOM     44  N   UNL A   1      41.410  27.507  29.669  1.00  0.00    -0.354 N 
ATOM     45  C   UNL A   1      42.017  30.482  32.741  1.00  0.00     0.074 A 
ATOM     46  C   UNL A   1      40.911  31.413  32.790  1.00  0.00     0.031 C 
ATOM     47  C   UNL A   1      40.336  26.500  27.988  1.00  0.00     0.029 A 
ATOM     48  C   UNL A   1      41.585  26.501  28.749  1.00  0.00     0.049 A 
ATOM     49  H   UNL A   1      42.063  27.710  30.378  1.00  0.00     0.167 HD
ATOM     50  C   UNL A   1      43.100  30.546  33.549  1.00  0.00     0.034 A 
ATOM     51  C   UNL A   1      42.645  25.697  28.530  1.00  0.00     0.034 A 
ATOM     52  C   UNL A   1      44.195  29.618  33.502  1.00  0.00     0.049 A 
ATOM     53  C   UNL A   1      43.858  25.812  29.418  1.00  0.00     0.074 A 
ATOM     54  C   UNL A   1      45.311  29.566  34.318  1.00  0.00     0.029 A 
ATOM     55  N   UNL A   1      44.328  28.596  32.575  1.00  0.00    -0.354 N 
ATOM     56  N   UNL A   1      44.061  26.608  30.439  1.00  0.00    -0.248 NA
ATOM     57  C   UNL A   1      44.976  24.897  29.143  1.00  0.00     0.031 C 
ATOM     58  C   UNL A   1      46.145  28.545  33.850  1.00  0.00     0.029 A 
ATOM     59  C   UNL A   1      45.523  27.927  32.778  1.00  0.00     0.049 A 
ATOM     60  H   UNL A   1      43.670  28.380  31.876  1.00  0.00     0.167 HD
ATOM     61  C   UNL A   1      45.311  26.270  30.947  1.00  0.00     0.074 A 
ATOM     62  C   UNL A   1      45.810  25.180  30.134  1.00  0.00     0.031 C 
ATOM     63  C   UNL A   1      45.991  26.816  31.987  1.00  0.00     0.034 A 
BRANCH  50  64
ATOM     64  C   UNL A   1      43.158  31.670  34.549  1.00  0.00     0.023 A 
ATOM     65  C   UNL A   1      43.805  32.879  34.218  1.00  0.00     0.012 A 
ATOM     66  C   UNL A   1      42.529  31.543  35.802  1.00  0.00     0.148 A 
ATOM     67  C   UNL A   1      43.855  33.929  35.133  1.00  0.00     0.002 A 
ATOM     68  C   UNL A   1      42.539  32.612  36.689  1.00  0.00     0.091 A 
ATOM     69  F   UNL A   1      41.941  30.378  36.107  1.00  0.00    -0.205 F 
ATOM     70  C   UNL A   1      43.213  33.800  36.362  1.00  0.00     0.022 A 
BRANCH  68  71
ATOM     71  S   UNL A   1      41.673  32.572  38.260  1.00  0.00     0.127 S 
ATOM     72  O   UNL A   1      42.411  31.533  38.978  1.00  0.00    -0.237 OA
ATOM     73  O   UNL A   1      41.887  33.930  38.762  1.00  0.00    -0.237 OA
ATOM     74  O   UNL A   1      40.287  32.250  37.950  1.00  0.00    -0.744 OA
ENDBRANCH  68  71
ENDBRANCH  50  64
BRANCH  51  75
ATOM     75  C   UNL A   1      42.607  24.705  27.417  1.00  0.00     0.023 A 
ATOM     76  C   UNL A   1      43.374  24.922  26.256  1.00  0.00     0.012 A 
ATOM     77  C   UNL A   1      41.817  23.543  27.512  1.00  0.00     0.148 A 
ATOM     78  C   UNL A   1      43.331  24.013  25.197  1.00  0.00     0.002 A 
ATOM     79  C   UNL A   1      41.825  22.613  26.480  1.00  0.00     0.091 A 
ATOM     80  F   UNL A   1      41.082  23.364  28.618  1.00  0.00    -0.205 F 
ATOM     81  C   UNL A   1      42.565  22.855  25.313  1.00  0.00     0.022 A 
BRANCH  79  82
ATOM     82  S   UNL A   1      40.977  21.035  26.598  1.00  0.00     0.127 S 
ATOM     83  O   UNL A   1      41.842  20.168  25.802  1.00  0.00    -0.237 OA
ATOM     84  O   UNL A   1      41.011  20.786  28.040  1.00  0.00    -0.237 OA
ATOM     85  O   UNL A   1      39.642  21.259  26.060  1.00  0.00    -0.744 OA
ENDBRANCH  79  82
ENDBRANCH  51  75
BRANCH  63  86
ATOM     86  C   UNL A   1      47.335  26.230  32.340  1.00  0.00     0.023 A 
ATOM     87  C   UNL A   1      47.432  25.219  33.315  1.00  0.00     0.012 A 
ATOM     88  C   UNL A   1      48.492  26.625  31.637  1.00  0.00     0.148 A 
ATOM     89  C   UNL A   1      48.663  24.633  33.611  1.00  0.00     0.002 A 
ATOM     90  C   UNL A   1      49.706  26.000  31.898  1.00  0.00     0.091 A 
ATOM     91  F   UNL A   1      48.382  27.597  30.721  1.00  0.00    -0.205 F 
ATOM     92  C   UNL A   1      49.796  25.015  32.894  1.00  0.00     0.022 A 
BRANCH  90  93
ATOM     93  S   UNL A   1      51.196  26.352  30.960  1.00  0.00     0.127 S 
ATOM     94  O   UNL A   1      52.108  25.319  31.452  1.00  0.00    -0.237 OA
ATOM     95  O   UNL A   1      50.745  26.162  29.581  1.00  0.00    -0.237 OA
ATOM     96  O   UNL A   1      51.570  27.720  31.293  1.00  0.00    -0.744 OA
ENDBRANCH  90  93
ENDBRANCH  63  86
ENDBRANCH  37  38
ENDBRANCH  30  32
ENDBRANCH  29  30
ENDBRANCH  28  29
ENDBRANCH  27  28
ENDBRANCH  26  27
ENDBRANCH  25  26
ENDBRANCH  24  25
ENDBRANCH   1  24
TORSDOF 26
ENDMDL
MODEL 3
REMARK VINA RESULT:      -8.7      1.590      2.240
REMARK SMILES C[C@@H]1CCC[C@H](NC(=O)N(C)CC(=O)OCCOCCOCCOCCOC(=O)c2ccc(-c3c4nc(c(-c5cccc(S(=O)(=O)[O-])c5F)c5ccc([nH]5)c(-c5cccc(S(=O)(=O)[O-])c5F)c5nc(c(-c6cccc(S(=O)(=O)[O-])c6F)c6ccc3[nH]6)C=C5)C=C4)cc2)C1
REMARK SMILES IDX 21 1 20 2 19 3 18 4 17 5 16 6 15 7 13 8 14 9 12 10 10 11
REMARK SMILES IDX 11 12 8 13 7 14 9 16 6 17 1 18 2 19 3 20 93 21 4 22 5 23
REMARK SMILES IDX 22 24 23 25 24 26 25 27 26 28 27 29 28 30 29 31 30 32 31 33
REMARK SMILES IDX 92 34 32 35 91 36 33 37 34 38 35 39 85 40 36 41 90 42 84 43
REMARK SMILES IDX 86 44 37 45 89 46 83 47 82 48 38 50 70 51 50 52 69 53 51 54
REMARK SMILES IDX 54 55 68 56 87 57 52 58 53 59 67 61 88 62 55 63 39 64 40 65
REMARK SMILES IDX 48 66 41 67 43 68 49 69 42 70 44 71 45 72 46 73 47 74 71 75
REMARK SMILES IDX 72 76 80 77 73 78 75 79 81 80 74 81 76 82 77 83 78 84 79 85
REMARK SMILES IDX 56 86 57 87 65 88 58 89 60 90 66 91 59 92 61 93 62 94 63 95
REMARK SMILES IDX 64 96
REMARK H PARENT 7 15 86 49 54 60
REMARK Flexibility Score: inf
ROOT
ATOM      1  O   UNL A   1      29.572  25.567  23.855  1.00  0.00    -0.377 OA
ENDROOT
BRANCH   1   2
ATOM      2  C   UNL A   1      30.258  24.603  23.081  1.00  0.00     0.188 C 
BRANCH   2   3
ATOM      3  C   UNL A   1      31.763  24.753  22.786  1.00  0.00     0.188 C 
BRANCH   3   4
ATOM      4  O   UNL A   1      32.595  24.509  23.903  1.00  0.00    -0.376 OA
BRANCH   4   5
ATOM      5  C   UNL A   1      33.835  25.171  24.061  1.00  0.00     0.202 C 
BRANCH   5   6
ATOM      6  C   UNL A   1      35.182  24.448  24.277  1.00  0.00     0.261 C 
BRANCH   6   7
ATOM      7  O   UNL A   1      35.803  24.558  25.568  1.00  0.00    -0.462 OA
BRANCH   7   8
ATOM      8  C   UNL A   1      36.399  23.468  26.104  1.00  0.00     0.325 C 
ATOM      9  O   UNL A   1      37.613  23.294  26.107  1.00  0.00    -0.250 OA
BRANCH   8  10
ATOM     10  C   UNL A   1      35.409  22.492  26.797  1.00  0.00     0.243 C 
BRANCH  10  11
ATOM     11  N   UNL A   1      34.466  21.625  26.033  1.00  0.00    -0.317 N 
ATOM     12  C   UNL A   1      33.063  21.852  26.333  1.00  0.00     0.149 C 
BRANCH  11  13
ATOM     13  C   UNL A   1      34.991  20.751  25.117  1.00  0.00     0.317 C 
ATOM     14  N   UNL A   1      34.486  19.529  24.835  1.00  0.00    -0.335 N 
ATOM     15  H   UNL A   1      35.190  18.903  24.552  1.00  0.00     0.165 HD
ATOM     16  O   UNL A   1      36.047  21.016  24.528  1.00  0.00    -0.249 OA
BRANCH  14  17
ATOM     17  C   UNL A   1      33.165  18.889  24.840  1.00  0.00     0.084 C 
ATOM     18  C   UNL A   1      35.052  16.167  25.522  1.00  0.00     0.008 C 
ATOM     19  C   UNL A   1      33.542  16.339  25.393  1.00  0.00    -0.012 C 
ATOM     20  C   UNL A   1      33.073  15.996  23.978  1.00  0.00     0.003 C 
ATOM     21  C   UNL A   1      33.055  17.731  25.852  1.00  0.00     0.028 C 
ATOM     22  C   UNL A   1      33.409  17.103  22.986  1.00  0.00     0.002 C 
ATOM     23  C   UNL A   1      32.794  18.435  23.413  1.00  0.00     0.025 C 
ENDBRANCH  14  17
ENDBRANCH  11  13
ENDBRANCH  10  11
ENDBRANCH   8  10
ENDBRANCH   7   8
ENDBRANCH   6   7
ENDBRANCH   5   6
ENDBRANCH   4   5
ENDBRANCH   3   4
ENDBRANCH   2   3
ENDBRANCH   1   2
BRANCH   1  24
ATOM     24  C   UNL A   1      30.008  26.895  23.716  1.00  0.00     0.188 C 
BRANCH  24  25
ATOM     25  C   UNL A   1      30.713  27.408  24.982  1.00  0.00     0.188 C 
BRANCH  25  26
ATOM     26  O   UNL A   1      31.689  28.443  24.913  1.00  0.00    -0.376 OA
BRANCH  26  27
ATOM     27  C   UNL A   1      32.002  29.242  26.047  1.00  0.00     0.202 C 
BRANCH  27  28
ATOM     28  C   UNL A   1      33.304  30.052  26.185  1.00  0.00     0.261 C 
BRANCH  28  29
ATOM     29  O   UNL A   1      33.968  30.002  27.451  1.00  0.00    -0.460 OA
BRANCH  29  30
ATOM     30  C   UNL A   1      34.644  31.104  27.828  1.00  0.00     0.338 C 
ATOM     31  O   UNL A   1      34.268  32.265  27.752  1.00  0.00    -0.246 OA
BRANCH  30  32
ATOM     32  C   UNL A   1      35.871  30.682  28.532  1.00  0.00     0.060 A 
ATOM     33  C   UNL A   1      37.087  31.255  28.136  1.00  0.00     0.016 A 
ATOM     34  C   UNL A   1      35.834  29.732  29.555  1.00  0.00     0.016 A 
ATOM     35  C   UNL A   1      38.275  30.870  28.751  1.00  0.00     0.010 A 
ATOM     36  C   UNL A   1      37.032  29.319  30.147  1.00  0.00     0.010 A 
ATOM     37  C   UNL A   1      38.258  29.864  29.724  1.00  0.00    -0.014 A 
BRANCH  37  38
ATOM     38  C   UNL A   1      39.540  29.246  30.131  1.00  0.00     0.031 A 
ATOM     39  C   UNL A   1      40.276  29.839  31.300  1.00  0.00     0.074 A 
ATOM     40  C   UNL A   1      40.032  28.165  29.499  1.00  0.00     0.049 A 
ATOM     41  N   UNL A   1      41.409  29.474  31.839  1.00  0.00    -0.248 NA
ATOM     42  C   UNL A   1      39.647  31.003  31.949  1.00  0.00     0.031 C 
ATOM     43  C   UNL A   1      39.403  27.491  28.365  1.00  0.00     0.029 A 
ATOM     44  N   UNL A   1      41.191  27.463  29.712  1.00  0.00    -0.354 N 
ATOM     45  C   UNL A   1      41.645  30.379  32.866  1.00  0.00     0.074 A 
ATOM     46  C   UNL A   1      40.543  31.314  32.873  1.00  0.00     0.031 C 
ATOM     47  C   UNL A   1      40.204  26.491  27.958  1.00  0.00     0.029 A 
ATOM     48  C   UNL A   1      41.410  26.472  28.785  1.00  0.00     0.049 A 
ATOM     49  H   UNL A   1      41.806  27.649  30.459  1.00  0.00     0.167 HD
ATOM     50  C   UNL A   1      42.685  30.423  33.732  1.00  0.00     0.034 A 
ATOM     51  C   UNL A   1      42.477  25.666  28.608  1.00  0.00     0.034 A 
ATOM     52  C   UNL A   1      43.776  29.489  33.727  1.00  0.00     0.049 A 
ATOM     53  C   UNL A   1      43.641  25.760  29.562  1.00  0.00     0.074 A 
ATOM     54  C   UNL A   1      44.847  29.417  34.599  1.00  0.00     0.029 A 
ATOM     55  N   UNL A   1      43.954  28.484  32.790  1.00  0.00    -0.354 N 
ATOM     56  N   UNL A   1      43.794  26.536  30.607  1.00  0.00    -0.248 NA
ATOM     57  C   UNL A   1      44.768  24.843  29.330  1.00  0.00     0.031 C 
ATOM     58  C   UNL A   1      45.700  28.401  34.158  1.00  0.00     0.029 A 
ATOM     59  C   UNL A   1      45.133  27.805  33.043  1.00  0.00     0.049 A 
ATOM     60  H   UNL A   1      43.334  28.283  32.052  1.00  0.00     0.167 HD
ATOM     61  C   UNL A   1      45.013  26.182  31.174  1.00  0.00     0.074 A 
ATOM     62  C   UNL A   1      45.550  25.105  30.369  1.00  0.00     0.031 C 
ATOM     63  C   UNL A   1      45.638  26.706  32.259  1.00  0.00     0.034 A 
BRANCH  50  64
ATOM     64  C   UNL A   1      42.694  31.528  34.753  1.00  0.00     0.023 A 
ATOM     65  C   UNL A   1      43.649  32.562  34.669  1.00  0.00     0.012 A 
ATOM     66  C   UNL A   1      41.722  31.566  35.772  1.00  0.00     0.148 A 
ATOM     67  C   UNL A   1      43.659  33.595  35.605  1.00  0.00     0.002 A 
ATOM     68  C   UNL A   1      41.707  32.626  36.670  1.00  0.00     0.091 A 
ATOM     69  F   UNL A   1      40.838  30.562  35.849  1.00  0.00    -0.205 F 
ATOM     70  C   UNL A   1      42.683  33.634  36.596  1.00  0.00     0.022 A 
BRANCH  68  71
ATOM     71  S   UNL A   1      40.442  32.806  37.930  1.00  0.00     0.127 S 
ATOM     72  O   UNL A   1      39.442  31.835  37.487  1.00  0.00    -0.237 OA
ATOM     73  O   UNL A   1      41.164  32.426  39.145  1.00  0.00    -0.237 OA
ATOM     74  O   UNL A   1      40.020  34.199  37.884  1.00  0.00    -0.744 OA
ENDBRANCH  68  71
ENDBRANCH  50  64
BRANCH  51  75
ATOM     75  C   UNL A   1      42.494  24.695  27.476  1.00  0.00     0.023 A 
ATOM     76  C   UNL A   1      43.060  25.065  26.241  1.00  0.00     0.012 A 
ATOM     77  C   UNL A   1      41.958  23.401  27.627  1.00  0.00     0.148 A 
ATOM     78  C   UNL A   1      43.064  24.174  25.167  1.00  0.00     0.002 A 
ATOM     79  C   UNL A   1      42.018  22.499  26.573  1.00  0.00     0.091 A 
ATOM     80  F   UNL A   1      41.409  23.075  28.806  1.00  0.00    -0.205 F 
ATOM     81  C   UNL A   1      42.552  22.889  25.336  1.00  0.00     0.022 A 
BRANCH  79  82
ATOM     82  S   UNL A   1      41.506  20.786  26.740  1.00  0.00     0.127 S 
ATOM     83  O   UNL A   1      41.975  20.208  25.484  1.00  0.00    -0.237 OA
ATOM     84  O   UNL A   1      42.251  20.368  27.929  1.00  0.00    -0.237 OA
ATOM     85  O   UNL A   1      40.061  20.818  26.918  1.00  0.00    -0.744 OA
ENDBRANCH  79  82
ENDBRANCH  51  75
BRANCH  63  86
ATOM     86  C   UNL A   1      46.959  26.107  32.672  1.00  0.00     0.023 A 
ATOM     87  C   UNL A   1      48.166  26.675  32.220  1.00  0.00     0.012 A 
ATOM     88  C   UNL A   1      47.002  25.031  33.583  1.00  0.00     0.148 A 
ATOM     89  C   UNL A   1      49.393  26.161  32.638  1.00  0.00     0.002 A 
ATOM     90  C   UNL A   1      48.227  24.558  34.037  1.00  0.00     0.091 A 
ATOM     91  F   UNL A   1      45.842  24.496  33.993  1.00  0.00    -0.205 F 
ATOM     92  C   UNL A   1      49.423  25.112  33.555  1.00  0.00     0.022 A 
BRANCH  90  93
ATOM     93  S   UNL A   1      48.365  23.280  35.292  1.00  0.00     0.127 S 
ATOM     94  O   UNL A   1      47.824  22.116  34.591  1.00  0.00    -0.237 OA
ATOM     95  O   UNL A   1      49.809  23.234  35.527  1.00  0.00    -0.237 OA
ATOM     96  O   UNL A   1      47.580  23.742  36.428  1.00  0.00    -0.744 OA
ENDBRANCH  90  93
ENDBRANCH  63  86
ENDBRANCH  37  38
ENDBRANCH  30  32
ENDBRANCH  29  30
ENDBRANCH  28  29
ENDBRANCH  27  28
ENDBRANCH  26  27
ENDBRANCH  25  26
ENDBRANCH  24  25
ENDBRANCH   1  24
TORSDOF 26
ENDMDL
