MODEL 1
REMARK VINA RESULT:      -9.3      0.000      0.000
REMARK SMILES C[C@H]1Oc2ccccc2C=C1/C=C/C(=O)N[C@H](C(=O)OCCOCCOCCOCCOC(=O)c1ccc(-c2c3nc(c(-c4cccc(S(=O)(=O)[O-])c4F)c4ccc([nH]4)c(-c4cccc(S(=O)(=O)[O-])c4F)c4nc(c(-c5cccc(S(=O)(=O)[O-])c5F)c5ccc2[nH]5)C=C4)C=C3)cc1)c1ccccc1
REMARK SMILES IDX 26 1 25 2 24 3 23 4 22 5 21 6 20 7 18 8 19 9 17 10 16 11
REMARK SMILES IDX 14 12 15 13 13 15 12 16 11 17 1 18 2 19 3 20 4 21 10 22 5 23
REMARK SMILES IDX 9 24 6 25 8 26 7 27 98 28 99 29 103 30 100 31 102 32 101 33
REMARK SMILES IDX 27 34 28 35 29 36 30 37 31 38 32 39 33 40 34 41 35 42 36 43
REMARK SMILES IDX 97 44 37 45 96 46 38 47 39 48 40 49 90 50 41 51 95 52 89 53
REMARK SMILES IDX 91 54 42 55 94 56 88 57 87 58 43 60 75 61 55 62 74 63 56 64
REMARK SMILES IDX 59 65 73 66 92 67 57 68 58 69 72 71 93 72 60 73 44 74 45 75
REMARK SMILES IDX 53 76 46 77 48 78 54 79 47 80 49 81 50 82 51 83 52 84 76 85
REMARK SMILES IDX 77 86 85 87 78 88 80 89 86 90 79 91 81 92 82 93 83 94 84 95
REMARK SMILES IDX 61 96 62 97 70 98 63 99 65 100 71 101 64 102 66 103 67 104
REMARK SMILES IDX 68 105 69 106
REMARK H PARENT 16 14 91 59 59 70
REMARK Flexibility Score: inf
ROOT
ATOM      1  O   UNL A   1      35.973  23.344  24.922  1.00  0.00    -0.377 OA
ENDROOT
BRANCH   1   2
ATOM      2  C   UNL A   1      35.028  24.190  25.542  1.00  0.00     0.188 C 
BRANCH   2   3
ATOM      3  C   UNL A   1      33.602  24.282  24.987  1.00  0.00     0.188 C 
BRANCH   3   4
ATOM      4  O   UNL A   1      33.323  23.347  23.960  1.00  0.00    -0.376 OA
BRANCH   4   5
ATOM      5  C   UNL A   1      33.366  23.818  22.623  1.00  0.00     0.202 C 
BRANCH   5   6
ATOM      6  C   UNL A   1      33.042  25.314  22.372  1.00  0.00     0.261 C 
BRANCH   6   7
ATOM      7  O   UNL A   1      31.652  25.708  22.211  1.00  0.00    -0.461 OA
BRANCH   7   8
ATOM      8  C   UNL A   1      31.378  27.005  22.495  1.00  0.00     0.333 C 
ATOM      9  O   UNL A   1      32.260  27.850  22.426  1.00  0.00    -0.249 OA
BRANCH   8  10
ATOM     10  C   UNL A   1      29.940  27.256  23.031  1.00  0.00     0.223 C 
BRANCH  10  11
ATOM     11  N   UNL A   1      29.901  26.495  24.292  1.00  0.00    -0.335 N 
ATOM     12  C   UNL A   1      30.630  26.534  25.440  1.00  0.00     0.244 C 
ATOM     13  O   UNL A   1      30.341  25.700  26.303  1.00  0.00    -0.270 OA
ATOM     14  H   UNL A   1      29.194  25.809  24.307  1.00  0.00     0.165 HD
BRANCH  12  15
ATOM     15  C   UNL A   1      31.754  27.479  25.756  1.00  0.00     0.071 C 
ATOM     16  C   UNL A   1      31.873  28.407  26.722  1.00  0.00     0.013 C 
BRANCH  16  17
ATOM     17  C   UNL A   1      32.956  29.340  26.994  1.00  0.00    -0.007 C 
ATOM     18  C   UNL A   1      31.535  31.493  27.078  1.00  0.00     0.058 C 
ATOM     19  C   UNL A   1      32.772  30.786  26.508  1.00  0.00     0.200 C 
ATOM     20  O   UNL A   1      33.867  31.694  26.756  1.00  0.00    -0.485 OA
ATOM     21  C   UNL A   1      34.872  31.286  27.578  1.00  0.00     0.127 A 
ATOM     22  C   UNL A   1      34.044  28.965  27.676  1.00  0.00     0.019 C 
ATOM     23  C   UNL A   1      35.782  32.268  27.969  1.00  0.00     0.047 A 
ATOM     24  C   UNL A   1      35.032  29.972  28.012  1.00  0.00     0.017 A 
ATOM     25  C   UNL A   1      36.861  31.934  28.788  1.00  0.00     0.004 A 
ATOM     26  C   UNL A   1      36.130  29.633  28.808  1.00  0.00     0.012 A 
ATOM     27  C   UNL A   1      37.041  30.614  29.198  1.00  0.00     0.001 A 
ENDBRANCH  16  17
ENDBRANCH  12  15
ENDBRANCH  10  11
BRANCH  10  28
ATOM     28  C   UNL A   1      29.384  28.692  23.176  1.00  0.00    -0.014 A 
ATOM     29  C   UNL A   1      30.131  29.746  23.723  1.00  0.00     0.006 A 
ATOM     30  C   UNL A   1      28.093  29.044  22.724  1.00  0.00     0.006 A 
ATOM     31  C   UNL A   1      29.554  30.997  24.008  1.00  0.00     0.000 A 
ATOM     32  C   UNL A   1      27.502  30.278  23.018  1.00  0.00     0.000 A 
ATOM     33  C   UNL A   1      28.225  31.247  23.695  1.00  0.00     0.000 A 
ENDBRANCH  10  28
ENDBRANCH   8  10
ENDBRANCH   7   8
ENDBRANCH   6   7
ENDBRANCH   5   6
ENDBRANCH   4   5
ENDBRANCH   3   4
ENDBRANCH   2   3
ENDBRANCH   1   2
BRANCH   1  34
ATOM     34  C   UNL A   1      37.355  23.585  25.113  1.00  0.00     0.188 C 
BRANCH  34  35
ATOM     35  C   UNL A   1      37.882  24.024  26.488  1.00  0.00     0.188 C 
BRANCH  35  36
ATOM     36  O   UNL A   1      39.269  23.779  26.701  1.00  0.00    -0.376 OA
BRANCH  36  37
ATOM     37  C   UNL A   1      40.134  24.880  26.465  1.00  0.00     0.202 C 
BRANCH  37  38
ATOM     38  C   UNL A   1      41.508  24.490  25.909  1.00  0.00     0.261 C 
BRANCH  38  39
ATOM     39  O   UNL A   1      42.136  25.467  25.065  1.00  0.00    -0.460 OA
BRANCH  39  40
ATOM     40  C   UNL A   1      43.394  25.864  25.383  1.00  0.00     0.338 C 
ATOM     41  O   UNL A   1      44.429  25.434  24.930  1.00  0.00    -0.246 OA
BRANCH  40  42
ATOM     42  C   UNL A   1      43.267  27.072  26.235  1.00  0.00     0.060 A 
ATOM     43  C   UNL A   1      43.919  27.141  27.469  1.00  0.00     0.016 A 
ATOM     44  C   UNL A   1      42.410  28.104  25.827  1.00  0.00     0.016 A 
ATOM     45  C   UNL A   1      43.752  28.269  28.274  1.00  0.00     0.010 A 
ATOM     46  C   UNL A   1      42.230  29.226  26.642  1.00  0.00     0.010 A 
ATOM     47  C   UNL A   1      42.933  29.333  27.852  1.00  0.00    -0.014 A 
BRANCH  47  48
ATOM     48  C   UNL A   1      43.066  30.646  28.526  1.00  0.00     0.031 A 
ATOM     49  C   UNL A   1      42.163  31.111  29.625  1.00  0.00     0.074 A 
ATOM     50  C   UNL A   1      44.066  31.439  28.091  1.00  0.00     0.049 A 
ATOM     51  N   UNL A   1      42.287  32.174  30.377  1.00  0.00    -0.248 NA
ATOM     52  C   UNL A   1      40.971  30.303  29.915  1.00  0.00     0.031 C 
ATOM     53  C   UNL A   1      44.957  31.117  26.973  1.00  0.00     0.029 A 
ATOM     54  N   UNL A   1      44.506  32.661  28.528  1.00  0.00    -0.354 N 
ATOM     55  C   UNL A   1      41.193  32.171  31.232  1.00  0.00     0.074 A 
ATOM     56  C   UNL A   1      40.403  31.006  30.892  1.00  0.00     0.031 C 
ATOM     57  C   UNL A   1      45.852  32.103  26.827  1.00  0.00     0.029 A 
ATOM     58  C   UNL A   1      45.597  33.127  27.835  1.00  0.00     0.049 A 
ATOM     59  H   UNL A   1      44.082  33.156  29.265  1.00  0.00     0.167 HD
ATOM     60  C   UNL A   1      40.898  33.052  32.219  1.00  0.00     0.034 A 
ATOM     61  C   UNL A   1      46.333  34.241  28.001  1.00  0.00     0.034 A 
ATOM     62  C   UNL A   1      41.704  34.199  32.555  1.00  0.00     0.049 A 
ATOM     63  C   UNL A   1      46.010  35.171  29.129  1.00  0.00     0.074 A 
ATOM     64  C   UNL A   1      41.525  35.095  33.596  1.00  0.00     0.029 A 
ATOM     65  N   UNL A   1      42.824  34.620  31.856  1.00  0.00    -0.354 N 
ATOM     66  N   UNL A   1      45.071  35.058  30.036  1.00  0.00    -0.248 NA
ATOM     67  C   UNL A   1      46.861  36.358  29.282  1.00  0.00     0.031 C 
ATOM     68  C   UNL A   1      42.528  36.065  33.517  1.00  0.00     0.029 A 
ATOM     69  C   UNL A   1      43.340  35.766  32.437  1.00  0.00     0.049 A 
ATOM     70  H   UNL A   1      43.198  34.170  31.064  1.00  0.00     0.167 HD
ATOM     71  C   UNL A   1      45.231  36.148  30.882  1.00  0.00     0.074 A 
ATOM     72  C   UNL A   1      46.363  36.904  30.386  1.00  0.00     0.031 C 
ATOM     73  C   UNL A   1      44.493  36.489  31.964  1.00  0.00     0.034 A 
BRANCH  60  74
ATOM     74  C   UNL A   1      39.694  32.790  33.083  1.00  0.00     0.023 A 
ATOM     75  C   UNL A   1      39.874  32.123  34.311  1.00  0.00     0.012 A 
ATOM     76  C   UNL A   1      38.434  33.338  32.769  1.00  0.00     0.148 A 
ATOM     77  C   UNL A   1      38.819  32.003  35.214  1.00  0.00     0.002 A 
ATOM     78  C   UNL A   1      37.393  33.235  33.686  1.00  0.00     0.091 A 
ATOM     79  F   UNL A   1      38.287  33.967  31.594  1.00  0.00    -0.205 F 
ATOM     80  C   UNL A   1      37.584  32.567  34.907  1.00  0.00     0.022 A 
BRANCH  78  81
ATOM     81  S   UNL A   1      35.779  33.978  33.418  1.00  0.00     0.127 S 
ATOM     82  O   UNL A   1      35.085  33.623  34.657  1.00  0.00    -0.237 OA
ATOM     83  O   UNL A   1      36.111  35.398  33.292  1.00  0.00    -0.237 OA
ATOM     84  O   UNL A   1      35.245  33.363  32.212  1.00  0.00    -0.744 OA
ENDBRANCH  78  81
ENDBRANCH  60  74
BRANCH  61  85
ATOM     85  C   UNL A   1      47.511  34.454  27.122  1.00  0.00     0.023 A 
ATOM     86  C   UNL A   1      47.361  35.218  25.950  1.00  0.00     0.012 A 
ATOM     87  C   UNL A   1      48.790  34.006  27.501  1.00  0.00     0.148 A 
ATOM     88  C   UNL A   1      48.469  35.530  25.164  1.00  0.00     0.002 A 
ATOM     89  C   UNL A   1      49.895  34.354  26.736  1.00  0.00     0.091 A 
ATOM     90  F   UNL A   1      48.900  33.288  28.628  1.00  0.00    -0.205 F 
ATOM     91  C   UNL A   1      49.736  35.108  25.562  1.00  0.00     0.022 A 
BRANCH  89  92
ATOM     92  S   UNL A   1      51.577  33.956  27.225  1.00  0.00     0.127 S 
ATOM     93  O   UNL A   1      51.576  32.498  27.131  1.00  0.00    -0.237 OA
ATOM     94  O   UNL A   1      52.357  34.641  26.193  1.00  0.00    -0.237 OA
ATOM     95  O   UNL A   1      51.738  34.497  28.567  1.00  0.00    -0.744 OA
ENDBRANCH  89  92
ENDBRANCH  61  85
BRANCH  73  96
ATOM     96  C   UNL A   1      44.869  37.737  32.714  1.00  0.00     0.023 A 
ATOM     97  C   UNL A   1      45.845  37.663  33.726  1.00  0.00     0.012 A 
ATOM     98  C   UNL A   1      44.368  38.991  32.317  1.00  0.00     0.148 A 
ATOM     99  C   UNL A   1      46.319  38.825  34.334  1.00  0.00     0.002 A 
ATOM    100  C   UNL A   1      44.869  40.146  32.905  1.00  0.00     0.091 A 
ATOM    101  F   UNL A   1      43.435  39.029  31.355  1.00  0.00    -0.205 F 
ATOM    102  C   UNL A   1      45.841  40.065  33.915  1.00  0.00     0.022 A 
BRANCH 100 103
ATOM    103  S   UNL A   1      44.373  41.793  32.387  1.00  0.00     0.127 S 
ATOM    104  O   UNL A   1      44.804  42.607  33.523  1.00  0.00    -0.237 OA
ATOM    105  O   UNL A   1      45.159  41.981  31.167  1.00  0.00    -0.237 OA
ATOM    106  O   UNL A   1      42.931  41.739  32.184  1.00  0.00    -0.744 OA
ENDBRANCH 100 103
ENDBRANCH  73  96
ENDBRANCH  47  48
ENDBRANCH  40  42
ENDBRANCH  39  40
ENDBRANCH  38  39
ENDBRANCH  37  38
ENDBRANCH  36  37
ENDBRANCH  35  36
ENDBRANCH  34  35
ENDBRANCH   1  34
TORSDOF 27
ENDMDL
MODEL 2
REMARK VINA RESULT:      -9.3      5.029      8.439
REMARK SMILES C[C@H]1Oc2ccccc2C=C1/C=C/C(=O)N[C@H](C(=O)OCCOCCOCCOCCOC(=O)c1ccc(-c2c3nc(c(-c4cccc(S(=O)(=O)[O-])c4F)c4ccc([nH]4)c(-c4cccc(S(=O)(=O)[O-])c4F)c4nc(c(-c5cccc(S(=O)(=O)[O-])c5F)c5ccc2[nH]5)C=C4)C=C3)cc1)c1ccccc1
REMARK SMILES IDX 26 1 25 2 24 3 23 4 22 5 21 6 20 7 18 8 19 9 17 10 16 11
REMARK SMILES IDX 14 12 15 13 13 15 12 16 11 17 1 18 2 19 3 20 4 21 10 22 5 23
REMARK SMILES IDX 9 24 6 25 8 26 7 27 98 28 99 29 103 30 100 31 102 32 101 33
REMARK SMILES IDX 27 34 28 35 29 36 30 37 31 38 32 39 33 40 34 41 35 42 36 43
REMARK SMILES IDX 97 44 37 45 96 46 38 47 39 48 40 49 90 50 41 51 95 52 89 53
REMARK SMILES IDX 91 54 42 55 94 56 88 57 87 58 43 60 75 61 55 62 74 63 56 64
REMARK SMILES IDX 59 65 73 66 92 67 57 68 58 69 72 71 93 72 60 73 44 74 45 75
REMARK SMILES IDX 53 76 46 77 48 78 54 79 47 80 49 81 50 82 51 83 52 84 76 85
REMARK SMILES IDX 77 86 85 87 78 88 80 89 86 90 79 91 81 92 82 93 83 94 84 95
REMARK SMILES IDX 61 96 62 97 70 98 63 99 65 100 71 101 64 102 66 103 67 104
REMARK SMILES IDX 68 105 69 106
REMARK H PARENT 16 14 91 59 59 70
REMARK Flexibility Score: inf
ROOT
ATOM      1  O   UNL A   1      37.136  22.002  24.692  1.00  0.00    -0.377 OA
ENDROOT
BRANCH   1   2
ATOM      2  C   UNL A   1      35.934  22.296  25.371  1.00  0.00     0.188 C 
BRANCH   2   3
ATOM      3  C   UNL A   1      35.546  23.754  25.644  1.00  0.00     0.188 C 
BRANCH   3   4
ATOM      4  O   UNL A   1      35.046  24.438  24.508  1.00  0.00    -0.376 OA
BRANCH   4   5
ATOM      5  C   UNL A   1      34.272  25.604  24.740  1.00  0.00     0.202 C 
BRANCH   5   6
ATOM      6  C   UNL A   1      33.938  26.504  23.522  1.00  0.00     0.261 C 
BRANCH   6   7
ATOM      7  O   UNL A   1      32.652  27.181  23.488  1.00  0.00    -0.461 OA
BRANCH   7   8
ATOM      8  C   UNL A   1      31.684  26.560  22.770  1.00  0.00     0.333 C 
ATOM      9  O   UNL A   1      31.964  25.987  21.726  1.00  0.00    -0.249 OA
BRANCH   8  10
ATOM     10  C   UNL A   1      30.243  26.774  23.312  1.00  0.00     0.223 C 
BRANCH  10  11
ATOM     11  N   UNL A   1      30.367  26.493  24.753  1.00  0.00    -0.335 N 
ATOM     12  C   UNL A   1      30.573  25.360  25.479  1.00  0.00     0.244 C 
ATOM     13  O   UNL A   1      30.585  25.489  26.707  1.00  0.00    -0.270 OA
ATOM     14  H   UNL A   1      30.283  27.299  25.312  1.00  0.00     0.165 HD
BRANCH  12  15
ATOM     15  C   UNL A   1      30.776  23.974  24.937  1.00  0.00     0.071 C 
ATOM     16  C   UNL A   1      31.779  23.099  25.122  1.00  0.00     0.013 C 
BRANCH  16  17
ATOM     17  C   UNL A   1      31.977  21.771  24.561  1.00  0.00    -0.007 C 
ATOM     18  C   UNL A   1      32.939  22.505  22.281  1.00  0.00     0.058 C 
ATOM     19  C   UNL A   1      31.916  21.641  23.032  1.00  0.00     0.200 C 
ATOM     20  O   UNL A   1      32.083  20.313  22.489  1.00  0.00    -0.485 OA
ATOM     21  C   UNL A   1      32.495  19.320  23.325  1.00  0.00     0.127 A 
ATOM     22  C   UNL A   1      32.245  20.719  25.342  1.00  0.00     0.019 C 
ATOM     23  C   UNL A   1      32.861  18.120  22.718  1.00  0.00     0.047 A 
ATOM     24  C   UNL A   1      32.545  19.447  24.712  1.00  0.00     0.017 A 
ATOM     25  C   UNL A   1      33.269  17.038  23.499  1.00  0.00     0.004 A 
ATOM     26  C   UNL A   1      32.926  18.353  25.494  1.00  0.00     0.012 A 
ATOM     27  C   UNL A   1      33.289  17.152  24.888  1.00  0.00     0.001 A 
ENDBRANCH  16  17
ENDBRANCH  12  15
ENDBRANCH  10  11
BRANCH  10  28
ATOM     28  C   UNL A   1      29.467  28.079  23.017  1.00  0.00    -0.014 A 
ATOM     29  C   UNL A   1      28.095  28.225  23.278  1.00  0.00     0.006 A 
ATOM     30  C   UNL A   1      30.103  29.229  22.502  1.00  0.00     0.006 A 
ATOM     31  C   UNL A   1      27.371  29.349  22.844  1.00  0.00     0.000 A 
ATOM     32  C   UNL A   1      29.391  30.346  22.050  1.00  0.00     0.000 A 
ATOM     33  C   UNL A   1      28.013  30.391  22.190  1.00  0.00     0.000 A 
ENDBRANCH  10  28
ENDBRANCH   8  10
ENDBRANCH   7   8
ENDBRANCH   6   7
ENDBRANCH   5   6
ENDBRANCH   4   5
ENDBRANCH   3   4
ENDBRANCH   2   3
ENDBRANCH   1   2
BRANCH   1  34
ATOM     34  C   UNL A   1      38.149  21.266  25.355  1.00  0.00     0.188 C 
BRANCH  34  35
ATOM     35  C   UNL A   1      39.081  21.963  26.359  1.00  0.00     0.188 C 
BRANCH  35  36
ATOM     36  O   UNL A   1      40.456  21.967  25.991  1.00  0.00    -0.376 OA
BRANCH  36  37
ATOM     37  C   UNL A   1      41.321  22.712  26.836  1.00  0.00     0.202 C 
BRANCH  37  38
ATOM     38  C   UNL A   1      42.424  23.473  26.092  1.00  0.00     0.261 C 
BRANCH  38  39
ATOM     39  O   UNL A   1      42.084  24.801  25.667  1.00  0.00    -0.460 OA
BRANCH  39  40
ATOM     40  C   UNL A   1      43.030  25.766  25.787  1.00  0.00     0.338 C 
ATOM     41  O   UNL A   1      43.722  26.220  24.906  1.00  0.00    -0.246 OA
BRANCH  40  42
ATOM     42  C   UNL A   1      42.917  26.318  27.160  1.00  0.00     0.060 A 
ATOM     43  C   UNL A   1      44.035  26.859  27.801  1.00  0.00     0.016 A 
ATOM     44  C   UNL A   1      41.695  26.206  27.838  1.00  0.00     0.016 A 
ATOM     45  C   UNL A   1      43.917  27.334  29.108  1.00  0.00     0.010 A 
ATOM     46  C   UNL A   1      41.583  26.668  29.154  1.00  0.00     0.010 A 
ATOM     47  C   UNL A   1      42.683  27.272  29.782  1.00  0.00    -0.014 A 
BRANCH  47  48
ATOM     48  C   UNL A   1      42.488  28.103  30.993  1.00  0.00     0.031 A 
ATOM     49  C   UNL A   1      43.230  27.889  32.275  1.00  0.00     0.074 A 
ATOM     50  C   UNL A   1      41.580  29.095  30.895  1.00  0.00     0.049 A 
ATOM     51  N   UNL A   1      43.242  28.651  33.338  1.00  0.00    -0.248 NA
ATOM     52  C   UNL A   1      44.049  26.675  32.394  1.00  0.00     0.031 C 
ATOM     53  C   UNL A   1      40.744  29.344  29.717  1.00  0.00     0.029 A 
ATOM     54  N   UNL A   1      41.209  30.072  31.780  1.00  0.00    -0.354 N 
ATOM     55  C   UNL A   1      44.065  28.016  34.258  1.00  0.00     0.074 A 
ATOM     56  C   UNL A   1      44.521  26.792  33.632  1.00  0.00     0.031 C 
ATOM     57  C   UNL A   1      39.976  30.418  29.942  1.00  0.00     0.029 A 
ATOM     58  C   UNL A   1      40.261  30.931  31.278  1.00  0.00     0.049 A 
ATOM     59  H   UNL A   1      41.585  30.151  32.686  1.00  0.00     0.167 HD
ATOM     60  C   UNL A   1      44.416  28.435  35.499  1.00  0.00     0.034 A 
ATOM     61  C   UNL A   1      39.696  32.027  31.816  1.00  0.00     0.034 A 
ATOM     62  C   UNL A   1      43.965  29.664  36.101  1.00  0.00     0.049 A 
ATOM     63  C   UNL A   1      40.139  32.491  33.169  1.00  0.00     0.074 A 
ATOM     64  C   UNL A   1      44.340  30.208  37.319  1.00  0.00     0.029 A 
ATOM     65  N   UNL A   1      43.034  30.529  35.549  1.00  0.00    -0.354 N 
ATOM     66  N   UNL A   1      41.049  31.968  33.953  1.00  0.00    -0.248 NA
ATOM     67  C   UNL A   1      39.510  33.708  33.699  1.00  0.00     0.031 C 
ATOM     68  C   UNL A   1      43.625  31.394  37.508  1.00  0.00     0.029 A 
ATOM     69  C   UNL A   1      42.815  31.596  36.404  1.00  0.00     0.049 A 
ATOM     70  H   UNL A   1      42.593  30.403  34.677  1.00  0.00     0.167 HD
ATOM     71  C   UNL A   1      41.119  32.803  35.060  1.00  0.00     0.074 A 
ATOM     72  C   UNL A   1      40.167  33.872  34.842  1.00  0.00     0.031 C 
ATOM     73  C   UNL A   1      41.898  32.680  36.160  1.00  0.00     0.034 A 
BRANCH  60  74
ATOM     74  C   UNL A   1      45.403  27.614  36.284  1.00  0.00     0.023 A 
ATOM     75  C   UNL A   1      46.779  27.875  36.125  1.00  0.00     0.012 A 
ATOM     76  C   UNL A   1      44.978  26.718  37.285  1.00  0.00     0.148 A 
ATOM     77  C   UNL A   1      47.718  27.255  36.947  1.00  0.00     0.002 A 
ATOM     78  C   UNL A   1      45.920  26.122  38.118  1.00  0.00     0.091 A 
ATOM     79  F   UNL A   1      43.664  26.485  37.417  1.00  0.00    -0.205 F 
ATOM     80  C   UNL A   1      47.289  26.388  37.948  1.00  0.00     0.022 A 
BRANCH  78  81
ATOM     81  S   UNL A   1      45.472  25.037  39.479  1.00  0.00     0.127 S 
ATOM     82  O   UNL A   1      44.894  23.897  38.766  1.00  0.00    -0.237 OA
ATOM     83  O   UNL A   1      46.770  24.772  40.101  1.00  0.00    -0.237 OA
ATOM     84  O   UNL A   1      44.538  25.788  40.304  1.00  0.00    -0.744 OA
ENDBRANCH  78  81
ENDBRANCH  60  74
BRANCH  61  85
ATOM     85  C   UNL A   1      38.726  32.802  31.001  1.00  0.00     0.023 A 
ATOM     86  C   UNL A   1      39.209  33.651  29.988  1.00  0.00     0.012 A 
ATOM     87  C   UNL A   1      37.339  32.610  31.145  1.00  0.00     0.148 A 
ATOM     88  C   UNL A   1      38.322  34.304  29.133  1.00  0.00     0.002 A 
ATOM     89  C   UNL A   1      36.464  33.231  30.265  1.00  0.00     0.091 A 
ATOM     90  F   UNL A   1      36.913  31.786  32.113  1.00  0.00    -0.205 F 
ATOM     91  C   UNL A   1      36.953  34.086  29.264  1.00  0.00     0.022 A 
BRANCH  89  92
ATOM     92  S   UNL A   1      34.694  32.925  30.280  1.00  0.00     0.127 S 
ATOM     93  O   UNL A   1      34.165  34.222  29.869  1.00  0.00    -0.237 OA
ATOM     94  O   UNL A   1      34.568  31.861  29.283  1.00  0.00    -0.237 OA
ATOM     95  O   UNL A   1      34.374  32.521  31.642  1.00  0.00    -0.744 OA
ENDBRANCH  89  92
ENDBRANCH  61  85
BRANCH  73  96
ATOM     96  C   UNL A   1      41.777  33.725  37.234  1.00  0.00     0.023 A 
ATOM     97  C   UNL A   1      40.839  33.543  38.269  1.00  0.00     0.012 A 
ATOM     98  C   UNL A   1      42.685  34.799  37.296  1.00  0.00     0.148 A 
ATOM     99  C   UNL A   1      40.807  34.419  39.353  1.00  0.00     0.002 A 
ATOM    100  C   UNL A   1      42.669  35.648  38.396  1.00  0.00     0.091 A 
ATOM    101  F   UNL A   1      43.562  34.950  36.293  1.00  0.00    -0.205 F 
ATOM    102  C   UNL A   1      41.729  35.462  39.423  1.00  0.00     0.022 A 
BRANCH 100 103
ATOM    103  S   UNL A   1      43.858  36.976  38.617  1.00  0.00     0.127 S 
ATOM    104  O   UNL A   1      43.560  37.837  37.473  1.00  0.00    -0.237 OA
ATOM    105  O   UNL A   1      43.467  37.526  39.915  1.00  0.00    -0.237 OA
ATOM    106  O   UNL A   1      45.175  36.351  38.588  1.00  0.00    -0.744 OA
ENDBRANCH 100 103
ENDBRANCH  73  96
ENDBRANCH  47  48
ENDBRANCH  40  42
ENDBRANCH  39  40
ENDBRANCH  38  39
ENDBRANCH  37  38
ENDBRANCH  36  37
ENDBRANCH  35  36
ENDBRANCH  34  35
ENDBRANCH   1  34
TORSDOF 27
ENDMDL
MODEL 3
REMARK VINA RESULT:      -8.9      2.429      4.635
REMARK SMILES C[C@H]1Oc2ccccc2C=C1/C=C/C(=O)N[C@H](C(=O)OCCOCCOCCOCCOC(=O)c1ccc(-c2c3nc(c(-c4cccc(S(=O)(=O)[O-])c4F)c4ccc([nH]4)c(-c4cccc(S(=O)(=O)[O-])c4F)c4nc(c(-c5cccc(S(=O)(=O)[O-])c5F)c5ccc2[nH]5)C=C4)C=C3)cc1)c1ccccc1
REMARK SMILES IDX 26 1 25 2 24 3 23 4 22 5 21 6 20 7 18 8 19 9 17 10 16 11
REMARK SMILES IDX 14 12 15 13 13 15 12 16 11 17 1 18 2 19 3 20 4 21 10 22 5 23
REMARK SMILES IDX 9 24 6 25 8 26 7 27 98 28 99 29 103 30 100 31 102 32 101 33
REMARK SMILES IDX 27 34 28 35 29 36 30 37 31 38 32 39 33 40 34 41 35 42 36 43
REMARK SMILES IDX 97 44 37 45 96 46 38 47 39 48 40 49 90 50 41 51 95 52 89 53
REMARK SMILES IDX 91 54 42 55 94 56 88 57 87 58 43 60 75 61 55 62 74 63 56 64
REMARK SMILES IDX 59 65 73 66 92 67 57 68 58 69 72 71 93 72 60 73 44 74 45 75
REMARK SMILES IDX 53 76 46 77 48 78 54 79 47 80 49 81 50 82 51 83 52 84 76 85
REMARK SMILES IDX 77 86 85 87 78 88 80 89 86 90 79 91 81 92 82 93 83 94 84 95
REMARK SMILES IDX 61 96 62 97 70 98 63 99 65 100 71 101 64 102 66 103 67 104
REMARK SMILES IDX 68 105 69 106
REMARK H PARENT 16 14 91 59 59 70
REMARK Flexibility Score: inf
ROOT
ATOM      1  O   UNL A   1      36.913  22.391  25.186  1.00  0.00    -0.377 OA
ENDROOT
BRANCH   1   2
ATOM      2  C   UNL A   1      35.656  22.310  25.824  1.00  0.00     0.188 C 
BRANCH   2   3
ATOM      3  C   UNL A   1      34.881  23.591  26.153  1.00  0.00     0.188 C 
BRANCH   3   4
ATOM      4  O   UNL A   1      34.875  24.545  25.106  1.00  0.00    -0.376 OA
BRANCH   4   5
ATOM      5  C   UNL A   1      34.061  25.694  25.277  1.00  0.00     0.202 C 
BRANCH   5   6
ATOM      6  C   UNL A   1      34.001  26.718  24.114  1.00  0.00     0.261 C 
BRANCH   6   7
ATOM      7  O   UNL A   1      32.743  27.397  23.847  1.00  0.00    -0.461 OA
BRANCH   7   8
ATOM      8  C   UNL A   1      31.932  26.787  22.949  1.00  0.00     0.333 C 
ATOM      9  O   UNL A   1      32.391  26.343  21.906  1.00  0.00    -0.249 OA
BRANCH   8  10
ATOM     10  C   UNL A   1      30.419  26.848  23.304  1.00  0.00     0.223 C 
BRANCH  10  11
ATOM     11  N   UNL A   1      30.385  26.520  24.740  1.00  0.00    -0.335 N 
ATOM     12  C   UNL A   1      30.478  25.359  25.445  1.00  0.00     0.244 C 
ATOM     13  O   UNL A   1      30.367  25.451  26.671  1.00  0.00    -0.270 OA
ATOM     14  H   UNL A   1      30.270  27.312  25.314  1.00  0.00     0.165 HD
BRANCH  12  15
ATOM     15  C   UNL A   1      30.690  23.983  24.881  1.00  0.00     0.071 C 
ATOM     16  C   UNL A   1      31.694  23.108  25.060  1.00  0.00     0.013 C 
BRANCH  16  17
ATOM     17  C   UNL A   1      31.901  21.790  24.479  1.00  0.00    -0.007 C 
ATOM     18  C   UNL A   1      32.909  22.566  22.232  1.00  0.00     0.058 C 
ATOM     19  C   UNL A   1      31.870  21.689  22.946  1.00  0.00     0.200 C 
ATOM     20  O   UNL A   1      32.047  20.371  22.382  1.00  0.00    -0.485 OA
ATOM     21  C   UNL A   1      32.440  19.363  23.207  1.00  0.00     0.127 A 
ATOM     22  C   UNL A   1      32.152  20.723  25.245  1.00  0.00     0.019 C 
ATOM     23  C   UNL A   1      32.817  18.173  22.585  1.00  0.00     0.047 A 
ATOM     24  C   UNL A   1      32.463  19.463  24.597  1.00  0.00     0.017 A 
ATOM     25  C   UNL A   1      33.208  17.076  23.353  1.00  0.00     0.004 A 
ATOM     26  C   UNL A   1      32.826  18.354  25.365  1.00  0.00     0.012 A 
ATOM     27  C   UNL A   1      33.200  17.163  24.744  1.00  0.00     0.001 A 
ENDBRANCH  16  17
ENDBRANCH  12  15
ENDBRANCH  10  11
BRANCH  10  28
ATOM     28  C   UNL A   1      29.567  28.088  22.948  1.00  0.00    -0.014 A 
ATOM     29  C   UNL A   1      28.204  28.193  23.269  1.00  0.00     0.006 A 
ATOM     30  C   UNL A   1      30.120  29.219  22.310  1.00  0.00     0.006 A 
ATOM     31  C   UNL A   1      27.405  29.244  22.786  1.00  0.00     0.000 A 
ATOM     32  C   UNL A   1      29.333  30.263  21.810  1.00  0.00     0.000 A 
ATOM     33  C   UNL A   1      27.963  30.257  22.019  1.00  0.00     0.000 A 
ENDBRANCH  10  28
ENDBRANCH   8  10
ENDBRANCH   7   8
ENDBRANCH   6   7
ENDBRANCH   5   6
ENDBRANCH   4   5
ENDBRANCH   3   4
ENDBRANCH   2   3
ENDBRANCH   1   2
BRANCH   1  34
ATOM     34  C   UNL A   1      38.084  22.537  25.970  1.00  0.00     0.188 C 
BRANCH  34  35
ATOM     35  C   UNL A   1      38.500  23.920  26.492  1.00  0.00     0.188 C 
BRANCH  35  36
ATOM     36  O   UNL A   1      39.891  24.206  26.381  1.00  0.00    -0.376 OA
BRANCH  36  37
ATOM     37  C   UNL A   1      40.304  25.469  26.880  1.00  0.00     0.202 C 
BRANCH  37  38
ATOM     38  C   UNL A   1      41.810  25.579  27.141  1.00  0.00     0.261 C 
BRANCH  38  39
ATOM     39  O   UNL A   1      42.562  26.292  26.147  1.00  0.00    -0.460 OA
BRANCH  39  40
ATOM     40  C   UNL A   1      43.882  26.504  26.382  1.00  0.00     0.338 C 
ATOM     41  O   UNL A   1      44.801  25.781  26.075  1.00  0.00    -0.246 OA
BRANCH  40  42
ATOM     42  C   UNL A   1      44.015  27.888  26.900  1.00  0.00     0.060 A 
ATOM     43  C   UNL A   1      43.213  28.915  26.394  1.00  0.00     0.016 A 
ATOM     44  C   UNL A   1      45.019  28.169  27.838  1.00  0.00     0.016 A 
ATOM     45  C   UNL A   1      43.383  30.217  26.865  1.00  0.00     0.010 A 
ATOM     46  C   UNL A   1      45.199  29.477  28.297  1.00  0.00     0.010 A 
ATOM     47  C   UNL A   1      44.355  30.503  27.842  1.00  0.00    -0.014 A 
BRANCH  47  48
ATOM     48  C   UNL A   1      44.266  31.781  28.585  1.00  0.00     0.031 A 
ATOM     49  C   UNL A   1      43.258  32.048  29.660  1.00  0.00     0.074 A 
ATOM     50  C   UNL A   1      45.156  32.734  28.242  1.00  0.00     0.049 A 
ATOM     51  N   UNL A   1      43.193  33.074  30.469  1.00  0.00    -0.248 NA
ATOM     52  C   UNL A   1      42.186  31.063  29.849  1.00  0.00     0.031 C 
ATOM     53  C   UNL A   1      46.132  32.607  27.156  1.00  0.00     0.029 A 
ATOM     54  N   UNL A   1      45.393  33.979  28.760  1.00  0.00    -0.354 N 
ATOM     55  C   UNL A   1      42.076  32.866  31.266  1.00  0.00     0.074 A 
ATOM     56  C   UNL A   1      41.480  31.620  30.829  1.00  0.00     0.031 C 
ATOM     57  C   UNL A   1      46.878  33.718  27.103  1.00  0.00     0.029 A 
ATOM     58  C   UNL A   1      46.432  34.636  28.146  1.00  0.00     0.049 A 
ATOM     59  H   UNL A   1      44.870  34.366  29.498  1.00  0.00     0.167 HD
ATOM     60  C   UNL A   1      41.613  33.638  32.280  1.00  0.00     0.034 A 
ATOM     61  C   UNL A   1      46.989  35.833  28.404  1.00  0.00     0.034 A 
ATOM     62  C   UNL A   1      42.227  34.868  32.712  1.00  0.00     0.049 A 
ATOM     63  C   UNL A   1      46.486  36.642  29.559  1.00  0.00     0.074 A 
ATOM     64  C   UNL A   1      41.874  35.670  33.786  1.00  0.00     0.029 A 
ATOM     65  N   UNL A   1      43.302  35.486  32.092  1.00  0.00    -0.354 N 
ATOM     66  N   UNL A   1      45.536  36.345  30.411  1.00  0.00    -0.248 NA
ATOM     67  C   UNL A   1      47.146  37.929  29.813  1.00  0.00     0.031 C 
ATOM     68  C   UNL A   1      42.727  36.777  33.805  1.00  0.00     0.029 A 
ATOM     69  C   UNL A   1      43.619  36.660  32.753  1.00  0.00     0.049 A 
ATOM     70  H   UNL A   1      43.771  35.139  31.298  1.00  0.00     0.167 HD
ATOM     71  C   UNL A   1      45.497  37.396  31.317  1.00  0.00     0.074 A 
ATOM     72  C   UNL A   1      46.526  38.334  30.916  1.00  0.00     0.031 C 
ATOM     73  C   UNL A   1      44.672  37.566  32.376  1.00  0.00     0.034 A 
BRANCH  60  74
ATOM     74  C   UNL A   1      40.424  33.157  33.067  1.00  0.00     0.023 A 
ATOM     75  C   UNL A   1      39.134  33.365  32.541  1.00  0.00     0.012 A 
ATOM     76  C   UNL A   1      40.583  32.366  34.223  1.00  0.00     0.148 A 
ATOM     77  C   UNL A   1      38.018  32.796  33.153  1.00  0.00     0.002 A 
ATOM     78  C   UNL A   1      39.468  31.781  34.813  1.00  0.00     0.091 A 
ATOM     79  F   UNL A   1      41.821  32.183  34.705  1.00  0.00    -0.205 F 
ATOM     80  C   UNL A   1      38.185  31.997  34.281  1.00  0.00     0.022 A 
BRANCH  78  81
ATOM     81  S   UNL A   1      39.576  30.684  36.233  1.00  0.00     0.127 S 
ATOM     82  O   UNL A   1      40.166  31.568  37.240  1.00  0.00    -0.237 OA
ATOM     83  O   UNL A   1      38.172  30.345  36.467  1.00  0.00    -0.237 OA
ATOM     84  O   UNL A   1      40.416  29.570  35.820  1.00  0.00    -0.744 OA
ENDBRANCH  78  81
ENDBRANCH  60  74
BRANCH  61  85
ATOM     85  C   UNL A   1      48.159  36.263  27.597  1.00  0.00     0.023 A 
ATOM     86  C   UNL A   1      47.944  36.994  26.415  1.00  0.00     0.012 A 
ATOM     87  C   UNL A   1      49.474  36.054  28.056  1.00  0.00     0.148 A 
ATOM     88  C   UNL A   1      49.022  37.507  25.696  1.00  0.00     0.002 A 
ATOM     89  C   UNL A   1      50.541  36.603  27.357  1.00  0.00     0.091 A 
ATOM     90  F   UNL A   1      49.645  35.361  29.191  1.00  0.00    -0.205 F 
ATOM     91  C   UNL A   1      50.318  37.321  26.172  1.00  0.00     0.022 A 
BRANCH  89  92
ATOM     92  S   UNL A   1      52.234  36.515  27.949  1.00  0.00     0.127 S 
ATOM     93  O   UNL A   1      52.126  37.160  29.255  1.00  0.00    -0.237 OA
ATOM     94  O   UNL A   1      52.461  35.070  27.990  1.00  0.00    -0.237 OA
ATOM     95  O   UNL A   1      53.036  37.227  26.964  1.00  0.00    -0.744 OA
ENDBRANCH  89  92
ENDBRANCH  61  85
BRANCH  73  96
ATOM     96  C   UNL A   1      44.829  38.811  33.204  1.00  0.00     0.023 A 
ATOM     97  C   UNL A   1      45.833  38.859  34.190  1.00  0.00     0.012 A 
ATOM     98  C   UNL A   1      44.087  39.970  32.906  1.00  0.00     0.148 A 
ATOM     99  C   UNL A   1      46.097  40.047  34.870  1.00  0.00     0.002 A 
ATOM    100  C   UNL A   1      44.379  41.159  33.564  1.00  0.00     0.091 A 
ATOM    101  F   UNL A   1      43.134  39.892  31.966  1.00  0.00    -0.205 F 
ATOM    102  C   UNL A   1      45.380  41.198  34.548  1.00  0.00     0.022 A 
BRANCH 100 103
ATOM    103  S   UNL A   1      43.564  42.711  33.173  1.00  0.00     0.127 S 
ATOM    104  O   UNL A   1      43.770  42.800  31.727  1.00  0.00    -0.237 OA
ATOM    105  O   UNL A   1      42.183  42.443  33.577  1.00  0.00    -0.237 OA
ATOM    106  O   UNL A   1      44.243  43.736  33.955  1.00  0.00    -0.744 OA
ENDBRANCH 100 103
ENDBRANCH  73  96
ENDBRANCH  47  48
ENDBRANCH  40  42
ENDBRANCH  39  40
ENDBRANCH  38  39
ENDBRANCH  37  38
ENDBRANCH  36  37
ENDBRANCH  35  36
ENDBRANCH  34  35
ENDBRANCH   1  34
TORSDOF 27
ENDMDL
