MODEL 1
REMARK VINA RESULT:      -9.0      0.000      0.000
REMARK SMILES C[C@@H]1CN(C(=O)N2c3ccccc3C[C@@H]2C(=O)OCCOCCOCCOCCOC(=O)c2ccc(-c3c4nc(c(-c5cccc(S(=O)(=O)[O-])c5F)c5ccc([nH]5)c(-c5cccc(S(=O)(=O)[O-])c5F)c5nc(c(-c6cccc(S(=O)(=O)[O-])c6F)c6ccc3[nH]6)C=C5)C=C4)cc2)C[C@@H]1C
REMARK SMILES IDX 25 1 24 2 23 3 22 4 21 5 20 6 19 7 18 8 16 9 17 10 15 11
REMARK SMILES IDX 7 12 8 13 9 14 13 15 14 16 10 17 12 18 11 19 5 20 6 21 4 22
REMARK SMILES IDX 1 23 2 24 3 25 97 26 96 27 98 28 26 29 27 30 28 31 29 32
REMARK SMILES IDX 30 33 31 34 32 35 33 36 34 37 95 38 35 39 94 40 36 41 37 42
REMARK SMILES IDX 38 43 88 44 39 45 93 46 87 47 89 48 40 49 92 50 86 51 85 52
REMARK SMILES IDX 41 54 73 55 53 56 72 57 54 58 57 59 71 60 90 61 55 62 56 63
REMARK SMILES IDX 70 65 91 66 58 67 42 68 43 69 51 70 44 71 46 72 52 73 45 74
REMARK SMILES IDX 47 75 48 76 49 77 50 78 74 79 75 80 83 81 76 82 78 83 84 84
REMARK SMILES IDX 77 85 79 86 80 87 81 88 82 89 59 90 60 91 68 92 61 93 63 94
REMARK SMILES IDX 69 95 62 96 64 97 65 98 66 99 67 100
REMARK H PARENT 89 53 57 64
REMARK Flexibility Score: inf
ROOT
ATOM      1  C   UNL A   1      42.119  19.488  26.892  1.00  0.00     0.188 C 
ENDROOT
BRANCH   1   2
ATOM      2  O   UNL A   1      40.809  19.990  26.641  1.00  0.00    -0.377 OA
BRANCH   2   3
ATOM      3  C   UNL A   1      40.716  21.305  26.126  1.00  0.00     0.188 C 
BRANCH   3   4
ATOM      4  C   UNL A   1      39.272  21.828  26.132  1.00  0.00     0.188 C 
BRANCH   4   5
ATOM      5  O   UNL A   1      38.487  21.435  25.017  1.00  0.00    -0.376 OA
BRANCH   5   6
ATOM      6  C   UNL A   1      37.194  20.865  25.173  1.00  0.00     0.202 C 
BRANCH   6   7
ATOM      7  C   UNL A   1      35.869  21.654  25.197  1.00  0.00     0.261 C 
BRANCH   7   8
ATOM      8  O   UNL A   1      35.424  22.195  23.955  1.00  0.00    -0.462 OA
BRANCH   8   9
ATOM      9  C   UNL A   1      34.800  23.393  24.000  1.00  0.00     0.329 C 
ATOM     10  O   UNL A   1      35.241  24.378  24.579  1.00  0.00    -0.250 OA
BRANCH   9  11
ATOM     11  C   UNL A   1      33.494  23.314  23.192  1.00  0.00     0.206 C 
ATOM     12  N   UNL A   1      32.762  24.580  23.400  1.00  0.00    -0.279 N 
ATOM     13  C   UNL A   1      31.825  24.345  24.415  1.00  0.00     0.050 A 
ATOM     14  C   UNL A   1      30.986  25.225  25.062  1.00  0.00     0.027 A 
ATOM     15  C   UNL A   1      31.813  22.975  24.727  1.00  0.00    -0.021 A 
ATOM     16  C   UNL A   1      32.648  22.191  23.766  1.00  0.00     0.075 C 
ATOM     17  C   UNL A   1      30.227  24.727  26.126  1.00  0.00     0.002 A 
ATOM     18  C   UNL A   1      31.053  22.469  25.761  1.00  0.00     0.006 A 
ATOM     19  C   UNL A   1      30.277  23.367  26.484  1.00  0.00     0.000 A 
BRANCH  12  20
ATOM     20  C   UNL A   1      32.950  25.683  22.610  1.00  0.00     0.325 C 
ATOM     21  O   UNL A   1      33.212  25.555  21.411  1.00  0.00    -0.248 OA
BRANCH  20  22
ATOM     22  N   UNL A   1      33.012  26.924  23.214  1.00  0.00    -0.324 N 
ATOM     23  C   UNL A   1      31.290  29.702  24.969  1.00  0.00     0.010 C 
ATOM     24  C   UNL A   1      32.415  28.974  24.248  1.00  0.00     0.010 C 
ATOM     25  C   UNL A   1      31.898  27.853  23.343  1.00  0.00     0.125 C 
ATOM     26  C   UNL A   1      33.443  28.266  25.148  1.00  0.00     0.010 C 
ATOM     27  C   UNL A   1      34.055  27.235  24.187  1.00  0.00     0.125 C 
ATOM     28  C   UNL A   1      32.854  27.608  26.396  1.00  0.00     0.010 C 
ENDBRANCH  20  22
ENDBRANCH  12  20
ENDBRANCH   9  11
ENDBRANCH   8   9
ENDBRANCH   7   8
ENDBRANCH   6   7
ENDBRANCH   5   6
ENDBRANCH   4   5
ENDBRANCH   3   4
ENDBRANCH   2   3
ENDBRANCH   1   2
BRANCH   1  29
ATOM     29  C   UNL A   1      42.947  18.814  25.767  1.00  0.00     0.188 C 
BRANCH  29  30
ATOM     30  O   UNL A   1      43.521  19.701  24.815  1.00  0.00    -0.376 OA
BRANCH  30  31
ATOM     31  C   UNL A   1      44.925  19.878  24.786  1.00  0.00     0.202 C 
BRANCH  31  32
ATOM     32  C   UNL A   1      45.512  21.083  25.539  1.00  0.00     0.261 C 
BRANCH  32  33
ATOM     33  O   UNL A   1      45.609  22.305  24.796  1.00  0.00    -0.460 OA
BRANCH  33  34
ATOM     34  C   UNL A   1      44.458  22.923  24.458  1.00  0.00     0.338 C 
ATOM     35  O   UNL A   1      43.745  22.672  23.500  1.00  0.00    -0.246 OA
BRANCH  34  36
ATOM     36  C   UNL A   1      44.090  23.826  25.569  1.00  0.00     0.060 A 
ATOM     37  C   UNL A   1      44.480  25.170  25.511  1.00  0.00     0.016 A 
ATOM     38  C   UNL A   1      43.341  23.352  26.649  1.00  0.00     0.016 A 
ATOM     39  C   UNL A   1      44.159  26.038  26.554  1.00  0.00     0.010 A 
ATOM     40  C   UNL A   1      43.044  24.216  27.706  1.00  0.00     0.010 A 
ATOM     41  C   UNL A   1      43.485  25.551  27.680  1.00  0.00    -0.014 A 
BRANCH  41  42
ATOM     42  C   UNL A   1      43.435  26.368  28.915  1.00  0.00     0.031 A 
ATOM     43  C   UNL A   1      42.198  27.186  29.168  1.00  0.00     0.074 A 
ATOM     44  C   UNL A   1      44.459  26.395  29.786  1.00  0.00     0.049 A 
ATOM     45  N   UNL A   1      41.939  28.020  30.140  1.00  0.00    -0.248 NA
ATOM     46  C   UNL A   1      41.103  27.046  28.190  1.00  0.00     0.031 C 
ATOM     47  C   UNL A   1      45.699  25.631  29.661  1.00  0.00     0.029 A 
ATOM     48  N   UNL A   1      44.624  27.121  30.939  1.00  0.00    -0.354 N 
ATOM     49  C   UNL A   1      40.679  28.539  29.867  1.00  0.00     0.074 A 
ATOM     50  C   UNL A   1      40.220  27.923  28.642  1.00  0.00     0.031 C 
ATOM     51  C   UNL A   1      46.512  25.953  30.683  1.00  0.00     0.029 A 
ATOM     52  C   UNL A   1      45.865  26.969  31.513  1.00  0.00     0.049 A 
ATOM     53  H   UNL A   1      43.921  27.696  31.320  1.00  0.00     0.167 HD
ATOM     54  C   UNL A   1      39.966  29.444  30.574  1.00  0.00     0.034 A 
ATOM     55  C   UNL A   1      46.420  27.602  32.565  1.00  0.00     0.034 A 
ATOM     56  C   UNL A   1      40.416  30.039  31.801  1.00  0.00     0.049 A 
ATOM     57  C   UNL A   1      45.613  28.634  33.315  1.00  0.00     0.074 A 
ATOM     58  C   UNL A   1      39.739  30.920  32.625  1.00  0.00     0.029 A 
ATOM     59  N   UNL A   1      41.664  29.836  32.369  1.00  0.00    -0.354 N 
ATOM     60  N   UNL A   1      44.377  29.023  33.116  1.00  0.00    -0.248 NA
ATOM     61  C   UNL A   1      46.269  29.293  34.456  1.00  0.00     0.031 C 
ATOM     62  C   UNL A   1      40.597  31.288  33.666  1.00  0.00     0.029 A 
ATOM     63  C   UNL A   1      41.787  30.594  33.519  1.00  0.00     0.049 A 
ATOM     64  H   UNL A   1      42.359  29.241  32.006  1.00  0.00     0.167 HD
ATOM     65  C   UNL A   1      44.093  29.931  34.131  1.00  0.00     0.074 A 
ATOM     66  C   UNL A   1      45.282  30.025  34.952  1.00  0.00     0.031 C 
ATOM     67  C   UNL A   1      42.954  30.631  34.360  1.00  0.00     0.034 A 
BRANCH  54  68
ATOM     68  C   UNL A   1      38.623  29.860  30.037  1.00  0.00     0.023 A 
ATOM     69  C   UNL A   1      37.559  28.936  30.000  1.00  0.00     0.012 A 
ATOM     70  C   UNL A   1      38.400  31.191  29.637  1.00  0.00     0.148 A 
ATOM     71  C   UNL A   1      36.300  29.328  29.546  1.00  0.00     0.002 A 
ATOM     72  C   UNL A   1      37.132  31.586  29.234  1.00  0.00     0.091 A 
ATOM     73  F   UNL A   1      39.434  32.045  29.657  1.00  0.00    -0.205 F 
ATOM     74  C   UNL A   1      36.083  30.654  29.176  1.00  0.00     0.022 A 
BRANCH  72  75
ATOM     75  S   UNL A   1      36.733  33.287  28.821  1.00  0.00     0.127 S 
ATOM     76  O   UNL A   1      38.059  33.849  28.571  1.00  0.00    -0.237 OA
ATOM     77  O   UNL A   1      35.904  33.125  27.626  1.00  0.00    -0.237 OA
ATOM     78  O   UNL A   1      36.035  33.831  29.978  1.00  0.00    -0.744 OA
ENDBRANCH  72  75
ENDBRANCH  54  68
BRANCH  55  79
ATOM     79  C   UNL A   1      47.813  27.279  32.995  1.00  0.00     0.023 A 
ATOM     80  C   UNL A   1      48.024  26.322  34.007  1.00  0.00     0.012 A 
ATOM     81  C   UNL A   1      48.925  27.929  32.425  1.00  0.00     0.148 A 
ATOM     82  C   UNL A   1      49.310  26.052  34.475  1.00  0.00     0.002 A 
ATOM     83  C   UNL A   1      50.208  27.613  32.855  1.00  0.00     0.091 A 
ATOM     84  F   UNL A   1      48.704  28.849  31.475  1.00  0.00    -0.205 F 
ATOM     85  C   UNL A   1      50.402  26.691  33.895  1.00  0.00     0.022 A 
BRANCH  83  86
ATOM     86  S   UNL A   1      51.679  28.294  32.082  1.00  0.00     0.127 S 
ATOM     87  O   UNL A   1      51.711  27.572  30.812  1.00  0.00    -0.237 OA
ATOM     88  O   UNL A   1      51.333  29.712  31.976  1.00  0.00    -0.237 OA
ATOM     89  O   UNL A   1      52.774  28.010  32.999  1.00  0.00    -0.744 OA
ENDBRANCH  83  86
ENDBRANCH  55  79
BRANCH  67  90
ATOM     90  C   UNL A   1      42.898  31.512  35.583  1.00  0.00     0.023 A 
ATOM     91  C   UNL A   1      42.592  30.960  36.843  1.00  0.00     0.012 A 
ATOM     92  C   UNL A   1      43.235  32.877  35.490  1.00  0.00     0.148 A 
ATOM     93  C   UNL A   1      42.588  31.762  37.985  1.00  0.00     0.002 A 
ATOM     94  C   UNL A   1      43.284  33.657  36.638  1.00  0.00     0.091 A 
ATOM     95  F   UNL A   1      43.509  33.386  34.280  1.00  0.00    -0.205 F 
ATOM     96  C   UNL A   1      42.946  33.105  37.885  1.00  0.00     0.022 A 
BRANCH  94  97
ATOM     97  S   UNL A   1      43.834  35.366  36.621  1.00  0.00     0.127 S 
ATOM     98  O   UNL A   1      45.193  35.236  36.098  1.00  0.00    -0.237 OA
ATOM     99  O   UNL A   1      42.883  35.988  35.699  1.00  0.00    -0.237 OA
ATOM    100  O   UNL A   1      43.740  35.836  37.997  1.00  0.00    -0.744 OA
ENDBRANCH  94  97
ENDBRANCH  67  90
ENDBRANCH  41  42
ENDBRANCH  34  36
ENDBRANCH  33  34
ENDBRANCH  32  33
ENDBRANCH  31  32
ENDBRANCH  30  31
ENDBRANCH  29  30
ENDBRANCH   1  29
TORSDOF 25
ENDMDL
MODEL 2
REMARK VINA RESULT:      -8.8     11.089     16.169
REMARK SMILES C[C@@H]1CN(C(=O)N2c3ccccc3C[C@@H]2C(=O)OCCOCCOCCOCCOC(=O)c2ccc(-c3c4nc(c(-c5cccc(S(=O)(=O)[O-])c5F)c5ccc([nH]5)c(-c5cccc(S(=O)(=O)[O-])c5F)c5nc(c(-c6cccc(S(=O)(=O)[O-])c6F)c6ccc3[nH]6)C=C5)C=C4)cc2)C[C@@H]1C
REMARK SMILES IDX 25 1 24 2 23 3 22 4 21 5 20 6 19 7 18 8 16 9 17 10 15 11
REMARK SMILES IDX 7 12 8 13 9 14 13 15 14 16 10 17 12 18 11 19 5 20 6 21 4 22
REMARK SMILES IDX 1 23 2 24 3 25 97 26 96 27 98 28 26 29 27 30 28 31 29 32
REMARK SMILES IDX 30 33 31 34 32 35 33 36 34 37 95 38 35 39 94 40 36 41 37 42
REMARK SMILES IDX 38 43 88 44 39 45 93 46 87 47 89 48 40 49 92 50 86 51 85 52
REMARK SMILES IDX 41 54 73 55 53 56 72 57 54 58 57 59 71 60 90 61 55 62 56 63
REMARK SMILES IDX 70 65 91 66 58 67 42 68 43 69 51 70 44 71 46 72 52 73 45 74
REMARK SMILES IDX 47 75 48 76 49 77 50 78 74 79 75 80 83 81 76 82 78 83 84 84
REMARK SMILES IDX 77 85 79 86 80 87 81 88 82 89 59 90 60 91 68 92 61 93 63 94
REMARK SMILES IDX 69 95 62 96 64 97 65 98 66 99 67 100
REMARK H PARENT 89 53 57 64
REMARK Flexibility Score: inf
ROOT
ATOM      1  C   UNL A   1      42.309  41.271  25.356  1.00  0.00     0.188 C 
ENDROOT
BRANCH   1   2
ATOM      2  O   UNL A   1      43.170  41.650  24.285  1.00  0.00    -0.377 OA
BRANCH   2   3
ATOM      3  C   UNL A   1      42.642  42.544  23.326  1.00  0.00     0.188 C 
BRANCH   3   4
ATOM      4  C   UNL A   1      43.172  43.974  23.513  1.00  0.00     0.188 C 
BRANCH   4   5
ATOM      5  O   UNL A   1      44.563  44.067  23.781  1.00  0.00    -0.376 OA
BRANCH   5   6
ATOM      6  C   UNL A   1      45.521  44.201  22.739  1.00  0.00     0.202 C 
BRANCH   6   7
ATOM      7  C   UNL A   1      45.314  43.757  21.276  1.00  0.00     0.261 C 
BRANCH   7   8
ATOM      8  O   UNL A   1      44.466  44.574  20.473  1.00  0.00    -0.462 OA
BRANCH   8   9
ATOM      9  C   UNL A   1      45.024  45.673  19.919  1.00  0.00     0.329 C 
ATOM     10  O   UNL A   1      45.332  46.680  20.546  1.00  0.00    -0.250 OA
BRANCH   9  11
ATOM     11  C   UNL A   1      45.230  45.433  18.414  1.00  0.00     0.206 C 
ATOM     12  N   UNL A   1      45.434  46.749  17.775  1.00  0.00    -0.279 N 
ATOM     13  C   UNL A   1      44.193  47.148  17.261  1.00  0.00     0.050 A 
ATOM     14  C   UNL A   1      43.819  48.341  16.684  1.00  0.00     0.027 A 
ATOM     15  C   UNL A   1      43.276  46.090  17.390  1.00  0.00    -0.021 A 
ATOM     16  C   UNL A   1      43.952  44.838  17.849  1.00  0.00     0.075 C 
ATOM     17  C   UNL A   1      42.468  48.504  16.361  1.00  0.00     0.002 A 
ATOM     18  C   UNL A   1      41.946  46.232  17.054  1.00  0.00     0.006 A 
ATOM     19  C   UNL A   1      41.538  47.467  16.563  1.00  0.00     0.000 A 
BRANCH  12  20
ATOM     20  C   UNL A   1      46.668  47.329  17.648  1.00  0.00     0.325 C 
ATOM     21  O   UNL A   1      47.171  47.488  16.533  1.00  0.00    -0.248 OA
BRANCH  20  22
ATOM     22  N   UNL A   1      47.406  47.568  18.791  1.00  0.00    -0.324 N 
ATOM     23  C   UNL A   1      50.523  47.053  20.737  1.00  0.00     0.010 C 
ATOM     24  C   UNL A   1      49.092  47.490  20.459  1.00  0.00     0.010 C 
ATOM     25  C   UNL A   1      48.453  46.701  19.313  1.00  0.00     0.125 C 
ATOM     26  C   UNL A   1      48.908  48.957  20.032  1.00  0.00     0.010 C 
ATOM     27  C   UNL A   1      47.543  48.919  19.328  1.00  0.00     0.125 C 
ATOM     28  C   UNL A   1      50.009  49.501  19.121  1.00  0.00     0.010 C 
ENDBRANCH  20  22
ENDBRANCH  12  20
ENDBRANCH   9  11
ENDBRANCH   8   9
ENDBRANCH   7   8
ENDBRANCH   6   7
ENDBRANCH   5   6
ENDBRANCH   4   5
ENDBRANCH   3   4
ENDBRANCH   2   3
ENDBRANCH   1   2
BRANCH   1  29
ATOM     29  C   UNL A   1      42.883  40.838  26.730  1.00  0.00     0.188 C 
BRANCH  29  30
ATOM     30  O   UNL A   1      44.266  40.506  26.736  1.00  0.00    -0.376 OA
BRANCH  30  31
ATOM     31  C   UNL A   1      44.661  39.166  26.504  1.00  0.00     0.202 C 
BRANCH  31  32
ATOM     32  C   UNL A   1      45.804  38.597  27.360  1.00  0.00     0.261 C 
BRANCH  32  33
ATOM     33  O   UNL A   1      45.449  38.167  28.681  1.00  0.00    -0.460 OA
BRANCH  33  34
ATOM     34  C   UNL A   1      46.263  37.277  29.287  1.00  0.00     0.338 C 
ATOM     35  O   UNL A   1      47.278  37.524  29.919  1.00  0.00    -0.246 OA
BRANCH  34  36
ATOM     36  C   UNL A   1      45.600  35.957  29.239  1.00  0.00     0.060 A 
ATOM     37  C   UNL A   1      46.289  34.833  29.715  1.00  0.00     0.016 A 
ATOM     38  C   UNL A   1      44.297  35.835  28.752  1.00  0.00     0.016 A 
ATOM     39  C   UNL A   1      45.692  33.574  29.666  1.00  0.00     0.010 A 
ATOM     40  C   UNL A   1      43.711  34.569  28.678  1.00  0.00     0.010 A 
ATOM     41  C   UNL A   1      44.421  33.430  29.098  1.00  0.00    -0.014 A 
BRANCH  41  42
ATOM     42  C   UNL A   1      43.925  32.080  28.742  1.00  0.00     0.031 A 
ATOM     43  C   UNL A   1      42.604  31.641  29.314  1.00  0.00     0.074 A 
ATOM     44  C   UNL A   1      44.628  31.258  27.942  1.00  0.00     0.049 A 
ATOM     45  N   UNL A   1      41.991  30.494  29.198  1.00  0.00    -0.248 NA
ATOM     46  C   UNL A   1      41.878  32.632  30.129  1.00  0.00     0.031 C 
ATOM     47  C   UNL A   1      45.908  31.577  27.312  1.00  0.00     0.029 A 
ATOM     48  N   UNL A   1      44.370  29.969  27.548  1.00  0.00    -0.354 N 
ATOM     49  C   UNL A   1      40.835  30.605  29.961  1.00  0.00     0.074 A 
ATOM     50  C   UNL A   1      40.827  31.934  30.532  1.00  0.00     0.031 C 
ATOM     51  C   UNL A   1      46.339  30.498  26.635  1.00  0.00     0.029 A 
ATOM     52  C   UNL A   1      45.385  29.404  26.811  1.00  0.00     0.049 A 
ATOM     53  H   UNL A   1      43.538  29.492  27.772  1.00  0.00     0.167 HD
ATOM     54  C   UNL A   1      39.865  29.686  30.166  1.00  0.00     0.034 A 
ATOM     55  C   UNL A   1      45.535  28.143  26.361  1.00  0.00     0.034 A 
ATOM     56  C   UNL A   1      39.865  28.374  29.582  1.00  0.00     0.049 A 
ATOM     57  C   UNL A   1      44.452  27.128  26.634  1.00  0.00     0.074 A 
ATOM     58  C   UNL A   1      38.895  27.393  29.678  1.00  0.00     0.029 A 
ATOM     59  N   UNL A   1      40.892  27.850  28.814  1.00  0.00    -0.354 N 
ATOM     60  N   UNL A   1      43.307  27.285  27.254  1.00  0.00    -0.248 NA
ATOM     61  C   UNL A   1      44.668  25.767  26.119  1.00  0.00     0.031 C 
ATOM     62  C   UNL A   1      39.359  26.256  29.009  1.00  0.00     0.029 A 
ATOM     63  C   UNL A   1      40.592  26.550  28.450  1.00  0.00     0.049 A 
ATOM     64  H   UNL A   1      41.714  28.332  28.564  1.00  0.00     0.167 HD
ATOM     65  C   UNL A   1      42.649  26.063  27.160  1.00  0.00     0.074 A 
ATOM     66  C   UNL A   1      43.517  25.178  26.412  1.00  0.00     0.031 C 
ATOM     67  C   UNL A   1      41.439  25.701  27.654  1.00  0.00     0.034 A 
BRANCH  54  68
ATOM     68  C   UNL A   1      38.719  30.058  31.069  1.00  0.00     0.023 A 
ATOM     69  C   UNL A   1      38.723  29.654  32.420  1.00  0.00     0.012 A 
ATOM     70  C   UNL A   1      37.674  30.871  30.591  1.00  0.00     0.148 A 
ATOM     71  C   UNL A   1      37.688  30.034  33.273  1.00  0.00     0.002 A 
ATOM     72  C   UNL A   1      36.673  31.286  31.459  1.00  0.00     0.091 A 
ATOM     73  F   UNL A   1      37.678  31.221  29.297  1.00  0.00    -0.205 F 
ATOM     74  C   UNL A   1      36.671  30.859  32.798  1.00  0.00     0.022 A 
BRANCH  72  75
ATOM     75  S   UNL A   1      35.370  32.417  30.964  1.00  0.00     0.127 S 
ATOM     76  O   UNL A   1      36.111  33.666  30.796  1.00  0.00    -0.237 OA
ATOM     77  O   UNL A   1      34.899  31.815  29.716  1.00  0.00    -0.237 OA
ATOM     78  O   UNL A   1      34.398  32.413  32.049  1.00  0.00    -0.744 OA
ENDBRANCH  72  75
ENDBRANCH  54  68
BRANCH  55  79
ATOM     79  C   UNL A   1      46.752  27.754  25.588  1.00  0.00     0.023 A 
ATOM     80  C   UNL A   1      46.747  27.858  24.183  1.00  0.00     0.012 A 
ATOM     81  C   UNL A   1      47.902  27.261  26.235  1.00  0.00     0.148 A 
ATOM     82  C   UNL A   1      47.846  27.437  23.434  1.00  0.00     0.002 A 
ATOM     83  C   UNL A   1      49.016  26.898  25.486  1.00  0.00     0.091 A 
ATOM     84  F   UNL A   1      47.883  27.153  27.571  1.00  0.00    -0.205 F 
ATOM     85  C   UNL A   1      48.982  26.964  24.084  1.00  0.00     0.022 A 
BRANCH  83  86
ATOM     86  S   UNL A   1      50.564  26.395  26.243  1.00  0.00     0.127 S 
ATOM     87  O   UNL A   1      51.321  25.918  25.088  1.00  0.00    -0.237 OA
ATOM     88  O   UNL A   1      51.041  27.655  26.815  1.00  0.00    -0.237 OA
ATOM     89  O   UNL A   1      50.212  25.383  27.229  1.00  0.00    -0.744 OA
ENDBRANCH  83  86
ENDBRANCH  55  79
BRANCH  67  90
ATOM     90  C   UNL A   1      40.936  24.312  27.350  1.00  0.00     0.023 A 
ATOM     91  C   UNL A   1      41.598  23.185  27.876  1.00  0.00     0.012 A 
ATOM     92  C   UNL A   1      39.750  24.134  26.608  1.00  0.00     0.148 A 
ATOM     93  C   UNL A   1      41.105  21.901  27.638  1.00  0.00     0.002 A 
ATOM     94  C   UNL A   1      39.236  22.857  26.423  1.00  0.00     0.091 A 
ATOM     95  F   UNL A   1      39.143  25.218  26.104  1.00  0.00    -0.205 F 
ATOM     96  C   UNL A   1      39.920  21.738  26.924  1.00  0.00     0.022 A 
BRANCH  94  97
ATOM     97  S   UNL A   1      37.663  22.560  25.608  1.00  0.00     0.127 S 
ATOM     98  O   UNL A   1      37.589  21.100  25.629  1.00  0.00    -0.237 OA
ATOM     99  O   UNL A   1      36.720  23.232  26.502  1.00  0.00    -0.237 OA
ATOM    100  O   UNL A   1      37.775  23.157  24.284  1.00  0.00    -0.744 OA
ENDBRANCH  94  97
ENDBRANCH  67  90
ENDBRANCH  41  42
ENDBRANCH  34  36
ENDBRANCH  33  34
ENDBRANCH  32  33
ENDBRANCH  31  32
ENDBRANCH  30  31
ENDBRANCH  29  30
ENDBRANCH   1  29
TORSDOF 25
ENDMDL
MODEL 3
REMARK VINA RESULT:      -8.8      4.904      7.686
REMARK SMILES C[C@@H]1CN(C(=O)N2c3ccccc3C[C@@H]2C(=O)OCCOCCOCCOCCOC(=O)c2ccc(-c3c4nc(c(-c5cccc(S(=O)(=O)[O-])c5F)c5ccc([nH]5)c(-c5cccc(S(=O)(=O)[O-])c5F)c5nc(c(-c6cccc(S(=O)(=O)[O-])c6F)c6ccc3[nH]6)C=C5)C=C4)cc2)C[C@@H]1C
REMARK SMILES IDX 25 1 24 2 23 3 22 4 21 5 20 6 19 7 18 8 16 9 17 10 15 11
REMARK SMILES IDX 7 12 8 13 9 14 13 15 14 16 10 17 12 18 11 19 5 20 6 21 4 22
REMARK SMILES IDX 1 23 2 24 3 25 97 26 96 27 98 28 26 29 27 30 28 31 29 32
REMARK SMILES IDX 30 33 31 34 32 35 33 36 34 37 95 38 35 39 94 40 36 41 37 42
REMARK SMILES IDX 38 43 88 44 39 45 93 46 87 47 89 48 40 49 92 50 86 51 85 52
REMARK SMILES IDX 41 54 73 55 53 56 72 57 54 58 57 59 71 60 90 61 55 62 56 63
REMARK SMILES IDX 70 65 91 66 58 67 42 68 43 69 51 70 44 71 46 72 52 73 45 74
REMARK SMILES IDX 47 75 48 76 49 77 50 78 74 79 75 80 83 81 76 82 78 83 84 84
REMARK SMILES IDX 77 85 79 86 80 87 81 88 82 89 59 90 60 91 68 92 61 93 63 94
REMARK SMILES IDX 69 95 62 96 64 97 65 98 66 99 67 100
REMARK H PARENT 89 53 57 64
REMARK Flexibility Score: inf
ROOT
ATOM      1  C   UNL A   1      42.379  20.915  27.298  1.00  0.00     0.188 C 
ENDROOT
BRANCH   1   2
ATOM      2  O   UNL A   1      41.715  22.168  27.435  1.00  0.00    -0.377 OA
BRANCH   2   3
ATOM      3  C   UNL A   1      40.680  22.448  26.512  1.00  0.00     0.188 C 
BRANCH   3   4
ATOM      4  C   UNL A   1      39.646  23.431  27.082  1.00  0.00     0.188 C 
BRANCH   4   5
ATOM      5  O   UNL A   1      40.160  24.364  28.020  1.00  0.00    -0.376 OA
BRANCH   5   6
ATOM      6  C   UNL A   1      40.501  25.692  27.645  1.00  0.00     0.202 C 
BRANCH   6   7
ATOM      7  C   UNL A   1      39.933  26.974  28.290  1.00  0.00     0.261 C 
BRANCH   7   8
ATOM      8  O   UNL A   1      40.398  27.291  29.600  1.00  0.00    -0.462 OA
BRANCH   8   9
ATOM      9  C   UNL A   1      39.516  27.890  30.431  1.00  0.00     0.329 C 
ATOM     10  O   UNL A   1      38.310  27.953  30.227  1.00  0.00    -0.250 OA
BRANCH   9  11
ATOM     11  C   UNL A   1      40.267  28.434  31.658  1.00  0.00     0.206 C 
ATOM     12  N   UNL A   1      39.782  29.806  31.907  1.00  0.00    -0.279 N 
ATOM     13  C   UNL A   1      40.699  30.677  31.305  1.00  0.00     0.050 A 
ATOM     14  C   UNL A   1      40.645  32.044  31.144  1.00  0.00     0.027 A 
ATOM     15  C   UNL A   1      41.807  29.941  30.849  1.00  0.00    -0.021 A 
ATOM     16  C   UNL A   1      41.743  28.520  31.312  1.00  0.00     0.075 C 
ATOM     17  C   UNL A   1      41.661  32.645  30.395  1.00  0.00     0.002 A 
ATOM     18  C   UNL A   1      42.826  30.527  30.128  1.00  0.00     0.006 A 
ATOM     19  C   UNL A   1      42.729  31.890  29.875  1.00  0.00     0.000 A 
BRANCH  12  20
ATOM     20  C   UNL A   1      38.698  30.077  32.699  1.00  0.00     0.325 C 
ATOM     21  O   UNL A   1      38.665  29.684  33.869  1.00  0.00    -0.248 OA
BRANCH  20  22
ATOM     22  N   UNL A   1      37.580  30.642  32.117  1.00  0.00    -0.324 N 
ATOM     23  C   UNL A   1      34.785  33.075  32.288  1.00  0.00     0.010 C 
ATOM     24  C   UNL A   1      35.607  31.911  31.758  1.00  0.00     0.010 C 
ATOM     25  C   UNL A   1      36.486  31.276  32.839  1.00  0.00     0.125 C 
ATOM     26  C   UNL A   1      36.605  32.249  30.636  1.00  0.00     0.010 C 
ATOM     27  C   UNL A   1      37.597  31.078  30.724  1.00  0.00     0.125 C 
ATOM     28  C   UNL A   1      37.300  33.602  30.784  1.00  0.00     0.010 C 
ENDBRANCH  20  22
ENDBRANCH  12  20
ENDBRANCH   9  11
ENDBRANCH   8   9
ENDBRANCH   7   8
ENDBRANCH   6   7
ENDBRANCH   5   6
ENDBRANCH   4   5
ENDBRANCH   3   4
ENDBRANCH   2   3
ENDBRANCH   1   2
BRANCH   1  29
ATOM     29  C   UNL A   1      42.215  20.058  26.016  1.00  0.00     0.188 C 
BRANCH  29  30
ATOM     30  O   UNL A   1      43.198  20.270  25.010  1.00  0.00    -0.376 OA
BRANCH  30  31
ATOM     31  C   UNL A   1      44.533  19.861  25.244  1.00  0.00     0.202 C 
BRANCH  31  32
ATOM     32  C   UNL A   1      45.592  20.956  25.451  1.00  0.00     0.261 C 
BRANCH  32  33
ATOM     33  O   UNL A   1      45.943  21.721  24.291  1.00  0.00    -0.460 OA
BRANCH  33  34
ATOM     34  C   UNL A   1      45.065  22.654  23.869  1.00  0.00     0.338 C 
ATOM     35  O   UNL A   1      44.235  22.533  22.982  1.00  0.00    -0.246 OA
BRANCH  34  36
ATOM     36  C   UNL A   1      45.129  23.791  24.812  1.00  0.00     0.060 A 
ATOM     37  C   UNL A   1      46.351  24.094  25.429  1.00  0.00     0.016 A 
ATOM     38  C   UNL A   1      43.997  24.568  25.065  1.00  0.00     0.016 A 
ATOM     39  C   UNL A   1      46.435  25.150  26.335  1.00  0.00     0.010 A 
ATOM     40  C   UNL A   1      44.076  25.609  25.994  1.00  0.00     0.010 A 
ATOM     41  C   UNL A   1      45.285  25.878  26.660  1.00  0.00    -0.014 A 
BRANCH  41  42
ATOM     42  C   UNL A   1      45.289  26.767  27.846  1.00  0.00     0.031 A 
ATOM     43  C   UNL A   1      45.663  28.211  27.643  1.00  0.00     0.074 A 
ATOM     44  C   UNL A   1      44.982  26.309  29.072  1.00  0.00     0.049 A 
ATOM     45  N   UNL A   1      45.797  29.165  28.524  1.00  0.00    -0.248 NA
ATOM     46  C   UNL A   1      45.925  28.634  26.255  1.00  0.00     0.031 C 
ATOM     47  C   UNL A   1      44.585  24.940  29.392  1.00  0.00     0.029 A 
ATOM     48  N   UNL A   1      44.986  26.952  30.285  1.00  0.00    -0.354 N 
ATOM     49  C   UNL A   1      46.202  30.285  27.810  1.00  0.00     0.074 A 
ATOM     50  C   UNL A   1      46.288  29.897  26.419  1.00  0.00     0.031 C 
ATOM     51  C   UNL A   1      44.414  24.836  30.722  1.00  0.00     0.029 A 
ATOM     52  C   UNL A   1      44.721  26.121  31.349  1.00  0.00     0.049 A 
ATOM     53  H   UNL A   1      45.162  27.915  30.386  1.00  0.00     0.167 HD
ATOM     54  C   UNL A   1      46.474  31.528  28.268  1.00  0.00     0.034 A 
ATOM     55  C   UNL A   1      44.755  26.366  32.674  1.00  0.00     0.034 A 
ATOM     56  C   UNL A   1      46.369  31.916  29.647  1.00  0.00     0.049 A 
ATOM     57  C   UNL A   1      45.097  27.754  33.158  1.00  0.00     0.074 A 
ATOM     58  C   UNL A   1      46.563  33.168  30.202  1.00  0.00     0.029 A 
ATOM     59  N   UNL A   1      46.065  31.057  30.690  1.00  0.00    -0.354 N 
ATOM     60  N   UNL A   1      45.359  28.833  32.462  1.00  0.00    -0.248 NA
ATOM     61  C   UNL A   1      45.119  27.965  34.615  1.00  0.00     0.031 C 
ATOM     62  C   UNL A   1      46.425  33.055  31.588  1.00  0.00     0.029 A 
ATOM     63  C   UNL A   1      46.091  31.745  31.890  1.00  0.00     0.049 A 
ATOM     64  H   UNL A   1      45.861  30.099  30.592  1.00  0.00     0.167 HD
ATOM     65  C   UNL A   1      45.526  29.857  33.390  1.00  0.00     0.074 A 
ATOM     66  C   UNL A   1      45.324  29.272  34.698  1.00  0.00     0.031 C 
ATOM     67  C   UNL A   1      45.828  31.163  33.179  1.00  0.00     0.034 A 
BRANCH  54  68
ATOM     68  C   UNL A   1      46.926  32.564  27.274  1.00  0.00     0.023 A 
ATOM     69  C   UNL A   1      45.982  33.404  26.649  1.00  0.00     0.012 A 
ATOM     70  C   UNL A   1      48.297  32.750  27.016  1.00  0.00     0.148 A 
ATOM     71  C   UNL A   1      46.398  34.396  25.762  1.00  0.00     0.002 A 
ATOM     72  C   UNL A   1      48.707  33.771  26.170  1.00  0.00     0.091 A 
ATOM     73  F   UNL A   1      49.175  31.922  27.602  1.00  0.00    -0.205 F 
ATOM     74  C   UNL A   1      47.758  34.589  25.532  1.00  0.00     0.022 A 
BRANCH  72  75
ATOM     75  S   UNL A   1      50.436  34.153  25.879  1.00  0.00     0.127 S 
ATOM     76  O   UNL A   1      50.796  33.148  24.880  1.00  0.00    -0.237 OA
ATOM     77  O   UNL A   1      50.366  35.523  25.368  1.00  0.00    -0.237 OA
ATOM     78  O   UNL A   1      51.103  34.015  27.167  1.00  0.00    -0.744 OA
ENDBRANCH  72  75
ENDBRANCH  54  68
BRANCH  55  79
ATOM     79  C   UNL A   1      44.445  25.283  33.653  1.00  0.00     0.023 A 
ATOM     80  C   UNL A   1      43.135  25.149  34.152  1.00  0.00     0.012 A 
ATOM     81  C   UNL A   1      45.445  24.401  34.109  1.00  0.00     0.148 A 
ATOM     82  C   UNL A   1      42.835  24.190  35.119  1.00  0.00     0.002 A 
ATOM     83  C   UNL A   1      45.126  23.409  35.030  1.00  0.00     0.091 A 
ATOM     84  F   UNL A   1      46.690  24.554  33.637  1.00  0.00    -0.205 F 
ATOM     85  C   UNL A   1      43.827  23.315  35.552  1.00  0.00     0.022 A 
BRANCH  83  86
ATOM     86  S   UNL A   1      46.309  22.163  35.552  1.00  0.00     0.127 S 
ATOM     87  O   UNL A   1      47.184  22.074  34.386  1.00  0.00    -0.237 OA
ATOM     88  O   UNL A   1      46.910  22.793  36.728  1.00  0.00    -0.237 OA
ATOM     89  O   UNL A   1      45.523  20.972  35.845  1.00  0.00    -0.744 OA
ENDBRANCH  83  86
ENDBRANCH  55  79
BRANCH  67  90
ATOM     90  C   UNL A   1      45.892  32.077  34.377  1.00  0.00     0.023 A 
ATOM     91  C   UNL A   1      47.116  32.298  35.038  1.00  0.00     0.012 A 
ATOM     92  C   UNL A   1      44.744  32.783  34.792  1.00  0.00     0.148 A 
ATOM     93  C   UNL A   1      47.189  33.183  36.115  1.00  0.00     0.002 A 
ATOM     94  C   UNL A   1      44.836  33.703  35.828  1.00  0.00     0.091 A 
ATOM     95  F   UNL A   1      43.586  32.547  34.159  1.00  0.00    -0.205 F 
ATOM     96  C   UNL A   1      46.055  33.893  36.501  1.00  0.00     0.022 A 
BRANCH  94  97
ATOM     97  S   UNL A   1      43.455  34.738  36.325  1.00  0.00     0.127 S 
ATOM     98  O   UNL A   1      43.135  35.426  35.075  1.00  0.00    -0.237 OA
ATOM     99  O   UNL A   1      42.464  33.749  36.748  1.00  0.00    -0.237 OA
ATOM    100  O   UNL A   1      43.954  35.592  37.394  1.00  0.00    -0.744 OA
ENDBRANCH  94  97
ENDBRANCH  67  90
ENDBRANCH  41  42
ENDBRANCH  34  36
ENDBRANCH  33  34
ENDBRANCH  32  33
ENDBRANCH  31  32
ENDBRANCH  30  31
ENDBRANCH  29  30
ENDBRANCH   1  29
TORSDOF 25
ENDMDL
