MODEL 1
REMARK VINA RESULT:      -9.2      0.000      0.000
REMARK SMILES Cc1ccc(-c2ncccc2C(=O)OCCOCCOCCOCCOC(=O)c2ccc(-c3c4nc(c(-c5cccc(S(=O)(=O)[O-])c5F)c5ccc([nH]5)c(-c5cccc(S(=O)(=O)[O-])c5F)c5nc(c(-c6cccc(S(=O)(=O)[O-])c6F)c6ccc3[nH]6)C=C5)C=C4)cc2)c(Cl)c1
REMARK SMILES IDX 21 1 20 2 19 3 18 4 17 5 16 6 15 7 14 8 12 9 13 10 11 11
REMARK SMILES IDX 6 12 7 13 8 14 10 15 9 16 5 17 1 18 2 19 3 20 94 21 4 22
REMARK SMILES IDX 92 23 93 24 22 25 23 26 24 27 25 28 26 29 27 30 28 31 29 32
REMARK SMILES IDX 30 33 91 34 31 35 90 36 32 37 33 38 34 39 84 40 35 41 89 42
REMARK SMILES IDX 83 43 85 44 36 45 88 46 82 47 81 48 37 50 69 51 49 52 68 53
REMARK SMILES IDX 50 54 53 55 67 56 86 57 51 58 52 59 66 61 87 62 54 63 38 64
REMARK SMILES IDX 39 65 47 66 40 67 42 68 48 69 41 70 43 71 44 72 45 73 46 74
REMARK SMILES IDX 70 75 71 76 79 77 72 78 74 79 80 80 73 81 75 82 76 83 77 84
REMARK SMILES IDX 78 85 55 86 56 87 64 88 57 89 59 90 65 91 58 92 60 93 61 94
REMARK SMILES IDX 62 95 63 96
REMARK H PARENT 85 49 53 60
REMARK Flexibility Score: inf
ROOT
ATOM      1  C   UNL A   1      36.497  21.427  25.431  1.00  0.00     0.188 C 
ENDROOT
BRANCH   1   2
ATOM      2  O   UNL A   1      35.352  20.721  24.988  1.00  0.00    -0.377 OA
BRANCH   2   3
ATOM      3  C   UNL A   1      34.227  21.471  24.546  1.00  0.00     0.188 C 
BRANCH   3   4
ATOM      4  C   UNL A   1      32.811  21.294  25.149  1.00  0.00     0.188 C 
BRANCH   4   5
ATOM      5  O   UNL A   1      32.707  21.633  26.524  1.00  0.00    -0.376 OA
BRANCH   5   6
ATOM      6  C   UNL A   1      32.583  23.006  26.845  1.00  0.00     0.202 C 
BRANCH   6   7
ATOM      7  C   UNL A   1      31.330  23.698  26.297  1.00  0.00     0.261 C 
BRANCH   7   8
ATOM      8  O   UNL A   1      31.073  25.012  26.817  1.00  0.00    -0.460 OA
BRANCH   8   9
ATOM      9  C   UNL A   1      30.722  25.998  25.957  1.00  0.00     0.340 C 
ATOM     10  O   UNL A   1      29.769  25.977  25.203  1.00  0.00    -0.246 OA
BRANCH   9  11
ATOM     11  C   UNL A   1      31.639  27.146  26.197  1.00  0.00     0.086 A 
ATOM     12  C   UNL A   1      32.598  27.565  25.259  1.00  0.00     0.086 A 
ATOM     13  N   UNL A   1      33.359  28.683  25.452  1.00  0.00    -0.255 NA
ATOM     14  C   UNL A   1      33.167  29.391  26.588  1.00  0.00     0.112 A 
ATOM     15  C   UNL A   1      31.462  27.921  27.355  1.00  0.00     0.019 A 
ATOM     16  C   UNL A   1      32.233  29.061  27.552  1.00  0.00     0.021 A 
BRANCH  12  17
ATOM     17  C   UNL A   1      32.750  26.987  23.914  1.00  0.00     0.020 A 
ATOM     18  C   UNL A   1      32.606  25.106  20.013  1.00  0.00     0.044 C 
ATOM     19  C   UNL A   1      32.697  25.793  21.343  1.00  0.00    -0.050 A 
ATOM     20  C   UNL A   1      32.023  26.992  21.573  1.00  0.00     0.004 A 
ATOM     21  C   UNL A   1      33.488  25.258  22.367  1.00  0.00     0.024 A 
ATOM     22  C   UNL A   1      32.070  27.589  22.836  1.00  0.00     0.012 A 
ATOM     23  C   UNL A   1      33.520  25.849  23.638  1.00  0.00     0.050 A 
ATOM     24  Cl  UNL A   1      34.553  25.139  24.831  1.00  0.00    -0.084 Cl
ENDBRANCH  12  17
ENDBRANCH   9  11
ENDBRANCH   8   9
ENDBRANCH   7   8
ENDBRANCH   6   7
ENDBRANCH   5   6
ENDBRANCH   4   5
ENDBRANCH   3   4
ENDBRANCH   2   3
ENDBRANCH   1   2
BRANCH   1  25
ATOM     25  C   UNL A   1      37.811  20.934  24.794  1.00  0.00     0.188 C 
BRANCH  25  26
ATOM     26  O   UNL A   1      38.939  21.098  25.650  1.00  0.00    -0.376 OA
BRANCH  26  27
ATOM     27  C   UNL A   1      39.719  19.952  25.947  1.00  0.00     0.202 C 
BRANCH  27  28
ATOM     28  C   UNL A   1      40.653  19.941  27.169  1.00  0.00     0.261 C 
BRANCH  28  29
ATOM     29  O   UNL A   1      41.970  19.402  26.993  1.00  0.00    -0.460 OA
BRANCH  29  30
ATOM     30  C   UNL A   1      42.727  19.841  25.958  1.00  0.00     0.338 C 
ATOM     31  O   UNL A   1      43.041  19.232  24.967  1.00  0.00    -0.246 OA
BRANCH  30  32
ATOM     32  C   UNL A   1      42.910  21.300  26.182  1.00  0.00     0.060 A 
ATOM     33  C   UNL A   1      42.705  22.190  25.118  1.00  0.00     0.016 A 
ATOM     34  C   UNL A   1      43.181  21.782  27.464  1.00  0.00     0.016 A 
ATOM     35  C   UNL A   1      42.758  23.569  25.339  1.00  0.00     0.010 A 
ATOM     36  C   UNL A   1      43.270  23.159  27.675  1.00  0.00     0.010 A 
ATOM     37  C   UNL A   1      43.070  24.058  26.613  1.00  0.00    -0.014 A 
BRANCH  37  38
ATOM     38  C   UNL A   1      43.360  25.495  26.821  1.00  0.00     0.031 A 
ATOM     39  C   UNL A   1      44.771  25.967  26.620  1.00  0.00     0.074 A 
ATOM     40  C   UNL A   1      42.410  26.350  27.239  1.00  0.00     0.049 A 
ATOM     41  N   UNL A   1      45.298  27.136  26.865  1.00  0.00    -0.248 NA
ATOM     42  C   UNL A   1      45.717  24.978  26.073  1.00  0.00     0.031 C 
ATOM     43  C   UNL A   1      41.003  26.015  27.453  1.00  0.00     0.029 A 
ATOM     44  N   UNL A   1      42.501  27.673  27.601  1.00  0.00    -0.354 N 
ATOM     45  C   UNL A   1      46.643  27.016  26.540  1.00  0.00     0.074 A 
ATOM     46  C   UNL A   1      46.852  25.662  26.076  1.00  0.00     0.031 C 
ATOM     47  C   UNL A   1      40.371  27.091  27.954  1.00  0.00     0.029 A 
ATOM     48  C   UNL A   1      41.336  28.176  28.131  1.00  0.00     0.049 A 
ATOM     49  H   UNL A   1      43.320  28.208  27.491  1.00  0.00     0.167 HD
ATOM     50  C   UNL A   1      47.617  27.952  26.616  1.00  0.00     0.034 A 
ATOM     51  C   UNL A   1      41.091  29.358  28.733  1.00  0.00     0.034 A 
ATOM     52  C   UNL A   1      47.404  29.296  27.075  1.00  0.00     0.049 A 
ATOM     53  C   UNL A   1      42.209  30.364  28.864  1.00  0.00     0.074 A 
ATOM     54  C   UNL A   1      48.315  30.336  27.138  1.00  0.00     0.029 A 
ATOM     55  N   UNL A   1      46.206  29.781  27.577  1.00  0.00    -0.354 N 
ATOM     56  N   UNL A   1      43.446  30.287  28.435  1.00  0.00    -0.248 NA
ATOM     57  C   UNL A   1      41.892  31.629  29.547  1.00  0.00     0.031 C 
ATOM     58  C   UNL A   1      47.677  31.437  27.718  1.00  0.00     0.029 A 
ATOM     59  C   UNL A   1      46.360  31.094  27.981  1.00  0.00     0.049 A 
ATOM     60  H   UNL A   1      45.370  29.266  27.635  1.00  0.00     0.167 HD
ATOM     61  C   UNL A   1      44.047  31.495  28.774  1.00  0.00     0.074 A 
ATOM     62  C   UNL A   1      43.030  32.300  29.420  1.00  0.00     0.031 C 
ATOM     63  C   UNL A   1      45.328  31.898  28.584  1.00  0.00     0.034 A 
BRANCH  50  64
ATOM     64  C   UNL A   1      49.002  27.552  26.190  1.00  0.00     0.023 A 
ATOM     65  C   UNL A   1      49.319  27.466  24.819  1.00  0.00     0.012 A 
ATOM     66  C   UNL A   1      50.005  27.306  27.149  1.00  0.00     0.148 A 
ATOM     67  C   UNL A   1      50.603  27.114  24.409  1.00  0.00     0.002 A 
ATOM     68  C   UNL A   1      51.294  27.000  26.732  1.00  0.00     0.091 A 
ATOM     69  F   UNL A   1      49.676  27.368  28.447  1.00  0.00    -0.205 F 
ATOM     70  C   UNL A   1      51.592  26.892  25.363  1.00  0.00     0.022 A 
BRANCH  68  71
ATOM     71  S   UNL A   1      52.655  26.773  27.882  1.00  0.00     0.127 S 
ATOM     72  O   UNL A   1      52.080  25.820  28.831  1.00  0.00    -0.237 OA
ATOM     73  O   UNL A   1      53.696  26.219  27.016  1.00  0.00    -0.237 OA
ATOM     74  O   UNL A   1      52.950  28.091  28.424  1.00  0.00    -0.744 OA
ENDBRANCH  68  71
ENDBRANCH  50  64
BRANCH  51  75
ATOM     75  C   UNL A   1      39.732  29.660  29.268  1.00  0.00     0.023 A 
ATOM     76  C   UNL A   1      38.716  30.080  28.389  1.00  0.00     0.012 A 
ATOM     77  C   UNL A   1      39.440  29.530  30.641  1.00  0.00     0.148 A 
ATOM     78  C   UNL A   1      37.443  30.391  28.869  1.00  0.00     0.002 A 
ATOM     79  C   UNL A   1      38.154  29.785  31.104  1.00  0.00     0.091 A 
ATOM     80  F   UNL A   1      40.425  29.149  31.466  1.00  0.00    -0.205 F 
ATOM     81  C   UNL A   1      37.159  30.235  30.223  1.00  0.00     0.022 A 
BRANCH  79  82
ATOM     82  S   UNL A   1      37.663  29.486  32.806  1.00  0.00     0.127 S 
ATOM     83  O   UNL A   1      37.696  28.027  32.876  1.00  0.00    -0.237 OA
ATOM     84  O   UNL A   1      38.725  30.164  33.548  1.00  0.00    -0.237 OA
ATOM     85  O   UNL A   1      36.347  30.093  32.950  1.00  0.00    -0.744 OA
ENDBRANCH  79  82
ENDBRANCH  51  75
BRANCH  63  86
ATOM     86  C   UNL A   1      45.713  33.276  29.062  1.00  0.00     0.023 A 
ATOM     87  C   UNL A   1      46.294  33.435  30.336  1.00  0.00     0.012 A 
ATOM     88  C   UNL A   1      45.594  34.393  28.212  1.00  0.00     0.148 A 
ATOM     89  C   UNL A   1      46.726  34.690  30.767  1.00  0.00     0.002 A 
ATOM     90  C   UNL A   1      46.071  35.630  28.627  1.00  0.00     0.091 A 
ATOM     91  F   UNL A   1      45.030  34.221  27.007  1.00  0.00    -0.205 F 
ATOM     92  C   UNL A   1      46.627  35.783  29.908  1.00  0.00     0.022 A 
BRANCH  90  93
ATOM     93  S   UNL A   1      46.076  37.077  27.561  1.00  0.00     0.127 S 
ATOM     94  O   UNL A   1      46.718  38.075  28.417  1.00  0.00    -0.237 OA
ATOM     95  O   UNL A   1      46.891  36.626  26.434  1.00  0.00    -0.237 OA
ATOM     96  O   UNL A   1      44.682  37.345  27.237  1.00  0.00    -0.744 OA
ENDBRANCH  90  93
ENDBRANCH  63  86
ENDBRANCH  37  38
ENDBRANCH  30  32
ENDBRANCH  29  30
ENDBRANCH  28  29
ENDBRANCH  27  28
ENDBRANCH  26  27
ENDBRANCH  25  26
ENDBRANCH   1  25
TORSDOF 24
ENDMDL
MODEL 2
REMARK VINA RESULT:      -9.0      4.299      7.248
REMARK SMILES Cc1ccc(-c2ncccc2C(=O)OCCOCCOCCOCCOC(=O)c2ccc(-c3c4nc(c(-c5cccc(S(=O)(=O)[O-])c5F)c5ccc([nH]5)c(-c5cccc(S(=O)(=O)[O-])c5F)c5nc(c(-c6cccc(S(=O)(=O)[O-])c6F)c6ccc3[nH]6)C=C5)C=C4)cc2)c(Cl)c1
REMARK SMILES IDX 21 1 20 2 19 3 18 4 17 5 16 6 15 7 14 8 12 9 13 10 11 11
REMARK SMILES IDX 6 12 7 13 8 14 10 15 9 16 5 17 1 18 2 19 3 20 94 21 4 22
REMARK SMILES IDX 92 23 93 24 22 25 23 26 24 27 25 28 26 29 27 30 28 31 29 32
REMARK SMILES IDX 30 33 91 34 31 35 90 36 32 37 33 38 34 39 84 40 35 41 89 42
REMARK SMILES IDX 83 43 85 44 36 45 88 46 82 47 81 48 37 50 69 51 49 52 68 53
REMARK SMILES IDX 50 54 53 55 67 56 86 57 51 58 52 59 66 61 87 62 54 63 38 64
REMARK SMILES IDX 39 65 47 66 40 67 42 68 48 69 41 70 43 71 44 72 45 73 46 74
REMARK SMILES IDX 70 75 71 76 79 77 72 78 74 79 80 80 73 81 75 82 76 83 77 84
REMARK SMILES IDX 78 85 55 86 56 87 64 88 57 89 59 90 65 91 58 92 60 93 61 94
REMARK SMILES IDX 62 95 63 96
REMARK H PARENT 85 49 53 60
REMARK Flexibility Score: inf
ROOT
ATOM      1  C   UNL A   1      43.416  21.122  26.114  1.00  0.00     0.188 C 
ENDROOT
BRANCH   1   2
ATOM      2  O   UNL A   1      42.145  21.032  25.496  1.00  0.00    -0.377 OA
BRANCH   2   3
ATOM      3  C   UNL A   1      41.021  20.718  26.309  1.00  0.00     0.188 C 
BRANCH   3   4
ATOM      4  C   UNL A   1      39.991  21.782  26.766  1.00  0.00     0.188 C 
BRANCH   4   5
ATOM      5  O   UNL A   1      39.188  22.313  25.723  1.00  0.00    -0.376 OA
BRANCH   5   6
ATOM      6  C   UNL A   1      37.812  21.981  25.732  1.00  0.00     0.202 C 
BRANCH   6   7
ATOM      7  C   UNL A   1      36.860  23.112  25.331  1.00  0.00     0.261 C 
BRANCH   7   8
ATOM      8  O   UNL A   1      35.475  22.894  25.644  1.00  0.00    -0.460 OA
BRANCH   8   9
ATOM      9  C   UNL A   1      34.578  22.832  24.630  1.00  0.00     0.340 C 
ATOM     10  O   UNL A   1      34.831  22.559  23.474  1.00  0.00    -0.246 OA
BRANCH   9  11
ATOM     11  C   UNL A   1      33.225  23.036  25.219  1.00  0.00     0.086 A 
ATOM     12  C   UNL A   1      32.236  22.039  25.217  1.00  0.00     0.086 A 
ATOM     13  N   UNL A   1      31.038  22.207  25.853  1.00  0.00    -0.255 NA
ATOM     14  C   UNL A   1      30.822  23.376  26.497  1.00  0.00     0.112 A 
ATOM     15  C   UNL A   1      32.965  24.228  25.915  1.00  0.00     0.019 A 
ATOM     16  C   UNL A   1      31.749  24.400  26.565  1.00  0.00     0.021 A 
BRANCH  12  17
ATOM     17  C   UNL A   1      32.438  20.669  24.720  1.00  0.00     0.020 A 
ATOM     18  C   UNL A   1      33.641  16.731  23.370  1.00  0.00     0.044 C 
ATOM     19  C   UNL A   1      33.173  18.072  23.851  1.00  0.00    -0.050 A 
ATOM     20  C   UNL A   1      33.193  18.389  25.209  1.00  0.00     0.004 A 
ATOM     21  C   UNL A   1      32.676  19.018  22.946  1.00  0.00     0.024 A 
ATOM     22  C   UNL A   1      32.809  19.663  25.636  1.00  0.00     0.012 A 
ATOM     23  C   UNL A   1      32.308  20.301  23.374  1.00  0.00     0.050 A 
ATOM     24  Cl  UNL A   1      31.670  21.393  22.191  1.00  0.00    -0.084 Cl
ENDBRANCH  12  17
ENDBRANCH   9  11
ENDBRANCH   8   9
ENDBRANCH   7   8
ENDBRANCH   6   7
ENDBRANCH   5   6
ENDBRANCH   4   5
ENDBRANCH   3   4
ENDBRANCH   2   3
ENDBRANCH   1   2
BRANCH   1  25
ATOM     25  C   UNL A   1      44.453  21.904  25.283  1.00  0.00     0.188 C 
BRANCH  25  26
ATOM     26  O   UNL A   1      44.428  23.305  25.542  1.00  0.00    -0.376 OA
BRANCH  26  27
ATOM     27  C   UNL A   1      43.181  23.898  25.868  1.00  0.00     0.202 C 
BRANCH  27  28
ATOM     28  C   UNL A   1      43.054  24.814  27.098  1.00  0.00     0.261 C 
BRANCH  28  29
ATOM     29  O   UNL A   1      42.091  25.875  27.037  1.00  0.00    -0.460 OA
BRANCH  29  30
ATOM     30  C   UNL A   1      41.204  26.017  28.052  1.00  0.00     0.338 C 
ATOM     31  O   UNL A   1      40.483  25.173  28.521  1.00  0.00    -0.246 OA
BRANCH  30  32
ATOM     32  C   UNL A   1      41.456  27.367  28.621  1.00  0.00     0.060 A 
ATOM     33  C   UNL A   1      42.174  27.485  29.821  1.00  0.00     0.016 A 
ATOM     34  C   UNL A   1      41.071  28.508  27.915  1.00  0.00     0.016 A 
ATOM     35  C   UNL A   1      42.520  28.748  30.308  1.00  0.00     0.010 A 
ATOM     36  C   UNL A   1      41.386  29.769  28.423  1.00  0.00     0.010 A 
ATOM     37  C   UNL A   1      42.101  29.895  29.626  1.00  0.00    -0.014 A 
BRANCH  37  38
ATOM     38  C   UNL A   1      42.252  31.236  30.238  1.00  0.00     0.031 A 
ATOM     39  C   UNL A   1      43.509  32.004  29.953  1.00  0.00     0.074 A 
ATOM     40  C   UNL A   1      41.325  31.732  31.077  1.00  0.00     0.049 A 
ATOM     41  N   UNL A   1      43.930  33.128  30.470  1.00  0.00    -0.248 NA
ATOM     42  C   UNL A   1      44.419  31.420  28.953  1.00  0.00     0.031 C 
ATOM     43  C   UNL A   1      40.058  31.088  31.417  1.00  0.00     0.029 A 
ATOM     44  N   UNL A   1      41.333  32.882  31.830  1.00  0.00    -0.354 N 
ATOM     45  C   UNL A   1      45.168  33.367  29.888  1.00  0.00     0.074 A 
ATOM     46  C   UNL A   1      45.431  32.275  28.977  1.00  0.00     0.031 C 
ATOM     47  C   UNL A   1      39.430  31.829  32.348  1.00  0.00     0.029 A 
ATOM     48  C   UNL A   1      40.268  32.976  32.695  1.00  0.00     0.049 A 
ATOM     49  H   UNL A   1      42.032  33.572  31.757  1.00  0.00     0.167 HD
ATOM     50  C   UNL A   1      46.010  34.407  30.091  1.00  0.00     0.034 A 
ATOM     51  C   UNL A   1      40.024  33.860  33.684  1.00  0.00     0.034 A 
ATOM     52  C   UNL A   1      45.745  35.490  30.995  1.00  0.00     0.049 A 
ATOM     53  C   UNL A   1      41.009  34.976  33.935  1.00  0.00     0.074 A 
ATOM     54  C   UNL A   1      46.509  36.618  31.232  1.00  0.00     0.029 A 
ATOM     55  N   UNL A   1      44.643  35.568  31.834  1.00  0.00    -0.354 N 
ATOM     56  N   UNL A   1      42.114  35.265  33.291  1.00  0.00    -0.248 NA
ATOM     57  C   UNL A   1      40.704  35.900  35.040  1.00  0.00     0.031 C 
ATOM     58  C   UNL A   1      45.891  37.358  32.245  1.00  0.00     0.029 A 
ATOM     59  C   UNL A   1      44.723  36.709  32.612  1.00  0.00     0.049 A 
ATOM     60  H   UNL A   1      43.913  34.910  31.869  1.00  0.00     0.167 HD
ATOM     61  C   UNL A   1      42.622  36.411  33.893  1.00  0.00     0.074 A 
ATOM     62  C   UNL A   1      41.690  36.782  34.938  1.00  0.00     0.031 C 
ATOM     63  C   UNL A   1      43.766  37.088  33.620  1.00  0.00     0.034 A 
BRANCH  50  64
ATOM     64  C   UNL A   1      47.299  34.420  29.317  1.00  0.00     0.023 A 
ATOM     65  C   UNL A   1      48.461  33.853  29.878  1.00  0.00     0.012 A 
ATOM     66  C   UNL A   1      47.348  34.951  28.013  1.00  0.00     0.148 A 
ATOM     67  C   UNL A   1      49.660  33.842  29.166  1.00  0.00     0.002 A 
ATOM     68  C   UNL A   1      48.534  34.895  27.292  1.00  0.00     0.091 A 
ATOM     69  F   UNL A   1      46.238  35.508  27.508  1.00  0.00    -0.205 F 
ATOM     70  C   UNL A   1      49.693  34.352  27.871  1.00  0.00     0.022 A 
BRANCH  68  71
ATOM     71  S   UNL A   1      48.660  35.455  25.590  1.00  0.00     0.127 S 
ATOM     72  O   UNL A   1      47.813  34.482  24.899  1.00  0.00    -0.237 OA
ATOM     73  O   UNL A   1      48.099  36.803  25.670  1.00  0.00    -0.237 OA
ATOM     74  O   UNL A   1      50.074  35.401  25.251  1.00  0.00    -0.744 OA
ENDBRANCH  68  71
ENDBRANCH  50  64
BRANCH  51  75
ATOM     75  C   UNL A   1      38.798  33.727  34.523  1.00  0.00     0.023 A 
ATOM     76  C   UNL A   1      37.585  34.284  34.075  1.00  0.00     0.012 A 
ATOM     77  C   UNL A   1      38.826  33.049  35.759  1.00  0.00     0.148 A 
ATOM     78  C   UNL A   1      36.430  34.193  34.853  1.00  0.00     0.002 A 
ATOM     79  C   UNL A   1      37.659  32.912  36.501  1.00  0.00     0.091 A 
ATOM     80  F   UNL A   1      39.994  32.544  36.179  1.00  0.00    -0.205 F 
ATOM     81  C   UNL A   1      36.464  33.500  36.060  1.00  0.00     0.022 A 
BRANCH  79  82
ATOM     82  S   UNL A   1      37.578  31.926  38.001  1.00  0.00     0.127 S 
ATOM     83  O   UNL A   1      38.799  32.331  38.693  1.00  0.00    -0.237 OA
ATOM     84  O   UNL A   1      36.336  32.405  38.608  1.00  0.00    -0.237 OA
ATOM     85  O   UNL A   1      37.536  30.538  37.561  1.00  0.00    -0.744 OA
ENDBRANCH  79  82
ENDBRANCH  51  75
BRANCH  63  86
ATOM     86  C   UNL A   1      44.077  38.311  34.446  1.00  0.00     0.023 A 
ATOM     87  C   UNL A   1      44.941  38.203  35.554  1.00  0.00     0.012 A 
ATOM     88  C   UNL A   1      43.597  39.580  34.065  1.00  0.00     0.148 A 
ATOM     89  C   UNL A   1      45.301  39.335  36.285  1.00  0.00     0.002 A 
ATOM     90  C   UNL A   1      43.999  40.710  34.767  1.00  0.00     0.091 A 
ATOM     91  F   UNL A   1      42.769  39.659  33.012  1.00  0.00    -0.205 F 
ATOM     92  C   UNL A   1      44.841  40.588  35.884  1.00  0.00     0.022 A 
BRANCH  90  93
ATOM     93  S   UNL A   1      43.539  42.374  34.273  1.00  0.00     0.127 S 
ATOM     94  O   UNL A   1      44.012  42.416  32.889  1.00  0.00    -0.237 OA
ATOM     95  O   UNL A   1      42.084  42.348  34.419  1.00  0.00    -0.237 OA
ATOM     96  O   UNL A   1      44.227  43.273  35.188  1.00  0.00    -0.744 OA
ENDBRANCH  90  93
ENDBRANCH  63  86
ENDBRANCH  37  38
ENDBRANCH  30  32
ENDBRANCH  29  30
ENDBRANCH  28  29
ENDBRANCH  27  28
ENDBRANCH  26  27
ENDBRANCH  25  26
ENDBRANCH   1  25
TORSDOF 24
ENDMDL
MODEL 3
REMARK VINA RESULT:      -8.6      3.416      8.869
REMARK SMILES Cc1ccc(-c2ncccc2C(=O)OCCOCCOCCOCCOC(=O)c2ccc(-c3c4nc(c(-c5cccc(S(=O)(=O)[O-])c5F)c5ccc([nH]5)c(-c5cccc(S(=O)(=O)[O-])c5F)c5nc(c(-c6cccc(S(=O)(=O)[O-])c6F)c6ccc3[nH]6)C=C5)C=C4)cc2)c(Cl)c1
REMARK SMILES IDX 21 1 20 2 19 3 18 4 17 5 16 6 15 7 14 8 12 9 13 10 11 11
REMARK SMILES IDX 6 12 7 13 8 14 10 15 9 16 5 17 1 18 2 19 3 20 94 21 4 22
REMARK SMILES IDX 92 23 93 24 22 25 23 26 24 27 25 28 26 29 27 30 28 31 29 32
REMARK SMILES IDX 30 33 91 34 31 35 90 36 32 37 33 38 34 39 84 40 35 41 89 42
REMARK SMILES IDX 83 43 85 44 36 45 88 46 82 47 81 48 37 50 69 51 49 52 68 53
REMARK SMILES IDX 50 54 53 55 67 56 86 57 51 58 52 59 66 61 87 62 54 63 38 64
REMARK SMILES IDX 39 65 47 66 40 67 42 68 48 69 41 70 43 71 44 72 45 73 46 74
REMARK SMILES IDX 70 75 71 76 79 77 72 78 74 79 80 80 73 81 75 82 76 83 77 84
REMARK SMILES IDX 78 85 55 86 56 87 64 88 57 89 59 90 65 91 58 92 60 93 61 94
REMARK SMILES IDX 62 95 63 96
REMARK H PARENT 85 49 53 60
REMARK Flexibility Score: inf
ROOT
ATOM      1  C   UNL A   1      42.034  23.212  27.921  1.00  0.00     0.188 C 
ENDROOT
BRANCH   1   2
ATOM      2  O   UNL A   1      40.988  24.056  28.368  1.00  0.00    -0.377 OA
BRANCH   2   3
ATOM      3  C   UNL A   1      40.536  25.087  27.499  1.00  0.00     0.188 C 
BRANCH   3   4
ATOM      4  C   UNL A   1      39.242  24.966  26.655  1.00  0.00     0.188 C 
BRANCH   4   5
ATOM      5  O   UNL A   1      38.644  23.679  26.671  1.00  0.00    -0.376 OA
BRANCH   5   6
ATOM      6  C   UNL A   1      37.749  23.368  25.620  1.00  0.00     0.202 C 
BRANCH   6   7
ATOM      7  C   UNL A   1      37.156  21.955  25.657  1.00  0.00     0.261 C 
BRANCH   7   8
ATOM      8  O   UNL A   1      35.944  21.773  24.909  1.00  0.00    -0.460 OA
BRANCH   8   9
ATOM      9  C   UNL A   1      34.777  21.625  25.580  1.00  0.00     0.340 C 
ATOM     10  O   UNL A   1      34.425  22.275  26.544  1.00  0.00    -0.246 OA
BRANCH   9  11
ATOM     11  C   UNL A   1      33.966  20.614  24.846  1.00  0.00     0.086 A 
ATOM     12  C   UNL A   1      32.918  20.963  23.978  1.00  0.00     0.086 A 
ATOM     13  N   UNL A   1      32.254  20.029  23.235  1.00  0.00    -0.255 NA
ATOM     14  C   UNL A   1      32.634  18.737  23.354  1.00  0.00     0.112 A 
ATOM     15  C   UNL A   1      34.339  19.262  24.927  1.00  0.00     0.019 A 
ATOM     16  C   UNL A   1      33.667  18.311  24.169  1.00  0.00     0.021 A 
BRANCH  12  17
ATOM     17  C   UNL A   1      32.556  22.345  23.627  1.00  0.00     0.020 A 
ATOM     18  C   UNL A   1      32.079  26.561  22.746  1.00  0.00     0.044 C 
ATOM     19  C   UNL A   1      32.202  25.090  23.012  1.00  0.00    -0.050 A 
ATOM     20  C   UNL A   1      32.961  24.276  22.171  1.00  0.00     0.004 A 
ATOM     21  C   UNL A   1      31.531  24.504  24.092  1.00  0.00     0.024 A 
ATOM     22  C   UNL A   1      33.115  22.918  22.466  1.00  0.00     0.012 A 
ATOM     23  C   UNL A   1      31.701  23.145  24.395  1.00  0.00     0.050 A 
ATOM     24  Cl  UNL A   1      30.803  22.499  25.726  1.00  0.00    -0.084 Cl
ENDBRANCH  12  17
ENDBRANCH   9  11
ENDBRANCH   8   9
ENDBRANCH   7   8
ENDBRANCH   6   7
ENDBRANCH   5   6
ENDBRANCH   4   5
ENDBRANCH   3   4
ENDBRANCH   2   3
ENDBRANCH   1   2
BRANCH   1  25
ATOM     25  C   UNL A   1      42.743  23.727  26.652  1.00  0.00     0.188 C 
BRANCH  25  26
ATOM     26  O   UNL A   1      43.247  22.675  25.834  1.00  0.00    -0.376 OA
BRANCH  26  27
ATOM     27  C   UNL A   1      43.660  22.999  24.516  1.00  0.00     0.202 C 
BRANCH  27  28
ATOM     28  C   UNL A   1      45.156  23.069  24.164  1.00  0.00     0.261 C 
BRANCH  28  29
ATOM     29  O   UNL A   1      45.908  24.174  24.683  1.00  0.00    -0.460 OA
BRANCH  29  30
ATOM     30  C   UNL A   1      46.263  24.171  25.991  1.00  0.00     0.338 C 
ATOM     31  O   UNL A   1      46.761  23.268  26.615  1.00  0.00    -0.246 OA
BRANCH  30  32
ATOM     32  C   UNL A   1      46.122  25.578  26.451  1.00  0.00     0.060 A 
ATOM     33  C   UNL A   1      46.514  25.918  27.754  1.00  0.00     0.016 A 
ATOM     34  C   UNL A   1      45.702  26.566  25.559  1.00  0.00     0.016 A 
ATOM     35  C   UNL A   1      46.498  27.254  28.163  1.00  0.00     0.010 A 
ATOM     36  C   UNL A   1      45.652  27.896  25.981  1.00  0.00     0.010 A 
ATOM     37  C   UNL A   1      46.038  28.244  27.287  1.00  0.00    -0.014 A 
BRANCH  37  38
ATOM     38  C   UNL A   1      45.792  29.623  27.768  1.00  0.00     0.031 A 
ATOM     39  C   UNL A   1      44.455  29.931  28.376  1.00  0.00     0.074 A 
ATOM     40  C   UNL A   1      46.708  30.596  27.611  1.00  0.00     0.049 A 
ATOM     41  N   UNL A   1      43.956  31.079  28.745  1.00  0.00    -0.248 NA
ATOM     42  C   UNL A   1      43.555  28.783  28.587  1.00  0.00     0.031 C 
ATOM     43  C   UNL A   1      48.047  30.416  27.052  1.00  0.00     0.029 A 
ATOM     44  N   UNL A   1      46.629  31.942  27.874  1.00  0.00    -0.354 N 
ATOM     45  C   UNL A   1      42.672  30.802  29.199  1.00  0.00     0.074 A 
ATOM     46  C   UNL A   1      42.469  29.376  29.061  1.00  0.00     0.031 C 
ATOM     47  C   UNL A   1      48.648  31.616  26.968  1.00  0.00     0.029 A 
ATOM     48  C   UNL A   1      47.723  32.650  27.432  1.00  0.00     0.049 A 
ATOM     49  H   UNL A   1      45.865  32.359  28.333  1.00  0.00     0.167 HD
ATOM     50  C   UNL A   1      41.747  31.657  29.690  1.00  0.00     0.034 A 
ATOM     51  C   UNL A   1      47.931  33.981  27.367  1.00  0.00     0.034 A 
ATOM     52  C   UNL A   1      41.953  33.072  29.826  1.00  0.00     0.049 A 
ATOM     53  C   UNL A   1      46.859  34.920  27.863  1.00  0.00     0.074 A 
ATOM     54  C   UNL A   1      41.097  34.016  30.364  1.00  0.00     0.029 A 
ATOM     55  N   UNL A   1      43.082  33.751  29.397  1.00  0.00    -0.354 N 
ATOM     56  N   UNL A   1      45.699  34.639  28.410  1.00  0.00    -0.248 NA
ATOM     57  C   UNL A   1      47.129  36.363  27.751  1.00  0.00     0.031 C 
ATOM     58  C   UNL A   1      41.692  35.274  30.220  1.00  0.00     0.029 A 
ATOM     59  C   UNL A   1      42.934  35.107  29.628  1.00  0.00     0.049 A 
ATOM     60  H   UNL A   1      43.873  33.331  28.990  1.00  0.00     0.167 HD
ATOM     61  C   UNL A   1      45.115  35.861  28.725  1.00  0.00     0.074 A 
ATOM     62  C   UNL A   1      46.059  36.888  28.334  1.00  0.00     0.031 C 
ATOM     63  C   UNL A   1      43.901  36.115  29.272  1.00  0.00     0.034 A 
BRANCH  50  64
ATOM     64  C   UNL A   1      40.425  31.082  30.118  1.00  0.00     0.023 A 
ATOM     65  C   UNL A   1      39.333  31.091  29.226  1.00  0.00     0.012 A 
ATOM     66  C   UNL A   1      40.277  30.489  31.387  1.00  0.00     0.148 A 
ATOM     67  C   UNL A   1      38.106  30.546  29.602  1.00  0.00     0.002 A 
ATOM     68  C   UNL A   1      39.065  29.907  31.737  1.00  0.00     0.091 A 
ATOM     69  F   UNL A   1      41.320  30.514  32.229  1.00  0.00    -0.205 F 
ATOM     70  C   UNL A   1      37.976  29.945  30.850  1.00  0.00     0.022 A 
BRANCH  68  71
ATOM     71  S   UNL A   1      38.820  29.041  33.291  1.00  0.00     0.127 S 
ATOM     72  O   UNL A   1      39.932  28.091  33.276  1.00  0.00    -0.237 OA
ATOM     73  O   UNL A   1      38.953  30.122  34.267  1.00  0.00    -0.237 OA
ATOM     74  O   UNL A   1      37.493  28.446  33.217  1.00  0.00    -0.744 OA
ENDBRANCH  68  71
ENDBRANCH  50  64
BRANCH  51  75
ATOM     75  C   UNL A   1      49.205  34.515  26.804  1.00  0.00     0.023 A 
ATOM     76  C   UNL A   1      49.275  34.851  25.438  1.00  0.00     0.012 A 
ATOM     77  C   UNL A   1      50.345  34.694  27.613  1.00  0.00     0.148 A 
ATOM     78  C   UNL A   1      50.462  35.329  24.883  1.00  0.00     0.002 A 
ATOM     79  C   UNL A   1      51.507  35.226  27.066  1.00  0.00     0.091 A 
ATOM     80  F   UNL A   1      50.266  34.348  28.906  1.00  0.00    -0.205 F 
ATOM     81  C   UNL A   1      51.574  35.526  25.697  1.00  0.00     0.022 A 
BRANCH  79  82
ATOM     82  S   UNL A   1      52.944  35.635  28.063  1.00  0.00     0.127 S 
ATOM     83  O   UNL A   1      52.408  36.655  28.960  1.00  0.00    -0.237 OA
ATOM     84  O   UNL A   1      53.245  34.351  28.698  1.00  0.00    -0.237 OA
ATOM     85  O   UNL A   1      53.959  36.093  27.125  1.00  0.00    -0.744 OA
ENDBRANCH  79  82
ENDBRANCH  51  75
BRANCH  63  86
ATOM     86  C   UNL A   1      43.516  37.555  29.503  1.00  0.00     0.023 A 
ATOM     87  C   UNL A   1      42.760  38.239  28.531  1.00  0.00     0.012 A 
ATOM     88  C   UNL A   1      43.816  38.195  30.722  1.00  0.00     0.148 A 
ATOM     89  C   UNL A   1      42.330  39.546  28.757  1.00  0.00     0.002 A 
ATOM     90  C   UNL A   1      43.343  39.479  30.961  1.00  0.00     0.091 A 
ATOM     91  F   UNL A   1      44.544  37.529  31.630  1.00  0.00    -0.205 F 
ATOM     92  C   UNL A   1      42.610  40.161  29.976  1.00  0.00     0.022 A 
BRANCH  90  93
ATOM     93  S   UNL A   1      43.569  40.319  32.533  1.00  0.00     0.127 S 
ATOM     94  O   UNL A   1      42.655  41.455  32.398  1.00  0.00    -0.237 OA
ATOM     95  O   UNL A   1      43.138  39.302  33.491  1.00  0.00    -0.237 OA
ATOM     96  O   UNL A   1      44.981  40.668  32.607  1.00  0.00    -0.744 OA
ENDBRANCH  90  93
ENDBRANCH  63  86
ENDBRANCH  37  38
ENDBRANCH  30  32
ENDBRANCH  29  30
ENDBRANCH  28  29
ENDBRANCH  27  28
ENDBRANCH  26  27
ENDBRANCH  25  26
ENDBRANCH   1  25
TORSDOF 24
ENDMDL
