MODEL 1
REMARK VINA RESULT:      -7.1      0.000      0.000
REMARK SMILES CC[C@H](C)CN(CC)C(=O)NC[C@@](C)(O)C(=O)OCCOCCOCCOCCOC(=O)c1ccc(-c2c3nc(c(-c4cccc(S(=O)(=O)[O-])c4F)c4ccc([nH]4)c(-c4cccc(S(=O)(=O)[O-])c4F)c4nc(c(-c5cccc(S(=O)(=O)[O-])c5F)c5ccc2[nH]5)C=C4)C=C3)cc1
REMARK SMILES IDX 22 1 21 2 20 3 19 4 18 5 16 6 17 7 13 8 14 9 12 10 11 11
REMARK SMILES IDX 9 12 10 13 6 15 5 16 3 17 4 18 2 19 1 20 7 21 8 22 15 23
REMARK SMILES IDX 23 25 24 26 25 27 26 28 27 29 28 30 29 31 30 32 31 33 32 34
REMARK SMILES IDX 33 35 34 36 95 37 35 38 94 39 36 40 37 41 38 42 88 43 39 44
REMARK SMILES IDX 93 45 87 46 89 47 40 48 92 49 86 50 85 51 41 53 73 54 53 55
REMARK SMILES IDX 72 56 54 57 57 58 71 59 90 60 55 61 56 62 70 64 91 65 58 66
REMARK SMILES IDX 42 67 43 68 51 69 44 70 46 71 52 72 45 73 47 74 48 75 49 76
REMARK SMILES IDX 50 77 74 78 75 79 83 80 76 81 78 82 84 83 77 84 79 85 80 86
REMARK SMILES IDX 81 87 82 88 59 89 60 90 68 91 61 92 63 93 69 94 62 95 64 96
REMARK SMILES IDX 65 97 66 98 67 99
REMARK H PARENT 11 14 15 24 89 52 57 63
REMARK Flexibility Score: inf
ROOT
ATOM      1  C   UNL A   1      33.658  33.491  27.890  1.00  0.00     0.188 C 
ENDROOT
BRANCH   1   2
ATOM      2  O   UNL A   1      33.958  32.194  28.390  1.00  0.00    -0.376 OA
BRANCH   2   3
ATOM      3  C   UNL A   1      33.664  31.099  27.538  1.00  0.00     0.202 C 
BRANCH   3   4
ATOM      4  C   UNL A   1      32.294  31.032  26.844  1.00  0.00     0.261 C 
BRANCH   4   5
ATOM      5  O   UNL A   1      31.716  29.723  26.738  1.00  0.00    -0.461 OA
BRANCH   5   6
ATOM      6  C   UNL A   1      31.562  29.168  25.513  1.00  0.00     0.339 C 
ATOM      7  O   UNL A   1      31.042  29.734  24.557  1.00  0.00    -0.249 OA
BRANCH   6   8
ATOM      8  C   UNL A   1      32.123  27.715  25.460  1.00  0.00     0.176 C 
ATOM      9  C   UNL A   1      33.066  27.576  26.658  1.00  0.00     0.057 C 
BRANCH   8  10
ATOM     10  C   UNL A   1      30.974  26.662  25.485  1.00  0.00     0.164 C 
BRANCH  10  11
ATOM     11  N   UNL A   1      31.050  25.684  26.553  1.00  0.00    -0.334 N 
ATOM     12  C   UNL A   1      31.394  24.383  26.569  1.00  0.00     0.317 C 
ATOM     13  O   UNL A   1      30.733  23.685  27.345  1.00  0.00    -0.249 OA
ATOM     14  H   UNL A   1      30.801  26.041  27.437  1.00  0.00     0.165 HD
BRANCH  12  15
ATOM     15  N   UNL A   1      32.437  23.869  25.840  1.00  0.00    -0.325 N 
BRANCH  15  16
ATOM     16  C   UNL A   1      32.084  23.282  24.532  1.00  0.00     0.124 C 
BRANCH  16  17
ATOM     17  C   UNL A   1      33.180  22.349  23.937  1.00  0.00     0.005 C 
ATOM     18  C   UNL A   1      32.622  20.990  23.499  1.00  0.00     0.009 C 
BRANCH  17  19
ATOM     19  C   UNL A   1      33.886  23.075  22.770  1.00  0.00     0.002 C 
ATOM     20  C   UNL A   1      35.408  23.081  22.858  1.00  0.00     0.004 C 
ENDBRANCH  17  19
ENDBRANCH  16  17
ENDBRANCH  15  16
BRANCH  15  21
ATOM     21  C   UNL A   1      33.822  23.660  26.271  1.00  0.00     0.118 C 
ATOM     22  C   UNL A   1      34.744  24.815  25.895  1.00  0.00     0.027 C 
ENDBRANCH  15  21
ENDBRANCH  12  15
ENDBRANCH  10  11
ENDBRANCH   8  10
BRANCH   8  23
ATOM     23  O   UNL A   1      32.914  27.442  24.296  1.00  0.00    -0.377 OA
ATOM     24  H   UNL A   1      33.792  27.132  24.567  1.00  0.00     0.212 HD
ENDBRANCH   8  23
ENDBRANCH   6   8
ENDBRANCH   5   6
ENDBRANCH   4   5
ENDBRANCH   3   4
ENDBRANCH   2   3
ENDBRANCH   1   2
BRANCH   1  25
ATOM     25  C   UNL A   1      33.581  34.550  29.001  1.00  0.00     0.188 C 
BRANCH  25  26
ATOM     26  O   UNL A   1      34.013  34.165  30.288  1.00  0.00    -0.377 OA
BRANCH  26  27
ATOM     27  C   UNL A   1      33.667  34.980  31.396  1.00  0.00     0.188 C 
BRANCH  27  28
ATOM     28  C   UNL A   1      34.705  35.382  32.473  1.00  0.00     0.188 C 
BRANCH  28  29
ATOM     29  O   UNL A   1      35.826  34.516  32.618  1.00  0.00    -0.376 OA
BRANCH  29  30
ATOM     30  C   UNL A   1      35.696  33.441  33.536  1.00  0.00     0.202 C 
BRANCH  30  31
ATOM     31  C   UNL A   1      35.585  32.055  32.893  1.00  0.00     0.261 C 
BRANCH  31  32
ATOM     32  O   UNL A   1      36.628  31.726  31.970  1.00  0.00    -0.460 OA
BRANCH  32  33
ATOM     33  C   UNL A   1      37.708  31.069  32.447  1.00  0.00     0.338 C 
ATOM     34  O   UNL A   1      37.722  30.098  33.184  1.00  0.00    -0.246 OA
BRANCH  33  35
ATOM     35  C   UNL A   1      38.880  31.623  31.750  1.00  0.00     0.060 A 
ATOM     36  C   UNL A   1      38.954  31.534  30.351  1.00  0.00     0.016 A 
ATOM     37  C   UNL A   1      39.865  32.290  32.481  1.00  0.00     0.016 A 
ATOM     38  C   UNL A   1      40.037  32.099  29.678  1.00  0.00     0.010 A 
ATOM     39  C   UNL A   1      40.959  32.826  31.811  1.00  0.00     0.010 A 
ATOM     40  C   UNL A   1      41.063  32.702  30.414  1.00  0.00    -0.014 A 
BRANCH  40  41
ATOM     41  C   UNL A   1      42.382  32.952  29.797  1.00  0.00     0.031 A 
ATOM     42  C   UNL A   1      43.341  31.797  29.757  1.00  0.00     0.074 A 
ATOM     43  C   UNL A   1      42.750  34.175  29.381  1.00  0.00     0.049 A 
ATOM     44  N   UNL A   1      44.605  31.776  29.434  1.00  0.00    -0.248 NA
ATOM     45  C   UNL A   1      42.798  30.486  30.160  1.00  0.00     0.031 C 
ATOM     46  C   UNL A   1      41.893  35.357  29.357  1.00  0.00     0.029 A 
ATOM     47  N   UNL A   1      43.967  34.626  28.937  1.00  0.00    -0.354 N 
ATOM     48  C   UNL A   1      45.021  30.468  29.645  1.00  0.00     0.074 A 
ATOM     49  C   UNL A   1      43.876  29.722  30.116  1.00  0.00     0.031 C 
ATOM     50  C   UNL A   1      42.622  36.412  28.949  1.00  0.00     0.029 A 
ATOM     51  C   UNL A   1      44.001  35.984  28.726  1.00  0.00     0.049 A 
ATOM     52  H   UNL A   1      44.739  34.036  28.784  1.00  0.00     0.167 HD
ATOM     53  C   UNL A   1      46.249  29.934  29.465  1.00  0.00     0.034 A 
ATOM     54  C   UNL A   1      45.043  36.785  28.419  1.00  0.00     0.034 A 
ATOM     55  C   UNL A   1      47.377  30.685  28.993  1.00  0.00     0.049 A 
ATOM     56  C   UNL A   1      46.413  36.174  28.256  1.00  0.00     0.074 A 
ATOM     57  C   UNL A   1      48.656  30.236  28.725  1.00  0.00     0.029 A 
ATOM     58  N   UNL A   1      47.363  32.048  28.742  1.00  0.00    -0.354 N 
ATOM     59  N   UNL A   1      46.774  34.917  28.353  1.00  0.00    -0.248 NA
ATOM     60  C   UNL A   1      47.516  37.089  27.923  1.00  0.00     0.031 C 
ATOM     61  C   UNL A   1      49.428  31.338  28.345  1.00  0.00     0.029 A 
ATOM     62  C   UNL A   1      48.616  32.464  28.336  1.00  0.00     0.049 A 
ATOM     63  H   UNL A   1      46.577  32.632  28.838  1.00  0.00     0.167 HD
ATOM     64  C   UNL A   1      48.130  34.882  28.041  1.00  0.00     0.074 A 
ATOM     65  C   UNL A   1      48.527  36.246  27.757  1.00  0.00     0.031 C 
ATOM     66  C   UNL A   1      48.971  33.818  27.992  1.00  0.00     0.034 A 
BRANCH  53  67
ATOM     67  C   UNL A   1      46.426  28.477  29.795  1.00  0.00     0.023 A 
ATOM     68  C   UNL A   1      46.752  28.087  31.110  1.00  0.00     0.012 A 
ATOM     69  C   UNL A   1      46.268  27.494  28.799  1.00  0.00     0.148 A 
ATOM     70  C   UNL A   1      46.963  26.743  31.418  1.00  0.00     0.002 A 
ATOM     71  C   UNL A   1      46.429  26.154  29.126  1.00  0.00     0.091 A 
ATOM     72  F   UNL A   1      45.992  27.887  27.549  1.00  0.00    -0.205 F 
ATOM     73  C   UNL A   1      46.791  25.778  30.430  1.00  0.00     0.022 A 
BRANCH  71  74
ATOM     74  S   UNL A   1      46.151  24.836  27.939  1.00  0.00     0.127 S 
ATOM     75  O   UNL A   1      47.503  24.309  27.760  1.00  0.00    -0.237 OA
ATOM     76  O   UNL A   1      45.243  23.951  28.668  1.00  0.00    -0.237 OA
ATOM     77  O   UNL A   1      45.564  25.471  26.767  1.00  0.00    -0.744 OA
ENDBRANCH  71  74
ENDBRANCH  53  67
BRANCH  54  78
ATOM     78  C   UNL A   1      44.822  38.242  28.196  1.00  0.00     0.023 A 
ATOM     79  C   UNL A   1      44.517  38.697  26.898  1.00  0.00     0.012 A 
ATOM     80  C   UNL A   1      44.886  39.174  29.251  1.00  0.00     0.148 A 
ATOM     81  C   UNL A   1      44.301  40.052  26.649  1.00  0.00     0.002 A 
ATOM     82  C   UNL A   1      44.623  40.517  29.006  1.00  0.00     0.091 A 
ATOM     83  F   UNL A   1      45.190  38.723  30.476  1.00  0.00    -0.205 F 
ATOM     84  C   UNL A   1      44.344  40.960  27.703  1.00  0.00     0.022 A 
BRANCH  82  85
ATOM     85  S   UNL A   1      44.549  41.749  30.312  1.00  0.00     0.127 S 
ATOM     86  O   UNL A   1      45.922  41.739  30.811  1.00  0.00    -0.237 OA
ATOM     87  O   UNL A   1      44.173  42.951  29.567  1.00  0.00    -0.237 OA
ATOM     88  O   UNL A   1      43.540  41.275  31.248  1.00  0.00    -0.744 OA
ENDBRANCH  82  85
ENDBRANCH  54  78
BRANCH  66  89
ATOM     89  C   UNL A   1      50.390  34.049  27.546  1.00  0.00     0.023 A 
ATOM     90  C   UNL A   1      51.404  34.270  28.497  1.00  0.00     0.012 A 
ATOM     91  C   UNL A   1      50.731  33.903  26.187  1.00  0.00     0.148 A 
ATOM     92  C   UNL A   1      52.738  34.355  28.097  1.00  0.00     0.002 A 
ATOM     93  C   UNL A   1      52.066  33.936  25.803  1.00  0.00     0.091 A 
ATOM     94  F   UNL A   1      49.745  33.706  25.299  1.00  0.00    -0.205 F 
ATOM     95  C   UNL A   1      53.069  34.172  26.756  1.00  0.00     0.022 A 
BRANCH  93  96
ATOM     96  S   UNL A   1      52.595  33.600  24.119  1.00  0.00     0.127 S 
ATOM     97  O   UNL A   1      51.737  32.472  23.758  1.00  0.00    -0.237 OA
ATOM     98  O   UNL A   1      52.273  34.854  23.439  1.00  0.00    -0.237 OA
ATOM     99  O   UNL A   1      54.018  33.297  24.195  1.00  0.00    -0.744 OA
ENDBRANCH  93  96
ENDBRANCH  66  89
ENDBRANCH  40  41
ENDBRANCH  33  35
ENDBRANCH  32  33
ENDBRANCH  31  32
ENDBRANCH  30  31
ENDBRANCH  29  30
ENDBRANCH  28  29
ENDBRANCH  27  28
ENDBRANCH  26  27
ENDBRANCH  25  26
ENDBRANCH   1  25
TORSDOF 31
ENDMDL
MODEL 2
REMARK VINA RESULT:      -6.9      6.517      9.350
REMARK SMILES CC[C@H](C)CN(CC)C(=O)NC[C@@](C)(O)C(=O)OCCOCCOCCOCCOC(=O)c1ccc(-c2c3nc(c(-c4cccc(S(=O)(=O)[O-])c4F)c4ccc([nH]4)c(-c4cccc(S(=O)(=O)[O-])c4F)c4nc(c(-c5cccc(S(=O)(=O)[O-])c5F)c5ccc2[nH]5)C=C4)C=C3)cc1
REMARK SMILES IDX 22 1 21 2 20 3 19 4 18 5 16 6 17 7 13 8 14 9 12 10 11 11
REMARK SMILES IDX 9 12 10 13 6 15 5 16 3 17 4 18 2 19 1 20 7 21 8 22 15 23
REMARK SMILES IDX 23 25 24 26 25 27 26 28 27 29 28 30 29 31 30 32 31 33 32 34
REMARK SMILES IDX 33 35 34 36 95 37 35 38 94 39 36 40 37 41 38 42 88 43 39 44
REMARK SMILES IDX 93 45 87 46 89 47 40 48 92 49 86 50 85 51 41 53 73 54 53 55
REMARK SMILES IDX 72 56 54 57 57 58 71 59 90 60 55 61 56 62 70 64 91 65 58 66
REMARK SMILES IDX 42 67 43 68 51 69 44 70 46 71 52 72 45 73 47 74 48 75 49 76
REMARK SMILES IDX 50 77 74 78 75 79 83 80 76 81 78 82 84 83 77 84 79 85 80 86
REMARK SMILES IDX 81 87 82 88 59 89 60 90 68 91 61 92 63 93 69 94 62 95 64 96
REMARK SMILES IDX 65 97 66 98 67 99
REMARK H PARENT 11 14 15 24 89 52 57 63
REMARK Flexibility Score: inf
ROOT
ATOM      1  C   UNL A   1      34.862  33.078  28.087  1.00  0.00     0.188 C 
ENDROOT
BRANCH   1   2
ATOM      2  O   UNL A   1      34.107  31.881  28.221  1.00  0.00    -0.376 OA
BRANCH   2   3
ATOM      3  C   UNL A   1      33.573  31.327  27.030  1.00  0.00     0.202 C 
BRANCH   3   4
ATOM      4  C   UNL A   1      33.012  29.896  27.051  1.00  0.00     0.261 C 
BRANCH   4   5
ATOM      5  O   UNL A   1      33.002  29.215  25.789  1.00  0.00    -0.461 OA
BRANCH   5   6
ATOM      6  C   UNL A   1      32.049  29.524  24.880  1.00  0.00     0.339 C 
ATOM      7  O   UNL A   1      31.087  30.252  25.106  1.00  0.00    -0.249 OA
BRANCH   6   8
ATOM      8  C   UNL A   1      32.315  28.842  23.504  1.00  0.00     0.176 C 
ATOM      9  C   UNL A   1      33.834  28.840  23.313  1.00  0.00     0.057 C 
BRANCH   8  10
ATOM     10  C   UNL A   1      31.710  27.406  23.457  1.00  0.00     0.164 C 
BRANCH  10  11
ATOM     11  N   UNL A   1      32.360  26.487  22.542  1.00  0.00    -0.334 N 
ATOM     12  C   UNL A   1      33.016  25.328  22.734  1.00  0.00     0.317 C 
ATOM     13  O   UNL A   1      33.995  25.162  22.000  1.00  0.00    -0.249 OA
ATOM     14  H   UNL A   1      32.312  26.766  21.599  1.00  0.00     0.165 HD
BRANCH  12  15
ATOM     15  N   UNL A   1      32.606  24.366  23.623  1.00  0.00    -0.325 N 
BRANCH  15  16
ATOM     16  C   UNL A   1      31.322  24.623  24.307  1.00  0.00     0.124 C 
BRANCH  16  17
ATOM     17  C   UNL A   1      31.416  24.611  25.862  1.00  0.00     0.005 C 
ATOM     18  C   UNL A   1      31.776  25.984  26.440  1.00  0.00     0.009 C 
BRANCH  17  19
ATOM     19  C   UNL A   1      30.089  24.079  26.447  1.00  0.00     0.002 C 
ATOM     20  C   UNL A   1      30.151  22.641  26.948  1.00  0.00     0.004 C 
ENDBRANCH  17  19
ENDBRANCH  16  17
ENDBRANCH  15  16
BRANCH  15  21
ATOM     21  C   UNL A   1      33.363  23.212  24.118  1.00  0.00     0.118 C 
ATOM     22  C   UNL A   1      32.696  21.879  23.798  1.00  0.00     0.027 C 
ENDBRANCH  15  21
ENDBRANCH  12  15
ENDBRANCH  10  11
ENDBRANCH   8  10
BRANCH   8  23
ATOM     23  O   UNL A   1      31.773  29.559  22.388  1.00  0.00    -0.377 OA
ATOM     24  H   UNL A   1      32.345  30.315  22.181  1.00  0.00     0.212 HD
ENDBRANCH   8  23
ENDBRANCH   6   8
ENDBRANCH   5   6
ENDBRANCH   4   5
ENDBRANCH   3   4
ENDBRANCH   2   3
ENDBRANCH   1   2
BRANCH   1  25
ATOM     25  C   UNL A   1      34.652  34.044  29.264  1.00  0.00     0.188 C 
BRANCH  25  26
ATOM     26  O   UNL A   1      34.698  33.496  30.563  1.00  0.00    -0.377 OA
BRANCH  26  27
ATOM     27  C   UNL A   1      34.144  34.238  31.638  1.00  0.00     0.188 C 
BRANCH  27  28
ATOM     28  C   UNL A   1      35.033  34.959  32.680  1.00  0.00     0.188 C 
BRANCH  28  29
ATOM     29  O   UNL A   1      35.510  34.158  33.758  1.00  0.00    -0.376 OA
BRANCH  29  30
ATOM     30  C   UNL A   1      35.812  32.802  33.469  1.00  0.00     0.202 C 
BRANCH  30  31
ATOM     31  C   UNL A   1      37.202  32.565  32.871  1.00  0.00     0.261 C 
BRANCH  31  32
ATOM     32  O   UNL A   1      37.743  31.257  33.084  1.00  0.00    -0.460 OA
BRANCH  32  33
ATOM     33  C   UNL A   1      38.505  31.062  34.183  1.00  0.00     0.338 C 
ATOM     34  O   UNL A   1      38.212  31.296  35.342  1.00  0.00    -0.246 OA
BRANCH  33  35
ATOM     35  C   UNL A   1      39.699  30.322  33.740  1.00  0.00     0.060 A 
ATOM     36  C   UNL A   1      39.615  28.934  33.546  1.00  0.00     0.016 A 
ATOM     37  C   UNL A   1      40.874  31.018  33.453  1.00  0.00     0.016 A 
ATOM     38  C   UNL A   1      40.726  28.232  33.082  1.00  0.00     0.010 A 
ATOM     39  C   UNL A   1      41.990  30.312  33.018  1.00  0.00     0.010 A 
ATOM     40  C   UNL A   1      41.928  28.916  32.865  1.00  0.00    -0.014 A 
BRANCH  40  41
ATOM     41  C   UNL A   1      43.203  28.177  32.760  1.00  0.00     0.031 A 
ATOM     42  C   UNL A   1      44.055  28.117  33.995  1.00  0.00     0.074 A 
ATOM     43  C   UNL A   1      43.633  27.666  31.595  1.00  0.00     0.049 A 
ATOM     44  N   UNL A   1      45.279  27.691  34.142  1.00  0.00    -0.248 NA
ATOM     45  C   UNL A   1      43.443  28.635  35.234  1.00  0.00     0.031 C 
ATOM     46  C   UNL A   1      42.879  27.652  30.344  1.00  0.00     0.029 A 
ATOM     47  N   UNL A   1      44.840  27.097  31.272  1.00  0.00    -0.354 N 
ATOM     48  C   UNL A   1      45.601  27.935  35.471  1.00  0.00     0.074 A 
ATOM     49  C   UNL A   1      44.445  28.541  36.091  1.00  0.00     0.031 C 
ATOM     50  C   UNL A   1      43.655  27.128  29.377  1.00  0.00     0.029 A 
ATOM     51  C   UNL A   1      44.968  26.812  29.934  1.00  0.00     0.049 A 
ATOM     52  H   UNL A   1      45.543  26.912  31.934  1.00  0.00     0.167 HD
ATOM     53  C   UNL A   1      46.760  27.681  36.118  1.00  0.00     0.034 A 
ATOM     54  C   UNL A   1      46.041  26.376  29.242  1.00  0.00     0.034 A 
ATOM     55  C   UNL A   1      47.900  27.076  35.492  1.00  0.00     0.049 A 
ATOM     56  C   UNL A   1      47.336  26.131  29.978  1.00  0.00     0.074 A 
ATOM     57  C   UNL A   1      49.109  26.725  36.062  1.00  0.00     0.029 A 
ATOM     58  N   UNL A   1      47.978  26.754  34.145  1.00  0.00    -0.354 N 
ATOM     59  N   UNL A   1      47.599  26.264  31.256  1.00  0.00    -0.248 NA
ATOM     60  C   UNL A   1      48.478  25.658  29.180  1.00  0.00     0.031 C 
ATOM     61  C   UNL A   1      49.933  26.223  35.051  1.00  0.00     0.029 A 
ATOM     62  C   UNL A   1      49.220  26.222  33.860  1.00  0.00     0.049 A 
ATOM     63  H   UNL A   1      47.255  26.885  33.490  1.00  0.00     0.167 HD
ATOM     64  C   UNL A   1      48.914  25.841  31.424  1.00  0.00     0.074 A 
ATOM     65  C   UNL A   1      49.396  25.452  30.115  1.00  0.00     0.031 C 
ATOM     66  C   UNL A   1      49.655  25.779  32.559  1.00  0.00     0.034 A 
BRANCH  53  67
ATOM     67  C   UNL A   1      46.844  28.072  37.567  1.00  0.00     0.023 A 
ATOM     68  C   UNL A   1      46.333  27.212  38.561  1.00  0.00     0.012 A 
ATOM     69  C   UNL A   1      47.430  29.295  37.946  1.00  0.00     0.148 A 
ATOM     70  C   UNL A   1      46.365  27.583  39.905  1.00  0.00     0.002 A 
ATOM     71  C   UNL A   1      47.504  29.634  39.290  1.00  0.00     0.091 A 
ATOM     72  F   UNL A   1      47.879  30.115  36.985  1.00  0.00    -0.205 F 
ATOM     73  C   UNL A   1      46.959  28.788  40.269  1.00  0.00     0.022 A 
BRANCH  71  74
ATOM     74  S   UNL A   1      48.321  31.129  39.860  1.00  0.00     0.127 S 
ATOM     75  O   UNL A   1      48.209  31.993  38.686  1.00  0.00    -0.237 OA
ATOM     76  O   UNL A   1      47.483  31.526  40.991  1.00  0.00    -0.237 OA
ATOM     77  O   UNL A   1      49.674  30.731  40.221  1.00  0.00    -0.744 OA
ENDBRANCH  71  74
ENDBRANCH  53  67
BRANCH  54  78
ATOM     78  C   UNL A   1      45.925  26.095  27.783  1.00  0.00     0.023 A 
ATOM     79  C   UNL A   1      46.181  27.131  26.865  1.00  0.00     0.012 A 
ATOM     80  C   UNL A   1      45.591  24.815  27.297  1.00  0.00     0.148 A 
ATOM     81  C   UNL A   1      46.086  26.907  25.491  1.00  0.00     0.002 A 
ATOM     82  C   UNL A   1      45.544  24.585  25.927  1.00  0.00     0.091 A 
ATOM     83  F   UNL A   1      45.339  23.845  28.188  1.00  0.00    -0.205 F 
ATOM     84  C   UNL A   1      45.777  25.633  25.022  1.00  0.00     0.022 A 
BRANCH  82  85
ATOM     85  S   UNL A   1      45.260  22.957  25.221  1.00  0.00     0.127 S 
ATOM     86  O   UNL A   1      46.537  22.295  25.475  1.00  0.00    -0.237 OA
ATOM     87  O   UNL A   1      44.143  22.471  26.031  1.00  0.00    -0.237 OA
ATOM     88  O   UNL A   1      44.940  23.182  23.819  1.00  0.00    -0.744 OA
ENDBRANCH  82  85
ENDBRANCH  54  78
BRANCH  66  89
ATOM     89  C   UNL A   1      51.043  25.203  32.474  1.00  0.00     0.023 A 
ATOM     90  C   UNL A   1      52.152  26.050  32.291  1.00  0.00     0.012 A 
ATOM     91  C   UNL A   1      51.251  23.830  32.721  1.00  0.00     0.148 A 
ATOM     92  C   UNL A   1      53.447  25.536  32.342  1.00  0.00     0.002 A 
ATOM     93  C   UNL A   1      52.544  23.335  32.822  1.00  0.00     0.091 A 
ATOM     94  F   UNL A   1      50.177  23.042  32.879  1.00  0.00    -0.205 F 
ATOM     95  C   UNL A   1      53.644  24.185  32.623  1.00  0.00     0.022 A 
BRANCH  93  96
ATOM     96  S   UNL A   1      52.894  21.636  33.291  1.00  0.00     0.127 S 
ATOM     97  O   UNL A   1      52.356  21.586  34.650  1.00  0.00    -0.237 OA
ATOM     98  O   UNL A   1      52.127  20.880  32.302  1.00  0.00    -0.237 OA
ATOM     99  O   UNL A   1      54.339  21.478  33.190  1.00  0.00    -0.744 OA
ENDBRANCH  93  96
ENDBRANCH  66  89
ENDBRANCH  40  41
ENDBRANCH  33  35
ENDBRANCH  32  33
ENDBRANCH  31  32
ENDBRANCH  30  31
ENDBRANCH  29  30
ENDBRANCH  28  29
ENDBRANCH  27  28
ENDBRANCH  26  27
ENDBRANCH  25  26
ENDBRANCH   1  25
TORSDOF 31
ENDMDL
MODEL 3
REMARK VINA RESULT:      -6.7      5.199      9.725
REMARK SMILES CC[C@H](C)CN(CC)C(=O)NC[C@@](C)(O)C(=O)OCCOCCOCCOCCOC(=O)c1ccc(-c2c3nc(c(-c4cccc(S(=O)(=O)[O-])c4F)c4ccc([nH]4)c(-c4cccc(S(=O)(=O)[O-])c4F)c4nc(c(-c5cccc(S(=O)(=O)[O-])c5F)c5ccc2[nH]5)C=C4)C=C3)cc1
REMARK SMILES IDX 22 1 21 2 20 3 19 4 18 5 16 6 17 7 13 8 14 9 12 10 11 11
REMARK SMILES IDX 9 12 10 13 6 15 5 16 3 17 4 18 2 19 1 20 7 21 8 22 15 23
REMARK SMILES IDX 23 25 24 26 25 27 26 28 27 29 28 30 29 31 30 32 31 33 32 34
REMARK SMILES IDX 33 35 34 36 95 37 35 38 94 39 36 40 37 41 38 42 88 43 39 44
REMARK SMILES IDX 93 45 87 46 89 47 40 48 92 49 86 50 85 51 41 53 73 54 53 55
REMARK SMILES IDX 72 56 54 57 57 58 71 59 90 60 55 61 56 62 70 64 91 65 58 66
REMARK SMILES IDX 42 67 43 68 51 69 44 70 46 71 52 72 45 73 47 74 48 75 49 76
REMARK SMILES IDX 50 77 74 78 75 79 83 80 76 81 78 82 84 83 77 84 79 85 80 86
REMARK SMILES IDX 81 87 82 88 59 89 60 90 68 91 61 92 63 93 69 94 62 95 64 96
REMARK SMILES IDX 65 97 66 98 67 99
REMARK H PARENT 11 14 15 24 89 52 57 63
REMARK Flexibility Score: inf
ROOT
ATOM      1  C   UNL A   1      34.074  31.300  27.303  1.00  0.00     0.188 C 
ENDROOT
BRANCH   1   2
ATOM      2  O   UNL A   1      34.428  30.035  27.848  1.00  0.00    -0.376 OA
BRANCH   2   3
ATOM      3  C   UNL A   1      33.996  28.890  27.131  1.00  0.00     0.202 C 
BRANCH   3   4
ATOM      4  C   UNL A   1      32.508  28.505  27.152  1.00  0.00     0.261 C 
BRANCH   4   5
ATOM      5  O   UNL A   1      32.230  27.099  27.098  1.00  0.00    -0.461 OA
BRANCH   5   6
ATOM      6  C   UNL A   1      31.594  26.594  26.016  1.00  0.00     0.339 C 
ATOM      7  O   UNL A   1      30.638  27.128  25.462  1.00  0.00    -0.249 OA
BRANCH   6   8
ATOM      8  C   UNL A   1      32.220  25.244  25.552  1.00  0.00     0.176 C 
ATOM      9  C   UNL A   1      33.735  25.463  25.520  1.00  0.00     0.057 C 
BRANCH   8  10
ATOM     10  C   UNL A   1      31.810  24.075  26.499  1.00  0.00     0.164 C 
BRANCH  10  11
ATOM     11  N   UNL A   1      32.895  23.212  26.927  1.00  0.00    -0.334 N 
ATOM     12  C   UNL A   1      33.268  21.972  26.559  1.00  0.00     0.317 C 
ATOM     13  O   UNL A   1      33.690  21.267  27.481  1.00  0.00    -0.249 OA
ATOM     14  H   UNL A   1      33.469  23.612  27.621  1.00  0.00     0.165 HD
BRANCH  12  15
ATOM     15  N   UNL A   1      33.251  21.533  25.259  1.00  0.00    -0.325 N 
BRANCH  15  16
ATOM     16  C   UNL A   1      32.314  20.431  24.961  1.00  0.00     0.124 C 
BRANCH  16  17
ATOM     17  C   UNL A   1      33.006  19.057  24.717  1.00  0.00     0.005 C 
ATOM     18  C   UNL A   1      32.700  18.040  25.823  1.00  0.00     0.009 C 
BRANCH  17  19
ATOM     19  C   UNL A   1      32.598  18.522  23.327  1.00  0.00     0.002 C 
ATOM     20  C   UNL A   1      33.354  17.275  22.883  1.00  0.00     0.004 C 
ENDBRANCH  17  19
ENDBRANCH  16  17
ENDBRANCH  15  16
BRANCH  15  21
ATOM     21  C   UNL A   1      34.171  21.889  24.174  1.00  0.00     0.118 C 
ATOM     22  C   UNL A   1      35.631  21.903  24.611  1.00  0.00     0.027 C 
ENDBRANCH  15  21
ENDBRANCH  12  15
ENDBRANCH  10  11
ENDBRANCH   8  10
BRANCH   8  23
ATOM     23  O   UNL A   1      31.844  24.857  24.224  1.00  0.00    -0.377 OA
ATOM     24  H   UNL A   1      32.113  23.938  24.067  1.00  0.00     0.212 HD
ENDBRANCH   8  23
ENDBRANCH   6   8
ENDBRANCH   5   6
ENDBRANCH   4   5
ENDBRANCH   3   4
ENDBRANCH   2   3
ENDBRANCH   1   2
BRANCH   1  25
ATOM     25  C   UNL A   1      34.045  32.412  28.364  1.00  0.00     0.188 C 
BRANCH  25  26
ATOM     26  O   UNL A   1      34.684  32.146  29.594  1.00  0.00    -0.377 OA
BRANCH  26  27
ATOM     27  C   UNL A   1      34.987  33.232  30.454  1.00  0.00     0.188 C 
BRANCH  27  28
ATOM     28  C   UNL A   1      36.394  33.421  31.071  1.00  0.00     0.188 C 
BRANCH  28  29
ATOM     29  O   UNL A   1      37.150  32.233  31.284  1.00  0.00    -0.376 OA
BRANCH  29  30
ATOM     30  C   UNL A   1      36.463  31.124  31.844  1.00  0.00     0.202 C 
BRANCH  30  31
ATOM     31  C   UNL A   1      36.599  29.818  31.054  1.00  0.00     0.261 C 
BRANCH  31  32
ATOM     32  O   UNL A   1      37.857  29.149  31.194  1.00  0.00    -0.460 OA
BRANCH  32  33
ATOM     33  C   UNL A   1      38.188  28.679  32.417  1.00  0.00     0.338 C 
ATOM     34  O   UNL A   1      37.443  28.210  33.260  1.00  0.00    -0.246 OA
BRANCH  33  35
ATOM     35  C   UNL A   1      39.659  28.653  32.474  1.00  0.00     0.060 A 
ATOM     36  C   UNL A   1      40.382  28.170  31.372  1.00  0.00     0.016 A 
ATOM     37  C   UNL A   1      40.314  29.172  33.592  1.00  0.00     0.016 A 
ATOM     38  C   UNL A   1      41.775  28.187  31.397  1.00  0.00     0.010 A 
ATOM     39  C   UNL A   1      41.704  29.160  33.628  1.00  0.00     0.010 A 
ATOM     40  C   UNL A   1      42.435  28.636  32.547  1.00  0.00    -0.014 A 
BRANCH  40  41
ATOM     41  C   UNL A   1      43.859  28.311  32.771  1.00  0.00     0.031 A 
ATOM     42  C   UNL A   1      44.870  29.228  32.145  1.00  0.00     0.074 A 
ATOM     43  C   UNL A   1      44.238  27.197  33.418  1.00  0.00     0.049 A 
ATOM     44  N   UNL A   1      46.163  29.091  32.037  1.00  0.00    -0.248 NA
ATOM     45  C   UNL A   1      44.340  30.463  31.536  1.00  0.00     0.031 C 
ATOM     46  C   UNL A   1      43.342  26.252  34.079  1.00  0.00     0.029 A 
ATOM     47  N   UNL A   1      45.488  26.655  33.583  1.00  0.00    -0.354 N 
ATOM     48  C   UNL A   1      46.593  30.190  31.304  1.00  0.00     0.074 A 
ATOM     49  C   UNL A   1      45.428  30.989  31.000  1.00  0.00     0.031 C 
ATOM     50  C   UNL A   1      44.071  25.224  34.554  1.00  0.00     0.029 A 
ATOM     51  C   UNL A   1      45.472  25.423  34.191  1.00  0.00     0.049 A 
ATOM     52  H   UNL A   1      46.314  27.105  33.294  1.00  0.00     0.167 HD
ATOM     53  C   UNL A   1      47.848  30.506  30.917  1.00  0.00     0.034 A 
ATOM     54  C   UNL A   1      46.478  24.548  34.398  1.00  0.00     0.034 A 
ATOM     55  C   UNL A   1      48.998  29.706  31.229  1.00  0.00     0.049 A 
ATOM     56  C   UNL A   1      47.867  24.905  33.926  1.00  0.00     0.074 A 
ATOM     57  C   UNL A   1      50.324  29.955  30.932  1.00  0.00     0.029 A 
ATOM     58  N   UNL A   1      48.951  28.488  31.890  1.00  0.00    -0.354 N 
ATOM     59  N   UNL A   1      48.282  25.996  33.329  1.00  0.00    -0.248 NA
ATOM     60  C   UNL A   1      48.929  23.917  34.174  1.00  0.00     0.031 C 
ATOM     61  C   UNL A   1      51.078  28.867  31.383  1.00  0.00     0.029 A 
ATOM     62  C   UNL A   1      50.224  27.963  31.998  1.00  0.00     0.049 A 
ATOM     63  H   UNL A   1      48.133  28.062  32.232  1.00  0.00     0.167 HD
ATOM     64  C   UNL A   1      49.658  25.852  33.179  1.00  0.00     0.074 A 
ATOM     65  C   UNL A   1      50.005  24.563  33.743  1.00  0.00     0.031 C 
ATOM     66  C   UNL A   1      50.554  26.707  32.625  1.00  0.00     0.034 A 
BRANCH  53  67
ATOM     67  C   UNL A   1      48.028  31.759  30.105  1.00  0.00     0.023 A 
ATOM     68  C   UNL A   1      47.969  31.702  28.697  1.00  0.00     0.012 A 
ATOM     69  C   UNL A   1      48.254  32.996  30.739  1.00  0.00     0.148 A 
ATOM     70  C   UNL A   1      48.178  32.849  27.932  1.00  0.00     0.002 A 
ATOM     71  C   UNL A   1      48.410  34.142  29.971  1.00  0.00     0.091 A 
ATOM     72  F   UNL A   1      48.340  33.024  32.076  1.00  0.00    -0.205 F 
ATOM     73  C   UNL A   1      48.388  34.069  28.569  1.00  0.00     0.022 A 
BRANCH  71  74
ATOM     74  S   UNL A   1      48.606  35.770  30.705  1.00  0.00     0.127 S 
ATOM     75  O   UNL A   1      47.411  35.864  31.539  1.00  0.00    -0.237 OA
ATOM     76  O   UNL A   1      49.858  35.624  31.447  1.00  0.00    -0.237 OA
ATOM     77  O   UNL A   1      48.670  36.705  29.590  1.00  0.00    -0.744 OA
ENDBRANCH  71  74
ENDBRANCH  53  67
BRANCH  54  78
ATOM     78  C   UNL A   1      46.221  23.274  35.128  1.00  0.00     0.023 A 
ATOM     79  C   UNL A   1      45.924  22.111  34.390  1.00  0.00     0.012 A 
ATOM     80  C   UNL A   1      46.293  23.194  36.533  1.00  0.00     0.148 A 
ATOM     81  C   UNL A   1      45.680  20.900  35.035  1.00  0.00     0.002 A 
ATOM     82  C   UNL A   1      46.097  21.974  37.168  1.00  0.00     0.091 A 
ATOM     83  F   UNL A   1      46.566  24.314  37.217  1.00  0.00    -0.205 F 
ATOM     84  C   UNL A   1      45.776  20.828  36.423  1.00  0.00     0.022 A 
BRANCH  82  85
ATOM     85  S   UNL A   1      46.303  21.753  38.940  1.00  0.00     0.127 S 
ATOM     86  O   UNL A   1      47.720  22.059  39.116  1.00  0.00    -0.237 OA
ATOM     87  O   UNL A   1      45.384  22.758  39.475  1.00  0.00    -0.237 OA
ATOM     88  O   UNL A   1      45.921  20.375  39.215  1.00  0.00    -0.744 OA
ENDBRANCH  82  85
ENDBRANCH  54  78
BRANCH  66  89
ATOM     89  C   UNL A   1      52.012  26.335  32.659  1.00  0.00     0.023 A 
ATOM     90  C   UNL A   1      52.612  25.718  31.546  1.00  0.00     0.012 A 
ATOM     91  C   UNL A   1      52.813  26.733  33.749  1.00  0.00     0.148 A 
ATOM     92  C   UNL A   1      53.987  25.489  31.523  1.00  0.00     0.002 A 
ATOM     93  C   UNL A   1      54.189  26.551  33.697  1.00  0.00     0.091 A 
ATOM     94  F   UNL A   1      52.216  27.308  34.803  1.00  0.00    -0.205 F 
ATOM     95  C   UNL A   1      54.776  25.920  32.589  1.00  0.00     0.022 A 
BRANCH  93  96
ATOM     96  S   UNL A   1      55.294  27.173  34.969  1.00  0.00     0.127 S 
ATOM     97  O   UNL A   1      54.357  27.504  36.041  1.00  0.00    -0.237 OA
ATOM     98  O   UNL A   1      56.143  26.011  35.235  1.00  0.00    -0.237 OA
ATOM     99  O   UNL A   1      55.990  28.310  34.380  1.00  0.00    -0.744 OA
ENDBRANCH  93  96
ENDBRANCH  66  89
ENDBRANCH  40  41
ENDBRANCH  33  35
ENDBRANCH  32  33
ENDBRANCH  31  32
ENDBRANCH  30  31
ENDBRANCH  29  30
ENDBRANCH  28  29
ENDBRANCH  27  28
ENDBRANCH  26  27
ENDBRANCH  25  26
ENDBRANCH   1  25
TORSDOF 31
ENDMDL
