MODEL 1
REMARK VINA RESULT:      -8.9      0.000      0.000
REMARK SMILES CC(C)NC(=O)c1cccc(NC(=O)[C@@H]2[C@H](C(=O)OCCOCCOCCOCCOC(=O)c3ccc(-c4c5nc(c(-c6cccc(S(=O)(=O)[O-])c6F)c6ccc([nH]6)c(-c6cccc(S(=O)(=O)[O-])c6F)c6nc(c(-c7cccc(S(=O)(=O)[O-])c7F)c7ccc4[nH]7)C=C6)C=C5)cc3)C2(C)C)c1
REMARK SMILES IDX 24 1 23 2 22 3 21 4 20 5 19 6 17 7 18 8 16 9 15 10 97 11
REMARK SMILES IDX 98 12 99 13 13 14 12 15 14 17 11 18 7 19 8 20 100 21 9 22
REMARK SMILES IDX 10 23 5 24 4 25 6 27 2 28 1 29 3 30 25 31 26 32 27 33 28 34
REMARK SMILES IDX 29 35 30 36 31 37 32 38 33 39 34 40 35 41 96 42 36 43 95 44
REMARK SMILES IDX 37 45 38 46 39 47 89 48 40 49 94 50 88 51 90 52 41 53 93 54
REMARK SMILES IDX 87 55 86 56 42 58 74 59 54 60 73 61 55 62 58 63 72 64 91 65
REMARK SMILES IDX 56 66 57 67 71 69 92 70 59 71 43 72 44 73 52 74 45 75 47 76
REMARK SMILES IDX 53 77 46 78 48 79 49 80 50 81 51 82 75 83 76 84 84 85 77 86
REMARK SMILES IDX 79 87 85 88 78 89 80 90 81 91 82 92 83 93 60 94 61 95 69 96
REMARK SMILES IDX 62 97 64 98 70 99 63 100 65 101 66 102 67 103 68 104
REMARK H PARENT 12 16 4 26 90 57 58 68
REMARK Flexibility Score: inf
ROOT
ATOM      1  C   UNL A   1      37.094  23.528  25.461  1.00  0.00     0.188 C 
ENDROOT
BRANCH   1   2
ATOM      2  C   UNL A   1      36.961  22.550  24.277  1.00  0.00     0.188 C 
BRANCH   2   3
ATOM      3  O   UNL A   1      36.208  21.381  24.590  1.00  0.00    -0.376 OA
BRANCH   3   4
ATOM      4  C   UNL A   1      35.341  21.427  25.719  1.00  0.00     0.202 C 
BRANCH   4   5
ATOM      5  C   UNL A   1      33.835  21.336  25.424  1.00  0.00     0.261 C 
BRANCH   5   6
ATOM      6  O   UNL A   1      33.511  21.233  24.033  1.00  0.00    -0.463 OA
BRANCH   6   7
ATOM      7  C   UNL A   1      32.607  22.100  23.528  1.00  0.00     0.310 C 
ATOM      8  O   UNL A   1      31.793  21.873  22.635  1.00  0.00    -0.252 OA
BRANCH   7   9
ATOM      9  C   UNL A   1      32.500  23.229  24.459  1.00  0.00     0.118 C 
ATOM     10  C   UNL A   1      32.917  24.610  24.095  1.00  0.00     0.100 C 
ATOM     11  C   UNL A   1      31.482  24.328  24.550  1.00  0.00    -0.009 C 
ATOM     12  C   UNL A   1      31.118  24.816  25.933  1.00  0.00     0.013 C 
ATOM     13  C   UNL A   1      30.311  24.273  23.607  1.00  0.00     0.013 C 
BRANCH  10  14
ATOM     14  C   UNL A   1      33.246  25.064  22.733  1.00  0.00     0.228 C 
ATOM     15  N   UNL A   1      33.002  26.375  22.407  1.00  0.00    -0.326 N 
ATOM     16  H   UNL A   1      33.413  26.659  21.559  1.00  0.00     0.169 HD
ATOM     17  O   UNL A   1      33.779  24.314  21.923  1.00  0.00    -0.274 OA
BRANCH  15  18
ATOM     18  C   UNL A   1      32.274  27.391  23.061  1.00  0.00     0.041 A 
ATOM     19  C   UNL A   1      30.111  28.432  23.374  1.00  0.00     0.041 A 
ATOM     20  C   UNL A   1      30.643  29.322  24.306  1.00  0.00     0.014 A 
ATOM     21  C   UNL A   1      30.938  27.534  22.692  1.00  0.00     0.040 A 
ATOM     22  C   UNL A   1      31.979  29.209  24.662  1.00  0.00     0.003 A 
ATOM     23  C   UNL A   1      32.767  28.206  24.089  1.00  0.00     0.026 A 
BRANCH  19  24
ATOM     24  C   UNL A   1      28.645  28.404  23.200  1.00  0.00     0.251 C 
ATOM     25  N   UNL A   1      28.005  29.509  22.688  1.00  0.00    -0.350 N 
ATOM     26  H   UNL A   1      27.023  29.454  22.683  1.00  0.00     0.164 HD
ATOM     27  O   UNL A   1      28.019  27.374  23.427  1.00  0.00    -0.269 OA
BRANCH  25  28
ATOM     28  C   UNL A   1      28.559  30.752  22.149  1.00  0.00     0.076 C 
ATOM     29  C   UNL A   1      28.042  30.997  20.736  1.00  0.00     0.030 C 
ATOM     30  C   UNL A   1      28.224  31.913  23.078  1.00  0.00     0.030 C 
ENDBRANCH  25  28
ENDBRANCH  19  24
ENDBRANCH  15  18
ENDBRANCH  10  14
ENDBRANCH   7   9
ENDBRANCH   6   7
ENDBRANCH   5   6
ENDBRANCH   4   5
ENDBRANCH   3   4
ENDBRANCH   2   3
ENDBRANCH   1   2
BRANCH   1  31
ATOM     31  O   UNL A   1      38.361  23.503  26.082  1.00  0.00    -0.377 OA
BRANCH  31  32
ATOM     32  C   UNL A   1      39.035  22.247  26.168  1.00  0.00     0.188 C 
BRANCH  32  33
ATOM     33  C   UNL A   1      40.344  22.060  26.981  1.00  0.00     0.188 C 
BRANCH  33  34
ATOM     34  O   UNL A   1      41.497  21.699  26.228  1.00  0.00    -0.376 OA
BRANCH  34  35
ATOM     35  C   UNL A   1      42.288  22.751  25.695  1.00  0.00     0.202 C 
BRANCH  35  36
ATOM     36  C   UNL A   1      42.662  23.857  26.690  1.00  0.00     0.261 C 
BRANCH  36  37
ATOM     37  O   UNL A   1      41.621  24.804  26.969  1.00  0.00    -0.460 OA
BRANCH  37  38
ATOM     38  C   UNL A   1      41.495  25.859  26.134  1.00  0.00     0.338 C 
ATOM     39  O   UNL A   1      40.912  25.887  25.064  1.00  0.00    -0.246 OA
BRANCH  38  40
ATOM     40  C   UNL A   1      42.006  27.044  26.848  1.00  0.00     0.060 A 
ATOM     41  C   UNL A   1      42.630  26.872  28.092  1.00  0.00     0.016 A 
ATOM     42  C   UNL A   1      41.909  28.309  26.267  1.00  0.00     0.016 A 
ATOM     43  C   UNL A   1      43.142  27.978  28.770  1.00  0.00     0.010 A 
ATOM     44  C   UNL A   1      42.397  29.417  26.959  1.00  0.00     0.010 A 
ATOM     45  C   UNL A   1      42.988  29.259  28.224  1.00  0.00    -0.014 A 
BRANCH  45  46
ATOM     46  C   UNL A   1      43.254  30.455  29.054  1.00  0.00     0.031 A 
ATOM     47  C   UNL A   1      42.150  30.952  29.946  1.00  0.00     0.074 A 
ATOM     48  C   UNL A   1      44.428  31.105  28.993  1.00  0.00     0.049 A 
ATOM     49  N   UNL A   1      42.117  32.007  30.714  1.00  0.00    -0.248 NA
ATOM     50  C   UNL A   1      40.916  30.147  29.968  1.00  0.00     0.031 C 
ATOM     51  C   UNL A   1      45.572  30.713  28.175  1.00  0.00     0.029 A 
ATOM     52  N   UNL A   1      44.835  32.258  29.618  1.00  0.00    -0.354 N 
ATOM     53  C   UNL A   1      40.853  32.010  31.291  1.00  0.00     0.074 A 
ATOM     54  C   UNL A   1      40.146  30.858  30.776  1.00  0.00     0.031 C 
ATOM     55  C   UNL A   1      46.546  31.630  28.324  1.00  0.00     0.029 A 
ATOM     56  C   UNL A   1      46.081  32.684  29.225  1.00  0.00     0.049 A 
ATOM     57  H   UNL A   1      44.286  32.734  30.283  1.00  0.00     0.167 HD
ATOM     58  C   UNL A   1      40.331  32.884  32.182  1.00  0.00     0.034 A 
ATOM     59  C   UNL A   1      46.753  33.810  29.539  1.00  0.00     0.034 A 
ATOM     60  C   UNL A   1      41.034  34.028  32.692  1.00  0.00     0.049 A 
ATOM     61  C   UNL A   1      46.127  34.801  30.488  1.00  0.00     0.074 A 
ATOM     62  C   UNL A   1      40.612  34.951  33.630  1.00  0.00     0.029 A 
ATOM     63  N   UNL A   1      42.302  34.420  32.287  1.00  0.00    -0.354 N 
ATOM     64  N   UNL A   1      44.983  34.729  31.127  1.00  0.00    -0.248 NA
ATOM     65  C   UNL A   1      46.897  36.021  30.779  1.00  0.00     0.031 C 
ATOM     66  C   UNL A   1      41.611  35.921  33.768  1.00  0.00     0.029 A 
ATOM     67  C   UNL A   1      42.669  35.583  32.939  1.00  0.00     0.049 A 
ATOM     68  H   UNL A   1      42.860  33.939  31.633  1.00  0.00     0.167 HD
ATOM     69  C   UNL A   1      44.909  35.874  31.914  1.00  0.00     0.074 A 
ATOM     70  C   UNL A   1      46.135  36.612  31.690  1.00  0.00     0.031 C 
ATOM     71  C   UNL A   1      43.912  36.286  32.737  1.00  0.00     0.034 A 
BRANCH  58  72
ATOM     72  C   UNL A   1      38.931  32.618  32.667  1.00  0.00     0.023 A 
ATOM     73  C   UNL A   1      38.715  31.674  33.691  1.00  0.00     0.012 A 
ATOM     74  C   UNL A   1      37.834  33.312  32.123  1.00  0.00     0.148 A 
ATOM     75  C   UNL A   1      37.425  31.394  34.139  1.00  0.00     0.002 A 
ATOM     76  C   UNL A   1      36.555  33.060  32.606  1.00  0.00     0.091 A 
ATOM     77  F   UNL A   1      38.056  34.184  31.130  1.00  0.00    -0.205 F 
ATOM     78  C   UNL A   1      36.347  32.093  33.603  1.00  0.00     0.022 A 
BRANCH  76  79
ATOM     79  S   UNL A   1      35.112  33.961  32.029  1.00  0.00     0.127 S 
ATOM     80  O   UNL A   1      34.026  33.217  32.666  1.00  0.00    -0.237 OA
ATOM     81  O   UNL A   1      35.342  35.296  32.583  1.00  0.00    -0.237 OA
ATOM     82  O   UNL A   1      35.153  33.893  30.576  1.00  0.00    -0.744 OA
ENDBRANCH  76  79
ENDBRANCH  58  72
BRANCH  59  83
ATOM     83  C   UNL A   1      48.112  34.048  28.976  1.00  0.00     0.023 A 
ATOM     84  C   UNL A   1      49.239  33.544  29.654  1.00  0.00     0.012 A 
ATOM     85  C   UNL A   1      48.297  34.753  27.769  1.00  0.00     0.148 A 
ATOM     86  C   UNL A   1      50.525  33.758  29.157  1.00  0.00     0.002 A 
ATOM     87  C   UNL A   1      49.577  34.916  27.251  1.00  0.00     0.091 A 
ATOM     88  F   UNL A   1      47.213  35.239  27.148  1.00  0.00    -0.205 F 
ATOM     89  C   UNL A   1      50.693  34.434  27.952  1.00  0.00     0.022 A 
BRANCH  87  90
ATOM     90  S   UNL A   1      49.886  35.671  25.651  1.00  0.00     0.127 S 
ATOM     91  O   UNL A   1      49.491  37.057  25.892  1.00  0.00    -0.237 OA
ATOM     92  O   UNL A   1      51.325  35.461  25.491  1.00  0.00    -0.237 OA
ATOM     93  O   UNL A   1      49.061  34.939  24.700  1.00  0.00    -0.744 OA
ENDBRANCH  87  90
ENDBRANCH  59  83
BRANCH  71  94
ATOM     94  C   UNL A   1      44.102  37.587  33.477  1.00  0.00     0.023 A 
ATOM     95  C   UNL A   1      43.582  38.779  32.937  1.00  0.00     0.012 A 
ATOM     96  C   UNL A   1      44.720  37.615  34.744  1.00  0.00     0.148 A 
ATOM     97  C   UNL A   1      43.698  39.983  33.631  1.00  0.00     0.002 A 
ATOM     98  C   UNL A   1      44.789  38.808  35.452  1.00  0.00     0.091 A 
ATOM     99  F   UNL A   1      45.222  36.471  35.235  1.00  0.00    -0.205 F 
ATOM    100  C   UNL A   1      44.290  39.996  34.892  1.00  0.00     0.022 A 
BRANCH  98 101
ATOM    101  S   UNL A   1      45.446  38.905  37.121  1.00  0.00     0.127 S 
ATOM    102  O   UNL A   1      46.669  38.112  37.008  1.00  0.00    -0.237 OA
ATOM    103  O   UNL A   1      45.664  40.343  37.285  1.00  0.00    -0.237 OA
ATOM    104  O   UNL A   1      44.419  38.347  37.991  1.00  0.00    -0.744 OA
ENDBRANCH  98 101
ENDBRANCH  71  94
ENDBRANCH  45  46
ENDBRANCH  38  40
ENDBRANCH  37  38
ENDBRANCH  36  37
ENDBRANCH  35  36
ENDBRANCH  34  35
ENDBRANCH  33  34
ENDBRANCH  32  33
ENDBRANCH  31  32
ENDBRANCH   1  31
TORSDOF 27
ENDMDL
MODEL 2
REMARK VINA RESULT:      -8.2      4.672      5.970
REMARK SMILES CC(C)NC(=O)c1cccc(NC(=O)[C@@H]2[C@H](C(=O)OCCOCCOCCOCCOC(=O)c3ccc(-c4c5nc(c(-c6cccc(S(=O)(=O)[O-])c6F)c6ccc([nH]6)c(-c6cccc(S(=O)(=O)[O-])c6F)c6nc(c(-c7cccc(S(=O)(=O)[O-])c7F)c7ccc4[nH]7)C=C6)C=C5)cc3)C2(C)C)c1
REMARK SMILES IDX 24 1 23 2 22 3 21 4 20 5 19 6 17 7 18 8 16 9 15 10 97 11
REMARK SMILES IDX 98 12 99 13 13 14 12 15 14 17 11 18 7 19 8 20 100 21 9 22
REMARK SMILES IDX 10 23 5 24 4 25 6 27 2 28 1 29 3 30 25 31 26 32 27 33 28 34
REMARK SMILES IDX 29 35 30 36 31 37 32 38 33 39 34 40 35 41 96 42 36 43 95 44
REMARK SMILES IDX 37 45 38 46 39 47 89 48 40 49 94 50 88 51 90 52 41 53 93 54
REMARK SMILES IDX 87 55 86 56 42 58 74 59 54 60 73 61 55 62 58 63 72 64 91 65
REMARK SMILES IDX 56 66 57 67 71 69 92 70 59 71 43 72 44 73 52 74 45 75 47 76
REMARK SMILES IDX 53 77 46 78 48 79 49 80 50 81 51 82 75 83 76 84 84 85 77 86
REMARK SMILES IDX 79 87 85 88 78 89 80 90 81 91 82 92 83 93 60 94 61 95 69 96
REMARK SMILES IDX 62 97 64 98 70 99 63 100 65 101 66 102 67 103 68 104
REMARK H PARENT 12 16 4 26 90 57 58 68
REMARK Flexibility Score: inf
ROOT
ATOM      1  C   UNL A   1      40.897  20.612  27.150  1.00  0.00     0.188 C 
ENDROOT
BRANCH   1   2
ATOM      2  C   UNL A   1      39.865  20.185  26.087  1.00  0.00     0.188 C 
BRANCH   2   3
ATOM      3  O   UNL A   1      38.956  21.223  25.730  1.00  0.00    -0.376 OA
BRANCH   3   4
ATOM      4  C   UNL A   1      37.712  20.850  25.147  1.00  0.00     0.202 C 
BRANCH   4   5
ATOM      5  C   UNL A   1      37.114  21.836  24.130  1.00  0.00     0.261 C 
BRANCH   5   6
ATOM      6  O   UNL A   1      36.381  22.917  24.717  1.00  0.00    -0.463 OA
BRANCH   6   7
ATOM      7  C   UNL A   1      35.338  23.423  24.024  1.00  0.00     0.310 C 
ATOM      8  O   UNL A   1      35.196  23.415  22.803  1.00  0.00    -0.252 OA
BRANCH   7   9
ATOM      9  C   UNL A   1      34.238  23.649  24.970  1.00  0.00     0.118 C 
ATOM     10  C   UNL A   1      32.819  23.750  24.536  1.00  0.00     0.100 C 
ATOM     11  C   UNL A   1      33.244  22.692  25.558  1.00  0.00    -0.009 C 
ATOM     12  C   UNL A   1      32.813  22.940  26.986  1.00  0.00     0.013 C 
ATOM     13  C   UNL A   1      33.398  21.234  25.224  1.00  0.00     0.013 C 
BRANCH  10  14
ATOM     14  C   UNL A   1      32.315  23.406  23.196  1.00  0.00     0.228 C 
ATOM     15  N   UNL A   1      32.300  24.386  22.235  1.00  0.00    -0.326 N 
ATOM     16  H   UNL A   1      32.134  24.050  21.324  1.00  0.00     0.169 HD
ATOM     17  O   UNL A   1      31.969  22.263  22.919  1.00  0.00    -0.274 OA
BRANCH  15  18
ATOM     18  C   UNL A   1      32.480  25.783  22.307  1.00  0.00     0.041 A 
ATOM     19  C   UNL A   1      31.542  27.898  23.020  1.00  0.00     0.041 A 
ATOM     20  C   UNL A   1      32.679  28.580  22.589  1.00  0.00     0.014 A 
ATOM     21  C   UNL A   1      31.406  26.523  22.799  1.00  0.00     0.040 A 
ATOM     22  C   UNL A   1      33.744  27.857  22.071  1.00  0.00     0.003 A 
ATOM     23  C   UNL A   1      33.665  26.463  21.995  1.00  0.00     0.026 A 
BRANCH  19  24
ATOM     24  C   UNL A   1      30.534  28.650  23.793  1.00  0.00     0.251 C 
ATOM     25  N   UNL A   1      30.599  28.649  25.167  1.00  0.00    -0.350 N 
ATOM     26  H   UNL A   1      29.847  29.094  25.619  1.00  0.00     0.164 HD
ATOM     27  O   UNL A   1      29.701  29.338  23.212  1.00  0.00    -0.269 OA
BRANCH  25  28
ATOM     28  C   UNL A   1      31.615  28.090  26.061  1.00  0.00     0.076 C 
ATOM     29  C   UNL A   1      31.839  29.010  27.255  1.00  0.00     0.030 C 
ATOM     30  C   UNL A   1      31.202  26.690  26.501  1.00  0.00     0.030 C 
ENDBRANCH  25  28
ENDBRANCH  19  24
ENDBRANCH  15  18
ENDBRANCH  10  14
ENDBRANCH   7   9
ENDBRANCH   6   7
ENDBRANCH   5   6
ENDBRANCH   4   5
ENDBRANCH   3   4
ENDBRANCH   2   3
ENDBRANCH   1   2
BRANCH   1  31
ATOM     31  O   UNL A   1      42.116  21.074  26.609  1.00  0.00    -0.377 OA
BRANCH  31  32
ATOM     32  C   UNL A   1      42.870  20.170  25.801  1.00  0.00     0.188 C 
BRANCH  32  33
ATOM     33  C   UNL A   1      44.230  20.560  25.165  1.00  0.00     0.188 C 
BRANCH  33  34
ATOM     34  O   UNL A   1      44.960  21.582  25.835  1.00  0.00    -0.376 OA
BRANCH  34  35
ATOM     35  C   UNL A   1      45.143  22.813  25.150  1.00  0.00     0.202 C 
BRANCH  35  36
ATOM     36  C   UNL A   1      45.439  24.023  26.045  1.00  0.00     0.261 C 
BRANCH  36  37
ATOM     37  O   UNL A   1      44.928  25.276  25.566  1.00  0.00    -0.460 OA
BRANCH  37  38
ATOM     38  C   UNL A   1      43.614  25.527  25.753  1.00  0.00     0.338 C 
ATOM     39  O   UNL A   1      42.687  25.169  25.050  1.00  0.00    -0.246 OA
BRANCH  38  40
ATOM     40  C   UNL A   1      43.474  26.138  27.089  1.00  0.00     0.060 A 
ATOM     41  C   UNL A   1      42.506  25.634  27.969  1.00  0.00     0.016 A 
ATOM     42  C   UNL A   1      44.326  27.171  27.481  1.00  0.00     0.016 A 
ATOM     43  C   UNL A   1      42.376  26.182  29.245  1.00  0.00     0.010 A 
ATOM     44  C   UNL A   1      44.176  27.735  28.747  1.00  0.00     0.010 A 
ATOM     45  C   UNL A   1      43.183  27.263  29.622  1.00  0.00    -0.014 A 
BRANCH  45  46
ATOM     46  C   UNL A   1      42.861  28.039  30.840  1.00  0.00     0.031 A 
ATOM     47  C   UNL A   1      41.867  29.159  30.719  1.00  0.00     0.074 A 
ATOM     48  C   UNL A   1      43.460  27.781  32.015  1.00  0.00     0.049 A 
ATOM     49  N   UNL A   1      41.471  30.017  31.620  1.00  0.00    -0.248 NA
ATOM     50  C   UNL A   1      41.240  29.335  29.397  1.00  0.00     0.031 C 
ATOM     51  C   UNL A   1      44.431  26.716  32.256  1.00  0.00     0.029 A 
ATOM     52  N   UNL A   1      43.355  28.426  33.223  1.00  0.00    -0.354 N 
ATOM     53  C   UNL A   1      40.569  30.851  30.971  1.00  0.00     0.074 A 
ATOM     54  C   UNL A   1      40.485  30.404  29.599  1.00  0.00     0.031 C 
ATOM     55  C   UNL A   1      44.858  26.799  33.530  1.00  0.00     0.029 A 
ATOM     56  C   UNL A   1      44.211  27.938  34.181  1.00  0.00     0.049 A 
ATOM     57  H   UNL A   1      42.727  29.166  33.386  1.00  0.00     0.167 HD
ATOM     58  C   UNL A   1      39.861  31.888  31.476  1.00  0.00     0.034 A 
ATOM     59  C   UNL A   1      44.459  28.380  35.430  1.00  0.00     0.034 A 
ATOM     60  C   UNL A   1      39.946  32.331  32.839  1.00  0.00     0.049 A 
ATOM     61  C   UNL A   1      43.701  29.576  35.953  1.00  0.00     0.074 A 
ATOM     62  C   UNL A   1      39.240  33.344  33.461  1.00  0.00     0.029 A 
ATOM     63  N   UNL A   1      40.809  31.803  33.788  1.00  0.00    -0.354 N 
ATOM     64  N   UNL A   1      42.757  30.278  35.371  1.00  0.00    -0.248 NA
ATOM     65  C   UNL A   1      44.027  30.026  37.314  1.00  0.00     0.031 C 
ATOM     66  C   UNL A   1      39.699  33.450  34.779  1.00  0.00     0.029 A 
ATOM     67  C   UNL A   1      40.670  32.482  34.985  1.00  0.00     0.049 A 
ATOM     68  H   UNL A   1      41.429  31.053  33.633  1.00  0.00     0.167 HD
ATOM     69  C   UNL A   1      42.358  31.231  36.303  1.00  0.00     0.074 A 
ATOM     70  C   UNL A   1      43.146  31.001  37.496  1.00  0.00     0.031 C 
ATOM     71  C   UNL A   1      41.433  32.216  36.180  1.00  0.00     0.034 A 
BRANCH  58  72
ATOM     72  C   UNL A   1      38.922  32.600  30.539  1.00  0.00     0.023 A 
ATOM     73  C   UNL A   1      39.342  33.785  29.900  1.00  0.00     0.012 A 
ATOM     74  C   UNL A   1      37.636  32.092  30.279  1.00  0.00     0.148 A 
ATOM     75  C   UNL A   1      38.481  34.475  29.047  1.00  0.00     0.002 A 
ATOM     76  C   UNL A   1      36.800  32.761  29.393  1.00  0.00     0.091 A 
ATOM     77  F   UNL A   1      37.245  30.981  30.919  1.00  0.00    -0.205 F 
ATOM     78  C   UNL A   1      37.215  33.958  28.787  1.00  0.00     0.022 A 
BRANCH  76  79
ATOM     79  S   UNL A   1      35.179  32.135  28.938  1.00  0.00     0.127 S 
ATOM     80  O   UNL A   1      34.853  32.971  27.784  1.00  0.00    -0.237 OA
ATOM     81  O   UNL A   1      35.468  30.737  28.616  1.00  0.00    -0.237 OA
ATOM     82  O   UNL A   1      34.335  32.324  30.109  1.00  0.00    -0.744 OA
ENDBRANCH  76  79
ENDBRANCH  58  72
BRANCH  59  83
ATOM     83  C   UNL A   1      45.448  27.670  36.290  1.00  0.00     0.023 A 
ATOM     84  C   UNL A   1      45.011  26.626  37.128  1.00  0.00     0.012 A 
ATOM     85  C   UNL A   1      46.816  28.008  36.272  1.00  0.00     0.148 A 
ATOM     86  C   UNL A   1      45.911  25.948  37.950  1.00  0.00     0.002 A 
ATOM     87  C   UNL A   1      47.716  27.293  37.054  1.00  0.00     0.091 A 
ATOM     88  F   UNL A   1      47.209  29.016  35.481  1.00  0.00    -0.205 F 
ATOM     89  C   UNL A   1      47.263  26.274  37.906  1.00  0.00     0.022 A 
BRANCH  87  90
ATOM     90  S   UNL A   1      49.491  27.562  36.981  1.00  0.00     0.127 S 
ATOM     91  O   UNL A   1      49.996  26.197  36.842  1.00  0.00    -0.237 OA
ATOM     92  O   UNL A   1      49.621  28.391  35.782  1.00  0.00    -0.237 OA
ATOM     93  O   UNL A   1      49.842  28.238  38.222  1.00  0.00    -0.744 OA
ENDBRANCH  87  90
ENDBRANCH  59  83
BRANCH  71  94
ATOM     94  C   UNL A   1      41.201  33.117  37.367  1.00  0.00     0.023 A 
ATOM     95  C   UNL A   1      40.231  32.769  38.328  1.00  0.00     0.012 A 
ATOM     96  C   UNL A   1      42.000  34.259  37.575  1.00  0.00     0.148 A 
ATOM     97  C   UNL A   1      40.039  33.559  39.461  1.00  0.00     0.002 A 
ATOM     98  C   UNL A   1      41.837  35.014  38.731  1.00  0.00     0.091 A 
ATOM     99  F   UNL A   1      42.909  34.582  36.643  1.00  0.00    -0.205 F 
ATOM    100  C   UNL A   1      40.849  34.673  39.669  1.00  0.00     0.022 A 
BRANCH  98 101
ATOM    101  S   UNL A   1      42.897  36.408  39.132  1.00  0.00     0.127 S 
ATOM    102  O   UNL A   1      42.276  36.915  40.354  1.00  0.00    -0.237 OA
ATOM    103  O   UNL A   1      44.196  35.763  39.330  1.00  0.00    -0.237 OA
ATOM    104  O   UNL A   1      42.836  37.303  37.983  1.00  0.00    -0.744 OA
ENDBRANCH  98 101
ENDBRANCH  71  94
ENDBRANCH  45  46
ENDBRANCH  38  40
ENDBRANCH  37  38
ENDBRANCH  36  37
ENDBRANCH  35  36
ENDBRANCH  34  35
ENDBRANCH  33  34
ENDBRANCH  32  33
ENDBRANCH  31  32
ENDBRANCH   1  31
TORSDOF 27
ENDMDL
MODEL 3
REMARK VINA RESULT:      -8.0      8.772     17.683
REMARK SMILES CC(C)NC(=O)c1cccc(NC(=O)[C@@H]2[C@H](C(=O)OCCOCCOCCOCCOC(=O)c3ccc(-c4c5nc(c(-c6cccc(S(=O)(=O)[O-])c6F)c6ccc([nH]6)c(-c6cccc(S(=O)(=O)[O-])c6F)c6nc(c(-c7cccc(S(=O)(=O)[O-])c7F)c7ccc4[nH]7)C=C6)C=C5)cc3)C2(C)C)c1
REMARK SMILES IDX 24 1 23 2 22 3 21 4 20 5 19 6 17 7 18 8 16 9 15 10 97 11
REMARK SMILES IDX 98 12 99 13 13 14 12 15 14 17 11 18 7 19 8 20 100 21 9 22
REMARK SMILES IDX 10 23 5 24 4 25 6 27 2 28 1 29 3 30 25 31 26 32 27 33 28 34
REMARK SMILES IDX 29 35 30 36 31 37 32 38 33 39 34 40 35 41 96 42 36 43 95 44
REMARK SMILES IDX 37 45 38 46 39 47 89 48 40 49 94 50 88 51 90 52 41 53 93 54
REMARK SMILES IDX 87 55 86 56 42 58 74 59 54 60 73 61 55 62 58 63 72 64 91 65
REMARK SMILES IDX 56 66 57 67 71 69 92 70 59 71 43 72 44 73 52 74 45 75 47 76
REMARK SMILES IDX 53 77 46 78 48 79 49 80 50 81 51 82 75 83 76 84 84 85 77 86
REMARK SMILES IDX 79 87 85 88 78 89 80 90 81 91 82 92 83 93 60 94 61 95 69 96
REMARK SMILES IDX 62 97 64 98 70 99 63 100 65 101 66 102 67 103 68 104
REMARK H PARENT 12 16 4 26 90 57 58 68
REMARK Flexibility Score: inf
ROOT
ATOM      1  C   UNL A   1      42.930  42.822  23.210  1.00  0.00     0.188 C 
ENDROOT
BRANCH   1   2
ATOM      2  C   UNL A   1      42.596  43.592  21.917  1.00  0.00     0.188 C 
BRANCH   2   3
ATOM      3  O   UNL A   1      41.341  43.226  21.348  1.00  0.00    -0.376 OA
BRANCH   3   4
ATOM      4  C   UNL A   1      41.219  43.247  19.930  1.00  0.00     0.202 C 
BRANCH   4   5
ATOM      5  C   UNL A   1      42.507  43.537  19.142  1.00  0.00     0.261 C 
BRANCH   5   6
ATOM      6  O   UNL A   1      42.569  44.852  18.577  1.00  0.00    -0.463 OA
BRANCH   6   7
ATOM      7  C   UNL A   1      43.741  45.253  18.037  1.00  0.00     0.310 C 
ATOM      8  O   UNL A   1      44.241  44.852  16.989  1.00  0.00    -0.252 OA
BRANCH   7   9
ATOM      9  C   UNL A   1      44.137  46.500  18.702  1.00  0.00     0.118 C 
ATOM     10  C   UNL A   1      45.552  46.956  18.771  1.00  0.00     0.100 C 
ATOM     11  C   UNL A   1      44.481  47.845  18.132  1.00  0.00    -0.009 C 
ATOM     12  C   UNL A   1      44.064  49.058  18.933  1.00  0.00     0.013 C 
ATOM     13  C   UNL A   1      44.337  48.030  16.647  1.00  0.00     0.013 C 
BRANCH  10  14
ATOM     14  C   UNL A   1      46.667  46.377  18.004  1.00  0.00     0.228 C 
ATOM     15  N   UNL A   1      47.167  45.161  18.399  1.00  0.00    -0.326 N 
ATOM     16  H   UNL A   1      47.774  44.746  17.743  1.00  0.00     0.169 HD
ATOM     17  O   UNL A   1      47.107  46.930  17.002  1.00  0.00    -0.274 OA
BRANCH  15  18
ATOM     18  C   UNL A   1      46.973  44.394  19.566  1.00  0.00     0.041 A 
ATOM     19  C   UNL A   1      46.956  44.386  21.987  1.00  0.00     0.041 A 
ATOM     20  C   UNL A   1      46.578  43.044  22.009  1.00  0.00     0.014 A 
ATOM     21  C   UNL A   1      47.238  45.030  20.778  1.00  0.00     0.040 A 
ATOM     22  C   UNL A   1      46.339  42.392  20.808  1.00  0.00     0.003 A 
ATOM     23  C   UNL A   1      46.473  43.086  19.602  1.00  0.00     0.026 A 
BRANCH  19  24
ATOM     24  C   UNL A   1      46.959  45.126  23.265  1.00  0.00     0.251 C 
ATOM     25  N   UNL A   1      48.087  45.816  23.643  1.00  0.00    -0.350 N 
ATOM     26  H   UNL A   1      48.050  46.210  24.544  1.00  0.00     0.164 HD
ATOM     27  O   UNL A   1      45.935  45.195  23.936  1.00  0.00    -0.269 OA
BRANCH  25  28
ATOM     28  C   UNL A   1      49.333  46.056  22.913  1.00  0.00     0.076 C 
ATOM     29  C   UNL A   1      49.785  47.501  23.089  1.00  0.00     0.030 C 
ATOM     30  C   UNL A   1      50.402  45.073  23.377  1.00  0.00     0.030 C 
ENDBRANCH  25  28
ENDBRANCH  19  24
ENDBRANCH  15  18
ENDBRANCH  10  14
ENDBRANCH   7   9
ENDBRANCH   6   7
ENDBRANCH   5   6
ENDBRANCH   4   5
ENDBRANCH   3   4
ENDBRANCH   2   3
ENDBRANCH   1   2
BRANCH   1  31
ATOM     31  O   UNL A   1      42.012  41.796  23.518  1.00  0.00    -0.377 OA
BRANCH  31  32
ATOM     32  C   UNL A   1      41.936  41.356  24.874  1.00  0.00     0.188 C 
BRANCH  32  33
ATOM     33  C   UNL A   1      43.146  41.433  25.842  1.00  0.00     0.188 C 
BRANCH  33  34
ATOM     34  O   UNL A   1      43.030  40.678  27.044  1.00  0.00    -0.376 OA
BRANCH  34  35
ATOM     35  C   UNL A   1      41.955  39.755  27.137  1.00  0.00     0.202 C 
BRANCH  35  36
ATOM     36  C   UNL A   1      42.311  38.395  27.749  1.00  0.00     0.261 C 
BRANCH  36  37
ATOM     37  O   UNL A   1      42.534  37.339  26.804  1.00  0.00    -0.460 OA
BRANCH  37  38
ATOM     38  C   UNL A   1      42.127  36.096  27.146  1.00  0.00     0.338 C 
ATOM     39  O   UNL A   1      40.983  35.713  27.310  1.00  0.00    -0.246 OA
BRANCH  38  40
ATOM     40  C   UNL A   1      43.310  35.217  27.078  1.00  0.00     0.060 A 
ATOM     41  C   UNL A   1      43.624  34.591  25.863  1.00  0.00     0.016 A 
ATOM     42  C   UNL A   1      44.127  35.052  28.197  1.00  0.00     0.016 A 
ATOM     43  C   UNL A   1      44.752  33.777  25.773  1.00  0.00     0.010 A 
ATOM     44  C   UNL A   1      45.239  34.215  28.112  1.00  0.00     0.010 A 
ATOM     45  C   UNL A   1      45.539  33.553  26.910  1.00  0.00    -0.014 A 
BRANCH  45  46
ATOM     46  C   UNL A   1      46.551  32.473  26.909  1.00  0.00     0.031 A 
ATOM     47  C   UNL A   1      47.973  32.841  26.590  1.00  0.00     0.074 A 
ATOM     48  C   UNL A   1      46.213  31.195  27.150  1.00  0.00     0.049 A 
ATOM     49  N   UNL A   1      49.020  32.071  26.466  1.00  0.00    -0.248 NA
ATOM     50  C   UNL A   1      48.245  34.273  26.379  1.00  0.00     0.031 C 
ATOM     51  C   UNL A   1      44.871  30.721  27.480  1.00  0.00     0.029 A 
ATOM     52  N   UNL A   1      46.979  30.057  27.122  1.00  0.00    -0.354 N 
ATOM     53  C   UNL A   1      50.070  32.919  26.138  1.00  0.00     0.074 A 
ATOM     54  C   UNL A   1      49.532  34.259  26.070  1.00  0.00     0.031 C 
ATOM     55  C   UNL A   1      44.902  29.380  27.594  1.00  0.00     0.029 A 
ATOM     56  C   UNL A   1      46.257  28.905  27.319  1.00  0.00     0.049 A 
ATOM     57  H   UNL A   1      47.953  30.065  26.975  1.00  0.00     0.167 HD
ATOM     58  C   UNL A   1      51.371  32.612  25.925  1.00  0.00     0.034 A 
ATOM     59  C   UNL A   1      46.645  27.615  27.256  1.00  0.00     0.034 A 
ATOM     60  C   UNL A   1      51.904  31.280  25.992  1.00  0.00     0.049 A 
ATOM     61  C   UNL A   1      48.088  27.293  26.958  1.00  0.00     0.074 A 
ATOM     62  C   UNL A   1      53.214  30.867  25.835  1.00  0.00     0.029 A 
ATOM     63  N   UNL A   1      51.148  30.138  26.212  1.00  0.00    -0.354 N 
ATOM     64  N   UNL A   1      49.099  28.109  26.774  1.00  0.00    -0.248 NA
ATOM     65  C   UNL A   1      48.450  25.869  26.882  1.00  0.00     0.031 C 
ATOM     66  C   UNL A   1      53.246  29.471  25.928  1.00  0.00     0.029 A 
ATOM     67  C   UNL A   1      51.959  29.018  26.173  1.00  0.00     0.049 A 
ATOM     68  H   UNL A   1      50.176  30.126  26.373  1.00  0.00     0.167 HD
ATOM     69  C   UNL A   1      50.218  27.302  26.591  1.00  0.00     0.074 A 
ATOM     70  C   UNL A   1      49.764  25.931  26.708  1.00  0.00     0.031 C 
ATOM     71  C   UNL A   1      51.501  27.660  26.333  1.00  0.00     0.034 A 
BRANCH  58  72
ATOM     72  C   UNL A   1      52.304  33.751  25.613  1.00  0.00     0.023 A 
ATOM     73  C   UNL A   1      52.513  34.134  24.272  1.00  0.00     0.012 A 
ATOM     74  C   UNL A   1      52.959  34.451  26.642  1.00  0.00     0.148 A 
ATOM     75  C   UNL A   1      53.391  35.170  23.958  1.00  0.00     0.002 A 
ATOM     76  C   UNL A   1      53.799  35.513  26.325  1.00  0.00     0.091 A 
ATOM     77  F   UNL A   1      52.771  34.054  27.909  1.00  0.00    -0.205 F 
ATOM     78  C   UNL A   1      54.026  35.865  24.984  1.00  0.00     0.022 A 
BRANCH  76  79
ATOM     79  S   UNL A   1      54.605  36.514  27.580  1.00  0.00     0.127 S 
ATOM     80  O   UNL A   1      55.336  37.480  26.761  1.00  0.00    -0.237 OA
ATOM     81  O   UNL A   1      53.465  37.071  28.308  1.00  0.00    -0.237 OA
ATOM     82  O   UNL A   1      55.428  35.597  28.354  1.00  0.00    -0.744 OA
ENDBRANCH  76  79
ENDBRANCH  58  72
BRANCH  59  83
ATOM     83  C   UNL A   1      45.659  26.526  27.512  1.00  0.00     0.023 A 
ATOM     84  C   UNL A   1      45.537  25.997  28.811  1.00  0.00     0.012 A 
ATOM     85  C   UNL A   1      44.832  26.025  26.486  1.00  0.00     0.148 A 
ATOM     86  C   UNL A   1      44.629  24.972  29.081  1.00  0.00     0.002 A 
ATOM     87  C   UNL A   1      43.893  25.041  26.773  1.00  0.00     0.091 A 
ATOM     88  F   UNL A   1      44.976  26.531  25.253  1.00  0.00    -0.205 F 
ATOM     89  C   UNL A   1      43.801  24.502  28.065  1.00  0.00     0.022 A 
BRANCH  87  90
ATOM     90  S   UNL A   1      42.704  24.453  25.561  1.00  0.00     0.127 S 
ATOM     91  O   UNL A   1      42.265  25.701  24.941  1.00  0.00    -0.237 OA
ATOM     92  O   UNL A   1      43.537  23.603  24.710  1.00  0.00    -0.237 OA
ATOM     93  O   UNL A   1      41.687  23.735  26.318  1.00  0.00    -0.744 OA
ENDBRANCH  87  90
ENDBRANCH  59  83
BRANCH  71  94
ATOM     94  C   UNL A   1      52.520  26.560  26.178  1.00  0.00     0.023 A 
ATOM     95  C   UNL A   1      52.519  25.767  25.013  1.00  0.00     0.012 A 
ATOM     96  C   UNL A   1      53.530  26.368  27.142  1.00  0.00     0.148 A 
ATOM     97  C   UNL A   1      53.487  24.781  24.824  1.00  0.00     0.002 A 
ATOM     98  C   UNL A   1      54.520  25.417  26.925  1.00  0.00     0.091 A 
ATOM     99  F   UNL A   1      53.507  27.123  28.251  1.00  0.00    -0.205 F 
ATOM    100  C   UNL A   1      54.494  24.614  25.773  1.00  0.00     0.022 A 
BRANCH  98 101
ATOM    101  S   UNL A   1      55.910  25.196  28.042  1.00  0.00     0.127 S 
ATOM    102  O   UNL A   1      56.557  24.010  27.484  1.00  0.00    -0.237 OA
ATOM    103  O   UNL A   1      56.657  26.441  27.857  1.00  0.00    -0.237 OA
ATOM    104  O   UNL A   1      55.336  25.028  29.370  1.00  0.00    -0.744 OA
ENDBRANCH  98 101
ENDBRANCH  71  94
ENDBRANCH  45  46
ENDBRANCH  38  40
ENDBRANCH  37  38
ENDBRANCH  36  37
ENDBRANCH  35  36
ENDBRANCH  34  35
ENDBRANCH  33  34
ENDBRANCH  32  33
ENDBRANCH  31  32
ENDBRANCH   1  31
TORSDOF 27
ENDMDL
