MODEL 1
REMARK VINA RESULT:      -7.7      0.000      0.000
REMARK SMILES CS(=O)(=O)Nc1cc(NS(C)(=O)=O)cc(C(=O)OCCOCCOCCOCCOC(=O)c2ccc(-c3c4nc(c(-c5cccc(S(=O)(=O)[O-])c5F)c5ccc([nH]5)c(-c5cccc(S(=O)(=O)[O-])c5F)c5nc(c(-c6cccc(S(=O)(=O)[O-])c6F)c6ccc3[nH]6)C=C5)C=C4)cc2)c1
REMARK SMILES IDX 25 1 24 2 23 3 22 4 21 5 20 6 19 7 18 8 16 9 17 10 15 11
REMARK SMILES IDX 6 12 7 13 96 14 8 15 14 16 5 17 2 19 1 20 3 21 4 22 9 23
REMARK SMILES IDX 10 25 11 26 12 27 13 28 26 29 27 30 28 31 29 32 30 33 31 34
REMARK SMILES IDX 32 35 33 36 34 37 95 38 35 39 94 40 36 41 37 42 38 43 88 44
REMARK SMILES IDX 39 45 93 46 87 47 89 48 40 49 92 50 86 51 85 52 41 54 73 55
REMARK SMILES IDX 53 56 72 57 54 58 57 59 71 60 90 61 55 62 56 63 70 65 91 66
REMARK SMILES IDX 58 67 42 68 43 69 51 70 44 71 46 72 52 73 45 74 47 75 48 76
REMARK SMILES IDX 49 77 50 78 74 79 75 80 83 81 76 82 78 83 84 84 77 85 79 86
REMARK SMILES IDX 80 87 81 88 82 89 59 90 60 91 68 92 61 93 63 94 69 95 62 96
REMARK SMILES IDX 64 97 65 98 66 99 67 100
REMARK H PARENT 5 18 9 24 89 53 57 64
REMARK Flexibility Score: inf
ROOT
ATOM      1  C   UNL A   1      36.859  29.703  27.747  1.00  0.00     0.188 C 
ENDROOT
BRANCH   1   2
ATOM      2  O   UNL A   1      37.587  28.978  28.734  1.00  0.00    -0.377 OA
BRANCH   2   3
ATOM      3  C   UNL A   1      38.994  29.084  28.692  1.00  0.00     0.188 C 
BRANCH   3   4
ATOM      4  C   UNL A   1      39.709  27.720  28.660  1.00  0.00     0.188 C 
BRANCH   4   5
ATOM      5  O   UNL A   1      39.219  26.651  27.867  1.00  0.00    -0.376 OA
BRANCH   5   6
ATOM      6  C   UNL A   1      39.499  25.281  28.115  1.00  0.00     0.202 C 
BRANCH   6   7
ATOM      7  C   UNL A   1      39.427  24.140  27.086  1.00  0.00     0.261 C 
BRANCH   7   8
ATOM      8  O   UNL A   1      38.185  23.935  26.429  1.00  0.00    -0.460 OA
BRANCH   8   9
ATOM      9  C   UNL A   1      37.966  22.713  25.909  1.00  0.00     0.338 C 
ATOM     10  O   UNL A   1      38.740  21.776  25.852  1.00  0.00    -0.246 OA
BRANCH   9  11
ATOM     11  C   UNL A   1      36.532  22.631  25.559  1.00  0.00     0.064 A 
ATOM     12  C   UNL A   1      34.423  21.485  25.624  1.00  0.00     0.051 A 
ATOM     13  C   UNL A   1      33.843  22.529  24.888  1.00  0.00     0.053 A 
ATOM     14  C   UNL A   1      35.790  21.488  25.842  1.00  0.00     0.042 A 
ATOM     15  C   UNL A   1      34.614  23.605  24.442  1.00  0.00     0.051 A 
ATOM     16  C   UNL A   1      35.947  23.685  24.856  1.00  0.00     0.042 A 
BRANCH  12  17
ATOM     17  N   UNL A   1      33.634  20.355  25.986  1.00  0.00    -0.284 N 
ATOM     18  H   UNL A   1      33.319  20.281  26.916  1.00  0.00     0.180 HD
BRANCH  17  19
ATOM     19  S   UNL A   1      33.215  19.138  24.897  1.00  0.00     0.229 S 
ATOM     20  C   UNL A   1      32.389  19.857  23.476  1.00  0.00     0.183 C 
ATOM     21  O   UNL A   1      32.285  18.277  25.590  1.00  0.00    -0.207 OA
ATOM     22  O   UNL A   1      34.491  18.628  24.434  1.00  0.00    -0.207 OA
ENDBRANCH  17  19
ENDBRANCH  12  17
BRANCH  15  23
ATOM     23  N   UNL A   1      34.165  24.704  23.636  1.00  0.00    -0.284 N 
ATOM     24  H   UNL A   1      34.482  24.735  22.704  1.00  0.00     0.180 HD
BRANCH  23  25
ATOM     25  S   UNL A   1      33.148  25.944  24.143  1.00  0.00     0.229 S 
ATOM     26  C   UNL A   1      33.177  25.639  25.892  1.00  0.00     0.183 C 
ATOM     27  O   UNL A   1      33.869  27.179  23.904  1.00  0.00    -0.207 OA
ATOM     28  O   UNL A   1      31.791  25.755  23.701  1.00  0.00    -0.207 OA
ENDBRANCH  23  25
ENDBRANCH  15  23
ENDBRANCH   9  11
ENDBRANCH   8   9
ENDBRANCH   7   8
ENDBRANCH   6   7
ENDBRANCH   5   6
ENDBRANCH   4   5
ENDBRANCH   3   4
ENDBRANCH   2   3
ENDBRANCH   1   2
BRANCH   1  29
ATOM     29  C   UNL A   1      36.444  31.164  28.038  1.00  0.00     0.188 C 
BRANCH  29  30
ATOM     30  O   UNL A   1      35.181  31.303  28.680  1.00  0.00    -0.376 OA
BRANCH  30  31
ATOM     31  C   UNL A   1      34.329  32.367  28.288  1.00  0.00     0.202 C 
BRANCH  31  32
ATOM     32  C   UNL A   1      34.438  33.673  29.090  1.00  0.00     0.261 C 
BRANCH  32  33
ATOM     33  O   UNL A   1      33.822  33.661  30.383  1.00  0.00    -0.460 OA
BRANCH  33  34
ATOM     34  C   UNL A   1      34.314  34.515  31.307  1.00  0.00     0.338 C 
ATOM     35  O   UNL A   1      33.758  35.496  31.768  1.00  0.00    -0.246 OA
BRANCH  34  36
ATOM     36  C   UNL A   1      35.573  33.940  31.822  1.00  0.00     0.060 A 
ATOM     37  C   UNL A   1      35.537  32.688  32.448  1.00  0.00     0.016 A 
ATOM     38  C   UNL A   1      36.779  34.630  31.683  1.00  0.00     0.016 A 
ATOM     39  C   UNL A   1      36.704  32.141  32.978  1.00  0.00     0.010 A 
ATOM     40  C   UNL A   1      37.945  34.089  32.232  1.00  0.00     0.010 A 
ATOM     41  C   UNL A   1      37.904  32.860  32.916  1.00  0.00    -0.014 A 
BRANCH  41  42
ATOM     42  C   UNL A   1      39.062  32.426  33.732  1.00  0.00     0.031 A 
ATOM     43  C   UNL A   1      39.102  32.825  35.182  1.00  0.00     0.074 A 
ATOM     44  C   UNL A   1      40.053  31.686  33.205  1.00  0.00     0.049 A 
ATOM     45  N   UNL A   1      40.018  32.589  36.083  1.00  0.00    -0.248 NA
ATOM     46  C   UNL A   1      37.953  33.599  35.683  1.00  0.00     0.031 C 
ATOM     47  C   UNL A   1      40.123  31.227  31.819  1.00  0.00     0.029 A 
ATOM     48  N   UNL A   1      41.208  31.213  33.776  1.00  0.00    -0.354 N 
ATOM     49  C   UNL A   1      39.575  33.207  37.245  1.00  0.00     0.074 A 
ATOM     50  C   UNL A   1      38.312  33.841  36.934  1.00  0.00     0.031 C 
ATOM     51  C   UNL A   1      41.276  30.559  31.639  1.00  0.00     0.029 A 
ATOM     52  C   UNL A   1      42.038  30.569  32.887  1.00  0.00     0.049 A 
ATOM     53  H   UNL A   1      41.423  31.322  34.730  1.00  0.00     0.167 HD
ATOM     54  C   UNL A   1      40.157  33.237  38.467  1.00  0.00     0.034 A 
ATOM     55  C   UNL A   1      43.279  30.072  33.057  1.00  0.00     0.034 A 
ATOM     56  C   UNL A   1      41.408  32.600  38.776  1.00  0.00     0.049 A 
ATOM     57  C   UNL A   1      43.926  30.153  34.418  1.00  0.00     0.074 A 
ATOM     58  C   UNL A   1      42.062  32.536  39.994  1.00  0.00     0.029 A 
ATOM     59  N   UNL A   1      42.205  31.935  37.858  1.00  0.00    -0.354 N 
ATOM     60  N   UNL A   1      43.444  30.643  35.536  1.00  0.00    -0.248 NA
ATOM     61  C   UNL A   1      45.275  29.583  34.549  1.00  0.00     0.031 C 
ATOM     62  C   UNL A   1      43.274  31.867  39.802  1.00  0.00     0.029 A 
ATOM     63  C   UNL A   1      43.352  31.471  38.477  1.00  0.00     0.049 A 
ATOM     64  H   UNL A   1      41.987  31.810  36.905  1.00  0.00     0.167 HD
ATOM     65  C   UNL A   1      44.411  30.403  36.507  1.00  0.00     0.074 A 
ATOM     66  C   UNL A   1      45.498  29.708  35.850  1.00  0.00     0.031 C 
ATOM     67  C   UNL A   1      44.404  30.734  37.823  1.00  0.00     0.034 A 
BRANCH  54  68
ATOM     68  C   UNL A   1      39.441  33.978  39.565  1.00  0.00     0.023 A 
ATOM     69  C   UNL A   1      39.747  35.330  39.818  1.00  0.00     0.012 A 
ATOM     70  C   UNL A   1      38.430  33.346  40.316  1.00  0.00     0.148 A 
ATOM     71  C   UNL A   1      39.084  36.033  40.822  1.00  0.00     0.002 A 
ATOM     72  C   UNL A   1      37.740  34.067  41.282  1.00  0.00     0.091 A 
ATOM     73  F   UNL A   1      38.169  32.053  40.077  1.00  0.00    -0.205 F 
ATOM     74  C   UNL A   1      38.074  35.405  41.546  1.00  0.00     0.022 A 
BRANCH  72  75
ATOM     75  S   UNL A   1      36.368  33.374  42.212  1.00  0.00     0.127 S 
ATOM     76  O   UNL A   1      36.174  34.387  43.250  1.00  0.00    -0.237 OA
ATOM     77  O   UNL A   1      35.309  33.323  41.204  1.00  0.00    -0.237 OA
ATOM     78  O   UNL A   1      36.819  32.074  42.688  1.00  0.00    -0.744 OA
ENDBRANCH  72  75
ENDBRANCH  54  68
BRANCH  55  79
ATOM     79  C   UNL A   1      43.993  29.428  31.917  1.00  0.00     0.023 A 
ATOM     80  C   UNL A   1      44.925  30.173  31.168  1.00  0.00     0.012 A 
ATOM     81  C   UNL A   1      43.751  28.085  31.570  1.00  0.00     0.148 A 
ATOM     82  C   UNL A   1      45.575  29.603  30.071  1.00  0.00     0.002 A 
ATOM     83  C   UNL A   1      44.445  27.506  30.514  1.00  0.00     0.091 A 
ATOM     84  F   UNL A   1      42.850  27.397  32.285  1.00  0.00    -0.205 F 
ATOM     85  C   UNL A   1      45.342  28.269  29.750  1.00  0.00     0.022 A 
BRANCH  83  86
ATOM     86  S   UNL A   1      44.305  25.764  30.101  1.00  0.00     0.127 S 
ATOM     87  O   UNL A   1      45.377  25.602  29.122  1.00  0.00    -0.237 OA
ATOM     88  O   UNL A   1      44.552  25.132  31.397  1.00  0.00    -0.237 OA
ATOM     89  O   UNL A   1      42.953  25.588  29.590  1.00  0.00    -0.744 OA
ENDBRANCH  83  86
ENDBRANCH  55  79
BRANCH  67  90
ATOM     90  C   UNL A   1      45.580  30.306  38.664  1.00  0.00     0.023 A 
ATOM     91  C   UNL A   1      45.585  29.042  39.285  1.00  0.00     0.012 A 
ATOM     92  C   UNL A   1      46.716  31.134  38.773  1.00  0.00     0.148 A 
ATOM     93  C   UNL A   1      46.687  28.624  40.033  1.00  0.00     0.002 A 
ATOM     94  C   UNL A   1      47.831  30.688  39.474  1.00  0.00     0.091 A 
ATOM     95  F   UNL A   1      46.687  32.339  38.187  1.00  0.00    -0.205 F 
ATOM     96  C   UNL A   1      47.813  29.441  40.117  1.00  0.00     0.022 A 
BRANCH  94  97
ATOM     97  S   UNL A   1      49.360  31.628  39.550  1.00  0.00     0.127 S 
ATOM     98  O   UNL A   1      50.210  30.748  40.352  1.00  0.00    -0.237 OA
ATOM     99  O   UNL A   1      49.736  31.719  38.139  1.00  0.00    -0.237 OA
ATOM    100  O   UNL A   1      49.022  32.901  40.170  1.00  0.00    -0.744 OA
ENDBRANCH  94  97
ENDBRANCH  67  90
ENDBRANCH  41  42
ENDBRANCH  34  36
ENDBRANCH  33  34
ENDBRANCH  32  33
ENDBRANCH  31  32
ENDBRANCH  30  31
ENDBRANCH  29  30
ENDBRANCH   1  29
TORSDOF 27
ENDMDL
MODEL 2
REMARK VINA RESULT:      -7.6      6.894     10.634
REMARK SMILES CS(=O)(=O)Nc1cc(NS(C)(=O)=O)cc(C(=O)OCCOCCOCCOCCOC(=O)c2ccc(-c3c4nc(c(-c5cccc(S(=O)(=O)[O-])c5F)c5ccc([nH]5)c(-c5cccc(S(=O)(=O)[O-])c5F)c5nc(c(-c6cccc(S(=O)(=O)[O-])c6F)c6ccc3[nH]6)C=C5)C=C4)cc2)c1
REMARK SMILES IDX 25 1 24 2 23 3 22 4 21 5 20 6 19 7 18 8 16 9 17 10 15 11
REMARK SMILES IDX 6 12 7 13 96 14 8 15 14 16 5 17 2 19 1 20 3 21 4 22 9 23
REMARK SMILES IDX 10 25 11 26 12 27 13 28 26 29 27 30 28 31 29 32 30 33 31 34
REMARK SMILES IDX 32 35 33 36 34 37 95 38 35 39 94 40 36 41 37 42 38 43 88 44
REMARK SMILES IDX 39 45 93 46 87 47 89 48 40 49 92 50 86 51 85 52 41 54 73 55
REMARK SMILES IDX 53 56 72 57 54 58 57 59 71 60 90 61 55 62 56 63 70 65 91 66
REMARK SMILES IDX 58 67 42 68 43 69 51 70 44 71 46 72 52 73 45 74 47 75 48 76
REMARK SMILES IDX 49 77 50 78 74 79 75 80 83 81 76 82 78 83 84 84 77 85 79 86
REMARK SMILES IDX 80 87 81 88 82 89 59 90 60 91 68 92 61 93 63 94 69 95 62 96
REMARK SMILES IDX 64 97 65 98 66 99 67 100
REMARK H PARENT 5 18 9 24 89 53 57 64
REMARK Flexibility Score: inf
ROOT
ATOM      1  C   UNL A   1      35.106  30.216  28.477  1.00  0.00     0.188 C 
ENDROOT
BRANCH   1   2
ATOM      2  O   UNL A   1      34.462  29.269  27.630  1.00  0.00    -0.377 OA
BRANCH   2   3
ATOM      3  C   UNL A   1      34.267  29.648  26.284  1.00  0.00     0.188 C 
BRANCH   3   4
ATOM      4  C   UNL A   1      32.787  29.879  25.924  1.00  0.00     0.188 C 
BRANCH   4   5
ATOM      5  O   UNL A   1      31.778  28.976  26.344  1.00  0.00    -0.376 OA
BRANCH   5   6
ATOM      6  C   UNL A   1      31.580  27.686  25.784  1.00  0.00     0.202 C 
BRANCH   6   7
ATOM      7  C   UNL A   1      30.830  26.516  26.445  1.00  0.00     0.261 C 
BRANCH   7   8
ATOM      8  O   UNL A   1      31.611  25.437  26.934  1.00  0.00    -0.460 OA
BRANCH   8   9
ATOM      9  C   UNL A   1      31.142  24.195  26.710  1.00  0.00     0.338 C 
ATOM     10  O   UNL A   1      30.171  23.662  27.212  1.00  0.00    -0.246 OA
BRANCH   9  11
ATOM     11  C   UNL A   1      31.922  23.622  25.592  1.00  0.00     0.064 A 
ATOM     12  C   UNL A   1      33.597  22.115  24.764  1.00  0.00     0.051 A 
ATOM     13  C   UNL A   1      33.351  22.571  23.460  1.00  0.00     0.053 A 
ATOM     14  C   UNL A   1      32.969  22.737  25.829  1.00  0.00     0.042 A 
ATOM     15  C   UNL A   1      32.424  23.589  23.221  1.00  0.00     0.051 A 
ATOM     16  C   UNL A   1      31.653  24.052  24.291  1.00  0.00     0.042 A 
BRANCH  12  17
ATOM     17  N   UNL A   1      34.613  21.142  24.989  1.00  0.00    -0.284 N 
ATOM     18  H   UNL A   1      34.347  20.200  25.096  1.00  0.00     0.180 HD
BRANCH  17  19
ATOM     19  S   UNL A   1      36.252  21.528  25.084  1.00  0.00     0.229 S 
ATOM     20  C   UNL A   1      36.708  22.574  23.699  1.00  0.00     0.183 C 
ATOM     21  O   UNL A   1      36.969  20.278  24.979  1.00  0.00    -0.207 OA
ATOM     22  O   UNL A   1      36.352  22.340  26.281  1.00  0.00    -0.207 OA
ENDBRANCH  17  19
ENDBRANCH  12  17
BRANCH  15  23
ATOM     23  N   UNL A   1      32.118  24.187  21.954  1.00  0.00    -0.284 N 
ATOM     24  H   UNL A   1      31.406  23.766  21.420  1.00  0.00     0.180 HD
BRANCH  23  25
ATOM     25  S   UNL A   1      32.869  25.542  21.298  1.00  0.00     0.229 S 
ATOM     26  C   UNL A   1      31.766  26.798  21.902  1.00  0.00     0.183 C 
ATOM     27  O   UNL A   1      34.126  25.690  22.007  1.00  0.00    -0.207 OA
ATOM     28  O   UNL A   1      32.796  25.568  19.861  1.00  0.00    -0.207 OA
ENDBRANCH  23  25
ENDBRANCH  15  23
ENDBRANCH   9  11
ENDBRANCH   8   9
ENDBRANCH   7   8
ENDBRANCH   6   7
ENDBRANCH   5   6
ENDBRANCH   4   5
ENDBRANCH   3   4
ENDBRANCH   2   3
ENDBRANCH   1   2
BRANCH   1  29
ATOM     29  C   UNL A   1      36.221  31.114  27.892  1.00  0.00     0.188 C 
BRANCH  29  30
ATOM     30  O   UNL A   1      36.223  32.450  28.385  1.00  0.00    -0.376 OA
BRANCH  30  31
ATOM     31  C   UNL A   1      35.778  32.690  29.710  1.00  0.00     0.202 C 
BRANCH  31  32
ATOM     32  C   UNL A   1      36.827  33.190  30.714  1.00  0.00     0.261 C 
BRANCH  32  33
ATOM     33  O   UNL A   1      37.093  32.319  31.820  1.00  0.00    -0.460 OA
BRANCH  33  34
ATOM     34  C   UNL A   1      37.379  31.031  31.534  1.00  0.00     0.338 C 
ATOM     35  O   UNL A   1      36.614  30.085  31.569  1.00  0.00    -0.246 OA
BRANCH  34  36
ATOM     36  C   UNL A   1      38.742  30.991  30.967  1.00  0.00     0.060 A 
ATOM     37  C   UNL A   1      38.913  30.547  29.649  1.00  0.00     0.016 A 
ATOM     38  C   UNL A   1      39.842  31.393  31.728  1.00  0.00     0.016 A 
ATOM     39  C   UNL A   1      40.193  30.463  29.103  1.00  0.00     0.010 A 
ATOM     40  C   UNL A   1      41.126  31.290  31.186  1.00  0.00     0.010 A 
ATOM     41  C   UNL A   1      41.308  30.787  29.885  1.00  0.00    -0.014 A 
BRANCH  41  42
ATOM     42  C   UNL A   1      42.665  30.414  29.417  1.00  0.00     0.031 A 
ATOM     43  C   UNL A   1      42.956  28.960  29.161  1.00  0.00     0.074 A 
ATOM     44  C   UNL A   1      43.616  31.342  29.214  1.00  0.00     0.049 A 
ATOM     45  N   UNL A   1      44.068  28.391  28.776  1.00  0.00    -0.248 NA
ATOM     46  C   UNL A   1      41.841  28.020  29.369  1.00  0.00     0.031 C 
ATOM     47  C   UNL A   1      43.453  32.780  29.416  1.00  0.00     0.029 A 
ATOM     48  N   UNL A   1      44.922  31.203  28.815  1.00  0.00    -0.354 N 
ATOM     49  C   UNL A   1      43.798  27.030  28.726  1.00  0.00     0.074 A 
ATOM     50  C   UNL A   1      42.421  26.853  29.131  1.00  0.00     0.031 C 
ATOM     51  C   UNL A   1      44.625  33.391  29.164  1.00  0.00     0.029 A 
ATOM     52  C   UNL A   1      45.626  32.384  28.814  1.00  0.00     0.049 A 
ATOM     53  H   UNL A   1      45.318  30.340  28.555  1.00  0.00     0.167 HD
ATOM     54  C   UNL A   1      44.618  26.015  28.364  1.00  0.00     0.034 A 
ATOM     55  C   UNL A   1      46.933  32.619  28.583  1.00  0.00     0.034 A 
ATOM     56  C   UNL A   1      45.984  26.193  27.955  1.00  0.00     0.049 A 
ATOM     57  C   UNL A   1      47.837  31.467  28.222  1.00  0.00     0.074 A 
ATOM     58  C   UNL A   1      46.885  25.234  27.529  1.00  0.00     0.029 A 
ATOM     59  N   UNL A   1      46.654  27.407  27.940  1.00  0.00    -0.354 N 
ATOM     60  N   UNL A   1      47.540  30.198  28.070  1.00  0.00    -0.248 NA
ATOM     61  C   UNL A   1      49.251  31.783  27.969  1.00  0.00     0.031 C 
ATOM     62  C   UNL A   1      48.112  25.861  27.294  1.00  0.00     0.029 A 
ATOM     63  C   UNL A   1      47.961  27.219  27.527  1.00  0.00     0.049 A 
ATOM     64  H   UNL A   1      46.257  28.274  28.185  1.00  0.00     0.167 HD
ATOM     65  C   UNL A   1      48.717  29.575  27.663  1.00  0.00     0.074 A 
ATOM     66  C   UNL A   1      49.726  30.610  27.577  1.00  0.00     0.031 C 
ATOM     67  C   UNL A   1      48.943  28.265  27.394  1.00  0.00     0.034 A 
BRANCH  54  68
ATOM     68  C   UNL A   1      44.054  24.619  28.388  1.00  0.00     0.023 A 
ATOM     69  C   UNL A   1      44.073  23.872  29.582  1.00  0.00     0.012 A 
ATOM     70  C   UNL A   1      43.462  24.064  27.236  1.00  0.00     0.148 A 
ATOM     71  C   UNL A   1      43.544  22.583  29.624  1.00  0.00     0.002 A 
ATOM     72  C   UNL A   1      42.893  22.799  27.296  1.00  0.00     0.091 A 
ATOM     73  F   UNL A   1      43.474  24.781  26.103  1.00  0.00    -0.205 F 
ATOM     74  C   UNL A   1      42.945  22.051  28.485  1.00  0.00     0.022 A 
BRANCH  72  75
ATOM     75  S   UNL A   1      42.026  22.058  25.909  1.00  0.00     0.127 S 
ATOM     76  O   UNL A   1      40.843  22.913  25.810  1.00  0.00    -0.237 OA
ATOM     77  O   UNL A   1      42.991  22.222  24.822  1.00  0.00    -0.237 OA
ATOM     78  O   UNL A   1      41.765  20.677  26.287  1.00  0.00    -0.744 OA
ENDBRANCH  72  75
ENDBRANCH  54  68
BRANCH  55  79
ATOM     79  C   UNL A   1      47.472  34.008  28.663  1.00  0.00     0.023 A 
ATOM     80  C   UNL A   1      48.008  34.480  29.877  1.00  0.00     0.012 A 
ATOM     81  C   UNL A   1      47.453  34.863  27.544  1.00  0.00     0.148 A 
ATOM     82  C   UNL A   1      48.480  35.789  29.986  1.00  0.00     0.002 A 
ATOM     83  C   UNL A   1      47.979  36.145  27.642  1.00  0.00     0.091 A 
ATOM     84  F   UNL A   1      46.926  34.400  26.401  1.00  0.00    -0.205 F 
ATOM     85  C   UNL A   1      48.474  36.618  28.867  1.00  0.00     0.022 A 
BRANCH  83  86
ATOM     86  S   UNL A   1      48.128  37.243  26.229  1.00  0.00     0.127 S 
ATOM     87  O   UNL A   1      46.825  37.086  25.590  1.00  0.00    -0.237 OA
ATOM     88  O   UNL A   1      48.346  38.536  26.880  1.00  0.00    -0.237 OA
ATOM     89  O   UNL A   1      49.267  36.751  25.467  1.00  0.00    -0.744 OA
ENDBRANCH  83  86
ENDBRANCH  55  79
BRANCH  67  90
ATOM     90  C   UNL A   1      50.321  27.870  26.925  1.00  0.00     0.023 A 
ATOM     91  C   UNL A   1      51.213  27.227  27.805  1.00  0.00     0.012 A 
ATOM     92  C   UNL A   1      50.699  28.070  25.581  1.00  0.00     0.148 A 
ATOM     93  C   UNL A   1      52.475  26.824  27.365  1.00  0.00     0.002 A 
ATOM     94  C   UNL A   1      51.936  27.615  25.137  1.00  0.00     0.091 A 
ATOM     95  F   UNL A   1      49.842  28.695  24.762  1.00  0.00    -0.205 F 
ATOM     96  C   UNL A   1      52.831  27.006  26.031  1.00  0.00     0.022 A 
BRANCH  94  97
ATOM     97  S   UNL A   1      52.438  27.717  23.415  1.00  0.00     0.127 S 
ATOM     98  O   UNL A   1      53.856  27.366  23.498  1.00  0.00    -0.237 OA
ATOM     99  O   UNL A   1      51.594  26.700  22.788  1.00  0.00    -0.237 OA
ATOM    100  O   UNL A   1      52.159  29.081  22.992  1.00  0.00    -0.744 OA
ENDBRANCH  94  97
ENDBRANCH  67  90
ENDBRANCH  41  42
ENDBRANCH  34  36
ENDBRANCH  33  34
ENDBRANCH  32  33
ENDBRANCH  31  32
ENDBRANCH  30  31
ENDBRANCH  29  30
ENDBRANCH   1  29
TORSDOF 27
ENDMDL
MODEL 3
REMARK VINA RESULT:      -7.4      5.916      8.549
REMARK SMILES CS(=O)(=O)Nc1cc(NS(C)(=O)=O)cc(C(=O)OCCOCCOCCOCCOC(=O)c2ccc(-c3c4nc(c(-c5cccc(S(=O)(=O)[O-])c5F)c5ccc([nH]5)c(-c5cccc(S(=O)(=O)[O-])c5F)c5nc(c(-c6cccc(S(=O)(=O)[O-])c6F)c6ccc3[nH]6)C=C5)C=C4)cc2)c1
REMARK SMILES IDX 25 1 24 2 23 3 22 4 21 5 20 6 19 7 18 8 16 9 17 10 15 11
REMARK SMILES IDX 6 12 7 13 96 14 8 15 14 16 5 17 2 19 1 20 3 21 4 22 9 23
REMARK SMILES IDX 10 25 11 26 12 27 13 28 26 29 27 30 28 31 29 32 30 33 31 34
REMARK SMILES IDX 32 35 33 36 34 37 95 38 35 39 94 40 36 41 37 42 38 43 88 44
REMARK SMILES IDX 39 45 93 46 87 47 89 48 40 49 92 50 86 51 85 52 41 54 73 55
REMARK SMILES IDX 53 56 72 57 54 58 57 59 71 60 90 61 55 62 56 63 70 65 91 66
REMARK SMILES IDX 58 67 42 68 43 69 51 70 44 71 46 72 52 73 45 74 47 75 48 76
REMARK SMILES IDX 49 77 50 78 74 79 75 80 83 81 76 82 78 83 84 84 77 85 79 86
REMARK SMILES IDX 80 87 81 88 82 89 59 90 60 91 68 92 61 93 63 94 69 95 62 96
REMARK SMILES IDX 64 97 65 98 66 99 67 100
REMARK H PARENT 5 18 9 24 89 53 57 64
REMARK Flexibility Score: inf
ROOT
ATOM      1  C   UNL A   1      38.804  29.123  30.004  1.00  0.00     0.188 C 
ENDROOT
BRANCH   1   2
ATOM      2  O   UNL A   1      37.733  29.979  29.619  1.00  0.00    -0.377 OA
BRANCH   2   3
ATOM      3  C   UNL A   1      36.487  29.364  29.366  1.00  0.00     0.188 C 
BRANCH   3   4
ATOM      4  C   UNL A   1      35.797  29.884  28.091  1.00  0.00     0.188 C 
BRANCH   4   5
ATOM      5  O   UNL A   1      34.748  29.156  27.473  1.00  0.00    -0.376 OA
BRANCH   5   6
ATOM      6  C   UNL A   1      34.177  29.493  26.217  1.00  0.00     0.202 C 
BRANCH   6   7
ATOM      7  C   UNL A   1      33.386  28.547  25.298  1.00  0.00     0.261 C 
BRANCH   7   8
ATOM      8  O   UNL A   1      34.127  27.591  24.556  1.00  0.00    -0.460 OA
BRANCH   8   9
ATOM      9  C   UNL A   1      33.514  27.036  23.493  1.00  0.00     0.338 C 
ATOM     10  O   UNL A   1      33.369  27.511  22.383  1.00  0.00    -0.246 OA
BRANCH   9  11
ATOM     11  C   UNL A   1      33.183  25.640  23.852  1.00  0.00     0.064 A 
ATOM     12  C   UNL A   1      31.617  23.991  24.621  1.00  0.00     0.051 A 
ATOM     13  C   UNL A   1      32.608  23.006  24.501  1.00  0.00     0.053 A 
ATOM     14  C   UNL A   1      31.953  25.318  24.416  1.00  0.00     0.042 A 
ATOM     15  C   UNL A   1      33.905  23.340  24.102  1.00  0.00     0.051 A 
ATOM     16  C   UNL A   1      34.160  24.654  23.699  1.00  0.00     0.042 A 
BRANCH  12  17
ATOM     17  N   UNL A   1      30.330  23.638  25.119  1.00  0.00    -0.284 N 
ATOM     18  H   UNL A   1      29.560  23.686  24.506  1.00  0.00     0.180 HD
BRANCH  17  19
ATOM     19  S   UNL A   1      30.061  23.142  26.707  1.00  0.00     0.229 S 
ATOM     20  C   UNL A   1      31.623  23.058  27.587  1.00  0.00     0.183 C 
ATOM     21  O   UNL A   1      29.500  21.813  26.628  1.00  0.00    -0.207 OA
ATOM     22  O   UNL A   1      29.303  24.231  27.291  1.00  0.00    -0.207 OA
ENDBRANCH  17  19
ENDBRANCH  12  17
BRANCH  15  23
ATOM     23  N   UNL A   1      35.023  22.449  23.993  1.00  0.00    -0.284 N 
ATOM     24  H   UNL A   1      34.824  21.487  23.916  1.00  0.00     0.180 HD
BRANCH  23  25
ATOM     25  S   UNL A   1      36.644  22.899  23.989  1.00  0.00     0.229 S 
ATOM     26  C   UNL A   1      37.371  21.349  24.462  1.00  0.00     0.183 C 
ATOM     27  O   UNL A   1      36.992  23.138  22.602  1.00  0.00    -0.207 OA
ATOM     28  O   UNL A   1      36.953  23.847  25.028  1.00  0.00    -0.207 OA
ENDBRANCH  23  25
ENDBRANCH  15  23
ENDBRANCH   9  11
ENDBRANCH   8   9
ENDBRANCH   7   8
ENDBRANCH   6   7
ENDBRANCH   5   6
ENDBRANCH   4   5
ENDBRANCH   3   4
ENDBRANCH   2   3
ENDBRANCH   1   2
BRANCH   1  29
ATOM     29  C   UNL A   1      38.541  27.606  30.153  1.00  0.00     0.188 C 
BRANCH  29  30
ATOM     30  O   UNL A   1      39.576  26.774  29.639  1.00  0.00    -0.376 OA
BRANCH  30  31
ATOM     31  C   UNL A   1      40.518  27.333  28.738  1.00  0.00     0.202 C 
BRANCH  31  32
ATOM     32  C   UNL A   1      40.686  26.627  27.384  1.00  0.00     0.261 C 
BRANCH  32  33
ATOM     33  O   UNL A   1      42.032  26.291  27.023  1.00  0.00    -0.460 OA
BRANCH  33  34
ATOM     34  C   UNL A   1      42.618  27.044  26.067  1.00  0.00     0.338 C 
ATOM     35  O   UNL A   1      42.641  26.821  24.871  1.00  0.00    -0.246 OA
BRANCH  34  36
ATOM     36  C   UNL A   1      43.057  28.305  26.698  1.00  0.00     0.060 A 
ATOM     37  C   UNL A   1      43.952  28.246  27.774  1.00  0.00     0.016 A 
ATOM     38  C   UNL A   1      42.592  29.536  26.229  1.00  0.00     0.016 A 
ATOM     39  C   UNL A   1      44.351  29.419  28.412  1.00  0.00     0.010 A 
ATOM     40  C   UNL A   1      42.978  30.709  26.882  1.00  0.00     0.010 A 
ATOM     41  C   UNL A   1      43.828  30.651  28.001  1.00  0.00    -0.014 A 
BRANCH  41  42
ATOM     42  C   UNL A   1      44.011  31.847  28.858  1.00  0.00     0.031 A 
ATOM     43  C   UNL A   1      43.020  32.090  29.964  1.00  0.00     0.074 A 
ATOM     44  C   UNL A   1      45.036  32.696  28.667  1.00  0.00     0.049 A 
ATOM     45  N   UNL A   1      42.956  33.075  30.820  1.00  0.00    -0.248 NA
ATOM     46  C   UNL A   1      41.955  31.084  30.125  1.00  0.00     0.031 C 
ATOM     47  C   UNL A   1      46.065  32.563  27.639  1.00  0.00     0.029 A 
ATOM     48  N   UNL A   1      45.361  33.857  29.323  1.00  0.00    -0.354 N 
ATOM     49  C   UNL A   1      41.833  32.827  31.598  1.00  0.00     0.074 A 
ATOM     50  C   UNL A   1      41.236  31.605  31.107  1.00  0.00     0.031 C 
ATOM     51  C   UNL A   1      46.896  33.619  27.715  1.00  0.00     0.029 A 
ATOM     52  C   UNL A   1      46.439  34.514  28.777  1.00  0.00     0.049 A 
ATOM     53  H   UNL A   1      44.871  34.188  30.110  1.00  0.00     0.167 HD
ATOM     54  C   UNL A   1      41.345  33.544  32.638  1.00  0.00     0.034 A 
ATOM     55  C   UNL A   1      46.974  35.713  29.083  1.00  0.00     0.034 A 
ATOM     56  C   UNL A   1      41.944  34.754  33.129  1.00  0.00     0.049 A 
ATOM     57  C   UNL A   1      46.388  36.515  30.219  1.00  0.00     0.074 A 
ATOM     58  C   UNL A   1      41.551  35.533  34.204  1.00  0.00     0.029 A 
ATOM     59  N   UNL A   1      43.050  35.375  32.569  1.00  0.00    -0.354 N 
ATOM     60  N   UNL A   1      45.393  36.212  31.018  1.00  0.00    -0.248 NA
ATOM     61  C   UNL A   1      47.020  37.808  30.516  1.00  0.00     0.031 C 
ATOM     62  C   UNL A   1      42.395  36.646  34.268  1.00  0.00     0.029 A 
ATOM     63  C   UNL A   1      43.344  36.535  33.264  1.00  0.00     0.049 A 
ATOM     64  H   UNL A   1      43.552  35.039  31.791  1.00  0.00     0.167 HD
ATOM     65  C   UNL A   1      45.308  37.255  31.936  1.00  0.00     0.074 A 
ATOM     66  C   UNL A   1      46.364  38.188  31.603  1.00  0.00     0.031 C 
ATOM     67  C   UNL A   1      44.431  37.429  32.956  1.00  0.00     0.034 A 
BRANCH  54  68
ATOM     68  C   UNL A   1      40.104  33.032  33.320  1.00  0.00     0.023 A 
ATOM     69  C   UNL A   1      40.209  32.074  34.348  1.00  0.00     0.012 A 
ATOM     70  C   UNL A   1      38.835  33.536  32.972  1.00  0.00     0.148 A 
ATOM     71  C   UNL A   1      39.071  31.600  34.997  1.00  0.00     0.002 A 
ATOM     72  C   UNL A   1      37.709  33.095  33.656  1.00  0.00     0.091 A 
ATOM     73  F   UNL A   1      38.752  34.429  31.975  1.00  0.00    -0.205 F 
ATOM     74  C   UNL A   1      37.823  32.118  34.660  1.00  0.00     0.022 A 
BRANCH  72  75
ATOM     75  S   UNL A   1      36.068  33.759  33.353  1.00  0.00     0.127 S 
ATOM     76  O   UNL A   1      35.763  33.200  32.036  1.00  0.00    -0.237 OA
ATOM     77  O   UNL A   1      35.297  33.183  34.454  1.00  0.00    -0.237 OA
ATOM     78  O   UNL A   1      36.204  35.208  33.398  1.00  0.00    -0.744 OA
ENDBRANCH  72  75
ENDBRANCH  54  68
BRANCH  55  79
ATOM     79  C   UNL A   1      48.147  36.228  28.319  1.00  0.00     0.023 A 
ATOM     80  C   UNL A   1      47.944  37.090  27.225  1.00  0.00     0.012 A 
ATOM     81  C   UNL A   1      49.462  35.865  28.671  1.00  0.00     0.148 A 
ATOM     82  C   UNL A   1      49.025  37.551  26.470  1.00  0.00     0.002 A 
ATOM     83  C   UNL A   1      50.537  36.376  27.953  1.00  0.00     0.091 A 
ATOM     84  F   UNL A   1      49.635  35.032  29.707  1.00  0.00    -0.205 F 
ATOM     85  C   UNL A   1      50.320  37.202  26.840  1.00  0.00     0.022 A 
BRANCH  83  86
ATOM     86  S   UNL A   1      52.245  36.082  28.425  1.00  0.00     0.127 S 
ATOM     87  O   UNL A   1      52.204  34.683  28.841  1.00  0.00    -0.237 OA
ATOM     88  O   UNL A   1      52.948  36.332  27.166  1.00  0.00    -0.237 OA
ATOM     89  O   UNL A   1      52.533  37.045  29.479  1.00  0.00    -0.744 OA
ENDBRANCH  83  86
ENDBRANCH  55  79
BRANCH  67  90
ATOM     90  C   UNL A   1      44.599  38.646  33.831  1.00  0.00     0.023 A 
ATOM     91  C   UNL A   1      45.556  38.650  34.865  1.00  0.00     0.012 A 
ATOM     92  C   UNL A   1      43.856  39.816  33.573  1.00  0.00     0.148 A 
ATOM     93  C   UNL A   1      45.743  39.787  35.653  1.00  0.00     0.002 A 
ATOM     94  C   UNL A   1      44.087  40.961  34.326  1.00  0.00     0.091 A 
ATOM     95  F   UNL A   1      42.940  39.788  32.594  1.00  0.00    -0.205 F 
ATOM     96  C   UNL A   1      45.019  40.944  35.376  1.00  0.00     0.022 A 
BRANCH  94  97
ATOM     97  S   UNL A   1      43.275  42.525  33.977  1.00  0.00     0.127 S 
ATOM     98  O   UNL A   1      43.753  42.813  32.625  1.00  0.00    -0.237 OA
ATOM     99  O   UNL A   1      41.860  42.162  34.059  1.00  0.00    -0.237 OA
ATOM    100  O   UNL A   1      43.722  43.452  35.006  1.00  0.00    -0.744 OA
ENDBRANCH  94  97
ENDBRANCH  67  90
ENDBRANCH  41  42
ENDBRANCH  34  36
ENDBRANCH  33  34
ENDBRANCH  32  33
ENDBRANCH  31  32
ENDBRANCH  30  31
ENDBRANCH  29  30
ENDBRANCH   1  29
TORSDOF 27
ENDMDL
