MODEL 1
REMARK VINA RESULT:      -8.9      0.000      0.000
REMARK SMILES CS(=O)(=O)c1ccc(/C=C(/C(=O)OCCOCCOCCOCCOC(=O)c2ccc(-c3c4nc(c(-c5cccc(S(=O)(=O)[O-])c5F)c5ccc([nH]5)c(-c5cccc(S(=O)(=O)[O-])c5F)c5nc(c(-c6cccc(S(=O)(=O)[O-])c6F)c6ccc3[nH]6)C=C5)C=C4)cc2)c2cccc(-c3ccc(S(C)(=O)=O)cc3)c2)cc1
REMARK SMILES IDX 19 1 18 2 17 3 16 4 15 5 14 6 13 7 11 8 12 9 10 10 9 11 8 12
REMARK SMILES IDX 5 13 6 14 108 15 7 16 107 17 2 18 1 19 3 20 4 21 91 22 92 23
REMARK SMILES IDX 106 24 93 25 95 26 94 27 96 28 97 29 105 30 98 31 104 32
REMARK SMILES IDX 99 33 100 34 101 35 102 36 103 37 20 38 21 39 22 40 23 41
REMARK SMILES IDX 24 42 25 43 26 44 27 45 28 46 29 47 90 48 30 49 89 50 31 51
REMARK SMILES IDX 32 52 33 53 83 54 34 55 88 56 82 57 84 58 35 59 87 60 81 61
REMARK SMILES IDX 80 62 36 64 68 65 48 66 67 67 49 68 52 69 66 70 85 71 50 72
REMARK SMILES IDX 51 73 65 75 86 76 53 77 37 78 38 79 46 80 39 81 41 82 47 83
REMARK SMILES IDX 40 84 42 85 43 86 44 87 45 88 69 89 70 90 78 91 71 92 73 93
REMARK SMILES IDX 79 94 72 95 74 96 75 97 76 98 77 99 54 100 55 101 63 102
REMARK SMILES IDX 56 103 58 104 64 105 57 106 59 107 60 108 61 109 62 110
REMARK H PARENT 84 63 52 74
REMARK Flexibility Score: inf
ROOT
ATOM      1  O   UNL A   1      32.706  26.784  25.446  1.00  0.00    -0.377 OA
ENDROOT
BRANCH   1   2
ATOM      2  C   UNL A   1      32.185  25.541  25.876  1.00  0.00     0.188 C 
BRANCH   2   3
ATOM      3  C   UNL A   1      33.125  24.322  26.046  1.00  0.00     0.188 C 
BRANCH   3   4
ATOM      4  O   UNL A   1      33.795  23.930  24.862  1.00  0.00    -0.376 OA
BRANCH   4   5
ATOM      5  C   UNL A   1      34.145  22.565  24.723  1.00  0.00     0.202 C 
BRANCH   5   6
ATOM      6  C   UNL A   1      35.622  22.203  24.494  1.00  0.00     0.261 C 
BRANCH   6   7
ATOM      7  O   UNL A   1      36.436  22.117  25.672  1.00  0.00    -0.460 OA
BRANCH   7   8
ATOM      8  C   UNL A   1      37.620  21.476  25.560  1.00  0.00     0.338 C 
ATOM      9  O   UNL A   1      37.789  20.379  25.047  1.00  0.00    -0.246 OA
BRANCH   8  10
ATOM     10  C   UNL A   1      38.744  22.374  25.996  1.00  0.00     0.067 C 
ATOM     11  C   UNL A   1      38.477  23.680  26.249  1.00  0.00     0.024 C 
BRANCH  11  12
ATOM     12  C   UNL A   1      39.320  24.688  26.944  1.00  0.00    -0.025 A 
ATOM     13  C   UNL A   1      40.458  27.018  28.018  1.00  0.00     0.067 A 
ATOM     14  C   UNL A   1      39.822  26.109  28.858  1.00  0.00     0.021 A 
ATOM     15  C   UNL A   1      40.646  26.719  26.670  1.00  0.00     0.021 A 
ATOM     16  C   UNL A   1      39.307  24.925  28.325  1.00  0.00     0.009 A 
ATOM     17  C   UNL A   1      40.082  25.553  26.140  1.00  0.00     0.009 A 
BRANCH  13  18
ATOM     18  S   UNL A   1      40.895  28.620  28.643  1.00  0.00     0.175 S 
ATOM     19  C   UNL A   1      41.250  28.322  30.348  1.00  0.00     0.163 C 
ATOM     20  O   UNL A   1      39.708  29.454  28.578  1.00  0.00    -0.224 OA
ATOM     21  O   UNL A   1      42.123  29.029  27.990  1.00  0.00    -0.224 OA
ENDBRANCH  13  18
ENDBRANCH  11  12
BRANCH  10  22
ATOM     22  C   UNL A   1      40.063  21.750  26.212  1.00  0.00    -0.010 A 
ATOM     23  C   UNL A   1      40.232  20.359  26.301  1.00  0.00     0.009 A 
ATOM     24  C   UNL A   1      41.195  22.557  26.189  1.00  0.00     0.017 A 
ATOM     25  C   UNL A   1      41.502  19.790  26.375  1.00  0.00     0.001 A 
ATOM     26  C   UNL A   1      42.482  22.000  26.191  1.00  0.00    -0.018 A 
ATOM     27  C   UNL A   1      42.623  20.609  26.311  1.00  0.00     0.009 A 
BRANCH  26  28
ATOM     28  C   UNL A   1      43.626  22.882  25.954  1.00  0.00    -0.018 A 
ATOM     29  C   UNL A   1      44.932  22.366  25.942  1.00  0.00     0.010 A 
ATOM     30  C   UNL A   1      43.423  24.229  25.607  1.00  0.00     0.010 A 
ATOM     31  C   UNL A   1      46.010  23.173  25.587  1.00  0.00     0.021 A 
ATOM     32  C   UNL A   1      44.492  25.041  25.248  1.00  0.00     0.021 A 
ATOM     33  C   UNL A   1      45.780  24.508  25.251  1.00  0.00     0.067 A 
BRANCH  33  34
ATOM     34  S   UNL A   1      47.158  25.545  24.857  1.00  0.00     0.175 S 
ATOM     35  C   UNL A   1      48.274  25.218  26.197  1.00  0.00     0.163 C 
ATOM     36  O   UNL A   1      47.756  25.044  23.637  1.00  0.00    -0.224 OA
ATOM     37  O   UNL A   1      46.733  26.928  24.976  1.00  0.00    -0.224 OA
ENDBRANCH  33  34
ENDBRANCH  26  28
ENDBRANCH  10  22
ENDBRANCH   8  10
ENDBRANCH   7   8
ENDBRANCH   6   7
ENDBRANCH   5   6
ENDBRANCH   4   5
ENDBRANCH   3   4
ENDBRANCH   2   3
ENDBRANCH   1   2
BRANCH   1  38
ATOM     38  C   UNL A   1      33.476  27.563  26.350  1.00  0.00     0.188 C 
BRANCH  38  39
ATOM     39  C   UNL A   1      33.704  29.067  26.066  1.00  0.00     0.188 C 
BRANCH  39  40
ATOM     40  O   UNL A   1      34.815  29.645  26.736  1.00  0.00    -0.376 OA
BRANCH  40  41
ATOM     41  C   UNL A   1      34.553  30.642  27.708  1.00  0.00     0.202 C 
BRANCH  41  42
ATOM     42  C   UNL A   1      35.695  31.606  28.063  1.00  0.00     0.261 C 
BRANCH  42  43
ATOM     43  O   UNL A   1      35.903  31.856  29.459  1.00  0.00    -0.460 OA
BRANCH  43  44
ATOM     44  C   UNL A   1      36.700  31.000  30.135  1.00  0.00     0.338 C 
ATOM     45  O   UNL A   1      36.765  29.790  29.996  1.00  0.00    -0.246 OA
BRANCH  44  46
ATOM     46  C   UNL A   1      37.641  31.812  30.935  1.00  0.00     0.060 A 
ATOM     47  C   UNL A   1      37.341  33.159  31.182  1.00  0.00     0.016 A 
ATOM     48  C   UNL A   1      38.790  31.231  31.474  1.00  0.00     0.016 A 
ATOM     49  C   UNL A   1      38.207  33.936  31.951  1.00  0.00     0.010 A 
ATOM     50  C   UNL A   1      39.670  32.017  32.219  1.00  0.00     0.010 A 
ATOM     51  C   UNL A   1      39.398  33.379  32.434  1.00  0.00    -0.014 A 
BRANCH  51  52
ATOM     52  C   UNL A   1      40.444  34.267  32.993  1.00  0.00     0.031 A 
ATOM     53  C   UNL A   1      40.370  34.621  34.452  1.00  0.00     0.074 A 
ATOM     54  C   UNL A   1      41.438  34.748  32.227  1.00  0.00     0.049 A 
ATOM     55  N   UNL A   1      41.151  35.395  35.158  1.00  0.00    -0.248 NA
ATOM     56  C   UNL A   1      39.264  34.021  35.218  1.00  0.00     0.031 C 
ATOM     57  C   UNL A   1      41.619  34.473  30.803  1.00  0.00     0.029 A 
ATOM     58  N   UNL A   1      42.470  35.596  32.542  1.00  0.00    -0.354 N 
ATOM     59  C   UNL A   1      40.614  35.404  36.440  1.00  0.00     0.074 A 
ATOM     60  C   UNL A   1      39.436  34.565  36.413  1.00  0.00     0.031 C 
ATOM     61  C   UNL A   1      42.682  35.167  30.358  1.00  0.00     0.029 A 
ATOM     62  C   UNL A   1      43.236  35.954  31.458  1.00  0.00     0.049 A 
ATOM     63  H   UNL A   1      42.646  35.918  33.455  1.00  0.00     0.167 HD
ATOM     64  C   UNL A   1      41.066  36.045  37.542  1.00  0.00     0.034 A 
ATOM     65  C   UNL A   1      44.250  36.839  31.361  1.00  0.00     0.034 A 
ATOM     66  C   UNL A   1      42.240  36.872  37.567  1.00  0.00     0.049 A 
ATOM     67  C   UNL A   1      44.717  37.565  32.598  1.00  0.00     0.074 A 
ATOM     68  C   UNL A   1      42.811  37.521  38.647  1.00  0.00     0.029 A 
ATOM     69  N   UNL A   1      43.012  37.185  36.459  1.00  0.00    -0.354 N 
ATOM     70  N   UNL A   1      44.275  37.470  33.829  1.00  0.00    -0.248 NA
ATOM     71  C   UNL A   1      45.844  38.495  32.438  1.00  0.00     0.031 C 
ATOM     72  C   UNL A   1      43.901  38.264  38.183  1.00  0.00     0.029 A 
ATOM     73  C   UNL A   1      44.041  38.037  36.823  1.00  0.00     0.049 A 
ATOM     74  H   UNL A   1      42.852  36.851  35.547  1.00  0.00     0.167 HD
ATOM     75  C   UNL A   1      45.091  38.298  34.594  1.00  0.00     0.074 A 
ATOM     76  C   UNL A   1      46.066  38.870  33.690  1.00  0.00     0.031 C 
ATOM     77  C   UNL A   1      45.032  38.567  35.923  1.00  0.00     0.034 A 
BRANCH  64  78
ATOM     78  C   UNL A   1      40.281  35.878  38.816  1.00  0.00     0.023 A 
ATOM     79  C   UNL A   1      39.324  36.846  39.188  1.00  0.00     0.012 A 
ATOM     80  C   UNL A   1      40.461  34.738  39.624  1.00  0.00     0.148 A 
ATOM     81  C   UNL A   1      38.585  36.697  40.361  1.00  0.00     0.002 A 
ATOM     82  C   UNL A   1      39.686  34.573  40.765  1.00  0.00     0.091 A 
ATOM     83  F   UNL A   1      41.394  33.844  39.267  1.00  0.00    -0.205 F 
ATOM     84  C   UNL A   1      38.758  35.558  41.142  1.00  0.00     0.022 A 
BRANCH  82  85
ATOM     85  S   UNL A   1      39.776  33.103  41.791  1.00  0.00     0.127 S 
ATOM     86  O   UNL A   1      41.049  33.304  42.482  1.00  0.00    -0.237 OA
ATOM     87  O   UNL A   1      38.592  33.248  42.638  1.00  0.00    -0.237 OA
ATOM     88  O   UNL A   1      39.736  31.970  40.876  1.00  0.00    -0.744 OA
ENDBRANCH  82  85
ENDBRANCH  64  78
BRANCH  65  89
ATOM     89  C   UNL A   1      44.903  37.080  30.043  1.00  0.00     0.023 A 
ATOM     90  C   UNL A   1      45.940  36.232  29.609  1.00  0.00     0.012 A 
ATOM     91  C   UNL A   1      44.491  38.142  29.215  1.00  0.00     0.148 A 
ATOM     92  C   UNL A   1      46.575  36.455  28.386  1.00  0.00     0.002 A 
ATOM     93  C   UNL A   1      45.086  38.322  27.972  1.00  0.00     0.091 A 
ATOM     94  F   UNL A   1      43.513  38.947  29.655  1.00  0.00    -0.205 F 
ATOM     95  C   UNL A   1      46.141  37.493  27.564  1.00  0.00     0.022 A 
BRANCH  93  96
ATOM     96  S   UNL A   1      44.507  39.548  26.794  1.00  0.00     0.127 S 
ATOM     97  O   UNL A   1      43.160  39.067  26.500  1.00  0.00    -0.237 OA
ATOM     98  O   UNL A   1      44.565  40.775  27.590  1.00  0.00    -0.237 OA
ATOM     99  O   UNL A   1      45.449  39.507  25.683  1.00  0.00    -0.744 OA
ENDBRANCH  93  96
ENDBRANCH  65  89
BRANCH  77 100
ATOM    100  C   UNL A   1      46.077  39.489  36.500  1.00  0.00     0.023 A 
ATOM    101  C   UNL A   1      47.385  39.019  36.733  1.00  0.00     0.012 A 
ATOM    102  C   UNL A   1      45.778  40.845  36.741  1.00  0.00     0.148 A 
ATOM    103  C   UNL A   1      48.367  39.875  37.234  1.00  0.00     0.002 A 
ATOM    104  C   UNL A   1      46.774  41.704  37.187  1.00  0.00     0.091 A 
ATOM    105  F   UNL A   1      44.524  41.270  36.525  1.00  0.00    -0.205 F 
ATOM    106  C   UNL A   1      48.065  41.218  37.449  1.00  0.00     0.022 A 
BRANCH 104 107
ATOM    107  S   UNL A   1      46.506  43.468  37.397  1.00  0.00     0.127 S 
ATOM    108  O   UNL A   1      47.830  43.923  37.817  1.00  0.00    -0.237 OA
ATOM    109  O   UNL A   1      46.116  43.883  36.050  1.00  0.00    -0.237 OA
ATOM    110  O   UNL A   1      45.455  43.599  38.399  1.00  0.00    -0.744 OA
ENDBRANCH 104 107
ENDBRANCH  77 100
ENDBRANCH  51  52
ENDBRANCH  44  46
ENDBRANCH  43  44
ENDBRANCH  42  43
ENDBRANCH  41  42
ENDBRANCH  40  41
ENDBRANCH  39  40
ENDBRANCH  38  39
ENDBRANCH   1  38
TORSDOF 28
ENDMDL
MODEL 2
REMARK VINA RESULT:      -8.7      2.651      3.336
REMARK SMILES CS(=O)(=O)c1ccc(/C=C(/C(=O)OCCOCCOCCOCCOC(=O)c2ccc(-c3c4nc(c(-c5cccc(S(=O)(=O)[O-])c5F)c5ccc([nH]5)c(-c5cccc(S(=O)(=O)[O-])c5F)c5nc(c(-c6cccc(S(=O)(=O)[O-])c6F)c6ccc3[nH]6)C=C5)C=C4)cc2)c2cccc(-c3ccc(S(C)(=O)=O)cc3)c2)cc1
REMARK SMILES IDX 19 1 18 2 17 3 16 4 15 5 14 6 13 7 11 8 12 9 10 10 9 11 8 12
REMARK SMILES IDX 5 13 6 14 108 15 7 16 107 17 2 18 1 19 3 20 4 21 91 22 92 23
REMARK SMILES IDX 106 24 93 25 95 26 94 27 96 28 97 29 105 30 98 31 104 32
REMARK SMILES IDX 99 33 100 34 101 35 102 36 103 37 20 38 21 39 22 40 23 41
REMARK SMILES IDX 24 42 25 43 26 44 27 45 28 46 29 47 90 48 30 49 89 50 31 51
REMARK SMILES IDX 32 52 33 53 83 54 34 55 88 56 82 57 84 58 35 59 87 60 81 61
REMARK SMILES IDX 80 62 36 64 68 65 48 66 67 67 49 68 52 69 66 70 85 71 50 72
REMARK SMILES IDX 51 73 65 75 86 76 53 77 37 78 38 79 46 80 39 81 41 82 47 83
REMARK SMILES IDX 40 84 42 85 43 86 44 87 45 88 69 89 70 90 78 91 71 92 73 93
REMARK SMILES IDX 79 94 72 95 74 96 75 97 76 98 77 99 54 100 55 101 63 102
REMARK SMILES IDX 56 103 58 104 64 105 57 106 59 107 60 108 61 109 62 110
REMARK H PARENT 84 63 52 74
REMARK Flexibility Score: inf
ROOT
ATOM      1  O   UNL A   1      33.482  26.462  25.407  1.00  0.00    -0.377 OA
ENDROOT
BRANCH   1   2
ATOM      2  C   UNL A   1      34.372  25.417  25.749  1.00  0.00     0.188 C 
BRANCH   2   3
ATOM      3  C   UNL A   1      34.824  24.398  24.674  1.00  0.00     0.188 C 
BRANCH   3   4
ATOM      4  O   UNL A   1      34.783  23.047  25.094  1.00  0.00    -0.376 OA
BRANCH   4   5
ATOM      5  C   UNL A   1      35.959  22.497  25.662  1.00  0.00     0.202 C 
BRANCH   5   6
ATOM      6  C   UNL A   1      37.301  23.199  25.399  1.00  0.00     0.261 C 
BRANCH   6   7
ATOM      7  O   UNL A   1      37.952  23.757  26.549  1.00  0.00    -0.460 OA
BRANCH   7   8
ATOM      8  C   UNL A   1      39.203  23.323  26.824  1.00  0.00     0.338 C 
ATOM      9  O   UNL A   1      39.569  22.157  26.808  1.00  0.00    -0.246 OA
BRANCH   8  10
ATOM     10  C   UNL A   1      40.138  24.489  26.980  1.00  0.00     0.067 C 
ATOM     11  C   UNL A   1      39.622  25.745  26.997  1.00  0.00     0.024 C 
BRANCH  11  12
ATOM     12  C   UNL A   1      40.273  27.016  27.408  1.00  0.00    -0.025 A 
ATOM     13  C   UNL A   1      42.031  29.022  28.280  1.00  0.00     0.067 A 
ATOM     14  C   UNL A   1      41.659  28.963  26.940  1.00  0.00     0.021 A 
ATOM     15  C   UNL A   1      41.439  28.174  29.214  1.00  0.00     0.021 A 
ATOM     16  C   UNL A   1      40.741  27.996  26.524  1.00  0.00     0.009 A 
ATOM     17  C   UNL A   1      40.558  27.179  28.775  1.00  0.00     0.009 A 
BRANCH  13  18
ATOM     18  S   UNL A   1      43.369  30.081  28.764  1.00  0.00     0.175 S 
ATOM     19  C   UNL A   1      44.779  29.014  28.738  1.00  0.00     0.163 C 
ATOM     20  O   UNL A   1      43.140  30.476  30.142  1.00  0.00    -0.224 OA
ATOM     21  O   UNL A   1      43.540  31.080  27.727  1.00  0.00    -0.224 OA
ENDBRANCH  13  18
ENDBRANCH  11  12
BRANCH  10  22
ATOM     22  C   UNL A   1      41.565  24.186  27.200  1.00  0.00    -0.010 A 
ATOM     23  C   UNL A   1      42.476  24.044  26.141  1.00  0.00     0.009 A 
ATOM     24  C   UNL A   1      42.052  24.179  28.502  1.00  0.00     0.017 A 
ATOM     25  C   UNL A   1      43.840  23.888  26.379  1.00  0.00     0.001 A 
ATOM     26  C   UNL A   1      43.429  24.094  28.760  1.00  0.00    -0.018 A 
ATOM     27  C   UNL A   1      44.315  23.921  27.685  1.00  0.00     0.009 A 
BRANCH  26  28
ATOM     28  C   UNL A   1      43.897  24.302  30.131  1.00  0.00    -0.018 A 
ATOM     29  C   UNL A   1      43.711  23.305  31.104  1.00  0.00     0.010 A 
ATOM     30  C   UNL A   1      44.650  25.441  30.459  1.00  0.00     0.010 A 
ATOM     31  C   UNL A   1      44.270  23.442  32.373  1.00  0.00     0.021 A 
ATOM     32  C   UNL A   1      45.214  25.585  31.721  1.00  0.00     0.021 A 
ATOM     33  C   UNL A   1      45.010  24.587  32.672  1.00  0.00     0.067 A 
BRANCH  33  34
ATOM     34  S   UNL A   1      45.668  24.783  34.302  1.00  0.00     0.175 S 
ATOM     35  C   UNL A   1      45.593  23.131  34.943  1.00  0.00     0.163 C 
ATOM     36  O   UNL A   1      47.062  25.157  34.176  1.00  0.00    -0.224 OA
ATOM     37  O   UNL A   1      44.738  25.588  35.072  1.00  0.00    -0.224 OA
ENDBRANCH  33  34
ENDBRANCH  26  28
ENDBRANCH  10  22
ENDBRANCH   8  10
ENDBRANCH   7   8
ENDBRANCH   6   7
ENDBRANCH   5   6
ENDBRANCH   4   5
ENDBRANCH   3   4
ENDBRANCH   2   3
ENDBRANCH   1   2
BRANCH   1  38
ATOM     38  C   UNL A   1      33.798  27.794  25.785  1.00  0.00     0.188 C 
BRANCH  38  39
ATOM     39  C   UNL A   1      33.158  28.403  27.055  1.00  0.00     0.188 C 
BRANCH  39  40
ATOM     40  O   UNL A   1      32.954  29.808  27.012  1.00  0.00    -0.376 OA
BRANCH  40  41
ATOM     41  C   UNL A   1      34.076  30.644  27.236  1.00  0.00     0.202 C 
BRANCH  41  42
ATOM     42  C   UNL A   1      35.136  30.157  28.236  1.00  0.00     0.261 C 
BRANCH  42  43
ATOM     43  O   UNL A   1      36.214  31.063  28.510  1.00  0.00    -0.460 OA
BRANCH  43  44
ATOM     44  C   UNL A   1      37.470  30.572  28.465  1.00  0.00     0.338 C 
ATOM     45  O   UNL A   1      37.887  29.682  27.742  1.00  0.00    -0.246 OA
BRANCH  44  46
ATOM     46  C   UNL A   1      38.316  31.448  29.302  1.00  0.00     0.060 A 
ATOM     47  C   UNL A   1      37.962  32.796  29.455  1.00  0.00     0.016 A 
ATOM     48  C   UNL A   1      39.429  30.928  29.966  1.00  0.00     0.016 A 
ATOM     49  C   UNL A   1      38.737  33.633  30.258  1.00  0.00     0.010 A 
ATOM     50  C   UNL A   1      40.220  31.774  30.745  1.00  0.00     0.010 A 
ATOM     51  C   UNL A   1      39.894  33.136  30.868  1.00  0.00    -0.014 A 
BRANCH  51  52
ATOM     52  C   UNL A   1      40.864  34.080  31.470  1.00  0.00     0.031 A 
ATOM     53  C   UNL A   1      40.840  34.268  32.962  1.00  0.00     0.074 A 
ATOM     54  C   UNL A   1      41.748  34.756  30.716  1.00  0.00     0.049 A 
ATOM     55  N   UNL A   1      41.569  35.052  33.711  1.00  0.00    -0.248 NA
ATOM     56  C   UNL A   1      39.859  33.463  33.709  1.00  0.00     0.031 C 
ATOM     57  C   UNL A   1      41.871  34.654  29.263  1.00  0.00     0.029 A 
ATOM     58  N   UNL A   1      42.693  35.684  31.072  1.00  0.00    -0.354 N 
ATOM     59  C   UNL A   1      41.114  34.863  35.010  1.00  0.00     0.074 A 
ATOM     60  C   UNL A   1      40.041  33.894  34.948  1.00  0.00     0.031 C 
ATOM     61  C   UNL A   1      42.818  35.514  28.847  1.00  0.00     0.029 A 
ATOM     62  C   UNL A   1      43.345  36.244  29.999  1.00  0.00     0.049 A 
ATOM     63  H   UNL A   1      42.886  35.927  32.006  1.00  0.00     0.167 HD
ATOM     64  C   UNL A   1      41.557  35.435  36.154  1.00  0.00     0.034 A 
ATOM     65  C   UNL A   1      44.242  37.249  29.952  1.00  0.00     0.034 A 
ATOM     66  C   UNL A   1      42.627  36.390  36.213  1.00  0.00     0.049 A 
ATOM     67  C   UNL A   1      44.698  37.892  31.237  1.00  0.00     0.074 A 
ATOM     68  C   UNL A   1      43.186  36.987  37.329  1.00  0.00     0.029 A 
ATOM     69  N   UNL A   1      43.289  36.908  35.110  1.00  0.00    -0.354 N 
ATOM     70  N   UNL A   1      44.346  37.617  32.470  1.00  0.00    -0.248 NA
ATOM     71  C   UNL A   1      45.699  38.963  31.127  1.00  0.00     0.031 C 
ATOM     72  C   UNL A   1      44.152  37.900  36.899  1.00  0.00     0.029 A 
ATOM     73  C   UNL A   1      44.234  37.835  35.517  1.00  0.00     0.049 A 
ATOM     74  H   UNL A   1      43.112  36.654  34.176  1.00  0.00     0.167 HD
ATOM     75  C   UNL A   1      45.107  38.453  33.282  1.00  0.00     0.074 A 
ATOM     76  C   UNL A   1      45.953  39.230  32.401  1.00  0.00     0.031 C 
ATOM     77  C   UNL A   1      45.100  38.572  34.634  1.00  0.00     0.034 A 
BRANCH  64  78
ATOM     78  C   UNL A   1      40.876  35.041  37.438  1.00  0.00     0.023 A 
ATOM     79  C   UNL A   1      39.604  35.565  37.752  1.00  0.00     0.012 A 
ATOM     80  C   UNL A   1      41.478  34.118  38.315  1.00  0.00     0.148 A 
ATOM     81  C   UNL A   1      38.960  35.201  38.934  1.00  0.00     0.002 A 
ATOM     82  C   UNL A   1      40.809  33.723  39.465  1.00  0.00     0.091 A 
ATOM     83  F   UNL A   1      42.698  33.653  38.011  1.00  0.00    -0.205 F 
ATOM     84  C   UNL A   1      39.556  34.274  39.783  1.00  0.00     0.022 A 
BRANCH  82  85
ATOM     85  S   UNL A   1      41.456  32.474  40.581  1.00  0.00     0.127 S 
ATOM     86  O   UNL A   1      40.227  31.920  41.147  1.00  0.00    -0.237 OA
ATOM     87  O   UNL A   1      42.162  31.580  39.662  1.00  0.00    -0.237 OA
ATOM     88  O   UNL A   1      42.314  33.180  41.523  1.00  0.00    -0.744 OA
ENDBRANCH  82  85
ENDBRANCH  64  78
BRANCH  65  89
ATOM     89  C   UNL A   1      44.781  37.704  28.639  1.00  0.00     0.023 A 
ATOM     90  C   UNL A   1      44.125  38.727  27.927  1.00  0.00     0.012 A 
ATOM     91  C   UNL A   1      45.950  37.133  28.099  1.00  0.00     0.148 A 
ATOM     92  C   UNL A   1      44.606  39.152  26.688  1.00  0.00     0.002 A 
ATOM     93  C   UNL A   1      46.458  37.602  26.893  1.00  0.00     0.091 A 
ATOM     94  F   UNL A   1      46.551  36.150  28.785  1.00  0.00    -0.205 F 
ATOM     95  C   UNL A   1      45.777  38.597  26.177  1.00  0.00     0.022 A 
BRANCH  93  96
ATOM     96  S   UNL A   1      48.026  37.040  26.223  1.00  0.00     0.127 S 
ATOM     97  O   UNL A   1      48.127  37.826  24.997  1.00  0.00    -0.237 OA
ATOM     98  O   UNL A   1      48.957  37.426  27.284  1.00  0.00    -0.237 OA
ATOM     99  O   UNL A   1      47.887  35.601  26.041  1.00  0.00    -0.744 OA
ENDBRANCH  93  96
ENDBRANCH  65  89
BRANCH  77 100
ATOM    100  C   UNL A   1      46.066  39.548  35.258  1.00  0.00     0.023 A 
ATOM    101  C   UNL A   1      47.441  39.245  35.315  1.00  0.00     0.012 A 
ATOM    102  C   UNL A   1      45.615  40.800  35.722  1.00  0.00     0.148 A 
ATOM    103  C   UNL A   1      48.346  40.158  35.859  1.00  0.00     0.002 A 
ATOM    104  C   UNL A   1      46.529  41.725  36.212  1.00  0.00     0.091 A 
ATOM    105  F   UNL A   1      44.302  41.065  35.672  1.00  0.00    -0.205 F 
ATOM    106  C   UNL A   1      47.892  41.400  36.297  1.00  0.00     0.022 A 
BRANCH 104 107
ATOM    107  S   UNL A   1      46.052  43.385  36.704  1.00  0.00     0.127 S 
ATOM    108  O   UNL A   1      47.343  43.977  37.048  1.00  0.00    -0.237 OA
ATOM    109  O   UNL A   1      45.447  43.909  35.479  1.00  0.00    -0.237 OA
ATOM    110  O   UNL A   1      45.124  43.225  37.817  1.00  0.00    -0.744 OA
ENDBRANCH 104 107
ENDBRANCH  77 100
ENDBRANCH  51  52
ENDBRANCH  44  46
ENDBRANCH  43  44
ENDBRANCH  42  43
ENDBRANCH  41  42
ENDBRANCH  40  41
ENDBRANCH  39  40
ENDBRANCH  38  39
ENDBRANCH   1  38
TORSDOF 28
ENDMDL
MODEL 3
REMARK VINA RESULT:      -8.0      6.950     11.504
REMARK SMILES CS(=O)(=O)c1ccc(/C=C(/C(=O)OCCOCCOCCOCCOC(=O)c2ccc(-c3c4nc(c(-c5cccc(S(=O)(=O)[O-])c5F)c5ccc([nH]5)c(-c5cccc(S(=O)(=O)[O-])c5F)c5nc(c(-c6cccc(S(=O)(=O)[O-])c6F)c6ccc3[nH]6)C=C5)C=C4)cc2)c2cccc(-c3ccc(S(C)(=O)=O)cc3)c2)cc1
REMARK SMILES IDX 19 1 18 2 17 3 16 4 15 5 14 6 13 7 11 8 12 9 10 10 9 11 8 12
REMARK SMILES IDX 5 13 6 14 108 15 7 16 107 17 2 18 1 19 3 20 4 21 91 22 92 23
REMARK SMILES IDX 106 24 93 25 95 26 94 27 96 28 97 29 105 30 98 31 104 32
REMARK SMILES IDX 99 33 100 34 101 35 102 36 103 37 20 38 21 39 22 40 23 41
REMARK SMILES IDX 24 42 25 43 26 44 27 45 28 46 29 47 90 48 30 49 89 50 31 51
REMARK SMILES IDX 32 52 33 53 83 54 34 55 88 56 82 57 84 58 35 59 87 60 81 61
REMARK SMILES IDX 80 62 36 64 68 65 48 66 67 67 49 68 52 69 66 70 85 71 50 72
REMARK SMILES IDX 51 73 65 75 86 76 53 77 37 78 38 79 46 80 39 81 41 82 47 83
REMARK SMILES IDX 40 84 42 85 43 86 44 87 45 88 69 89 70 90 78 91 71 92 73 93
REMARK SMILES IDX 79 94 72 95 74 96 75 97 76 98 77 99 54 100 55 101 63 102
REMARK SMILES IDX 56 103 58 104 64 105 57 106 59 107 60 108 61 109 62 110
REMARK H PARENT 84 63 52 74
REMARK Flexibility Score: inf
ROOT
ATOM      1  O   UNL A   1      37.032  33.999  31.150  1.00  0.00    -0.377 OA
ENDROOT
BRANCH   1   2
ATOM      2  C   UNL A   1      35.617  33.992  31.122  1.00  0.00     0.188 C 
BRANCH   2   3
ATOM      3  C   UNL A   1      34.849  32.653  30.999  1.00  0.00     0.188 C 
BRANCH   3   4
ATOM      4  O   UNL A   1      35.617  31.585  30.477  1.00  0.00    -0.376 OA
BRANCH   4   5
ATOM      5  C   UNL A   1      36.205  30.683  31.398  1.00  0.00     0.202 C 
BRANCH   5   6
ATOM      6  C   UNL A   1      37.738  30.586  31.456  1.00  0.00     0.261 C 
BRANCH   6   7
ATOM      7  O   UNL A   1      38.293  29.283  31.226  1.00  0.00    -0.460 OA
BRANCH   7   8
ATOM      8  C   UNL A   1      38.613  28.546  32.314  1.00  0.00     0.338 C 
ATOM      9  O   UNL A   1      37.819  27.950  33.027  1.00  0.00    -0.246 OA
BRANCH   8  10
ATOM     10  C   UNL A   1      40.105  28.409  32.430  1.00  0.00     0.067 C 
ATOM     11  C   UNL A   1      40.632  27.938  33.589  1.00  0.00     0.024 C 
BRANCH  11  12
ATOM     12  C   UNL A   1      42.010  27.452  33.859  1.00  0.00    -0.025 A 
ATOM     13  C   UNL A   1      44.292  26.027  34.658  1.00  0.00     0.067 A 
ATOM     14  C   UNL A   1      43.942  26.075  33.312  1.00  0.00     0.021 A 
ATOM     15  C   UNL A   1      43.592  26.785  35.595  1.00  0.00     0.021 A 
ATOM     16  C   UNL A   1      42.838  26.832  32.915  1.00  0.00     0.009 A 
ATOM     17  C   UNL A   1      42.459  27.499  35.191  1.00  0.00     0.009 A 
BRANCH  13  18
ATOM     18  S   UNL A   1      45.536  24.881  35.193  1.00  0.00     0.175 S 
ATOM     19  C   UNL A   1      44.607  23.540  35.874  1.00  0.00     0.163 C 
ATOM     20  O   UNL A   1      46.271  25.506  36.278  1.00  0.00    -0.224 OA
ATOM     21  O   UNL A   1      46.228  24.398  34.013  1.00  0.00    -0.224 OA
ENDBRANCH  13  18
ENDBRANCH  11  12
BRANCH  10  22
ATOM     22  C   UNL A   1      40.908  28.710  31.228  1.00  0.00    -0.010 A 
ATOM     23  C   UNL A   1      40.998  27.824  30.143  1.00  0.00     0.009 A 
ATOM     24  C   UNL A   1      41.481  29.971  31.107  1.00  0.00     0.017 A 
ATOM     25  C   UNL A   1      41.655  28.188  28.968  1.00  0.00     0.001 A 
ATOM     26  C   UNL A   1      42.083  30.381  29.909  1.00  0.00    -0.018 A 
ATOM     27  C   UNL A   1      42.188  29.466  28.850  1.00  0.00     0.009 A 
BRANCH  26  28
ATOM     28  C   UNL A   1      42.479  31.783  29.770  1.00  0.00    -0.018 A 
ATOM     29  C   UNL A   1      41.664  32.806  30.282  1.00  0.00     0.010 A 
ATOM     30  C   UNL A   1      43.737  32.116  29.240  1.00  0.00     0.010 A 
ATOM     31  C   UNL A   1      42.097  34.130  30.271  1.00  0.00     0.021 A 
ATOM     32  C   UNL A   1      44.179  33.434  29.227  1.00  0.00     0.021 A 
ATOM     33  C   UNL A   1      43.350  34.432  29.734  1.00  0.00     0.067 A 
BRANCH  33  34
ATOM     34  S   UNL A   1      43.872  36.121  29.668  1.00  0.00     0.175 S 
ATOM     35  C   UNL A   1      45.600  35.970  29.300  1.00  0.00     0.163 C 
ATOM     36  O   UNL A   1      43.219  36.743  28.534  1.00  0.00    -0.224 OA
ATOM     37  O   UNL A   1      43.760  36.681  31.002  1.00  0.00    -0.224 OA
ENDBRANCH  33  34
ENDBRANCH  26  28
ENDBRANCH  10  22
ENDBRANCH   8  10
ENDBRANCH   7   8
ENDBRANCH   6   7
ENDBRANCH   5   6
ENDBRANCH   4   5
ENDBRANCH   3   4
ENDBRANCH   2   3
ENDBRANCH   1   2
BRANCH   1  38
ATOM     38  C   UNL A   1      37.700  34.240  32.380  1.00  0.00     0.188 C 
BRANCH  38  39
ATOM     39  C   UNL A   1      36.950  34.026  33.715  1.00  0.00     0.188 C 
BRANCH  39  40
ATOM     40  O   UNL A   1      37.097  32.734  34.288  1.00  0.00    -0.376 OA
BRANCH  40  41
ATOM     41  C   UNL A   1      37.982  32.597  35.386  1.00  0.00     0.202 C 
BRANCH  41  42
ATOM     42  C   UNL A   1      38.678  33.867  35.900  1.00  0.00     0.261 C 
BRANCH  42  43
ATOM     43  O   UNL A   1      40.020  34.083  35.444  1.00  0.00    -0.460 OA
BRANCH  43  44
ATOM     44  C   UNL A   1      40.962  34.348  36.374  1.00  0.00     0.338 C 
ATOM     45  O   UNL A   1      40.897  35.170  37.274  1.00  0.00    -0.246 OA
BRANCH  44  46
ATOM     46  C   UNL A   1      42.011  33.315  36.246  1.00  0.00     0.060 A 
ATOM     47  C   UNL A   1      43.302  33.699  35.856  1.00  0.00     0.016 A 
ATOM     48  C   UNL A   1      41.730  31.983  36.553  1.00  0.00     0.016 A 
ATOM     49  C   UNL A   1      44.311  32.742  35.749  1.00  0.00     0.010 A 
ATOM     50  C   UNL A   1      42.733  31.022  36.417  1.00  0.00     0.010 A 
ATOM     51  C   UNL A   1      44.018  31.393  35.984  1.00  0.00    -0.014 A 
BRANCH  51  52
ATOM     52  C   UNL A   1      44.999  30.355  35.591  1.00  0.00     0.031 A 
ATOM     53  C   UNL A   1      45.894  29.783  36.655  1.00  0.00     0.074 A 
ATOM     54  C   UNL A   1      45.095  29.925  34.321  1.00  0.00     0.049 A 
ATOM     55  N   UNL A   1      46.840  28.889  36.551  1.00  0.00    -0.248 NA
ATOM     56  C   UNL A   1      45.695  30.293  38.023  1.00  0.00     0.031 C 
ATOM     57  C   UNL A   1      44.280  30.398  33.204  1.00  0.00     0.029 A 
ATOM     58  N   UNL A   1      45.945  29.008  33.756  1.00  0.00    -0.354 N 
ATOM     59  C   UNL A   1      47.373  28.752  37.827  1.00  0.00     0.074 A 
ATOM     60  C   UNL A   1      46.650  29.661  38.689  1.00  0.00     0.031 C 
ATOM     61  C   UNL A   1      44.693  29.790  32.078  1.00  0.00     0.029 A 
ATOM     62  C   UNL A   1      45.816  28.908  32.392  1.00  0.00     0.049 A 
ATOM     63  H   UNL A   1      46.586  28.472  34.277  1.00  0.00     0.167 HD
ATOM     64  C   UNL A   1      48.367  27.936  38.246  1.00  0.00     0.034 A 
ATOM     65  C   UNL A   1      46.541  28.206  31.496  1.00  0.00     0.034 A 
ATOM     66  C   UNL A   1      49.078  27.029  37.389  1.00  0.00     0.049 A 
ATOM     67  C   UNL A   1      47.665  27.327  31.984  1.00  0.00     0.074 A 
ATOM     68  C   UNL A   1      50.065  26.121  37.729  1.00  0.00     0.029 A 
ATOM     69  N   UNL A   1      48.898  26.928  36.019  1.00  0.00    -0.354 N 
ATOM     70  N   UNL A   1      48.077  27.116  33.211  1.00  0.00    -0.248 NA
ATOM     71  C   UNL A   1      48.401  26.563  30.966  1.00  0.00     0.031 C 
ATOM     72  C   UNL A   1      50.514  25.505  36.557  1.00  0.00     0.029 A 
ATOM     73  C   UNL A   1      49.771  25.991  35.493  1.00  0.00     0.049 A 
ATOM     74  H   UNL A   1      48.245  27.447  35.496  1.00  0.00     0.167 HD
ATOM     75  C   UNL A   1      49.094  26.171  33.116  1.00  0.00     0.074 A 
ATOM     76  C   UNL A   1      49.221  25.836  31.713  1.00  0.00     0.031 C 
ATOM     77  C   UNL A   1      49.859  25.635  34.100  1.00  0.00     0.034 A 
BRANCH  64  78
ATOM     78  C   UNL A   1      48.747  27.991  39.703  1.00  0.00     0.023 A 
ATOM     79  C   UNL A   1      48.081  27.171  40.637  1.00  0.00     0.012 A 
ATOM     80  C   UNL A   1      49.794  28.826  40.138  1.00  0.00     0.148 A 
ATOM     81  C   UNL A   1      48.430  27.207  41.987  1.00  0.00     0.002 A 
ATOM     82  C   UNL A   1      50.169  28.821  41.475  1.00  0.00     0.091 A 
ATOM     83  F   UNL A   1      50.396  29.617  39.238  1.00  0.00    -0.205 F 
ATOM     84  C   UNL A   1      49.479  28.022  42.403  1.00  0.00     0.022 A 
BRANCH  82  85
ATOM     85  S   UNL A   1      51.559  29.772  42.095  1.00  0.00     0.127 S 
ATOM     86  O   UNL A   1      51.029  31.134  42.043  1.00  0.00    -0.237 OA
ATOM     87  O   UNL A   1      51.723  29.232  43.444  1.00  0.00    -0.237 OA
ATOM     88  O   UNL A   1      52.669  29.500  41.191  1.00  0.00    -0.744 OA
ENDBRANCH  82  85
ENDBRANCH  64  78
BRANCH  65  89
ATOM     89  C   UNL A   1      46.219  28.297  30.044  1.00  0.00     0.023 A 
ATOM     90  C   UNL A   1      46.582  29.447  29.315  1.00  0.00     0.012 A 
ATOM     91  C   UNL A   1      45.565  27.241  29.380  1.00  0.00     0.148 A 
ATOM     92  C   UNL A   1      46.271  29.555  27.959  1.00  0.00     0.002 A 
ATOM     93  C   UNL A   1      45.312  27.330  28.016  1.00  0.00     0.091 A 
ATOM     94  F   UNL A   1      45.215  26.163  30.095  1.00  0.00    -0.205 F 
ATOM     95  C   UNL A   1      45.647  28.494  27.308  1.00  0.00     0.022 A 
BRANCH  93  96
ATOM     96  S   UNL A   1      44.632  25.964  27.070  1.00  0.00     0.127 S 
ATOM     97  O   UNL A   1      45.745  25.018  27.068  1.00  0.00    -0.237 OA
ATOM     98  O   UNL A   1      43.489  25.572  27.895  1.00  0.00    -0.237 OA
ATOM     99  O   UNL A   1      44.274  26.520  25.772  1.00  0.00    -0.744 OA
ENDBRANCH  93  96
ENDBRANCH  65  89
BRANCH  77 100
ATOM    100  C   UNL A   1      50.879  24.593  33.710  1.00  0.00     0.023 A 
ATOM    101  C   UNL A   1      50.501  23.241  33.594  1.00  0.00     0.012 A 
ATOM    102  C   UNL A   1      52.197  24.972  33.385  1.00  0.00     0.148 A 
ATOM    103  C   UNL A   1      51.430  22.277  33.199  1.00  0.00     0.002 A 
ATOM    104  C   UNL A   1      53.101  24.016  32.940  1.00  0.00     0.091 A 
ATOM    105  F   UNL A   1      52.541  26.262  33.514  1.00  0.00    -0.205 F 
ATOM    106  C   UNL A   1      52.724  22.666  32.862  1.00  0.00     0.022 A 
BRANCH 104 107
ATOM    107  S   UNL A   1      54.758  24.436  32.388  1.00  0.00     0.127 S 
ATOM    108  O   UNL A   1      54.481  25.360  31.289  1.00  0.00    -0.237 OA
ATOM    109  O   UNL A   1      55.332  25.060  33.580  1.00  0.00    -0.237 OA
ATOM    110  O   UNL A   1      55.385  23.179  32.002  1.00  0.00    -0.744 OA
ENDBRANCH 104 107
ENDBRANCH  77 100
ENDBRANCH  51  52
ENDBRANCH  44  46
ENDBRANCH  43  44
ENDBRANCH  42  43
ENDBRANCH  41  42
ENDBRANCH  40  41
ENDBRANCH  39  40
ENDBRANCH  38  39
ENDBRANCH   1  38
TORSDOF 28
ENDMDL
