MODEL 1
REMARK VINA RESULT:      -9.2      0.000      0.000
REMARK SMILES CCC[N@@H+](CC1CC[NH2+]CC1)[C@@H](CC)C(=O)OCCOCCOCCOCCOC(=O)c1ccc(-c2c3nc(c(-c4cccc(S(=O)(=O)[O-])c4F)c4ccc([nH]4)c(-c4cccc(S(=O)(=O)[O-])c4F)c4nc(c(-c5cccc(S(=O)(=O)[O-])c5F)c5ccc2[nH]5)C=C4)C=C3)cc1
REMARK SMILES IDX 23 1 22 2 21 3 20 4 19 5 18 6 17 7 15 8 16 9 12 10 4 11 3 13
REMARK SMILES IDX 2 14 1 15 5 16 6 17 7 18 11 19 8 20 10 21 9 22 13 25 14 26
REMARK SMILES IDX 24 27 25 28 26 29 27 30 28 31 29 32 30 33 31 34 32 35 33 36
REMARK SMILES IDX 94 37 34 38 93 39 35 40 36 41 37 42 87 43 38 44 92 45 86 46
REMARK SMILES IDX 88 47 39 48 91 49 85 50 84 51 40 53 72 54 52 55 71 56 53 57
REMARK SMILES IDX 56 58 70 59 89 60 54 61 55 62 69 64 90 65 57 66 41 67 42 68
REMARK SMILES IDX 50 69 43 70 45 71 51 72 44 73 46 74 47 75 48 76 49 77 73 78
REMARK SMILES IDX 74 79 82 80 75 81 77 82 83 83 76 84 78 85 79 86 80 87 81 88
REMARK SMILES IDX 58 89 59 90 67 91 60 92 62 93 68 94 61 95 63 96 64 97 65 98
REMARK SMILES IDX 66 99
REMARK H PARENT 4 12 9 23 9 24 88 52 56 63
REMARK Flexibility Score: inf
ROOT
ATOM      1  O   UNL A   1      33.021  29.702  24.014  1.00  0.00    -0.377 OA
ENDROOT
BRANCH   1   2
ATOM      2  C   UNL A   1      33.003  28.793  22.929  1.00  0.00     0.188 C 
BRANCH   2   3
ATOM      3  C   UNL A   1      33.989  27.617  22.724  1.00  0.00     0.188 C 
BRANCH   3   4
ATOM      4  O   UNL A   1      33.633  26.295  23.068  1.00  0.00    -0.376 OA
BRANCH   4   5
ATOM      5  C   UNL A   1      32.611  25.579  22.398  1.00  0.00     0.202 C 
BRANCH   5   6
ATOM      6  C   UNL A   1      32.841  24.299  21.594  1.00  0.00     0.261 C 
BRANCH   6   7
ATOM      7  O   UNL A   1      33.653  23.302  22.217  1.00  0.00    -0.459 OA
BRANCH   7   8
ATOM      8  C   UNL A   1      32.974  22.300  22.818  1.00  0.00     0.364 C 
ATOM      9  O   UNL A   1      32.081  21.663  22.253  1.00  0.00    -0.245 OA
BRANCH   8  10
ATOM     10  C   UNL A   1      33.355  21.993  24.273  1.00  0.00     0.294 C 
BRANCH  10  11
ATOM     11  N   UNL A   1      34.241  20.836  24.555  1.00  0.00    -0.323 N 
ATOM     12  H   UNL A   1      34.502  20.787  23.570  1.00  0.00     0.348 HD
BRANCH  11  13
ATOM     13  C   UNL A   1      35.603  20.886  25.102  1.00  0.00     0.262 C 
BRANCH  13  14
ATOM     14  C   UNL A   1      36.856  21.517  24.495  1.00  0.00     0.058 C 
ATOM     15  C   UNL A   1      37.137  22.951  24.884  1.00  0.00     0.010 C 
ENDBRANCH  13  14
ENDBRANCH  11  13
BRANCH  11  16
ATOM     16  C   UNL A   1      33.520  19.658  25.132  1.00  0.00     0.266 C 
BRANCH  16  17
ATOM     17  C   UNL A   1      33.153  18.406  24.269  1.00  0.00     0.055 C 
ATOM     18  C   UNL A   1      32.210  17.360  24.883  1.00  0.00     0.071 C 
ATOM     19  C   UNL A   1      34.419  17.661  23.782  1.00  0.00     0.071 C 
ATOM     20  C   UNL A   1      32.883  16.473  25.925  1.00  0.00     0.261 C 
ATOM     21  C   UNL A   1      35.001  16.696  24.824  1.00  0.00     0.261 C 
ATOM     22  N   UNL A   1      33.996  15.756  25.310  1.00  0.00    -0.346 N 
ATOM     23  H   UNL A   1      33.648  15.202  24.528  1.00  0.00     0.346 HD
ATOM     24  H   UNL A   1      34.423  15.147  26.009  1.00  0.00     0.346 HD
ENDBRANCH  16  17
ENDBRANCH  11  16
ENDBRANCH  10  11
BRANCH  10  25
ATOM     25  C   UNL A   1      33.520  23.340  25.001  1.00  0.00     0.074 C 
ATOM     26  C   UNL A   1      32.672  23.535  26.240  1.00  0.00     0.011 C 
ENDBRANCH  10  25
ENDBRANCH   8  10
ENDBRANCH   7   8
ENDBRANCH   6   7
ENDBRANCH   5   6
ENDBRANCH   4   5
ENDBRANCH   3   4
ENDBRANCH   2   3
ENDBRANCH   1   2
BRANCH   1  27
ATOM     27  C   UNL A   1      33.021  29.235  25.348  1.00  0.00     0.188 C 
BRANCH  27  28
ATOM     28  C   UNL A   1      32.566  30.194  26.453  1.00  0.00     0.188 C 
BRANCH  28  29
ATOM     29  O   UNL A   1      31.550  31.088  26.028  1.00  0.00    -0.376 OA
BRANCH  29  30
ATOM     30  C   UNL A   1      31.330  32.229  26.843  1.00  0.00     0.202 C 
BRANCH  30  31
ATOM     31  C   UNL A   1      32.415  33.318  26.941  1.00  0.00     0.261 C 
BRANCH  31  32
ATOM     32  O   UNL A   1      33.066  33.508  28.206  1.00  0.00    -0.460 OA
BRANCH  32  33
ATOM     33  C   UNL A   1      34.218  34.213  28.237  1.00  0.00     0.338 C 
ATOM     34  O   UNL A   1      34.348  35.413  28.129  1.00  0.00    -0.246 OA
BRANCH  33  35
ATOM     35  C   UNL A   1      35.301  33.265  28.584  1.00  0.00     0.060 A 
ATOM     36  C   UNL A   1      34.982  31.953  28.965  1.00  0.00     0.016 A 
ATOM     37  C   UNL A   1      36.632  33.683  28.540  1.00  0.00     0.016 A 
ATOM     38  C   UNL A   1      35.994  31.065  29.336  1.00  0.00     0.010 A 
ATOM     39  C   UNL A   1      37.641  32.801  28.934  1.00  0.00     0.010 A 
ATOM     40  C   UNL A   1      37.325  31.501  29.369  1.00  0.00    -0.014 A 
BRANCH  40  41
ATOM     41  C   UNL A   1      38.370  30.700  30.054  1.00  0.00     0.031 A 
ATOM     42  C   UNL A   1      38.736  31.080  31.463  1.00  0.00     0.074 A 
ATOM     43  C   UNL A   1      39.020  29.700  29.432  1.00  0.00     0.049 A 
ATOM     44  N   UNL A   1      39.707  30.639  32.217  1.00  0.00    -0.248 NA
ATOM     45  C   UNL A   1      37.895  32.107  32.102  1.00  0.00     0.031 C 
ATOM     46  C   UNL A   1      38.744  29.220  28.081  1.00  0.00     0.029 A 
ATOM     47  N   UNL A   1      40.081  28.936  29.853  1.00  0.00    -0.354 N 
ATOM     48  C   UNL A   1      39.623  31.365  33.400  1.00  0.00     0.074 A 
ATOM     49  C   UNL A   1      38.507  32.273  33.264  1.00  0.00     0.031 C 
ATOM     50  C   UNL A   1      39.643  28.272  27.765  1.00  0.00     0.029 A 
ATOM     51  C   UNL A   1      40.582  28.108  28.875  1.00  0.00     0.049 A 
ATOM     52  H   UNL A   1      40.449  28.977  30.766  1.00  0.00     0.167 HD
ATOM     53  C   UNL A   1      40.403  31.281  34.502  1.00  0.00     0.034 A 
ATOM     54  C   UNL A   1      41.693  27.342  28.864  1.00  0.00     0.034 A 
ATOM     55  C   UNL A   1      41.508  30.373  34.638  1.00  0.00     0.049 A 
ATOM     56  C   UNL A   1      42.576  27.300  30.087  1.00  0.00     0.074 A 
ATOM     57  C   UNL A   1      42.332  30.180  35.732  1.00  0.00     0.029 A 
ATOM     58  N   UNL A   1      41.956  29.520  33.642  1.00  0.00    -0.354 N 
ATOM     59  N   UNL A   1      42.430  27.917  31.235  1.00  0.00    -0.248 NA
ATOM     60  C   UNL A   1      43.766  26.436  30.023  1.00  0.00     0.031 C 
ATOM     61  C   UNL A   1      43.307  29.242  35.382  1.00  0.00     0.029 A 
ATOM     62  C   UNL A   1      43.056  28.811  34.089  1.00  0.00     0.049 A 
ATOM     63  H   UNL A   1      41.550  29.431  32.750  1.00  0.00     0.167 HD
ATOM     64  C   UNL A   1      43.479  27.482  32.041  1.00  0.00     0.074 A 
ATOM     65  C   UNL A   1      44.248  26.543  31.254  1.00  0.00     0.031 C 
ATOM     66  C   UNL A   1      43.779  27.833  33.316  1.00  0.00     0.034 A 
BRANCH  53  67
ATOM     67  C   UNL A   1      40.091  32.202  35.652  1.00  0.00     0.023 A 
ATOM     68  C   UNL A   1      40.790  33.418  35.792  1.00  0.00     0.012 A 
ATOM     69  C   UNL A   1      39.067  31.884  36.566  1.00  0.00     0.148 A 
ATOM     70  C   UNL A   1      40.500  34.287  36.843  1.00  0.00     0.002 A 
ATOM     71  C   UNL A   1      38.749  32.778  37.581  1.00  0.00     0.091 A 
ATOM     72  F   UNL A   1      38.429  30.713  36.429  1.00  0.00    -0.205 F 
ATOM     73  C   UNL A   1      39.474  33.972  37.730  1.00  0.00     0.022 A 
BRANCH  71  74
ATOM     74  S   UNL A   1      37.390  32.504  38.722  1.00  0.00     0.127 S 
ATOM     75  O   UNL A   1      37.701  33.460  39.785  1.00  0.00    -0.237 OA
ATOM     76  O   UNL A   1      36.230  32.857  37.906  1.00  0.00    -0.237 OA
ATOM     77  O   UNL A   1      37.462  31.101  39.107  1.00  0.00    -0.744 OA
ENDBRANCH  71  74
ENDBRANCH  53  67
BRANCH  54  78
ATOM     78  C   UNL A   1      42.039  26.542  27.654  1.00  0.00     0.023 A 
ATOM     79  C   UNL A   1      42.674  27.167  26.563  1.00  0.00     0.012 A 
ATOM     80  C   UNL A   1      41.740  25.168  27.578  1.00  0.00     0.148 A 
ATOM     81  C   UNL A   1      42.973  26.446  25.406  1.00  0.00     0.002 A 
ATOM     82  C   UNL A   1      42.095  24.443  26.447  1.00  0.00     0.091 A 
ATOM     83  F   UNL A   1      41.120  24.595  28.619  1.00  0.00    -0.205 F 
ATOM     84  C   UNL A   1      42.694  25.084  25.351  1.00  0.00     0.022 A 
BRANCH  82  85
ATOM     85  S   UNL A   1      41.891  22.661  26.339  1.00  0.00     0.127 S 
ATOM     86  O   UNL A   1      42.491  22.370  25.039  1.00  0.00    -0.237 OA
ATOM     87  O   UNL A   1      42.664  22.203  27.493  1.00  0.00    -0.237 OA
ATOM     88  O   UNL A   1      40.459  22.421  26.440  1.00  0.00    -0.744 OA
ENDBRANCH  82  85
ENDBRANCH  54  78
BRANCH  66  89
ATOM     89  C   UNL A   1      44.950  27.158  33.985  1.00  0.00     0.023 A 
ATOM     90  C   UNL A   1      46.211  27.786  34.012  1.00  0.00     0.012 A 
ATOM     91  C   UNL A   1      44.764  25.946  34.679  1.00  0.00     0.148 A 
ATOM     92  C   UNL A   1      47.274  27.203  34.703  1.00  0.00     0.002 A 
ATOM     93  C   UNL A   1      45.812  25.400  35.409  1.00  0.00     0.091 A 
ATOM     94  F   UNL A   1      43.559  25.359  34.628  1.00  0.00    -0.205 F 
ATOM     95  C   UNL A   1      47.072  26.020  35.412  1.00  0.00     0.022 A 
BRANCH  93  96
ATOM     96  S   UNL A   1      45.619  23.938  36.435  1.00  0.00     0.127 S 
ATOM     97  O   UNL A   1      44.608  23.185  35.692  1.00  0.00    -0.237 OA
ATOM     98  O   UNL A   1      46.960  23.357  36.398  1.00  0.00    -0.237 OA
ATOM     99  O   UNL A   1      45.197  24.415  37.745  1.00  0.00    -0.744 OA
ENDBRANCH  93  96
ENDBRANCH  66  89
ENDBRANCH  40  41
ENDBRANCH  33  35
ENDBRANCH  32  33
ENDBRANCH  31  32
ENDBRANCH  30  31
ENDBRANCH  29  30
ENDBRANCH  28  29
ENDBRANCH  27  28
ENDBRANCH   1  27
TORSDOF 29
ENDMDL
MODEL 2
REMARK VINA RESULT:      -8.3      1.803      2.443
REMARK SMILES CCC[N@@H+](CC1CC[NH2+]CC1)[C@@H](CC)C(=O)OCCOCCOCCOCCOC(=O)c1ccc(-c2c3nc(c(-c4cccc(S(=O)(=O)[O-])c4F)c4ccc([nH]4)c(-c4cccc(S(=O)(=O)[O-])c4F)c4nc(c(-c5cccc(S(=O)(=O)[O-])c5F)c5ccc2[nH]5)C=C4)C=C3)cc1
REMARK SMILES IDX 23 1 22 2 21 3 20 4 19 5 18 6 17 7 15 8 16 9 12 10 4 11 3 13
REMARK SMILES IDX 2 14 1 15 5 16 6 17 7 18 11 19 8 20 10 21 9 22 13 25 14 26
REMARK SMILES IDX 24 27 25 28 26 29 27 30 28 31 29 32 30 33 31 34 32 35 33 36
REMARK SMILES IDX 94 37 34 38 93 39 35 40 36 41 37 42 87 43 38 44 92 45 86 46
REMARK SMILES IDX 88 47 39 48 91 49 85 50 84 51 40 53 72 54 52 55 71 56 53 57
REMARK SMILES IDX 56 58 70 59 89 60 54 61 55 62 69 64 90 65 57 66 41 67 42 68
REMARK SMILES IDX 50 69 43 70 45 71 51 72 44 73 46 74 47 75 48 76 49 77 73 78
REMARK SMILES IDX 74 79 82 80 75 81 77 82 83 83 76 84 78 85 79 86 80 87 81 88
REMARK SMILES IDX 58 89 59 90 67 91 60 92 62 93 68 94 61 95 63 96 64 97 65 98
REMARK SMILES IDX 66 99
REMARK H PARENT 4 12 9 23 9 24 88 52 56 63
REMARK Flexibility Score: inf
ROOT
ATOM      1  O   UNL A   1      32.890  29.706  24.082  1.00  0.00    -0.377 OA
ENDROOT
BRANCH   1   2
ATOM      2  C   UNL A   1      32.958  28.813  22.986  1.00  0.00     0.188 C 
BRANCH   2   3
ATOM      3  C   UNL A   1      34.039  27.723  22.779  1.00  0.00     0.188 C 
BRANCH   3   4
ATOM      4  O   UNL A   1      33.820  26.390  23.186  1.00  0.00    -0.376 OA
BRANCH   4   5
ATOM      5  C   UNL A   1      32.536  25.792  23.191  1.00  0.00     0.202 C 
BRANCH   5   6
ATOM      6  C   UNL A   1      32.066  24.751  22.174  1.00  0.00     0.261 C 
BRANCH   6   7
ATOM      7  O   UNL A   1      32.913  23.612  22.003  1.00  0.00    -0.459 OA
BRANCH   7   8
ATOM      8  C   UNL A   1      32.639  22.566  22.815  1.00  0.00     0.364 C 
ATOM      9  O   UNL A   1      31.812  21.696  22.531  1.00  0.00    -0.245 OA
BRANCH   8  10
ATOM     10  C   UNL A   1      33.404  22.517  24.145  1.00  0.00     0.294 C 
BRANCH  10  11
ATOM     11  N   UNL A   1      32.835  21.735  25.272  1.00  0.00    -0.323 N 
ATOM     12  H   UNL A   1      33.703  21.849  25.796  1.00  0.00     0.348 HD
BRANCH  11  13
ATOM     13  C   UNL A   1      31.926  22.232  26.314  1.00  0.00     0.262 C 
BRANCH  13  14
ATOM     14  C   UNL A   1      30.665  23.083  26.157  1.00  0.00     0.058 C 
ATOM     15  C   UNL A   1      29.583  22.869  27.192  1.00  0.00     0.010 C 
ENDBRANCH  13  14
ENDBRANCH  11  13
BRANCH  11  16
ATOM     16  C   UNL A   1      32.440  20.342  24.894  1.00  0.00     0.266 C 
BRANCH  16  17
ATOM     17  C   UNL A   1      33.498  19.247  24.539  1.00  0.00     0.055 C 
ATOM     18  C   UNL A   1      33.326  18.480  23.220  1.00  0.00     0.071 C 
ATOM     19  C   UNL A   1      33.632  18.199  25.671  1.00  0.00     0.071 C 
ATOM     20  C   UNL A   1      32.221  17.429  23.267  1.00  0.00     0.261 C 
ATOM     21  C   UNL A   1      32.565  17.098  25.616  1.00  0.00     0.261 C 
ATOM     22  N   UNL A   1      32.522  16.452  24.308  1.00  0.00    -0.346 N 
ATOM     23  H   UNL A   1      33.426  16.023  24.115  1.00  0.00     0.346 HD
ATOM     24  H   UNL A   1      31.791  15.740  24.315  1.00  0.00     0.346 HD
ENDBRANCH  16  17
ENDBRANCH  11  16
ENDBRANCH  10  11
BRANCH  10  25
ATOM     25  C   UNL A   1      34.907  22.489  23.813  1.00  0.00     0.074 C 
ATOM     26  C   UNL A   1      35.793  23.377  24.661  1.00  0.00     0.011 C 
ENDBRANCH  10  25
ENDBRANCH   8  10
ENDBRANCH   7   8
ENDBRANCH   6   7
ENDBRANCH   5   6
ENDBRANCH   4   5
ENDBRANCH   3   4
ENDBRANCH   2   3
ENDBRANCH   1   2
BRANCH   1  27
ATOM     27  C   UNL A   1      32.812  29.220  25.407  1.00  0.00     0.188 C 
BRANCH  27  28
ATOM     28  C   UNL A   1      32.349  30.182  26.507  1.00  0.00     0.188 C 
BRANCH  28  29
ATOM     29  O   UNL A   1      31.243  30.979  26.118  1.00  0.00    -0.376 OA
BRANCH  29  30
ATOM     30  C   UNL A   1      31.036  32.176  26.853  1.00  0.00     0.202 C 
BRANCH  30  31
ATOM     31  C   UNL A   1      32.123  33.267  26.859  1.00  0.00     0.261 C 
BRANCH  31  32
ATOM     32  O   UNL A   1      32.939  33.398  28.033  1.00  0.00    -0.460 OA
BRANCH  32  33
ATOM     33  C   UNL A   1      34.103  34.076  27.934  1.00  0.00     0.338 C 
ATOM     34  O   UNL A   1      34.249  35.252  27.679  1.00  0.00    -0.246 OA
BRANCH  33  35
ATOM     35  C   UNL A   1      35.183  33.152  28.347  1.00  0.00     0.060 A 
ATOM     36  C   UNL A   1      34.864  31.852  28.764  1.00  0.00     0.016 A 
ATOM     37  C   UNL A   1      36.511  33.582  28.329  1.00  0.00     0.016 A 
ATOM     38  C   UNL A   1      35.873  30.987  29.197  1.00  0.00     0.010 A 
ATOM     39  C   UNL A   1      37.515  32.725  28.784  1.00  0.00     0.010 A 
ATOM     40  C   UNL A   1      37.198  31.437  29.255  1.00  0.00    -0.014 A 
BRANCH  40  41
ATOM     41  C   UNL A   1      38.228  30.671  29.999  1.00  0.00     0.031 A 
ATOM     42  C   UNL A   1      38.491  31.053  31.430  1.00  0.00     0.074 A 
ATOM     43  C   UNL A   1      38.953  29.701  29.414  1.00  0.00     0.049 A 
ATOM     44  N   UNL A   1      39.429  30.644  32.242  1.00  0.00    -0.248 NA
ATOM     45  C   UNL A   1      37.573  32.043  32.021  1.00  0.00     0.031 C 
ATOM     46  C   UNL A   1      38.780  29.222  28.045  1.00  0.00     0.029 A 
ATOM     47  N   UNL A   1      40.015  28.974  29.896  1.00  0.00    -0.354 N 
ATOM     48  C   UNL A   1      39.244  31.357  33.420  1.00  0.00     0.074 A 
ATOM     49  C   UNL A   1      38.105  32.223  33.220  1.00  0.00     0.031 C 
ATOM     50  C   UNL A   1      39.733  28.311  27.781  1.00  0.00     0.029 A 
ATOM     51  C   UNL A   1      40.606  28.174  28.947  1.00  0.00     0.049 A 
ATOM     52  H   UNL A   1      40.323  29.022  30.830  1.00  0.00     0.167 HD
ATOM     53  C   UNL A   1      39.957  31.294  34.569  1.00  0.00     0.034 A 
ATOM     54  C   UNL A   1      41.745  27.451  29.000  1.00  0.00     0.034 A 
ATOM     55  C   UNL A   1      41.085  30.427  34.768  1.00  0.00     0.049 A 
ATOM     56  C   UNL A   1      42.551  27.433  30.276  1.00  0.00     0.074 A 
ATOM     57  C   UNL A   1      41.847  30.258  35.910  1.00  0.00     0.029 A 
ATOM     58  N   UNL A   1      41.626  29.599  33.798  1.00  0.00    -0.354 N 
ATOM     59  N   UNL A   1      42.310  28.035  31.416  1.00  0.00    -0.248 NA
ATOM     60  C   UNL A   1      43.775  26.615  30.282  1.00  0.00     0.031 C 
ATOM     61  C   UNL A   1      42.877  29.359  35.617  1.00  0.00     0.029 A 
ATOM     62  C   UNL A   1      42.724  28.930  34.308  1.00  0.00     0.049 A 
ATOM     63  H   UNL A   1      41.281  29.503  32.881  1.00  0.00     0.167 HD
ATOM     64  C   UNL A   1      43.323  27.633  32.284  1.00  0.00     0.074 A 
ATOM     65  C   UNL A   1      44.175  26.731  31.542  1.00  0.00     0.031 C 
ATOM     66  C   UNL A   1      43.530  27.986  33.577  1.00  0.00     0.034 A 
BRANCH  53  67
ATOM     67  C   UNL A   1      39.539  32.193  35.702  1.00  0.00     0.023 A 
ATOM     68  C   UNL A   1      38.731  31.689  36.741  1.00  0.00     0.012 A 
ATOM     69  C   UNL A   1      39.992  33.525  35.764  1.00  0.00     0.148 A 
ATOM     70  C   UNL A   1      38.349  32.506  37.804  1.00  0.00     0.002 A 
ATOM     71  C   UNL A   1      39.650  34.319  36.851  1.00  0.00     0.091 A 
ATOM     72  F   UNL A   1      40.743  33.992  34.756  1.00  0.00    -0.205 F 
ATOM     73  C   UNL A   1      38.818  33.816  37.864  1.00  0.00     0.022 A 
BRANCH  71  74
ATOM     74  S   UNL A   1      40.271  35.991  37.064  1.00  0.00     0.127 S 
ATOM     75  O   UNL A   1      39.674  36.365  38.346  1.00  0.00    -0.237 OA
ATOM     76  O   UNL A   1      41.717  35.777  37.104  1.00  0.00    -0.237 OA
ATOM     77  O   UNL A   1      39.797  36.747  35.913  1.00  0.00    -0.744 OA
ENDBRANCH  71  74
ENDBRANCH  53  67
BRANCH  54  78
ATOM     78  C   UNL A   1      42.195  26.674  27.810  1.00  0.00     0.023 A 
ATOM     79  C   UNL A   1      42.975  27.304  26.821  1.00  0.00     0.012 A 
ATOM     80  C   UNL A   1      41.854  25.317  27.653  1.00  0.00     0.148 A 
ATOM     81  C   UNL A   1      43.377  26.607  25.680  1.00  0.00     0.002 A 
ATOM     82  C   UNL A   1      42.308  24.612  26.545  1.00  0.00     0.091 A 
ATOM     83  F   UNL A   1      41.097  24.739  28.596  1.00  0.00    -0.205 F 
ATOM     84  C   UNL A   1      43.052  25.260  25.547  1.00  0.00     0.022 A 
BRANCH  82  85
ATOM     85  S   UNL A   1      42.048  22.845  26.351  1.00  0.00     0.127 S 
ATOM     86  O   UNL A   1      40.592  22.747  26.424  1.00  0.00    -0.237 OA
ATOM     87  O   UNL A   1      42.618  22.604  25.026  1.00  0.00    -0.237 OA
ATOM     88  O   UNL A   1      42.777  22.216  27.443  1.00  0.00    -0.744 OA
ENDBRANCH  82  85
ENDBRANCH  54  78
BRANCH  66  89
ATOM     89  C   UNL A   1      44.682  27.351  34.313  1.00  0.00     0.023 A 
ATOM     90  C   UNL A   1      44.491  26.158  35.038  1.00  0.00     0.012 A 
ATOM     91  C   UNL A   1      45.980  27.887  34.192  1.00  0.00     0.148 A 
ATOM     92  C   UNL A   1      45.573  25.523  35.650  1.00  0.00     0.002 A 
ATOM     93  C   UNL A   1      47.059  27.221  34.757  1.00  0.00     0.091 A 
ATOM     94  F   UNL A   1      46.136  29.030  33.508  1.00  0.00    -0.205 F 
ATOM     95  C   UNL A   1      46.856  26.045  35.498  1.00  0.00     0.022 A 
BRANCH  93  96
ATOM     96  S   UNL A   1      48.757  27.760  34.528  1.00  0.00     0.127 S 
ATOM     97  O   UNL A   1      48.657  29.191  34.815  1.00  0.00    -0.237 OA
ATOM     98  O   UNL A   1      49.466  26.983  35.545  1.00  0.00    -0.237 OA
ATOM     99  O   UNL A   1      49.106  27.426  33.154  1.00  0.00    -0.744 OA
ENDBRANCH  93  96
ENDBRANCH  66  89
ENDBRANCH  40  41
ENDBRANCH  33  35
ENDBRANCH  32  33
ENDBRANCH  31  32
ENDBRANCH  30  31
ENDBRANCH  29  30
ENDBRANCH  28  29
ENDBRANCH  27  28
ENDBRANCH   1  27
TORSDOF 29
ENDMDL
MODEL 3
REMARK VINA RESULT:      -7.7      2.004      2.564
REMARK SMILES CCC[N@@H+](CC1CC[NH2+]CC1)[C@@H](CC)C(=O)OCCOCCOCCOCCOC(=O)c1ccc(-c2c3nc(c(-c4cccc(S(=O)(=O)[O-])c4F)c4ccc([nH]4)c(-c4cccc(S(=O)(=O)[O-])c4F)c4nc(c(-c5cccc(S(=O)(=O)[O-])c5F)c5ccc2[nH]5)C=C4)C=C3)cc1
REMARK SMILES IDX 23 1 22 2 21 3 20 4 19 5 18 6 17 7 15 8 16 9 12 10 4 11 3 13
REMARK SMILES IDX 2 14 1 15 5 16 6 17 7 18 11 19 8 20 10 21 9 22 13 25 14 26
REMARK SMILES IDX 24 27 25 28 26 29 27 30 28 31 29 32 30 33 31 34 32 35 33 36
REMARK SMILES IDX 94 37 34 38 93 39 35 40 36 41 37 42 87 43 38 44 92 45 86 46
REMARK SMILES IDX 88 47 39 48 91 49 85 50 84 51 40 53 72 54 52 55 71 56 53 57
REMARK SMILES IDX 56 58 70 59 89 60 54 61 55 62 69 64 90 65 57 66 41 67 42 68
REMARK SMILES IDX 50 69 43 70 45 71 51 72 44 73 46 74 47 75 48 76 49 77 73 78
REMARK SMILES IDX 74 79 82 80 75 81 77 82 83 83 76 84 78 85 79 86 80 87 81 88
REMARK SMILES IDX 58 89 59 90 67 91 60 92 62 93 68 94 61 95 63 96 64 97 65 98
REMARK SMILES IDX 66 99
REMARK H PARENT 4 12 9 23 9 24 88 52 56 63
REMARK Flexibility Score: inf
ROOT
ATOM      1  O   UNL A   1      32.756  29.816  23.985  1.00  0.00    -0.377 OA
ENDROOT
BRANCH   1   2
ATOM      2  C   UNL A   1      32.908  29.017  22.827  1.00  0.00     0.188 C 
BRANCH   2   3
ATOM      3  C   UNL A   1      34.036  27.983  22.590  1.00  0.00     0.188 C 
BRANCH   3   4
ATOM      4  O   UNL A   1      33.828  26.607  22.824  1.00  0.00    -0.376 OA
BRANCH   4   5
ATOM      5  C   UNL A   1      32.606  25.956  22.524  1.00  0.00     0.202 C 
BRANCH   5   6
ATOM      6  C   UNL A   1      32.311  25.243  21.203  1.00  0.00     0.261 C 
BRANCH   6   7
ATOM      7  O   UNL A   1      33.191  24.172  20.857  1.00  0.00    -0.459 OA
BRANCH   7   8
ATOM      8  C   UNL A   1      33.049  23.050  21.597  1.00  0.00     0.364 C 
ATOM      9  O   UNL A   1      32.568  22.007  21.148  1.00  0.00    -0.245 OA
BRANCH   8  10
ATOM     10  C   UNL A   1      33.505  23.137  23.060  1.00  0.00     0.294 C 
BRANCH  10  11
ATOM     11  N   UNL A   1      32.759  22.372  24.092  1.00  0.00    -0.323 N 
ATOM     12  H   UNL A   1      33.502  22.548  24.768  1.00  0.00     0.348 HD
BRANCH  11  13
ATOM     13  C   UNL A   1      31.644  22.864  24.913  1.00  0.00     0.262 C 
BRANCH  13  14
ATOM     14  C   UNL A   1      31.379  22.636  26.401  1.00  0.00     0.058 C 
ATOM     15  C   UNL A   1      30.017  23.056  26.908  1.00  0.00     0.010 C 
ENDBRANCH  13  14
ENDBRANCH  11  13
BRANCH  11  16
ATOM     16  C   UNL A   1      32.502  20.948  23.711  1.00  0.00     0.266 C 
BRANCH  16  17
ATOM     17  C   UNL A   1      33.517  19.805  24.041  1.00  0.00     0.055 C 
ATOM     18  C   UNL A   1      33.037  18.353  23.896  1.00  0.00     0.071 C 
ATOM     19  C   UNL A   1      34.102  19.960  25.466  1.00  0.00     0.071 C 
ATOM     20  C   UNL A   1      32.121  17.899  25.029  1.00  0.00     0.261 C 
ATOM     21  C   UNL A   1      33.197  19.391  26.567  1.00  0.00     0.261 C 
ATOM     22  N   UNL A   1      32.830  18.003  26.300  1.00  0.00    -0.346 N 
ATOM     23  H   UNL A   1      33.674  17.434  26.263  1.00  0.00     0.346 HD
ATOM     24  H   UNL A   1      32.218  17.674  27.048  1.00  0.00     0.346 HD
ENDBRANCH  16  17
ENDBRANCH  11  16
ENDBRANCH  10  11
BRANCH  10  25
ATOM     25  C   UNL A   1      35.042  23.218  23.062  1.00  0.00     0.074 C 
ATOM     26  C   UNL A   1      35.724  22.924  24.381  1.00  0.00     0.011 C 
ENDBRANCH  10  25
ENDBRANCH   8  10
ENDBRANCH   7   8
ENDBRANCH   6   7
ENDBRANCH   5   6
ENDBRANCH   4   5
ENDBRANCH   3   4
ENDBRANCH   2   3
ENDBRANCH   1   2
BRANCH   1  27
ATOM     27  C   UNL A   1      32.526  29.225  25.248  1.00  0.00     0.188 C 
BRANCH  27  28
ATOM     28  C   UNL A   1      32.202  30.142  26.432  1.00  0.00     0.188 C 
BRANCH  28  29
ATOM     29  O   UNL A   1      31.155  31.056  26.156  1.00  0.00    -0.376 OA
BRANCH  29  30
ATOM     30  C   UNL A   1      31.171  32.276  26.881  1.00  0.00     0.202 C 
BRANCH  30  31
ATOM     31  C   UNL A   1      32.441  33.147  26.881  1.00  0.00     0.261 C 
BRANCH  31  32
ATOM     32  O   UNL A   1      33.271  33.127  28.052  1.00  0.00    -0.460 OA
BRANCH  32  33
ATOM     33  C   UNL A   1      34.417  33.843  28.040  1.00  0.00     0.338 C 
ATOM     34  O   UNL A   1      34.545  35.021  27.788  1.00  0.00    -0.246 OA
BRANCH  33  35
ATOM     35  C   UNL A   1      35.491  32.957  28.546  1.00  0.00     0.060 A 
ATOM     36  C   UNL A   1      35.162  31.703  29.081  1.00  0.00     0.016 A 
ATOM     37  C   UNL A   1      36.821  33.378  28.496  1.00  0.00     0.016 A 
ATOM     38  C   UNL A   1      36.164  30.879  29.601  1.00  0.00     0.010 A 
ATOM     39  C   UNL A   1      37.818  32.563  29.037  1.00  0.00     0.010 A 
ATOM     40  C   UNL A   1      37.491  31.327  29.625  1.00  0.00    -0.014 A 
BRANCH  40  41
ATOM     41  C   UNL A   1      38.513  30.630  30.445  1.00  0.00     0.031 A 
ATOM     42  C   UNL A   1      38.724  31.104  31.857  1.00  0.00     0.074 A 
ATOM     43  C   UNL A   1      39.275  29.643  29.942  1.00  0.00     0.049 A 
ATOM     44  N   UNL A   1      39.644  30.765  32.720  1.00  0.00    -0.248 NA
ATOM     45  C   UNL A   1      37.768  32.107  32.359  1.00  0.00     0.031 C 
ATOM     46  C   UNL A   1      39.155  29.078  28.600  1.00  0.00     0.029 A 
ATOM     47  N   UNL A   1      40.336  28.970  30.499  1.00  0.00    -0.354 N 
ATOM     48  C   UNL A   1      39.408  31.543  33.847  1.00  0.00     0.074 A 
ATOM     49  C   UNL A   1      38.258  32.371  33.560  1.00  0.00     0.031 C 
ATOM     50  C   UNL A   1      40.134  28.174  28.421  1.00  0.00     0.029 A 
ATOM     51  C   UNL A   1      40.973  28.127  29.618  1.00  0.00     0.049 A 
ATOM     52  H   UNL A   1      40.614  29.082  31.437  1.00  0.00     0.167 HD
ATOM     53  C   UNL A   1      40.086  31.566  35.018  1.00  0.00     0.034 A 
ATOM     54  C   UNL A   1      42.124  27.434  29.750  1.00  0.00     0.034 A 
ATOM     55  C   UNL A   1      41.225  30.738  35.303  1.00  0.00     0.049 A 
ATOM     56  C   UNL A   1      42.891  27.511  31.048  1.00  0.00     0.074 A 
ATOM     57  C   UNL A   1      41.953  30.655  36.475  1.00  0.00     0.029 A 
ATOM     58  N   UNL A   1      41.812  29.865  34.402  1.00  0.00    -0.354 N 
ATOM     59  N   UNL A   1      42.602  28.175  32.141  1.00  0.00    -0.248 NA
ATOM     60  C   UNL A   1      44.130  26.723  31.140  1.00  0.00     0.031 C 
ATOM     61  C   UNL A   1      43.010  29.764  36.269  1.00  0.00     0.029 A 
ATOM     62  C   UNL A   1      42.907  29.252  34.985  1.00  0.00     0.049 A 
ATOM     63  H   UNL A   1      41.498  29.706  33.483  1.00  0.00     0.167 HD
ATOM     64  C   UNL A   1      43.595  27.850  33.062  1.00  0.00     0.074 A 
ATOM     65  C   UNL A   1      44.488  26.923  32.402  1.00  0.00     0.031 C 
ATOM     66  C   UNL A   1      43.754  28.284  34.337  1.00  0.00     0.034 A 
BRANCH  53  67
ATOM     67  C   UNL A   1      39.615  32.522  36.081  1.00  0.00     0.023 A 
ATOM     68  C   UNL A   1      38.653  32.109  37.025  1.00  0.00     0.012 A 
ATOM     69  C   UNL A   1      40.165  33.816  36.176  1.00  0.00     0.148 A 
ATOM     70  C   UNL A   1      38.219  32.980  38.024  1.00  0.00     0.002 A 
ATOM     71  C   UNL A   1      39.766  34.660  37.204  1.00  0.00     0.091 A 
ATOM     72  F   UNL A   1      41.063  34.197  35.256  1.00  0.00    -0.205 F 
ATOM     73  C   UNL A   1      38.784  34.249  38.120  1.00  0.00     0.022 A 
BRANCH  71  74
ATOM     74  S   UNL A   1      40.492  36.282  37.463  1.00  0.00     0.127 S 
ATOM     75  O   UNL A   1      39.393  36.996  38.113  1.00  0.00    -0.237 OA
ATOM     76  O   UNL A   1      41.621  35.974  38.340  1.00  0.00    -0.237 OA
ATOM     77  O   UNL A   1      40.861  36.775  36.144  1.00  0.00    -0.744 OA
ENDBRANCH  71  74
ENDBRANCH  53  67
BRANCH  54  78
ATOM     78  C   UNL A   1      42.627  26.597  28.623  1.00  0.00     0.023 A 
ATOM     79  C   UNL A   1      42.042  25.342  28.372  1.00  0.00     0.012 A 
ATOM     80  C   UNL A   1      43.683  27.038  27.802  1.00  0.00     0.148 A 
ATOM     81  C   UNL A   1      42.521  24.525  27.346  1.00  0.00     0.002 A 
ATOM     82  C   UNL A   1      44.116  26.247  26.745  1.00  0.00     0.091 A 
ATOM     83  F   UNL A   1      44.240  28.229  28.068  1.00  0.00    -0.205 F 
ATOM     84  C   UNL A   1      43.550  24.981  26.527  1.00  0.00     0.022 A 
BRANCH  82  85
ATOM     85  S   UNL A   1      45.347  26.806  25.561  1.00  0.00     0.127 S 
ATOM     86  O   UNL A   1      44.619  27.849  24.844  1.00  0.00    -0.237 OA
ATOM     87  O   UNL A   1      46.410  27.289  26.443  1.00  0.00    -0.237 OA
ATOM     88  O   UNL A   1      45.703  25.632  24.778  1.00  0.00    -0.744 OA
ENDBRANCH  82  85
ENDBRANCH  54  78
BRANCH  66  89
ATOM     89  C   UNL A   1      44.896  27.720  35.145  1.00  0.00     0.023 A 
ATOM     90  C   UNL A   1      46.117  28.416  35.230  1.00  0.00     0.012 A 
ATOM     91  C   UNL A   1      44.711  26.549  35.906  1.00  0.00     0.148 A 
ATOM     92  C   UNL A   1      47.145  27.940  36.045  1.00  0.00     0.002 A 
ATOM     93  C   UNL A   1      45.718  26.111  36.756  1.00  0.00     0.091 A 
ATOM     94  F   UNL A   1      43.544  25.895  35.799  1.00  0.00    -0.205 F 
ATOM     95  C   UNL A   1      46.941  26.798  36.818  1.00  0.00     0.022 A 
BRANCH  93  96
ATOM     96  S   UNL A   1      45.510  24.712  37.864  1.00  0.00     0.127 S 
ATOM     97  O   UNL A   1      45.286  23.616  36.921  1.00  0.00    -0.237 OA
ATOM     98  O   UNL A   1      46.800  24.670  38.552  1.00  0.00    -0.237 OA
ATOM     99  O   UNL A   1      44.374  25.037  38.717  1.00  0.00    -0.744 OA
ENDBRANCH  93  96
ENDBRANCH  66  89
ENDBRANCH  40  41
ENDBRANCH  33  35
ENDBRANCH  32  33
ENDBRANCH  31  32
ENDBRANCH  30  31
ENDBRANCH  29  30
ENDBRANCH  28  29
ENDBRANCH  27  28
ENDBRANCH   1  27
TORSDOF 29
ENDMDL
