MODEL 1
REMARK VINA RESULT:      -8.9      0.000      0.000
REMARK SMILES O=C(C[C@H]1C[C@H]2CC[C@@H](C1)N2C(=O)c1c[nH]c(=O)[nH]1)OCCOCCOCCOCCOC(=O)c1ccc(-c2c3nc(c(-c4cccc(S(=O)(=O)[O-])c4F)c4ccc([nH]4)c(-c4cccc(S(=O)(=O)[O-])c4F)c4nc(c(-c5cccc(S(=O)(=O)[O-])c5F)c5ccc2[nH]5)C=C4)C=C3)cc1
REMARK SMILES IDX 26 1 25 2 24 3 23 4 22 5 21 6 20 7 2 8 1 9 3 10 4 11 5 12
REMARK SMILES IDX 10 13 6 14 9 15 7 16 11 17 8 18 12 19 13 20 14 21 15 22
REMARK SMILES IDX 19 23 16 24 17 25 18 28 27 29 28 30 29 31 30 32 31 33 32 34
REMARK SMILES IDX 33 35 34 36 35 37 36 38 97 39 37 40 96 41 38 42 39 43 40 44
REMARK SMILES IDX 90 45 41 46 95 47 89 48 91 49 42 50 94 51 88 52 87 53 43 55
REMARK SMILES IDX 75 56 55 57 74 58 56 59 59 60 73 61 92 62 57 63 58 64 72 66
REMARK SMILES IDX 93 67 60 68 44 69 45 70 53 71 46 72 48 73 54 74 47 75 49 76
REMARK SMILES IDX 50 77 51 78 52 79 76 80 77 81 85 82 78 83 80 84 86 85 79 86
REMARK SMILES IDX 81 87 82 88 83 89 84 90 61 91 62 92 70 93 63 94 65 95 71 96
REMARK SMILES IDX 64 97 66 98 67 99 68 100 69 101
REMARK H PARENT 19 26 16 27 91 54 59 65
REMARK Flexibility Score: inf
ROOT
ATOM      1  O   UNL A   1      36.431  21.146  24.594  1.00  0.00    -0.377 OA
ENDROOT
BRANCH   1   2
ATOM      2  C   UNL A   1      35.805  22.241  23.939  1.00  0.00     0.188 C 
BRANCH   2   3
ATOM      3  C   UNL A   1      34.518  22.802  24.530  1.00  0.00     0.188 C 
BRANCH   3   4
ATOM      4  O   UNL A   1      34.323  22.613  25.926  1.00  0.00    -0.376 OA
BRANCH   4   5
ATOM      5  C   UNL A   1      33.251  21.807  26.402  1.00  0.00     0.202 C 
BRANCH   5   6
ATOM      6  C   UNL A   1      32.151  21.569  25.356  1.00  0.00     0.261 C 
BRANCH   6   7
ATOM      7  O   UNL A   1      30.831  21.792  25.883  1.00  0.00    -0.463 OA
BRANCH   7   8
ATOM      8  C   UNL A   1      30.579  23.070  26.249  1.00  0.00     0.306 C 
ATOM      9  O   UNL A   1      30.209  23.395  27.374  1.00  0.00    -0.252 OA
BRANCH   8  10
ATOM     10  C   UNL A   1      30.632  24.053  25.083  1.00  0.00     0.126 C 
BRANCH  10  11
ATOM     11  C   UNL A   1      31.137  25.499  25.311  1.00  0.00     0.004 C 
ATOM     12  C   UNL A   1      32.672  25.735  25.362  1.00  0.00     0.029 C 
ATOM     13  C   UNL A   1      30.417  26.494  24.344  1.00  0.00     0.029 C 
ATOM     14  C   UNL A   1      33.322  26.416  24.163  1.00  0.00     0.086 C 
ATOM     15  C   UNL A   1      31.319  27.155  23.280  1.00  0.00     0.086 C 
ATOM     16  C   UNL A   1      33.197  25.716  22.821  1.00  0.00     0.027 C 
ATOM     17  N   UNL A   1      32.556  27.601  23.916  1.00  0.00    -0.331 N 
ATOM     18  C   UNL A   1      31.826  26.111  22.276  1.00  0.00     0.027 C 
BRANCH  17  19
ATOM     19  C   UNL A   1      33.149  28.828  24.012  1.00  0.00     0.272 C 
ATOM     20  O   UNL A   1      33.835  29.329  23.125  1.00  0.00    -0.267 OA
BRANCH  19  21
ATOM     21  C   UNL A   1      32.880  29.604  25.225  1.00  0.00     0.125 A 
ATOM     22  C   UNL A   1      33.592  29.657  26.358  1.00  0.00     0.119 A 
ATOM     23  N   UNL A   1      31.828  30.480  25.311  1.00  0.00    -0.302 N 
ATOM     24  N   UNL A   1      32.979  30.547  27.201  1.00  0.00    -0.312 N 
ATOM     25  C   UNL A   1      31.849  31.093  26.564  1.00  0.00     0.323 A 
ATOM     26  H   UNL A   1      31.166  30.649  24.603  1.00  0.00     0.172 HD
ATOM     27  H   UNL A   1      33.281  30.770  28.111  1.00  0.00     0.171 HD
ATOM     28  O   UNL A   1      31.073  31.909  27.011  1.00  0.00    -0.248 OA
ENDBRANCH  19  21
ENDBRANCH  17  19
ENDBRANCH  10  11
ENDBRANCH   8  10
ENDBRANCH   7   8
ENDBRANCH   6   7
ENDBRANCH   5   6
ENDBRANCH   4   5
ENDBRANCH   3   4
ENDBRANCH   2   3
ENDBRANCH   1   2
BRANCH   1  29
ATOM     29  C   UNL A   1      37.752  21.264  25.088  1.00  0.00     0.188 C 
BRANCH  29  30
ATOM     30  C   UNL A   1      38.039  22.599  25.800  1.00  0.00     0.188 C 
BRANCH  30  31
ATOM     31  O   UNL A   1      38.979  22.603  26.866  1.00  0.00    -0.376 OA
BRANCH  31  32
ATOM     32  C   UNL A   1      40.267  22.036  26.622  1.00  0.00     0.202 C 
BRANCH  32  33
ATOM     33  C   UNL A   1      41.559  22.808  26.978  1.00  0.00     0.261 C 
BRANCH  33  34
ATOM     34  O   UNL A   1      42.757  22.353  26.317  1.00  0.00    -0.460 OA
BRANCH  34  35
ATOM     35  C   UNL A   1      43.233  23.128  25.312  1.00  0.00     0.338 C 
ATOM     36  O   UNL A   1      43.250  22.844  24.125  1.00  0.00    -0.246 OA
BRANCH  35  37
ATOM     37  C   UNL A   1      43.526  24.496  25.805  1.00  0.00     0.060 A 
ATOM     38  C   UNL A   1      44.037  24.635  27.106  1.00  0.00     0.016 A 
ATOM     39  C   UNL A   1      43.250  25.630  25.040  1.00  0.00     0.016 A 
ATOM     40  C   UNL A   1      44.252  25.900  27.655  1.00  0.00     0.010 A 
ATOM     41  C   UNL A   1      43.427  26.901  25.608  1.00  0.00     0.010 A 
ATOM     42  C   UNL A   1      43.894  27.042  26.930  1.00  0.00    -0.014 A 
BRANCH  42  43
ATOM     43  C   UNL A   1      43.765  28.344  27.635  1.00  0.00     0.031 A 
ATOM     44  C   UNL A   1      45.022  29.135  27.886  1.00  0.00     0.074 A 
ATOM     45  C   UNL A   1      42.578  28.826  28.044  1.00  0.00     0.049 A 
ATOM     46  N   UNL A   1      45.181  30.268  28.519  1.00  0.00    -0.248 NA
ATOM     47  C   UNL A   1      46.269  28.565  27.351  1.00  0.00     0.031 C 
ATOM     48  C   UNL A   1      41.285  28.179  27.841  1.00  0.00     0.029 A 
ATOM     49  N   UNL A   1      42.278  29.970  28.745  1.00  0.00    -0.354 N 
ATOM     50  C   UNL A   1      46.547  30.528  28.490  1.00  0.00     0.074 A 
ATOM     51  C   UNL A   1      47.172  29.431  27.785  1.00  0.00     0.031 C 
ATOM     52  C   UNL A   1      40.331  28.919  28.436  1.00  0.00     0.029 A 
ATOM     53  C   UNL A   1      40.949  30.075  29.085  1.00  0.00     0.049 A 
ATOM     54  H   UNL A   1      42.950  30.650  28.982  1.00  0.00     0.167 HD
ATOM     55  C   UNL A   1      47.223  31.584  28.999  1.00  0.00     0.034 A 
ATOM     56  C   UNL A   1      40.313  30.983  29.854  1.00  0.00     0.034 A 
ATOM     57  C   UNL A   1      46.605  32.675  29.701  1.00  0.00     0.049 A 
ATOM     58  C   UNL A   1      41.094  32.129  30.453  1.00  0.00     0.074 A 
ATOM     59  C   UNL A   1      47.201  33.811  30.219  1.00  0.00     0.029 A 
ATOM     60  N   UNL A   1      45.256  32.757  30.005  1.00  0.00    -0.354 N 
ATOM     61  N   UNL A   1      42.367  32.416  30.330  1.00  0.00    -0.248 NA
ATOM     62  C   UNL A   1      40.343  33.092  31.272  1.00  0.00     0.031 C 
ATOM     63  C   UNL A   1      46.218  34.557  30.878  1.00  0.00     0.029 A 
ATOM     64  C   UNL A   1      45.001  33.913  30.723  1.00  0.00     0.049 A 
ATOM     65  H   UNL A   1      44.578  32.090  29.749  1.00  0.00     0.167 HD
ATOM     66  C   UNL A   1      42.561  33.610  31.018  1.00  0.00     0.074 A 
ATOM     67  C   UNL A   1      41.270  34.001  31.545  1.00  0.00     0.031 C 
ATOM     68  C   UNL A   1      43.705  34.317  31.204  1.00  0.00     0.034 A 
BRANCH  55  69
ATOM     69  C   UNL A   1      48.720  31.602  28.817  1.00  0.00     0.023 A 
ATOM     70  C   UNL A   1      49.549  30.922  29.731  1.00  0.00     0.012 A 
ATOM     71  C   UNL A   1      49.301  32.274  27.724  1.00  0.00     0.148 A 
ATOM     72  C   UNL A   1      50.936  30.947  29.587  1.00  0.00     0.002 A 
ATOM     73  C   UNL A   1      50.679  32.252  27.557  1.00  0.00     0.091 A 
ATOM     74  F   UNL A   1      48.497  32.934  26.878  1.00  0.00    -0.205 F 
ATOM     75  C   UNL A   1      51.500  31.603  28.494  1.00  0.00     0.022 A 
BRANCH  73  76
ATOM     76  S   UNL A   1      51.494  32.996  26.141  1.00  0.00     0.127 S 
ATOM     77  O   UNL A   1      52.894  32.652  26.391  1.00  0.00    -0.237 OA
ATOM     78  O   UNL A   1      50.881  32.280  25.022  1.00  0.00    -0.237 OA
ATOM     79  O   UNL A   1      51.182  34.418  26.197  1.00  0.00    -0.744 OA
ENDBRANCH  73  76
ENDBRANCH  55  69
BRANCH  56  80
ATOM     80  C   UNL A   1      38.846  30.864  30.094  1.00  0.00     0.023 A 
ATOM     81  C   UNL A   1      38.361  29.891  30.990  1.00  0.00     0.012 A 
ATOM     82  C   UNL A   1      37.929  31.712  29.441  1.00  0.00     0.148 A 
ATOM     83  C   UNL A   1      36.990  29.744  31.210  1.00  0.00     0.002 A 
ATOM     84  C   UNL A   1      36.569  31.598  29.708  1.00  0.00     0.091 A 
ATOM     85  F   UNL A   1      38.407  32.619  28.581  1.00  0.00    -0.205 F 
ATOM     86  C   UNL A   1      36.096  30.603  30.578  1.00  0.00     0.022 A 
BRANCH  84  87
ATOM     87  S   UNL A   1      35.354  32.741  29.042  1.00  0.00     0.127 S 
ATOM     88  O   UNL A   1      34.152  32.365  29.781  1.00  0.00    -0.237 OA
ATOM     89  O   UNL A   1      35.928  34.035  29.412  1.00  0.00    -0.237 OA
ATOM     90  O   UNL A   1      35.315  32.488  27.608  1.00  0.00    -0.744 OA
ENDBRANCH  84  87
ENDBRANCH  56  80
BRANCH  68  91
ATOM     91  C   UNL A   1      43.619  35.618  31.963  1.00  0.00     0.023 A 
ATOM     92  C   UNL A   1      43.470  35.615  33.365  1.00  0.00     0.012 A 
ATOM     93  C   UNL A   1      43.769  36.848  31.289  1.00  0.00     0.148 A 
ATOM     94  C   UNL A   1      43.436  36.814  34.078  1.00  0.00     0.002 A 
ATOM     95  C   UNL A   1      43.789  38.035  32.011  1.00  0.00     0.091 A 
ATOM     96  F   UNL A   1      43.894  36.833  29.954  1.00  0.00    -0.205 F 
ATOM     97  C   UNL A   1      43.607  38.021  33.404  1.00  0.00     0.022 A 
BRANCH  95  98
ATOM     98  S   UNL A   1      44.105  39.627  31.242  1.00  0.00     0.127 S 
ATOM     99  O   UNL A   1      43.150  39.617  30.135  1.00  0.00    -0.237 OA
ATOM    100  O   UNL A   1      43.778  40.561  32.321  1.00  0.00    -0.237 OA
ATOM    101  O   UNL A   1      45.508  39.617  30.854  1.00  0.00    -0.744 OA
ENDBRANCH  95  98
ENDBRANCH  68  91
ENDBRANCH  42  43
ENDBRANCH  35  37
ENDBRANCH  34  35
ENDBRANCH  33  34
ENDBRANCH  32  33
ENDBRANCH  31  32
ENDBRANCH  30  31
ENDBRANCH  29  30
ENDBRANCH   1  29
TORSDOF 26
ENDMDL
MODEL 2
REMARK VINA RESULT:      -8.7      5.213      9.837
REMARK SMILES O=C(C[C@H]1C[C@H]2CC[C@@H](C1)N2C(=O)c1c[nH]c(=O)[nH]1)OCCOCCOCCOCCOC(=O)c1ccc(-c2c3nc(c(-c4cccc(S(=O)(=O)[O-])c4F)c4ccc([nH]4)c(-c4cccc(S(=O)(=O)[O-])c4F)c4nc(c(-c5cccc(S(=O)(=O)[O-])c5F)c5ccc2[nH]5)C=C4)C=C3)cc1
REMARK SMILES IDX 26 1 25 2 24 3 23 4 22 5 21 6 20 7 2 8 1 9 3 10 4 11 5 12
REMARK SMILES IDX 10 13 6 14 9 15 7 16 11 17 8 18 12 19 13 20 14 21 15 22
REMARK SMILES IDX 19 23 16 24 17 25 18 28 27 29 28 30 29 31 30 32 31 33 32 34
REMARK SMILES IDX 33 35 34 36 35 37 36 38 97 39 37 40 96 41 38 42 39 43 40 44
REMARK SMILES IDX 90 45 41 46 95 47 89 48 91 49 42 50 94 51 88 52 87 53 43 55
REMARK SMILES IDX 75 56 55 57 74 58 56 59 59 60 73 61 92 62 57 63 58 64 72 66
REMARK SMILES IDX 93 67 60 68 44 69 45 70 53 71 46 72 48 73 54 74 47 75 49 76
REMARK SMILES IDX 50 77 51 78 52 79 76 80 77 81 85 82 78 83 80 84 86 85 79 86
REMARK SMILES IDX 81 87 82 88 83 89 84 90 61 91 62 92 70 93 63 94 65 95 71 96
REMARK SMILES IDX 64 97 66 98 67 99 68 100 69 101
REMARK H PARENT 19 26 16 27 91 54 59 65
REMARK Flexibility Score: inf
ROOT
ATOM      1  O   UNL A   1      31.294  27.788  26.625  1.00  0.00    -0.377 OA
ENDROOT
BRANCH   1   2
ATOM      2  C   UNL A   1      31.721  27.591  25.283  1.00  0.00     0.188 C 
BRANCH   2   3
ATOM      3  C   UNL A   1      30.911  28.226  24.161  1.00  0.00     0.188 C 
BRANCH   3   4
ATOM      4  O   UNL A   1      31.649  28.832  23.107  1.00  0.00    -0.376 OA
BRANCH   4   5
ATOM      5  C   UNL A   1      33.071  28.796  23.108  1.00  0.00     0.202 C 
BRANCH   5   6
ATOM      6  C   UNL A   1      33.652  27.486  22.552  1.00  0.00     0.261 C 
BRANCH   6   7
ATOM      7  O   UNL A   1      32.985  27.052  21.353  1.00  0.00    -0.463 OA
BRANCH   7   8
ATOM      8  C   UNL A   1      32.801  25.715  21.262  1.00  0.00     0.306 C 
ATOM      9  O   UNL A   1      33.202  25.035  20.322  1.00  0.00    -0.252 OA
BRANCH   8  10
ATOM     10  C   UNL A   1      31.894  25.155  22.355  1.00  0.00     0.126 C 
BRANCH  10  11
ATOM     11  C   UNL A   1      32.182  23.760  22.961  1.00  0.00     0.004 C 
ATOM     12  C   UNL A   1      33.583  23.135  22.721  1.00  0.00     0.029 C 
ATOM     13  C   UNL A   1      31.764  23.716  24.467  1.00  0.00     0.029 C 
ATOM     14  C   UNL A   1      34.552  23.101  23.898  1.00  0.00     0.086 C 
ATOM     15  C   UNL A   1      32.924  23.554  25.473  1.00  0.00     0.086 C 
ATOM     16  C   UNL A   1      34.947  24.436  24.506  1.00  0.00     0.027 C 
ATOM     17  N   UNL A   1      33.831  22.516  24.989  1.00  0.00    -0.331 N 
ATOM     18  C   UNL A   1      33.820  24.799  25.471  1.00  0.00     0.027 C 
BRANCH  17  19
ATOM     19  C   UNL A   1      34.262  21.342  25.539  1.00  0.00     0.272 C 
ATOM     20  O   UNL A   1      34.984  21.275  26.531  1.00  0.00    -0.267 OA
BRANCH  19  21
ATOM     21  C   UNL A   1      33.764  20.103  24.938  1.00  0.00     0.125 A 
ATOM     22  C   UNL A   1      32.549  19.846  24.438  1.00  0.00     0.119 A 
ATOM     23  N   UNL A   1      34.573  19.012  24.744  1.00  0.00    -0.302 N 
ATOM     24  N   UNL A   1      32.556  18.566  23.947  1.00  0.00    -0.312 N 
ATOM     25  C   UNL A   1      33.834  18.004  24.125  1.00  0.00     0.323 A 
ATOM     26  H   UNL A   1      35.521  18.951  24.999  1.00  0.00     0.172 HD
ATOM     27  H   UNL A   1      31.786  18.110  23.535  1.00  0.00     0.171 HD
ATOM     28  O   UNL A   1      34.200  16.893  23.811  1.00  0.00    -0.248 OA
ENDBRANCH  19  21
ENDBRANCH  17  19
ENDBRANCH  10  11
ENDBRANCH   8  10
ENDBRANCH   7   8
ENDBRANCH   6   7
ENDBRANCH   5   6
ENDBRANCH   4   5
ENDBRANCH   3   4
ENDBRANCH   2   3
ENDBRANCH   1   2
BRANCH   1  29
ATOM     29  C   UNL A   1      32.207  28.227  27.613  1.00  0.00     0.188 C 
BRANCH  29  30
ATOM     30  C   UNL A   1      33.673  28.260  27.143  1.00  0.00     0.188 C 
BRANCH  30  31
ATOM     31  O   UNL A   1      34.590  29.076  27.857  1.00  0.00    -0.376 OA
BRANCH  31  32
ATOM     32  C   UNL A   1      34.508  30.491  27.673  1.00  0.00     0.202 C 
BRANCH  32  33
ATOM     33  C   UNL A   1      35.223  31.463  28.639  1.00  0.00     0.261 C 
BRANCH  33  34
ATOM     34  O   UNL A   1      36.519  31.926  28.206  1.00  0.00    -0.460 OA
BRANCH  34  35
ATOM     35  C   UNL A   1      37.589  31.182  28.578  1.00  0.00     0.338 C 
ATOM     36  O   UNL A   1      37.952  30.133  28.070  1.00  0.00    -0.246 OA
BRANCH  35  37
ATOM     37  C   UNL A   1      38.428  31.925  29.548  1.00  0.00     0.060 A 
ATOM     38  C   UNL A   1      38.074  33.251  29.850  1.00  0.00     0.016 A 
ATOM     39  C   UNL A   1      39.577  31.367  30.110  1.00  0.00     0.016 A 
ATOM     40  C   UNL A   1      38.874  34.028  30.690  1.00  0.00     0.010 A 
ATOM     41  C   UNL A   1      40.402  32.162  30.920  1.00  0.00     0.010 A 
ATOM     42  C   UNL A   1      40.074  33.506  31.184  1.00  0.00    -0.014 A 
BRANCH  42  43
ATOM     43  C   UNL A   1      41.093  34.428  31.751  1.00  0.00     0.031 A 
ATOM     44  C   UNL A   1      41.065  34.680  33.236  1.00  0.00     0.074 A 
ATOM     45  C   UNL A   1      42.022  35.030  30.987  1.00  0.00     0.049 A 
ATOM     46  N   UNL A   1      41.809  35.474  33.960  1.00  0.00    -0.248 NA
ATOM     47  C   UNL A   1      40.056  33.933  34.005  1.00  0.00     0.031 C 
ATOM     48  C   UNL A   1      42.179  34.854  29.546  1.00  0.00     0.029 A 
ATOM     49  N   UNL A   1      42.996  35.940  31.325  1.00  0.00    -0.354 N 
ATOM     50  C   UNL A   1      41.336  35.351  35.262  1.00  0.00     0.074 A 
ATOM     51  C   UNL A   1      40.237  34.412  35.226  1.00  0.00     0.031 C 
ATOM     52  C   UNL A   1      43.169  35.657  29.116  1.00  0.00     0.029 A 
ATOM     53  C   UNL A   1      43.695  36.425  30.245  1.00  0.00     0.049 A 
ATOM     54  H   UNL A   1      43.176  36.218  32.253  1.00  0.00     0.167 HD
ATOM     55  C   UNL A   1      41.777  35.958  36.389  1.00  0.00     0.034 A 
ATOM     56  C   UNL A   1      44.630  37.395  30.173  1.00  0.00     0.034 A 
ATOM     57  C   UNL A   1      42.869  36.891  36.428  1.00  0.00     0.049 A 
ATOM     58  C   UNL A   1      45.074  38.095  31.435  1.00  0.00     0.074 A 
ATOM     59  C   UNL A   1      43.415  37.529  37.527  1.00  0.00     0.029 A 
ATOM     60  N   UNL A   1      43.566  37.340  35.317  1.00  0.00    -0.354 N 
ATOM     61  N   UNL A   1      44.690  37.894  32.672  1.00  0.00    -0.248 NA
ATOM     62  C   UNL A   1      46.104  39.136  31.294  1.00  0.00     0.031 C 
ATOM     63  C   UNL A   1      44.412  38.399  37.075  1.00  0.00     0.029 A 
ATOM     64  C   UNL A   1      44.523  38.263  35.700  1.00  0.00     0.049 A 
ATOM     65  H   UNL A   1      43.403  37.046  34.391  1.00  0.00     0.167 HD
ATOM     66  C   UNL A   1      45.457  38.749  33.458  1.00  0.00     0.074 A 
ATOM     67  C   UNL A   1      46.340  39.461  32.558  1.00  0.00     0.031 C 
ATOM     68  C   UNL A   1      45.430  38.933  34.803  1.00  0.00     0.034 A 
BRANCH  55  69
ATOM     69  C   UNL A   1      41.064  35.631  37.677  1.00  0.00     0.023 A 
ATOM     70  C   UNL A   1      39.888  36.324  38.027  1.00  0.00     0.012 A 
ATOM     71  C   UNL A   1      41.549  34.618  38.527  1.00  0.00     0.148 A 
ATOM     72  C   UNL A   1      39.230  36.047  39.225  1.00  0.00     0.002 A 
ATOM     73  C   UNL A   1      40.860  34.311  39.693  1.00  0.00     0.091 A 
ATOM     74  F   UNL A   1      42.681  33.986  38.187  1.00  0.00    -0.205 F 
ATOM     75  C   UNL A   1      39.711  35.033  40.052  1.00  0.00     0.022 A 
BRANCH  73  76
ATOM     76  S   UNL A   1      41.351  32.970  40.781  1.00  0.00     0.127 S 
ATOM     77  O   UNL A   1      41.487  31.859  39.839  1.00  0.00    -0.237 OA
ATOM     78  O   UNL A   1      42.615  33.465  41.327  1.00  0.00    -0.237 OA
ATOM     79  O   UNL A   1      40.280  32.832  41.759  1.00  0.00    -0.744 OA
ENDBRANCH  73  76
ENDBRANCH  55  69
BRANCH  56  80
ATOM     80  C   UNL A   1      45.231  37.759  28.857  1.00  0.00     0.023 A 
ATOM     81  C   UNL A   1      46.201  36.919  28.276  1.00  0.00     0.012 A 
ATOM     82  C   UNL A   1      44.845  38.932  28.179  1.00  0.00     0.148 A 
ATOM     83  C   UNL A   1      46.796  37.254  27.057  1.00  0.00     0.002 A 
ATOM     84  C   UNL A   1      45.399  39.230  26.939  1.00  0.00     0.091 A 
ATOM     85  F   UNL A   1      43.934  39.727  28.756  1.00  0.00    -0.205 F 
ATOM     86  C   UNL A   1      46.388  38.402  26.385  1.00  0.00     0.022 A 
BRANCH  84  87
ATOM     87  S   UNL A   1      44.845  40.616  25.941  1.00  0.00     0.127 S 
ATOM     88  O   UNL A   1      45.087  41.746  26.836  1.00  0.00    -0.237 OA
ATOM     89  O   UNL A   1      45.748  40.535  24.791  1.00  0.00    -0.237 OA
ATOM     90  O   UNL A   1      43.448  40.349  25.629  1.00  0.00    -0.744 OA
ENDBRANCH  84  87
ENDBRANCH  56  80
BRANCH  68  91
ATOM     91  C   UNL A   1      46.415  39.904  35.405  1.00  0.00     0.023 A 
ATOM     92  C   UNL A   1      47.770  39.544  35.549  1.00  0.00     0.012 A 
ATOM     93  C   UNL A   1      46.008  41.208  35.754  1.00  0.00     0.148 A 
ATOM     94  C   UNL A   1      48.695  40.453  36.064  1.00  0.00     0.002 A 
ATOM     95  C   UNL A   1      46.944  42.126  36.214  1.00  0.00     0.091 A 
ATOM     96  F   UNL A   1      44.712  41.528  35.624  1.00  0.00    -0.205 F 
ATOM     97  C   UNL A   1      48.285  41.746  36.384  1.00  0.00     0.022 A 
BRANCH  95  98
ATOM     98  S   UNL A   1      46.529  43.840  36.555  1.00  0.00     0.127 S 
ATOM     99  O   UNL A   1      45.897  44.247  35.301  1.00  0.00    -0.237 OA
ATOM    100  O   UNL A   1      45.612  43.716  37.688  1.00  0.00    -0.237 OA
ATOM    101  O   UNL A   1      47.786  44.507  36.863  1.00  0.00    -0.744 OA
ENDBRANCH  95  98
ENDBRANCH  68  91
ENDBRANCH  42  43
ENDBRANCH  35  37
ENDBRANCH  34  35
ENDBRANCH  33  34
ENDBRANCH  32  33
ENDBRANCH  31  32
ENDBRANCH  30  31
ENDBRANCH  29  30
ENDBRANCH   1  29
TORSDOF 26
ENDMDL
MODEL 3
REMARK VINA RESULT:      -8.6      3.327      4.500
REMARK SMILES O=C(C[C@H]1C[C@H]2CC[C@@H](C1)N2C(=O)c1c[nH]c(=O)[nH]1)OCCOCCOCCOCCOC(=O)c1ccc(-c2c3nc(c(-c4cccc(S(=O)(=O)[O-])c4F)c4ccc([nH]4)c(-c4cccc(S(=O)(=O)[O-])c4F)c4nc(c(-c5cccc(S(=O)(=O)[O-])c5F)c5ccc2[nH]5)C=C4)C=C3)cc1
REMARK SMILES IDX 26 1 25 2 24 3 23 4 22 5 21 6 20 7 2 8 1 9 3 10 4 11 5 12
REMARK SMILES IDX 10 13 6 14 9 15 7 16 11 17 8 18 12 19 13 20 14 21 15 22
REMARK SMILES IDX 19 23 16 24 17 25 18 28 27 29 28 30 29 31 30 32 31 33 32 34
REMARK SMILES IDX 33 35 34 36 35 37 36 38 97 39 37 40 96 41 38 42 39 43 40 44
REMARK SMILES IDX 90 45 41 46 95 47 89 48 91 49 42 50 94 51 88 52 87 53 43 55
REMARK SMILES IDX 75 56 55 57 74 58 56 59 59 60 73 61 92 62 57 63 58 64 72 66
REMARK SMILES IDX 93 67 60 68 44 69 45 70 53 71 46 72 48 73 54 74 47 75 49 76
REMARK SMILES IDX 50 77 51 78 52 79 76 80 77 81 85 82 78 83 80 84 86 85 79 86
REMARK SMILES IDX 81 87 82 88 83 89 84 90 61 91 62 92 70 93 63 94 65 95 71 96
REMARK SMILES IDX 64 97 66 98 67 99 68 100 69 101
REMARK H PARENT 19 26 16 27 91 54 59 65
REMARK Flexibility Score: inf
ROOT
ATOM      1  O   UNL A   1      37.878  21.162  25.748  1.00  0.00    -0.377 OA
ENDROOT
BRANCH   1   2
ATOM      2  C   UNL A   1      37.629  22.410  25.114  1.00  0.00     0.188 C 
BRANCH   2   3
ATOM      3  C   UNL A   1      36.251  23.042  25.267  1.00  0.00     0.188 C 
BRANCH   3   4
ATOM      4  O   UNL A   1      35.528  22.714  26.448  1.00  0.00    -0.376 OA
BRANCH   4   5
ATOM      5  C   UNL A   1      34.628  21.613  26.461  1.00  0.00     0.202 C 
BRANCH   5   6
ATOM      6  C   UNL A   1      34.136  21.206  25.063  1.00  0.00     0.261 C 
BRANCH   6   7
ATOM      7  O   UNL A   1      32.745  20.836  25.054  1.00  0.00    -0.463 OA
BRANCH   7   8
ATOM      8  C   UNL A   1      31.885  21.879  25.095  1.00  0.00     0.306 C 
ATOM      9  O   UNL A   1      30.829  21.865  25.722  1.00  0.00    -0.252 OA
BRANCH   8  10
ATOM     10  C   UNL A   1      32.266  23.013  24.148  1.00  0.00     0.126 C 
BRANCH  10  11
ATOM     11  C   UNL A   1      31.793  24.458  24.440  1.00  0.00     0.004 C 
ATOM     12  C   UNL A   1      32.875  25.552  24.652  1.00  0.00     0.029 C 
ATOM     13  C   UNL A   1      30.700  24.899  23.412  1.00  0.00     0.029 C 
ATOM     14  C   UNL A   1      33.084  26.566  23.533  1.00  0.00     0.086 C 
ATOM     15  C   UNL A   1      31.112  26.037  22.454  1.00  0.00     0.086 C 
ATOM     16  C   UNL A   1      33.506  26.021  22.179  1.00  0.00     0.027 C 
ATOM     17  N   UNL A   1      31.787  27.082  23.218  1.00  0.00    -0.331 N 
ATOM     18  C   UNL A   1      32.216  25.567  21.499  1.00  0.00     0.027 C 
BRANCH  17  19
ATOM     19  C   UNL A   1      31.524  28.413  23.387  1.00  0.00     0.272 C 
ATOM     20  O   UNL A   1      32.344  29.226  23.805  1.00  0.00    -0.267 OA
BRANCH  19  21
ATOM     21  C   UNL A   1      30.201  28.888  22.972  1.00  0.00     0.125 A 
ATOM     22  C   UNL A   1      29.894  29.782  22.025  1.00  0.00     0.119 A 
ATOM     23  N   UNL A   1      29.044  28.375  23.503  1.00  0.00    -0.302 N 
ATOM     24  N   UNL A   1      28.528  29.880  21.963  1.00  0.00    -0.312 N 
ATOM     25  C   UNL A   1      27.953  28.994  22.893  1.00  0.00     0.323 A 
ATOM     26  H   UNL A   1      28.993  27.683  24.200  1.00  0.00     0.172 HD
ATOM     27  H   UNL A   1      28.027  30.478  21.362  1.00  0.00     0.171 HD
ATOM     28  O   UNL A   1      26.775  28.816  23.109  1.00  0.00    -0.248 OA
ENDBRANCH  19  21
ENDBRANCH  17  19
ENDBRANCH  10  11
ENDBRANCH   8  10
ENDBRANCH   7   8
ENDBRANCH   6   7
ENDBRANCH   5   6
ENDBRANCH   4   5
ENDBRANCH   3   4
ENDBRANCH   2   3
ENDBRANCH   1   2
BRANCH   1  29
ATOM     29  C   UNL A   1      39.090  20.468  25.518  1.00  0.00     0.188 C 
BRANCH  29  30
ATOM     30  C   UNL A   1      40.317  21.106  26.195  1.00  0.00     0.188 C 
BRANCH  30  31
ATOM     31  O   UNL A   1      41.291  20.245  26.769  1.00  0.00    -0.376 OA
BRANCH  31  32
ATOM     32  C   UNL A   1      41.936  19.303  25.910  1.00  0.00     0.202 C 
BRANCH  32  33
ATOM     33  C   UNL A   1      43.417  18.914  26.124  1.00  0.00     0.261 C 
BRANCH  33  34
ATOM     34  O   UNL A   1      44.137  18.534  24.934  1.00  0.00    -0.460 OA
BRANCH  34  35
ATOM     35  C   UNL A   1      44.542  19.538  24.118  1.00  0.00     0.338 C 
ATOM     36  O   UNL A   1      44.789  19.447  22.926  1.00  0.00    -0.246 OA
BRANCH  35  37
ATOM     37  C   UNL A   1      44.422  20.847  24.805  1.00  0.00     0.060 A 
ATOM     38  C   UNL A   1      43.672  21.857  24.178  1.00  0.00     0.016 A 
ATOM     39  C   UNL A   1      45.079  21.111  26.007  1.00  0.00     0.016 A 
ATOM     40  C   UNL A   1      43.595  23.135  24.734  1.00  0.00     0.010 A 
ATOM     41  C   UNL A   1      45.034  22.408  26.543  1.00  0.00     0.010 A 
ATOM     42  C   UNL A   1      44.323  23.434  25.891  1.00  0.00    -0.014 A 
BRANCH  42  43
ATOM     43  C   UNL A   1      44.546  24.855  26.266  1.00  0.00     0.031 A 
ATOM     44  C   UNL A   1      45.947  25.399  26.157  1.00  0.00     0.074 A 
ATOM     45  C   UNL A   1      43.550  25.653  26.690  1.00  0.00     0.049 A 
ATOM     46  N   UNL A   1      46.408  26.582  26.469  1.00  0.00    -0.248 NA
ATOM     47  C   UNL A   1      46.965  24.478  25.626  1.00  0.00     0.031 C 
ATOM     48  C   UNL A   1      42.148  25.264  26.815  1.00  0.00     0.029 A 
ATOM     49  N   UNL A   1      43.579  26.957  27.122  1.00  0.00    -0.354 N 
ATOM     50  C   UNL A   1      47.772  26.537  26.206  1.00  0.00     0.074 A 
ATOM     51  C   UNL A   1      48.065  25.207  25.718  1.00  0.00     0.031 C 
ATOM     52  C   UNL A   1      41.454  26.298  27.324  1.00  0.00     0.029 A 
ATOM     53  C   UNL A   1      42.367  27.410  27.588  1.00  0.00     0.049 A 
ATOM     54  H   UNL A   1      44.390  27.515  27.099  1.00  0.00     0.167 HD
ATOM     55  C   UNL A   1      48.700  27.511  26.352  1.00  0.00     0.034 A 
ATOM     56  C   UNL A   1      42.041  28.576  28.185  1.00  0.00     0.034 A 
ATOM     57  C   UNL A   1      48.412  28.833  26.838  1.00  0.00     0.049 A 
ATOM     58  C   UNL A   1      43.101  29.633  28.383  1.00  0.00     0.074 A 
ATOM     59  C   UNL A   1      49.277  29.902  26.983  1.00  0.00     0.029 A 
ATOM     60  N   UNL A   1      47.170  29.260  27.279  1.00  0.00    -0.354 N 
ATOM     61  N   UNL A   1      44.365  29.612  28.036  1.00  0.00    -0.248 NA
ATOM     62  C   UNL A   1      42.681  30.886  29.029  1.00  0.00     0.031 C 
ATOM     63  C   UNL A   1      48.567  30.962  27.557  1.00  0.00     0.029 A 
ATOM     64  C   UNL A   1      47.248  30.570  27.718  1.00  0.00     0.049 A 
ATOM     65  H   UNL A   1      46.352  28.711  27.281  1.00  0.00     0.167 HD
ATOM     66  C   UNL A   1      44.879  30.859  28.381  1.00  0.00     0.074 A 
ATOM     67  C   UNL A   1      43.786  31.616  28.953  1.00  0.00     0.031 C 
ATOM     68  C   UNL A   1      46.144  31.332  28.243  1.00  0.00     0.034 A 
BRANCH  55  69
ATOM     69  C   UNL A   1      50.123  27.174  25.986  1.00  0.00     0.023 A 
ATOM     70  C   UNL A   1      50.988  26.621  26.952  1.00  0.00     0.012 A 
ATOM     71  C   UNL A   1      50.595  27.384  24.676  1.00  0.00     0.148 A 
ATOM     72  C   UNL A   1      52.313  26.324  26.633  1.00  0.00     0.002 A 
ATOM     73  C   UNL A   1      51.900  27.038  24.351  1.00  0.00     0.091 A 
ATOM     74  F   UNL A   1      49.764  27.932  23.777  1.00  0.00    -0.205 F 
ATOM     75  C   UNL A   1      52.765  26.523  25.330  1.00  0.00     0.022 A 
BRANCH  73  76
ATOM     76  S   UNL A   1      52.551  27.178  22.683  1.00  0.00     0.127 S 
ATOM     77  O   UNL A   1      53.829  26.477  22.806  1.00  0.00    -0.237 OA
ATOM     78  O   UNL A   1      51.540  26.470  21.898  1.00  0.00    -0.237 OA
ATOM     79  O   UNL A   1      52.647  28.605  22.407  1.00  0.00    -0.744 OA
ENDBRANCH  73  76
ENDBRANCH  55  69
BRANCH  56  80
ATOM     80  C   UNL A   1      40.638  28.822  28.628  1.00  0.00     0.023 A 
ATOM     81  C   UNL A   1      39.655  29.165  27.680  1.00  0.00     0.012 A 
ATOM     82  C   UNL A   1      40.273  28.716  29.985  1.00  0.00     0.148 A 
ATOM     83  C   UNL A   1      38.341  29.425  28.076  1.00  0.00     0.002 A 
ATOM     84  C   UNL A   1      38.952  28.920  30.365  1.00  0.00     0.091 A 
ATOM     85  F   UNL A   1      41.225  28.406  30.875  1.00  0.00    -0.205 F 
ATOM     86  C   UNL A   1      37.988  29.293  29.416  1.00  0.00     0.022 A 
BRANCH  84  87
ATOM     87  S   UNL A   1      38.376  28.648  32.045  1.00  0.00     0.127 S 
ATOM     88  O   UNL A   1      37.000  29.135  31.973  1.00  0.00    -0.237 OA
ATOM     89  O   UNL A   1      38.512  27.197  32.175  1.00  0.00    -0.237 OA
ATOM     90  O   UNL A   1      39.270  29.416  32.901  1.00  0.00    -0.744 OA
ENDBRANCH  84  87
ENDBRANCH  56  80
BRANCH  68  91
ATOM     91  C   UNL A   1      46.418  32.754  28.665  1.00  0.00     0.023 A 
ATOM     92  C   UNL A   1      46.943  33.027  29.946  1.00  0.00     0.012 A 
ATOM     93  C   UNL A   1      46.231  33.816  27.757  1.00  0.00     0.148 A 
ATOM     94  C   UNL A   1      47.241  34.336  30.325  1.00  0.00     0.002 A 
ATOM     95  C   UNL A   1      46.582  35.110  28.123  1.00  0.00     0.091 A 
ATOM     96  F   UNL A   1      45.718  33.540  26.549  1.00  0.00    -0.205 F 
ATOM     97  C   UNL A   1      47.073  35.374  29.412  1.00  0.00     0.022 A 
BRANCH  95  98
ATOM     98  S   UNL A   1      46.496  36.494  26.980  1.00  0.00     0.127 S 
ATOM     99  O   UNL A   1      45.052  36.683  26.851  1.00  0.00    -0.237 OA
ATOM    100  O   UNL A   1      47.185  37.550  27.722  1.00  0.00    -0.237 OA
ATOM    101  O   UNL A   1      47.178  36.060  25.769  1.00  0.00    -0.744 OA
ENDBRANCH  95  98
ENDBRANCH  68  91
ENDBRANCH  42  43
ENDBRANCH  35  37
ENDBRANCH  34  35
ENDBRANCH  33  34
ENDBRANCH  32  33
ENDBRANCH  31  32
ENDBRANCH  30  31
ENDBRANCH  29  30
ENDBRANCH   1  29
TORSDOF 26
ENDMDL
