MODEL 1
REMARK VINA RESULT:      -6.8      0.000      0.000
REMARK SMILES Cc1cc(C)c2c(c1)C=C(C(=O)OCCOCCOCCOCCOC(=O)c1ccc(-c3c4nc(c(-c5cccc(S(=O)(=O)[O-])c5F)c5ccc([nH]5)c(-c5cccc(S(=O)(=O)[O-])c5F)c5nc(c(-c6cccc(S(=O)(=O)[O-])c6F)c6ccc3[nH]6)C=C5)C=C4)cc1)[C@@H](C(F)(F)F)O2
REMARK SMILES IDX 20 1 19 2 18 3 17 4 16 5 15 6 14 7 13 8 11 9 12 10 10 11
REMARK SMILES IDX 1 12 2 13 3 14 8 15 4 16 7 17 5 18 6 19 9 20 96 21 91 22
REMARK SMILES IDX 92 23 93 24 94 25 95 26 21 27 22 28 23 29 24 30 25 31 26 32
REMARK SMILES IDX 27 33 28 34 29 35 90 36 30 37 89 38 31 39 32 40 33 41 83 42
REMARK SMILES IDX 34 43 88 44 82 45 84 46 35 47 87 48 81 49 80 50 36 52 68 53
REMARK SMILES IDX 48 54 67 55 49 56 52 57 66 58 85 59 50 60 51 61 65 63 86 64
REMARK SMILES IDX 53 65 37 66 38 67 46 68 39 69 41 70 47 71 40 72 42 73 43 74
REMARK SMILES IDX 44 75 45 76 69 77 70 78 78 79 71 80 73 81 79 82 72 83 74 84
REMARK SMILES IDX 75 85 76 86 77 87 54 88 55 89 63 90 56 91 58 92 64 93 57 94
REMARK SMILES IDX 59 95 60 96 61 97 62 98
REMARK H PARENT 84 51 52 62
REMARK Flexibility Score: inf
ROOT
ATOM      1  C   UNL A   1      53.998  27.385  27.396  1.00  0.00     0.188 C 
ENDROOT
BRANCH   1   2
ATOM      2  O   UNL A   1      53.216  26.321  27.944  1.00  0.00    -0.377 OA
BRANCH   2   3
ATOM      3  C   UNL A   1      52.079  26.630  28.729  1.00  0.00     0.188 C 
BRANCH   3   4
ATOM      4  C   UNL A   1      50.827  27.060  27.939  1.00  0.00     0.188 C 
BRANCH   4   5
ATOM      5  O   UNL A   1      50.520  26.199  26.855  1.00  0.00    -0.376 OA
BRANCH   5   6
ATOM      6  C   UNL A   1      49.729  26.667  25.776  1.00  0.00     0.202 C 
BRANCH   6   7
ATOM      7  C   UNL A   1      48.510  27.578  26.001  1.00  0.00     0.261 C 
BRANCH   7   8
ATOM      8  O   UNL A   1      47.243  26.928  26.126  1.00  0.00    -0.460 OA
BRANCH   8   9
ATOM      9  C   UNL A   1      46.618  26.556  24.995  1.00  0.00     0.338 C 
ATOM     10  O   UNL A   1      47.131  26.343  23.911  1.00  0.00    -0.246 OA
BRANCH   9  11
ATOM     11  C   UNL A   1      45.211  26.255  25.340  1.00  0.00     0.087 C 
ATOM     12  C   UNL A   1      40.003  28.951  27.237  1.00  0.00     0.044 C 
ATOM     13  C   UNL A   1      40.902  27.828  26.815  1.00  0.00    -0.050 A 
ATOM     14  C   UNL A   1      40.468  26.501  26.925  1.00  0.00     0.010 A 
ATOM     15  C   UNL A   1      42.191  28.083  26.333  1.00  0.00     0.015 A 
ATOM     16  C   UNL A   1      41.301  25.435  26.551  1.00  0.00    -0.008 A 
ATOM     17  C   UNL A   1      43.042  27.029  25.986  1.00  0.00     0.018 A 
ATOM     18  C   UNL A   1      40.830  24.017  26.709  1.00  0.00     0.048 C 
ATOM     19  C   UNL A   1      42.586  25.711  26.057  1.00  0.00     0.130 A 
ATOM     20  C   UNL A   1      44.424  27.299  25.628  1.00  0.00     0.027 C 
ATOM     21  O   UNL A   1      43.340  24.638  25.676  1.00  0.00    -0.475 OA
ATOM     22  C   UNL A   1      44.725  24.829  25.282  1.00  0.00     0.316 C 
BRANCH  22  23
ATOM     23  C   UNL A   1      45.590  23.895  26.137  1.00  0.00     0.430 C 
ATOM     24  F   UNL A   1      46.708  23.515  25.478  1.00  0.00    -0.167 F 
ATOM     25  F   UNL A   1      45.983  24.482  27.290  1.00  0.00    -0.167 F 
ATOM     26  F   UNL A   1      44.914  22.768  26.471  1.00  0.00    -0.167 F 
ENDBRANCH  22  23
ENDBRANCH   9  11
ENDBRANCH   8   9
ENDBRANCH   7   8
ENDBRANCH   6   7
ENDBRANCH   5   6
ENDBRANCH   4   5
ENDBRANCH   3   4
ENDBRANCH   2   3
ENDBRANCH   1   2
BRANCH   1  27
ATOM     27  C   UNL A   1      54.195  27.588  25.871  1.00  0.00     0.188 C 
BRANCH  27  28
ATOM     28  O   UNL A   1      53.800  28.860  25.379  1.00  0.00    -0.376 OA
BRANCH  28  29
ATOM     29  C   UNL A   1      53.484  29.865  26.325  1.00  0.00     0.202 C 
BRANCH  29  30
ATOM     30  C   UNL A   1      53.770  31.313  25.908  1.00  0.00     0.261 C 
BRANCH  30  31
ATOM     31  O   UNL A   1      52.637  32.191  25.861  1.00  0.00    -0.460 OA
BRANCH  31  32
ATOM     32  C   UNL A   1      52.387  32.949  26.958  1.00  0.00     0.338 C 
ATOM     33  O   UNL A   1      53.055  33.861  27.384  1.00  0.00    -0.246 OA
BRANCH  32  34
ATOM     34  C   UNL A   1      51.027  32.586  27.420  1.00  0.00     0.060 A 
ATOM     35  C   UNL A   1      50.018  32.378  26.470  1.00  0.00     0.016 A 
ATOM     36  C   UNL A   1      50.768  32.401  28.781  1.00  0.00     0.016 A 
ATOM     37  C   UNL A   1      48.740  32.001  26.884  1.00  0.00     0.010 A 
ATOM     38  C   UNL A   1      49.480  32.048  29.195  1.00  0.00     0.010 A 
ATOM     39  C   UNL A   1      48.454  31.877  28.250  1.00  0.00    -0.014 A 
BRANCH  39  40
ATOM     40  C   UNL A   1      47.039  31.796  28.684  1.00  0.00     0.031 A 
ATOM     41  C   UNL A   1      46.233  33.067  28.690  1.00  0.00     0.074 A 
ATOM     42  C   UNL A   1      46.464  30.626  29.021  1.00  0.00     0.049 A 
ATOM     43  N   UNL A   1      44.968  33.243  28.962  1.00  0.00    -0.248 NA
ATOM     44  C   UNL A   1      46.950  34.304  28.334  1.00  0.00     0.031 C 
ATOM     45  C   UNL A   1      47.136  29.330  29.048  1.00  0.00     0.029 A 
ATOM     46  N   UNL A   1      45.177  30.347  29.411  1.00  0.00    -0.354 N 
ATOM     47  C   UNL A   1      44.738  34.605  28.814  1.00  0.00     0.074 A 
ATOM     48  C   UNL A   1      45.999  35.217  28.463  1.00  0.00     0.031 C 
ATOM     49  C   UNL A   1      46.255  28.391  29.438  1.00  0.00     0.029 A 
ATOM     50  C   UNL A   1      44.961  29.021  29.704  1.00  0.00     0.049 A 
ATOM     51  H   UNL A   1      44.473  31.033  29.473  1.00  0.00     0.167 HD
ATOM     52  C   UNL A   1      43.574  35.284  28.926  1.00  0.00     0.034 A 
ATOM     53  C   UNL A   1      43.848  28.392  30.138  1.00  0.00     0.034 A 
ATOM     54  C   UNL A   1      42.319  34.674  29.260  1.00  0.00     0.049 A 
ATOM     55  C   UNL A   1      42.575  29.185  30.319  1.00  0.00     0.074 A 
ATOM     56  C   UNL A   1      41.078  35.274  29.363  1.00  0.00     0.029 A 
ATOM     57  N   UNL A   1      42.144  33.332  29.558  1.00  0.00    -0.354 N 
ATOM     58  N   UNL A   1      42.342  30.448  30.048  1.00  0.00    -0.248 NA
ATOM     59  C   UNL A   1      41.404  28.465  30.844  1.00  0.00     0.031 C 
ATOM     60  C   UNL A   1      40.157  34.303  29.760  1.00  0.00     0.029 A 
ATOM     61  C   UNL A   1      40.820  33.089  29.870  1.00  0.00     0.049 A 
ATOM     62  H   UNL A   1      42.857  32.653  29.549  1.00  0.00     0.167 HD
ATOM     63  C   UNL A   1      40.999  30.663  30.340  1.00  0.00     0.074 A 
ATOM     64  C   UNL A   1      40.460  29.397  30.789  1.00  0.00     0.031 C 
ATOM     65  C   UNL A   1      40.281  31.811  30.263  1.00  0.00     0.034 A 
BRANCH  52  66
ATOM     66  C   UNL A   1      43.590  36.759  28.636  1.00  0.00     0.023 A 
ATOM     67  C   UNL A   1      43.263  37.213  27.342  1.00  0.00     0.012 A 
ATOM     68  C   UNL A   1      43.839  37.696  29.657  1.00  0.00     0.148 A 
ATOM     69  C   UNL A   1      43.205  38.576  27.061  1.00  0.00     0.002 A 
ATOM     70  C   UNL A   1      43.731  39.054  29.382  1.00  0.00     0.091 A 
ATOM     71  F   UNL A   1      44.168  37.243  30.875  1.00  0.00    -0.205 F 
ATOM     72  C   UNL A   1      43.425  39.495  28.083  1.00  0.00     0.022 A 
BRANCH  70  73
ATOM     73  S   UNL A   1      43.912  40.319  30.644  1.00  0.00     0.127 S 
ATOM     74  O   UNL A   1      42.969  39.856  31.662  1.00  0.00    -0.237 OA
ATOM     75  O   UNL A   1      45.322  40.181  31.011  1.00  0.00    -0.237 OA
ATOM     76  O   UNL A   1      43.565  41.579  30.006  1.00  0.00    -0.744 OA
ENDBRANCH  70  73
ENDBRANCH  52  66
BRANCH  53  77
ATOM     77  C   UNL A   1      43.867  26.919  30.383  1.00  0.00     0.023 A 
ATOM     78  C   UNL A   1      43.566  26.037  29.325  1.00  0.00     0.012 A 
ATOM     79  C   UNL A   1      44.191  26.386  31.646  1.00  0.00     0.148 A 
ATOM     80  C   UNL A   1      43.566  24.657  29.526  1.00  0.00     0.002 A 
ATOM     81  C   UNL A   1      44.243  25.008  31.825  1.00  0.00     0.091 A 
ATOM     82  F   UNL A   1      44.454  27.239  32.645  1.00  0.00    -0.205 F 
ATOM     83  C   UNL A   1      43.915  24.141  30.771  1.00  0.00     0.022 A 
BRANCH  81  84
ATOM     84  S   UNL A   1      44.800  24.249  33.355  1.00  0.00     0.127 S 
ATOM     85  O   UNL A   1      43.805  24.734  34.309  1.00  0.00    -0.237 OA
ATOM     86  O   UNL A   1      44.704  22.825  33.033  1.00  0.00    -0.237 OA
ATOM     87  O   UNL A   1      46.159  24.731  33.564  1.00  0.00    -0.744 OA
ENDBRANCH  81  84
ENDBRANCH  53  77
BRANCH  65  88
ATOM     88  C   UNL A   1      38.828  31.786  30.664  1.00  0.00     0.023 A 
ATOM     89  C   UNL A   1      38.482  31.972  32.016  1.00  0.00     0.012 A 
ATOM     90  C   UNL A   1      37.811  31.756  29.686  1.00  0.00     0.148 A 
ATOM     91  C   UNL A   1      37.147  32.121  32.392  1.00  0.00     0.002 A 
ATOM     92  C   UNL A   1      36.488  31.959  30.062  1.00  0.00     0.091 A 
ATOM     93  F   UNL A   1      38.162  31.574  28.405  1.00  0.00    -0.205 F 
ATOM     94  C   UNL A   1      36.154  32.133  31.415  1.00  0.00     0.022 A 
BRANCH  92  95
ATOM     95  S   UNL A   1      35.150  32.105  28.871  1.00  0.00     0.127 S 
ATOM     96  O   UNL A   1      35.025  30.728  28.394  1.00  0.00    -0.237 OA
ATOM     97  O   UNL A   1      34.042  32.563  29.710  1.00  0.00    -0.237 OA
ATOM     98  O   UNL A   1      35.598  33.065  27.872  1.00  0.00    -0.744 OA
ENDBRANCH  92  95
ENDBRANCH  65  88
ENDBRANCH  39  40
ENDBRANCH  32  34
ENDBRANCH  31  32
ENDBRANCH  30  31
ENDBRANCH  29  30
ENDBRANCH  28  29
ENDBRANCH  27  28
ENDBRANCH   1  27
TORSDOF 24
ENDMDL
MODEL 2
REMARK VINA RESULT:      -6.4      4.297      9.084
REMARK SMILES Cc1cc(C)c2c(c1)C=C(C(=O)OCCOCCOCCOCCOC(=O)c1ccc(-c3c4nc(c(-c5cccc(S(=O)(=O)[O-])c5F)c5ccc([nH]5)c(-c5cccc(S(=O)(=O)[O-])c5F)c5nc(c(-c6cccc(S(=O)(=O)[O-])c6F)c6ccc3[nH]6)C=C5)C=C4)cc1)[C@@H](C(F)(F)F)O2
REMARK SMILES IDX 20 1 19 2 18 3 17 4 16 5 15 6 14 7 13 8 11 9 12 10 10 11
REMARK SMILES IDX 1 12 2 13 3 14 8 15 4 16 7 17 5 18 6 19 9 20 96 21 91 22
REMARK SMILES IDX 92 23 93 24 94 25 95 26 21 27 22 28 23 29 24 30 25 31 26 32
REMARK SMILES IDX 27 33 28 34 29 35 90 36 30 37 89 38 31 39 32 40 33 41 83 42
REMARK SMILES IDX 34 43 88 44 82 45 84 46 35 47 87 48 81 49 80 50 36 52 68 53
REMARK SMILES IDX 48 54 67 55 49 56 52 57 66 58 85 59 50 60 51 61 65 63 86 64
REMARK SMILES IDX 53 65 37 66 38 67 46 68 39 69 41 70 47 71 40 72 42 73 43 74
REMARK SMILES IDX 44 75 45 76 69 77 70 78 78 79 71 80 73 81 79 82 72 83 74 84
REMARK SMILES IDX 75 85 76 86 77 87 54 88 55 89 63 90 56 91 58 92 64 93 57 94
REMARK SMILES IDX 59 95 60 96 61 97 62 98
REMARK H PARENT 84 51 52 62
REMARK Flexibility Score: inf
ROOT
ATOM      1  C   UNL A   1      46.438  25.117  25.316  1.00  0.00     0.188 C 
ENDROOT
BRANCH   1   2
ATOM      2  O   UNL A   1      47.832  25.429  25.325  1.00  0.00    -0.377 OA
BRANCH   2   3
ATOM      3  C   UNL A   1      48.324  26.429  24.451  1.00  0.00     0.188 C 
BRANCH   3   4
ATOM      4  C   UNL A   1      49.319  27.426  25.078  1.00  0.00     0.188 C 
BRANCH   4   5
ATOM      5  O   UNL A   1      48.693  28.562  25.651  1.00  0.00    -0.376 OA
BRANCH   5   6
ATOM      6  C   UNL A   1      48.519  28.647  27.055  1.00  0.00     0.202 C 
BRANCH   6   7
ATOM      7  C   UNL A   1      47.609  29.709  27.695  1.00  0.00     0.261 C 
BRANCH   7   8
ATOM      8  O   UNL A   1      47.632  31.009  27.103  1.00  0.00    -0.460 OA
BRANCH   8   9
ATOM      9  C   UNL A   1      46.522  31.427  26.469  1.00  0.00     0.338 C 
ATOM     10  O   UNL A   1      46.008  30.926  25.485  1.00  0.00    -0.246 OA
BRANCH   9  11
ATOM     11  C   UNL A   1      45.912  32.495  27.291  1.00  0.00     0.087 C 
ATOM     12  C   UNL A   1      40.714  33.951  30.266  1.00  0.00     0.044 C 
ATOM     13  C   UNL A   1      42.112  34.138  29.755  1.00  0.00    -0.050 A 
ATOM     14  C   UNL A   1      42.753  35.374  29.899  1.00  0.00     0.010 A 
ATOM     15  C   UNL A   1      42.784  33.095  29.108  1.00  0.00     0.015 A 
ATOM     16  C   UNL A   1      44.054  35.573  29.412  1.00  0.00    -0.008 A 
ATOM     17  C   UNL A   1      44.069  33.289  28.592  1.00  0.00     0.018 A 
ATOM     18  C   UNL A   1      44.712  36.918  29.544  1.00  0.00     0.048 C 
ATOM     19  C   UNL A   1      44.718  34.512  28.778  1.00  0.00     0.130 A 
ATOM     20  C   UNL A   1      44.696  32.250  27.795  1.00  0.00     0.027 C 
ATOM     21  O   UNL A   1      45.994  34.751  28.355  1.00  0.00    -0.475 OA
ATOM     22  C   UNL A   1      46.699  33.750  27.573  1.00  0.00     0.316 C 
BRANCH  22  23
ATOM     23  C   UNL A   1      47.187  34.421  26.282  1.00  0.00     0.430 C 
ATOM     24  F   UNL A   1      47.507  35.718  26.491  1.00  0.00    -0.167 F 
ATOM     25  F   UNL A   1      48.285  33.813  25.779  1.00  0.00    -0.167 F 
ATOM     26  F   UNL A   1      46.233  34.389  25.320  1.00  0.00    -0.167 F 
ENDBRANCH  22  23
ENDBRANCH   9  11
ENDBRANCH   8   9
ENDBRANCH   7   8
ENDBRANCH   6   7
ENDBRANCH   5   6
ENDBRANCH   4   5
ENDBRANCH   3   4
ENDBRANCH   2   3
ENDBRANCH   1   2
BRANCH   1  27
ATOM     27  C   UNL A   1      45.338  26.171  25.024  1.00  0.00     0.188 C 
BRANCH  27  28
ATOM     28  O   UNL A   1      44.298  26.235  25.989  1.00  0.00    -0.376 OA
BRANCH  28  29
ATOM     29  C   UNL A   1      44.158  25.147  26.883  1.00  0.00     0.202 C 
BRANCH  29  30
ATOM     30  C   UNL A   1      42.782  24.971  27.539  1.00  0.00     0.261 C 
BRANCH  30  31
ATOM     31  O   UNL A   1      42.523  25.789  28.688  1.00  0.00    -0.460 OA
BRANCH  31  32
ATOM     32  C   UNL A   1      43.386  25.696  29.730  1.00  0.00     0.338 C 
ATOM     33  O   UNL A   1      43.997  24.717  30.088  1.00  0.00    -0.246 OA
BRANCH  32  34
ATOM     34  C   UNL A   1      43.602  27.077  30.223  1.00  0.00     0.060 A 
ATOM     35  C   UNL A   1      44.110  27.266  31.515  1.00  0.00     0.016 A 
ATOM     36  C   UNL A   1      43.353  28.172  29.392  1.00  0.00     0.016 A 
ATOM     37  C   UNL A   1      44.353  28.557  31.985  1.00  0.00     0.010 A 
ATOM     38  C   UNL A   1      43.574  29.466  29.873  1.00  0.00     0.010 A 
ATOM     39  C   UNL A   1      44.045  29.664  31.182  1.00  0.00    -0.014 A 
BRANCH  39  40
ATOM     40  C   UNL A   1      44.003  31.010  31.800  1.00  0.00     0.031 A 
ATOM     41  C   UNL A   1      45.217  31.888  31.653  1.00  0.00     0.074 A 
ATOM     42  C   UNL A   1      42.909  31.468  32.435  1.00  0.00     0.049 A 
ATOM     43  N   UNL A   1      45.399  33.121  32.044  1.00  0.00    -0.248 NA
ATOM     44  C   UNL A   1      46.380  31.296  30.968  1.00  0.00     0.031 C 
ATOM     45  C   UNL A   1      41.671  30.718  32.636  1.00  0.00     0.029 A 
ATOM     46  N   UNL A   1      42.668  32.681  33.034  1.00  0.00    -0.354 N 
ATOM     47  C   UNL A   1      46.692  33.451  31.655  1.00  0.00     0.074 A 
ATOM     48  C   UNL A   1      47.264  32.281  31.031  1.00  0.00     0.031 C 
ATOM     49  C   UNL A   1      40.802  31.487  33.316  1.00  0.00     0.029 A 
ATOM     50  C   UNL A   1      41.425  32.778  33.613  1.00  0.00     0.049 A 
ATOM     51  H   UNL A   1      43.326  33.413  33.047  1.00  0.00     0.167 HD
ATOM     52  C   UNL A   1      47.335  34.634  31.776  1.00  0.00     0.034 A 
ATOM     53  C   UNL A   1      40.859  33.791  34.303  1.00  0.00     0.034 A 
ATOM     54  C   UNL A   1      46.762  35.801  32.383  1.00  0.00     0.049 A 
ATOM     55  C   UNL A   1      41.625  35.081  34.482  1.00  0.00     0.074 A 
ATOM     56  C   UNL A   1      47.325  37.056  32.521  1.00  0.00     0.029 A 
ATOM     57  N   UNL A   1      45.505  35.855  32.965  1.00  0.00    -0.354 N 
ATOM     58  N   UNL A   1      42.794  35.422  33.994  1.00  0.00    -0.248 NA
ATOM     59  C   UNL A   1      40.986  36.135  35.286  1.00  0.00     0.031 C 
ATOM     60  C   UNL A   1      46.423  37.861  33.219  1.00  0.00     0.029 A 
ATOM     61  C   UNL A   1      45.284  37.116  33.485  1.00  0.00     0.049 A 
ATOM     62  H   UNL A   1      44.866  35.107  33.002  1.00  0.00     0.167 HD
ATOM     63  C   UNL A   1      43.016  36.733  34.406  1.00  0.00     0.074 A 
ATOM     64  C   UNL A   1      41.851  37.135  35.165  1.00  0.00     0.031 C 
ATOM     65  C   UNL A   1      44.096  37.525  34.192  1.00  0.00     0.034 A 
BRANCH  52  66
ATOM     66  C   UNL A   1      48.718  34.744  31.196  1.00  0.00     0.023 A 
ATOM     67  C   UNL A   1      48.882  35.255  29.893  1.00  0.00     0.012 A 
ATOM     68  C   UNL A   1      49.855  34.429  31.966  1.00  0.00     0.148 A 
ATOM     69  C   UNL A   1      50.156  35.431  29.354  1.00  0.00     0.002 A 
ATOM     70  C   UNL A   1      51.121  34.652  31.440  1.00  0.00     0.091 A 
ATOM     71  F   UNL A   1      49.675  33.925  33.195  1.00  0.00    -0.205 F 
ATOM     72  C   UNL A   1      51.273  35.143  30.132  1.00  0.00     0.022 A 
BRANCH  70  73
ATOM     73  S   UNL A   1      52.625  34.394  32.387  1.00  0.00     0.127 S 
ATOM     74  O   UNL A   1      52.503  32.984  32.754  1.00  0.00    -0.237 OA
ATOM     75  O   UNL A   1      53.661  34.678  31.394  1.00  0.00    -0.237 OA
ATOM     76  O   UNL A   1      52.569  35.330  33.499  1.00  0.00    -0.744 OA
ENDBRANCH  70  73
ENDBRANCH  52  66
BRANCH  53  77
ATOM     77  C   UNL A   1      39.470  33.652  34.834  1.00  0.00     0.023 A 
ATOM     78  C   UNL A   1      38.382  34.084  34.049  1.00  0.00     0.012 A 
ATOM     79  C   UNL A   1      39.218  33.086  36.099  1.00  0.00     0.148 A 
ATOM     80  C   UNL A   1      37.074  33.976  34.523  1.00  0.00     0.002 A 
ATOM     81  C   UNL A   1      37.909  32.931  36.542  1.00  0.00     0.091 A 
ATOM     82  F   UNL A   1      40.265  32.699  36.840  1.00  0.00    -0.205 F 
ATOM     83  C   UNL A   1      36.836  33.390  35.762  1.00  0.00     0.022 A 
BRANCH  81  84
ATOM     84  S   UNL A   1      37.495  32.078  38.068  1.00  0.00     0.127 S 
ATOM     85  O   UNL A   1      36.162  32.603  38.352  1.00  0.00    -0.237 OA
ATOM     86  O   UNL A   1      37.531  30.677  37.646  1.00  0.00    -0.237 OA
ATOM     87  O   UNL A   1      38.533  32.448  39.021  1.00  0.00    -0.744 OA
ENDBRANCH  81  84
ENDBRANCH  53  77
BRANCH  65  88
ATOM     88  C   UNL A   1      44.100  38.917  34.772  1.00  0.00     0.023 A 
ATOM     89  C   UNL A   1      44.773  39.156  35.986  1.00  0.00     0.012 A 
ATOM     90  C   UNL A   1      43.595  40.007  34.033  1.00  0.00     0.148 A 
ATOM     91  C   UNL A   1      44.938  40.457  36.459  1.00  0.00     0.002 A 
ATOM     92  C   UNL A   1      43.810  41.304  34.484  1.00  0.00     0.091 A 
ATOM     93  F   UNL A   1      42.953  39.756  32.883  1.00  0.00    -0.205 F 
ATOM     94  C   UNL A   1      44.474  41.530  35.701  1.00  0.00     0.022 A 
BRANCH  92  95
ATOM     95  S   UNL A   1      43.352  42.755  33.528  1.00  0.00     0.127 S 
ATOM     96  O   UNL A   1      44.042  42.508  32.263  1.00  0.00    -0.237 OA
ATOM     97  O   UNL A   1      41.896  42.632  33.463  1.00  0.00    -0.237 OA
ATOM     98  O   UNL A   1      43.836  43.906  34.280  1.00  0.00    -0.744 OA
ENDBRANCH  92  95
ENDBRANCH  65  88
ENDBRANCH  39  40
ENDBRANCH  32  34
ENDBRANCH  31  32
ENDBRANCH  30  31
ENDBRANCH  29  30
ENDBRANCH  28  29
ENDBRANCH  27  28
ENDBRANCH   1  27
TORSDOF 24
ENDMDL
MODEL 3
REMARK VINA RESULT:      -6.4      4.130     10.526
REMARK SMILES Cc1cc(C)c2c(c1)C=C(C(=O)OCCOCCOCCOCCOC(=O)c1ccc(-c3c4nc(c(-c5cccc(S(=O)(=O)[O-])c5F)c5ccc([nH]5)c(-c5cccc(S(=O)(=O)[O-])c5F)c5nc(c(-c6cccc(S(=O)(=O)[O-])c6F)c6ccc3[nH]6)C=C5)C=C4)cc1)[C@@H](C(F)(F)F)O2
REMARK SMILES IDX 20 1 19 2 18 3 17 4 16 5 15 6 14 7 13 8 11 9 12 10 10 11
REMARK SMILES IDX 1 12 2 13 3 14 8 15 4 16 7 17 5 18 6 19 9 20 96 21 91 22
REMARK SMILES IDX 92 23 93 24 94 25 95 26 21 27 22 28 23 29 24 30 25 31 26 32
REMARK SMILES IDX 27 33 28 34 29 35 90 36 30 37 89 38 31 39 32 40 33 41 83 42
REMARK SMILES IDX 34 43 88 44 82 45 84 46 35 47 87 48 81 49 80 50 36 52 68 53
REMARK SMILES IDX 48 54 67 55 49 56 52 57 66 58 85 59 50 60 51 61 65 63 86 64
REMARK SMILES IDX 53 65 37 66 38 67 46 68 39 69 41 70 47 71 40 72 42 73 43 74
REMARK SMILES IDX 44 75 45 76 69 77 70 78 78 79 71 80 73 81 79 82 72 83 74 84
REMARK SMILES IDX 75 85 76 86 77 87 54 88 55 89 63 90 56 91 58 92 64 93 57 94
REMARK SMILES IDX 59 95 60 96 61 97 62 98
REMARK H PARENT 84 51 52 62
REMARK Flexibility Score: inf
ROOT
ATOM      1  C   UNL A   1      40.242  27.154  28.426  1.00  0.00     0.188 C 
ENDROOT
BRANCH   1   2
ATOM      2  O   UNL A   1      39.660  27.714  29.606  1.00  0.00    -0.377 OA
BRANCH   2   3
ATOM      3  C   UNL A   1      38.486  28.499  29.495  1.00  0.00     0.188 C 
BRANCH   3   4
ATOM      4  C   UNL A   1      38.410  29.403  28.249  1.00  0.00     0.188 C 
BRANCH   4   5
ATOM      5  O   UNL A   1      37.348  30.341  28.296  1.00  0.00    -0.376 OA
BRANCH   5   6
ATOM      6  C   UNL A   1      36.038  29.916  28.634  1.00  0.00     0.202 C 
BRANCH   6   7
ATOM      7  C   UNL A   1      34.872  30.021  27.637  1.00  0.00     0.261 C 
BRANCH   7   8
ATOM      8  O   UNL A   1      34.647  28.888  26.796  1.00  0.00    -0.460 OA
BRANCH   8   9
ATOM      9  C   UNL A   1      33.385  28.438  26.679  1.00  0.00     0.338 C 
ATOM     10  O   UNL A   1      32.380  28.946  27.142  1.00  0.00    -0.246 OA
BRANCH   9  11
ATOM     11  C   UNL A   1      33.399  27.312  25.718  1.00  0.00     0.087 C 
ATOM     12  C   UNL A   1      36.395  22.086  24.415  1.00  0.00     0.044 C 
ATOM     13  C   UNL A   1      35.379  23.175  24.243  1.00  0.00    -0.050 A 
ATOM     14  C   UNL A   1      34.584  23.218  23.091  1.00  0.00     0.010 A 
ATOM     15  C   UNL A   1      35.227  24.174  25.211  1.00  0.00     0.015 A 
ATOM     16  C   UNL A   1      33.639  24.239  22.903  1.00  0.00    -0.008 A 
ATOM     17  C   UNL A   1      34.311  25.214  25.022  1.00  0.00     0.018 A 
ATOM     18  C   UNL A   1      32.820  24.288  21.644  1.00  0.00     0.048 C 
ATOM     19  C   UNL A   1      33.491  25.225  23.891  1.00  0.00     0.130 A 
ATOM     20  C   UNL A   1      34.267  26.322  25.960  1.00  0.00     0.027 C 
ATOM     21  O   UNL A   1      32.534  26.174  23.673  1.00  0.00    -0.475 OA
ATOM     22  C   UNL A   1      32.410  27.301  24.580  1.00  0.00     0.316 C 
BRANCH  22  23
ATOM     23  C   UNL A   1      32.485  28.586  23.745  1.00  0.00     0.430 C 
ATOM     24  F   UNL A   1      33.716  29.143  23.804  1.00  0.00    -0.167 F 
ATOM     25  F   UNL A   1      32.210  28.359  22.440  1.00  0.00    -0.167 F 
ATOM     26  F   UNL A   1      31.599  29.512  24.186  1.00  0.00    -0.167 F 
ENDBRANCH  22  23
ENDBRANCH   9  11
ENDBRANCH   8   9
ENDBRANCH   7   8
ENDBRANCH   6   7
ENDBRANCH   5   6
ENDBRANCH   4   5
ENDBRANCH   3   4
ENDBRANCH   2   3
ENDBRANCH   1   2
BRANCH   1  27
ATOM     27  C   UNL A   1      41.463  26.200  28.459  1.00  0.00     0.188 C 
BRANCH  27  28
ATOM     28  O   UNL A   1      41.203  24.876  28.015  1.00  0.00    -0.376 OA
BRANCH  28  29
ATOM     29  C   UNL A   1      42.311  24.022  27.797  1.00  0.00     0.202 C 
BRANCH  29  30
ATOM     30  C   UNL A   1      43.688  24.572  28.191  1.00  0.00     0.261 C 
BRANCH  30  31
ATOM     31  O   UNL A   1      44.689  24.556  27.165  1.00  0.00    -0.460 OA
BRANCH  31  32
ATOM     32  C   UNL A   1      44.459  25.301  26.055  1.00  0.00     0.338 C 
ATOM     33  O   UNL A   1      44.085  24.909  24.976  1.00  0.00    -0.246 OA
BRANCH  32  34
ATOM     34  C   UNL A   1      44.553  26.720  26.473  1.00  0.00     0.060 A 
ATOM     35  C   UNL A   1      45.553  27.098  27.379  1.00  0.00     0.016 A 
ATOM     36  C   UNL A   1      43.690  27.676  25.931  1.00  0.00     0.016 A 
ATOM     37  C   UNL A   1      45.679  28.435  27.757  1.00  0.00     0.010 A 
ATOM     38  C   UNL A   1      43.802  29.011  26.330  1.00  0.00     0.010 A 
ATOM     39  C   UNL A   1      44.777  29.390  27.268  1.00  0.00    -0.014 A 
BRANCH  39  40
ATOM     40  C   UNL A   1      44.719  30.722  27.916  1.00  0.00     0.031 A 
ATOM     41  C   UNL A   1      43.685  30.936  28.988  1.00  0.00     0.074 A 
ATOM     42  C   UNL A   1      45.583  31.704  27.601  1.00  0.00     0.049 A 
ATOM     43  N   UNL A   1      43.480  31.982  29.743  1.00  0.00    -0.248 NA
ATOM     44  C   UNL A   1      42.763  29.816  29.248  1.00  0.00     0.031 C 
ATOM     45  C   UNL A   1      46.632  31.617  26.588  1.00  0.00     0.029 A 
ATOM     46  N   UNL A   1      45.709  32.976  28.107  1.00  0.00    -0.354 N 
ATOM     47  C   UNL A   1      42.408  31.650  30.563  1.00  0.00     0.074 A 
ATOM     48  C   UNL A   1      41.981  30.321  30.192  1.00  0.00     0.031 C 
ATOM     49  C   UNL A   1      47.292  32.788  26.543  1.00  0.00     0.029 A 
ATOM     50  C   UNL A   1      46.705  33.714  27.512  1.00  0.00     0.049 A 
ATOM     51  H   UNL A   1      45.138  33.325  28.829  1.00  0.00     0.167 HD
ATOM     52  C   UNL A   1      41.850  32.372  31.560  1.00  0.00     0.034 A 
ATOM     53  C   UNL A   1      47.094  34.989  27.726  1.00  0.00     0.034 A 
ATOM     54  C   UNL A   1      42.284  33.686  31.938  1.00  0.00     0.049 A 
ATOM     55  C   UNL A   1      46.410  35.799  28.802  1.00  0.00     0.074 A 
ATOM     56  C   UNL A   1      41.802  34.484  32.959  1.00  0.00     0.029 A 
ATOM     57  N   UNL A   1      43.289  34.402  31.306  1.00  0.00    -0.354 N 
ATOM     58  N   UNL A   1      45.487  35.425  29.657  1.00  0.00    -0.248 NA
ATOM     59  C   UNL A   1      46.834  37.199  28.961  1.00  0.00     0.031 C 
ATOM     60  C   UNL A   1      42.490  35.698  32.923  1.00  0.00     0.029 A 
ATOM     61  C   UNL A   1      43.425  35.642  31.900  1.00  0.00     0.049 A 
ATOM     62  H   UNL A   1      43.824  34.075  30.548  1.00  0.00     0.167 HD
ATOM     63  C   UNL A   1      45.243  36.528  30.469  1.00  0.00     0.074 A 
ATOM     64  C   UNL A   1      46.130  37.581  30.020  1.00  0.00     0.031 C 
ATOM     65  C   UNL A   1      44.351  36.665  31.481  1.00  0.00     0.034 A 
BRANCH  52  66
ATOM     66  C   UNL A   1      40.738  31.738  32.349  1.00  0.00     0.023 A 
ATOM     67  C   UNL A   1      41.027  31.141  33.593  1.00  0.00     0.012 A 
ATOM     68  C   UNL A   1      39.403  31.811  31.908  1.00  0.00     0.148 A 
ATOM     69  C   UNL A   1      40.007  30.606  34.377  1.00  0.00     0.002 A 
ATOM     70  C   UNL A   1      38.387  31.318  32.716  1.00  0.00     0.091 A 
ATOM     71  F   UNL A   1      39.154  32.364  30.712  1.00  0.00    -0.205 F 
ATOM     72  C   UNL A   1      38.687  30.706  33.945  1.00  0.00     0.022 A 
BRANCH  70  73
ATOM     73  S   UNL A   1      36.648  31.472  32.294  1.00  0.00     0.127 S 
ATOM     74  O   UNL A   1      36.713  32.248  31.056  1.00  0.00    -0.237 OA
ATOM     75  O   UNL A   1      36.253  30.074  32.118  1.00  0.00    -0.237 OA
ATOM     76  O   UNL A   1      36.017  32.150  33.417  1.00  0.00    -0.744 OA
ENDBRANCH  70  73
ENDBRANCH  52  66
BRANCH  53  77
ATOM     77  C   UNL A   1      48.225  35.569  26.943  1.00  0.00     0.023 A 
ATOM     78  C   UNL A   1      47.956  36.239  25.731  1.00  0.00     0.012 A 
ATOM     79  C   UNL A   1      49.556  35.475  27.391  1.00  0.00     0.148 A 
ATOM     80  C   UNL A   1      48.993  36.783  24.973  1.00  0.00     0.002 A 
ATOM     81  C   UNL A   1      50.579  36.067  26.657  1.00  0.00     0.091 A 
ATOM     82  F   UNL A   1      49.796  34.817  28.533  1.00  0.00    -0.205 F 
ATOM     83  C   UNL A   1      50.302  36.707  25.440  1.00  0.00     0.022 A 
BRANCH  81  84
ATOM     84  S   UNL A   1      52.279  36.129  27.237  1.00  0.00     0.127 S 
ATOM     85  O   UNL A   1      52.989  36.565  26.037  1.00  0.00    -0.237 OA
ATOM     86  O   UNL A   1      52.194  37.129  28.302  1.00  0.00    -0.237 OA
ATOM     87  O   UNL A   1      52.589  34.782  27.696  1.00  0.00    -0.744 OA
ENDBRANCH  81  84
ENDBRANCH  53  77
BRANCH  65  88
ATOM     88  C   UNL A   1      44.265  37.988  32.198  1.00  0.00     0.023 A 
ATOM     89  C   UNL A   1      44.993  38.177  33.388  1.00  0.00     0.012 A 
ATOM     90  C   UNL A   1      43.610  39.088  31.605  1.00  0.00     0.148 A 
ATOM     91  C   UNL A   1      45.068  39.437  33.982  1.00  0.00     0.002 A 
ATOM     92  C   UNL A   1      43.733  40.351  32.173  1.00  0.00     0.091 A 
ATOM     93  F   UNL A   1      42.918  38.886  30.475  1.00  0.00    -0.205 F 
ATOM     94  C   UNL A   1      44.454  40.525  33.365  1.00  0.00     0.022 A 
BRANCH  92  95
ATOM     95  S   UNL A   1      43.077  41.834  31.398  1.00  0.00     0.127 S 
ATOM     96  O   UNL A   1      41.637  41.586  31.453  1.00  0.00    -0.237 OA
ATOM     97  O   UNL A   1      43.550  42.885  32.299  1.00  0.00    -0.237 OA
ATOM     98  O   UNL A   1      43.644  41.877  30.057  1.00  0.00    -0.744 OA
ENDBRANCH  92  95
ENDBRANCH  65  88
ENDBRANCH  39  40
ENDBRANCH  32  34
ENDBRANCH  31  32
ENDBRANCH  30  31
ENDBRANCH  29  30
ENDBRANCH  28  29
ENDBRANCH  27  28
ENDBRANCH   1  27
TORSDOF 24
ENDMDL
