MODEL 1
REMARK VINA RESULT:      -8.9      0.000      0.000
REMARK SMILES Cc1ccc(S(=O)(=O)n2cc(C(=O)C(=O)NCC(=O)NCC(=O)OCCOCCOCCOCCOC(=O)c3ccc(-c4c5nc(c(-c6cccc(S(=O)(=O)[O-])c6F)c6ccc([nH]6)c(-c6cccc(S(=O)(=O)[O-])c6F)c6nc(c(-c7cccc(S(=O)(=O)[O-])c7F)c7ccc4[nH]7)C=C6)C=C5)cc3)c3ccccc32)cc1
REMARK SMILES IDX 28 1 27 2 26 3 25 4 24 5 22 6 23 7 21 8 20 9 18 10 19 11
REMARK SMILES IDX 17 13 16 14 14 15 15 16 12 18 13 19 11 20 9 21 10 22 107 23
REMARK SMILES IDX 102 24 106 25 103 26 105 27 104 28 6 29 7 30 8 31 5 32 1 33
REMARK SMILES IDX 2 34 3 35 109 36 4 37 108 38 29 39 30 40 31 41 32 42 33 43
REMARK SMILES IDX 34 44 35 45 36 46 37 47 38 48 39 49 40 50 101 51 41 52
REMARK SMILES IDX 100 53 42 54 43 55 44 56 94 57 45 58 99 59 93 60 95 61 46 62
REMARK SMILES IDX 98 63 92 64 91 65 47 67 79 68 59 69 78 70 60 71 63 72 77 73
REMARK SMILES IDX 96 74 61 75 62 76 76 78 97 79 64 80 48 81 49 82 57 83 50 84
REMARK SMILES IDX 52 85 58 86 51 87 53 88 54 89 55 90 56 91 80 92 81 93 89 94
REMARK SMILES IDX 82 95 84 96 90 97 83 98 85 99 86 100 87 101 88 102 65 103
REMARK SMILES IDX 66 104 74 105 67 106 69 107 75 108 68 109 70 110 71 111
REMARK SMILES IDX 72 112 73 113
REMARK H PARENT 20 12 16 17 95 66 63 77
REMARK Flexibility Score: inf
ROOT
ATOM      1  C   UNL A   1      33.122  28.750  25.676  1.00  0.00     0.188 C 
ENDROOT
BRANCH   1   2
ATOM      2  O   UNL A   1      33.489  27.919  24.587  1.00  0.00    -0.376 OA
BRANCH   2   3
ATOM      3  C   UNL A   1      32.536  26.857  24.371  1.00  0.00     0.202 C 
BRANCH   3   4
ATOM      4  C   UNL A   1      31.151  27.036  25.031  1.00  0.00     0.261 C 
BRANCH   4   5
ATOM      5  O   UNL A   1      30.614  25.757  25.471  1.00  0.00    -0.462 OA
BRANCH   5   6
ATOM      6  C   UNL A   1      30.671  24.732  24.594  1.00  0.00     0.325 C 
ATOM      7  O   UNL A   1      30.146  24.725  23.485  1.00  0.00    -0.250 OA
BRANCH   6   8
ATOM      8  C   UNL A   1      31.596  23.584  25.051  1.00  0.00     0.238 C 
BRANCH   8   9
ATOM      9  N   UNL A   1      31.961  22.448  24.195  1.00  0.00    -0.344 N 
ATOM     10  C   UNL A   1      32.818  21.421  24.450  1.00  0.00     0.239 C 
ATOM     11  O   UNL A   1      32.762  20.391  23.777  1.00  0.00    -0.273 OA
ATOM     12  H   UNL A   1      31.525  22.427  23.312  1.00  0.00     0.164 HD
BRANCH  10  13
ATOM     13  C   UNL A   1      33.905  21.614  25.487  1.00  0.00     0.216 C 
BRANCH  13  14
ATOM     14  N   UNL A   1      34.077  23.046  25.665  1.00  0.00    -0.340 N 
ATOM     15  C   UNL A   1      35.089  23.883  25.264  1.00  0.00     0.292 C 
ATOM     16  O   UNL A   1      34.992  25.083  25.491  1.00  0.00    -0.265 OA
ATOM     17  H   UNL A   1      33.346  23.490  26.153  1.00  0.00     0.164 HD
BRANCH  15  18
ATOM     18  C   UNL A   1      36.317  23.323  24.511  1.00  0.00     0.252 C 
ATOM     19  O   UNL A   1      36.224  23.155  23.297  1.00  0.00    -0.283 OA
BRANCH  18  20
ATOM     20  C   UNL A   1      37.558  22.995  25.217  1.00  0.00     0.054 A 
ATOM     21  N   UNL A   1      39.450  23.193  26.390  1.00  0.00    -0.240 N 
ATOM     22  C   UNL A   1      38.449  23.894  25.770  1.00  0.00     0.117 A 
ATOM     23  C   UNL A   1      39.357  21.848  26.088  1.00  0.00     0.065 A 
ATOM     24  C   UNL A   1      38.145  21.694  25.397  1.00  0.00     0.012 A 
ATOM     25  C   UNL A   1      40.218  20.763  26.325  1.00  0.00     0.028 A 
ATOM     26  C   UNL A   1      37.760  20.393  25.003  1.00  0.00     0.011 A 
ATOM     27  C   UNL A   1      39.836  19.500  25.868  1.00  0.00     0.002 A 
ATOM     28  C   UNL A   1      38.615  19.312  25.232  1.00  0.00     0.001 A 
BRANCH  21  29
ATOM     29  S   UNL A   1      40.796  23.937  27.131  1.00  0.00     0.268 S 
ATOM     30  O   UNL A   1      41.858  23.858  26.178  1.00  0.00    -0.201 OA
ATOM     31  O   UNL A   1      40.842  23.381  28.484  1.00  0.00    -0.201 OA
BRANCH  29  32
ATOM     32  C   UNL A   1      40.357  25.641  27.337  1.00  0.00     0.088 A 
ATOM     33  C   UNL A   1      39.229  29.715  28.061  1.00  0.00     0.044 C 
ATOM     34  C   UNL A   1      39.616  28.293  27.796  1.00  0.00    -0.051 A 
ATOM     35  C   UNL A   1      39.073  27.262  28.576  1.00  0.00     0.005 A 
ATOM     36  C   UNL A   1      40.511  27.979  26.768  1.00  0.00     0.005 A 
ATOM     37  C   UNL A   1      39.444  25.937  28.351  1.00  0.00     0.022 A 
ATOM     38  C   UNL A   1      40.878  26.655  26.531  1.00  0.00     0.022 A 
ENDBRANCH  29  32
ENDBRANCH  21  29
ENDBRANCH  18  20
ENDBRANCH  15  18
ENDBRANCH  13  14
ENDBRANCH  10  13
ENDBRANCH   8   9
ENDBRANCH   6   8
ENDBRANCH   5   6
ENDBRANCH   4   5
ENDBRANCH   3   4
ENDBRANCH   2   3
ENDBRANCH   1   2
BRANCH   1  39
ATOM     39  C   UNL A   1      34.126  28.902  26.804  1.00  0.00     0.188 C 
BRANCH  39  40
ATOM     40  O   UNL A   1      34.053  30.174  27.475  1.00  0.00    -0.377 OA
BRANCH  40  41
ATOM     41  C   UNL A   1      35.290  30.872  27.702  1.00  0.00     0.188 C 
BRANCH  41  42
ATOM     42  C   UNL A   1      35.126  32.379  27.852  1.00  0.00     0.188 C 
BRANCH  42  43
ATOM     43  O   UNL A   1      33.901  32.689  28.511  1.00  0.00    -0.376 OA
BRANCH  43  44
ATOM     44  C   UNL A   1      33.488  34.052  28.458  1.00  0.00     0.202 C 
BRANCH  44  45
ATOM     45  C   UNL A   1      33.826  34.886  29.697  1.00  0.00     0.261 C 
BRANCH  45  46
ATOM     46  O   UNL A   1      33.720  34.073  30.875  1.00  0.00    -0.460 OA
BRANCH  46  47
ATOM     47  C   UNL A   1      34.691  34.316  31.798  1.00  0.00     0.338 C 
ATOM     48  O   UNL A   1      34.787  35.358  32.422  1.00  0.00    -0.246 OA
BRANCH  47  49
ATOM     49  C   UNL A   1      35.692  33.212  31.767  1.00  0.00     0.060 A 
ATOM     50  C   UNL A   1      35.806  32.350  32.863  1.00  0.00     0.016 A 
ATOM     51  C   UNL A   1      36.702  33.237  30.810  1.00  0.00     0.016 A 
ATOM     52  C   UNL A   1      37.027  31.718  33.133  1.00  0.00     0.010 A 
ATOM     53  C   UNL A   1      37.929  32.691  31.131  1.00  0.00     0.010 A 
ATOM     54  C   UNL A   1      38.126  32.003  32.339  1.00  0.00    -0.014 A 
BRANCH  54  55
ATOM     55  C   UNL A   1      39.530  31.739  32.684  1.00  0.00     0.031 A 
ATOM     56  C   UNL A   1      40.125  30.448  32.225  1.00  0.00     0.074 A 
ATOM     57  C   UNL A   1      40.349  32.786  32.979  1.00  0.00     0.049 A 
ATOM     58  N   UNL A   1      41.386  30.184  32.241  1.00  0.00    -0.248 NA
ATOM     59  C   UNL A   1      39.336  29.333  31.706  1.00  0.00     0.031 C 
ATOM     60  C   UNL A   1      41.752  32.881  32.580  1.00  0.00     0.029 A 
ATOM     61  N   UNL A   1      40.145  33.989  33.673  1.00  0.00    -0.354 N 
ATOM     62  C   UNL A   1      41.609  29.042  31.511  1.00  0.00     0.074 A 
ATOM     63  C   UNL A   1      40.295  28.497  31.287  1.00  0.00     0.031 C 
ATOM     64  C   UNL A   1      42.307  33.999  33.049  1.00  0.00     0.029 A 
ATOM     65  C   UNL A   1      41.406  34.510  34.045  1.00  0.00     0.049 A 
ATOM     66  H   UNL A   1      39.271  34.399  33.868  1.00  0.00     0.167 HD
ATOM     67  C   UNL A   1      42.883  28.772  31.104  1.00  0.00     0.034 A 
ATOM     68  C   UNL A   1      41.841  34.766  35.315  1.00  0.00     0.034 A 
ATOM     69  C   UNL A   1      43.859  29.635  31.810  1.00  0.00     0.049 A 
ATOM     70  C   UNL A   1      42.871  33.742  35.792  1.00  0.00     0.074 A 
ATOM     71  C   UNL A   1      44.781  30.597  31.434  1.00  0.00     0.029 A 
ATOM     72  N   UNL A   1      43.813  29.694  33.204  1.00  0.00    -0.354 N 
ATOM     73  N   UNL A   1      43.492  32.899  35.006  1.00  0.00    -0.248 NA
ATOM     74  C   UNL A   1      43.236  33.533  37.189  1.00  0.00     0.031 C 
ATOM     75  C   UNL A   1      45.103  31.356  32.596  1.00  0.00     0.029 A 
ATOM     76  C   UNL A   1      44.605  30.710  33.708  1.00  0.00     0.049 A 
ATOM     77  H   UNL A   1      43.279  29.084  33.763  1.00  0.00     0.167 HD
ATOM     78  C   UNL A   1      44.178  31.964  35.735  1.00  0.00     0.074 A 
ATOM     79  C   UNL A   1      44.009  32.434  37.105  1.00  0.00     0.031 C 
ATOM     80  C   UNL A   1      44.773  30.866  35.156  1.00  0.00     0.034 A 
BRANCH  67  81
ATOM     81  C   UNL A   1      43.272  27.821  29.972  1.00  0.00     0.023 A 
ATOM     82  C   UNL A   1      43.227  26.434  30.241  1.00  0.00     0.012 A 
ATOM     83  C   UNL A   1      43.775  28.178  28.692  1.00  0.00     0.148 A 
ATOM     84  C   UNL A   1      43.655  25.468  29.316  1.00  0.00     0.002 A 
ATOM     85  C   UNL A   1      44.134  27.214  27.741  1.00  0.00     0.091 A 
ATOM     86  F   UNL A   1      44.005  29.460  28.399  1.00  0.00    -0.205 F 
ATOM     87  C   UNL A   1      44.093  25.856  28.058  1.00  0.00     0.022 A 
BRANCH  85  88
ATOM     88  S   UNL A   1      44.664  27.638  26.067  1.00  0.00     0.127 S 
ATOM     89  O   UNL A   1      43.670  28.636  25.671  1.00  0.00    -0.237 OA
ATOM     90  O   UNL A   1      46.007  28.174  26.289  1.00  0.00    -0.237 OA
ATOM     91  O   UNL A   1      44.628  26.400  25.298  1.00  0.00    -0.744 OA
ENDBRANCH  85  88
ENDBRANCH  67  81
BRANCH  68  92
ATOM     92  C   UNL A   1      40.883  35.583  36.101  1.00  0.00     0.023 A 
ATOM     93  C   UNL A   1      39.652  34.933  36.370  1.00  0.00     0.012 A 
ATOM     94  C   UNL A   1      41.391  36.500  37.024  1.00  0.00     0.148 A 
ATOM     95  C   UNL A   1      39.075  35.007  37.637  1.00  0.00     0.002 A 
ATOM     96  C   UNL A   1      40.873  36.483  38.313  1.00  0.00     0.091 A 
ATOM     97  F   UNL A   1      42.486  37.194  36.693  1.00  0.00    -0.205 F 
ATOM     98  C   UNL A   1      39.728  35.729  38.628  1.00  0.00     0.022 A 
BRANCH  96  99
ATOM     99  S   UNL A   1      41.897  36.993  39.702  1.00  0.00     0.127 S 
ATOM    100  O   UNL A   1      42.010  38.432  39.504  1.00  0.00    -0.237 OA
ATOM    101  O   UNL A   1      41.062  36.579  40.826  1.00  0.00    -0.237 OA
ATOM    102  O   UNL A   1      43.127  36.226  39.559  1.00  0.00    -0.744 OA
ENDBRANCH  96  99
ENDBRANCH  68  92
BRANCH  80 103
ATOM    103  C   UNL A   1      45.573  29.802  35.914  1.00  0.00     0.023 A 
ATOM    104  C   UNL A   1      46.896  29.484  35.561  1.00  0.00     0.012 A 
ATOM    105  C   UNL A   1      45.008  29.016  36.960  1.00  0.00     0.148 A 
ATOM    106  C   UNL A   1      47.678  28.597  36.312  1.00  0.00     0.002 A 
ATOM    107  C   UNL A   1      45.772  28.101  37.681  1.00  0.00     0.091 A 
ATOM    108  F   UNL A   1      43.712  29.118  37.261  1.00  0.00    -0.205 F 
ATOM    109  C   UNL A   1      47.123  27.926  37.391  1.00  0.00     0.022 A 
BRANCH 107 110
ATOM    110  S   UNL A   1      45.082  27.073  38.989  1.00  0.00     0.127 S 
ATOM    111  O   UNL A   1      46.214  26.198  39.305  1.00  0.00    -0.237 OA
ATOM    112  O   UNL A   1      44.778  28.068  40.018  1.00  0.00    -0.237 OA
ATOM    113  O   UNL A   1      43.922  26.400  38.427  1.00  0.00    -0.744 OA
ENDBRANCH 107 110
ENDBRANCH  80 103
ENDBRANCH  54  55
ENDBRANCH  47  49
ENDBRANCH  46  47
ENDBRANCH  45  46
ENDBRANCH  44  45
ENDBRANCH  43  44
ENDBRANCH  42  43
ENDBRANCH  41  42
ENDBRANCH  40  41
ENDBRANCH  39  40
ENDBRANCH   1  39
TORSDOF 30
ENDMDL
MODEL 2
REMARK VINA RESULT:      -8.7      3.478      8.320
REMARK SMILES Cc1ccc(S(=O)(=O)n2cc(C(=O)C(=O)NCC(=O)NCC(=O)OCCOCCOCCOCCOC(=O)c3ccc(-c4c5nc(c(-c6cccc(S(=O)(=O)[O-])c6F)c6ccc([nH]6)c(-c6cccc(S(=O)(=O)[O-])c6F)c6nc(c(-c7cccc(S(=O)(=O)[O-])c7F)c7ccc4[nH]7)C=C6)C=C5)cc3)c3ccccc32)cc1
REMARK SMILES IDX 28 1 27 2 26 3 25 4 24 5 22 6 23 7 21 8 20 9 18 10 19 11
REMARK SMILES IDX 17 13 16 14 14 15 15 16 12 18 13 19 11 20 9 21 10 22 107 23
REMARK SMILES IDX 102 24 106 25 103 26 105 27 104 28 6 29 7 30 8 31 5 32 1 33
REMARK SMILES IDX 2 34 3 35 109 36 4 37 108 38 29 39 30 40 31 41 32 42 33 43
REMARK SMILES IDX 34 44 35 45 36 46 37 47 38 48 39 49 40 50 101 51 41 52
REMARK SMILES IDX 100 53 42 54 43 55 44 56 94 57 45 58 99 59 93 60 95 61 46 62
REMARK SMILES IDX 98 63 92 64 91 65 47 67 79 68 59 69 78 70 60 71 63 72 77 73
REMARK SMILES IDX 96 74 61 75 62 76 76 78 97 79 64 80 48 81 49 82 57 83 50 84
REMARK SMILES IDX 52 85 58 86 51 87 53 88 54 89 55 90 56 91 80 92 81 93 89 94
REMARK SMILES IDX 82 95 84 96 90 97 83 98 85 99 86 100 87 101 88 102 65 103
REMARK SMILES IDX 66 104 74 105 67 106 69 107 75 108 68 109 70 110 71 111
REMARK SMILES IDX 72 112 73 113
REMARK H PARENT 20 12 16 17 95 66 63 77
REMARK Flexibility Score: inf
ROOT
ATOM      1  C   UNL A   1      33.447  29.559  27.007  1.00  0.00     0.188 C 
ENDROOT
BRANCH   1   2
ATOM      2  O   UNL A   1      34.189  28.661  26.198  1.00  0.00    -0.376 OA
BRANCH   2   3
ATOM      3  C   UNL A   1      33.607  27.340  26.181  1.00  0.00     0.202 C 
BRANCH   3   4
ATOM      4  C   UNL A   1      32.067  27.269  26.280  1.00  0.00     0.261 C 
BRANCH   4   5
ATOM      5  O   UNL A   1      31.643  26.062  26.972  1.00  0.00    -0.462 OA
BRANCH   5   6
ATOM      6  C   UNL A   1      31.536  24.935  26.233  1.00  0.00     0.325 C 
ATOM      7  O   UNL A   1      31.299  24.904  25.030  1.00  0.00    -0.250 OA
BRANCH   6   8
ATOM      8  C   UNL A   1      31.887  23.653  27.016  1.00  0.00     0.238 C 
BRANCH   8   9
ATOM      9  N   UNL A   1      32.333  22.409  26.376  1.00  0.00    -0.344 N 
ATOM     10  C   UNL A   1      33.440  21.659  26.635  1.00  0.00     0.239 C 
ATOM     11  O   UNL A   1      33.496  20.491  26.248  1.00  0.00    -0.273 OA
ATOM     12  H   UNL A   1      31.750  22.070  25.659  1.00  0.00     0.164 HD
BRANCH  10  13
ATOM     13  C   UNL A   1      34.633  22.317  27.295  1.00  0.00     0.216 C 
BRANCH  13  14
ATOM     14  N   UNL A   1      35.150  23.302  26.360  1.00  0.00    -0.340 N 
ATOM     15  C   UNL A   1      36.319  23.326  25.640  1.00  0.00     0.292 C 
ATOM     16  O   UNL A   1      36.522  24.254  24.867  1.00  0.00    -0.265 OA
ATOM     17  H   UNL A   1      34.565  24.081  26.219  1.00  0.00     0.164 HD
BRANCH  15  18
ATOM     18  C   UNL A   1      37.350  22.182  25.781  1.00  0.00     0.252 C 
ATOM     19  O   UNL A   1      36.981  21.037  25.529  1.00  0.00    -0.283 OA
BRANCH  18  20
ATOM     20  C   UNL A   1      38.726  22.446  26.206  1.00  0.00     0.054 A 
ATOM     21  N   UNL A   1      40.563  23.497  26.925  1.00  0.00    -0.240 N 
ATOM     22  C   UNL A   1      39.267  23.678  26.519  1.00  0.00     0.117 A 
ATOM     23  C   UNL A   1      40.964  22.195  26.697  1.00  0.00     0.065 A 
ATOM     24  C   UNL A   1      39.810  21.504  26.296  1.00  0.00     0.012 A 
ATOM     25  C   UNL A   1      42.217  21.563  26.775  1.00  0.00     0.028 A 
ATOM     26  C   UNL A   1      39.915  20.118  26.041  1.00  0.00     0.011 A 
ATOM     27  C   UNL A   1      42.297  20.206  26.457  1.00  0.00     0.002 A 
ATOM     28  C   UNL A   1      41.159  19.486  26.113  1.00  0.00     0.001 A 
BRANCH  21  29
ATOM     29  S   UNL A   1      41.609  24.786  27.325  1.00  0.00     0.268 S 
ATOM     30  O   UNL A   1      42.335  25.083  26.130  1.00  0.00    -0.201 OA
ATOM     31  O   UNL A   1      42.216  24.402  28.601  1.00  0.00    -0.201 OA
BRANCH  29  32
ATOM     32  C   UNL A   1      40.561  26.165  27.699  1.00  0.00     0.088 A 
ATOM     33  C   UNL A   1      38.049  29.574  28.377  1.00  0.00     0.044 C 
ATOM     34  C   UNL A   1      38.933  28.387  28.152  1.00  0.00    -0.051 A 
ATOM     35  C   UNL A   1      39.842  28.383  27.085  1.00  0.00     0.005 A 
ATOM     36  C   UNL A   1      38.868  27.279  29.004  1.00  0.00     0.005 A 
ATOM     37  C   UNL A   1      40.655  27.273  26.855  1.00  0.00     0.022 A 
ATOM     38  C   UNL A   1      39.684  26.171  28.786  1.00  0.00     0.022 A 
ENDBRANCH  29  32
ENDBRANCH  21  29
ENDBRANCH  18  20
ENDBRANCH  15  18
ENDBRANCH  13  14
ENDBRANCH  10  13
ENDBRANCH   8   9
ENDBRANCH   6   8
ENDBRANCH   5   6
ENDBRANCH   4   5
ENDBRANCH   3   4
ENDBRANCH   2   3
ENDBRANCH   1   2
BRANCH   1  39
ATOM     39  C   UNL A   1      34.229  30.605  27.781  1.00  0.00     0.188 C 
BRANCH  39  40
ATOM     40  O   UNL A   1      33.577  31.887  27.840  1.00  0.00    -0.377 OA
BRANCH  40  41
ATOM     41  C   UNL A   1      34.399  33.032  28.125  1.00  0.00     0.188 C 
BRANCH  41  42
ATOM     42  C   UNL A   1      33.631  34.348  28.147  1.00  0.00     0.188 C 
BRANCH  42  43
ATOM     43  O   UNL A   1      32.780  34.415  29.287  1.00  0.00    -0.376 OA
BRANCH  43  44
ATOM     44  C   UNL A   1      33.068  35.448  30.226  1.00  0.00     0.202 C 
BRANCH  44  45
ATOM     45  C   UNL A   1      33.481  34.969  31.620  1.00  0.00     0.261 C 
BRANCH  45  46
ATOM     46  O   UNL A   1      34.124  33.689  31.523  1.00  0.00    -0.460 OA
BRANCH  46  47
ATOM     47  C   UNL A   1      34.664  33.257  32.696  1.00  0.00     0.338 C 
ATOM     48  O   UNL A   1      34.039  33.169  33.738  1.00  0.00    -0.246 OA
BRANCH  47  49
ATOM     49  C   UNL A   1      36.139  33.108  32.538  1.00  0.00     0.060 A 
ATOM     50  C   UNL A   1      36.870  32.397  33.495  1.00  0.00     0.016 A 
ATOM     51  C   UNL A   1      36.811  33.926  31.635  1.00  0.00     0.016 A 
ATOM     52  C   UNL A   1      38.221  32.700  33.714  1.00  0.00     0.010 A 
ATOM     53  C   UNL A   1      38.113  34.290  31.916  1.00  0.00     0.010 A 
ATOM     54  C   UNL A   1      38.800  33.746  33.014  1.00  0.00    -0.014 A 
BRANCH  54  55
ATOM     55  C   UNL A   1      40.051  34.432  33.368  1.00  0.00     0.031 A 
ATOM     56  C   UNL A   1      40.166  34.994  34.748  1.00  0.00     0.074 A 
ATOM     57  C   UNL A   1      41.182  34.158  32.660  1.00  0.00     0.049 A 
ATOM     58  N   UNL A   1      41.267  35.403  35.274  1.00  0.00    -0.248 NA
ATOM     59  C   UNL A   1      39.031  35.145  35.656  1.00  0.00     0.031 C 
ATOM     60  C   UNL A   1      42.519  34.054  33.240  1.00  0.00     0.029 A 
ATOM     61  N   UNL A   1      41.416  33.903  31.300  1.00  0.00    -0.354 N 
ATOM     62  C   UNL A   1      41.070  35.597  36.620  1.00  0.00     0.074 A 
ATOM     63  C   UNL A   1      39.641  35.522  36.787  1.00  0.00     0.031 C 
ATOM     64  C   UNL A   1      43.432  33.820  32.297  1.00  0.00     0.029 A 
ATOM     65  C   UNL A   1      42.792  34.095  31.039  1.00  0.00     0.049 A 
ATOM     66  H   UNL A   1      40.735  33.635  30.641  1.00  0.00     0.167 HD
ATOM     67  C   UNL A   1      42.165  35.690  37.429  1.00  0.00     0.034 A 
ATOM     68  C   UNL A   1      43.339  34.984  30.158  1.00  0.00     0.034 A 
ATOM     69  C   UNL A   1      43.400  35.872  36.630  1.00  0.00     0.049 A 
ATOM     70  C   UNL A   1      43.991  36.173  30.863  1.00  0.00     0.074 A 
ATOM     71  C   UNL A   1      44.571  35.159  36.446  1.00  0.00     0.029 A 
ATOM     72  N   UNL A   1      43.433  36.889  35.674  1.00  0.00    -0.354 N 
ATOM     73  N   UNL A   1      44.265  36.212  32.143  1.00  0.00    -0.248 NA
ATOM     74  C   UNL A   1      44.323  37.434  30.210  1.00  0.00     0.031 C 
ATOM     75  C   UNL A   1      45.174  35.632  35.244  1.00  0.00     0.029 A 
ATOM     76  C   UNL A   1      44.536  36.789  34.846  1.00  0.00     0.049 A 
ATOM     77  H   UNL A   1      42.751  37.595  35.598  1.00  0.00     0.167 HD
ATOM     78  C   UNL A   1      44.632  37.475  32.526  1.00  0.00     0.074 A 
ATOM     79  C   UNL A   1      44.685  38.196  31.259  1.00  0.00     0.031 C 
ATOM     80  C   UNL A   1      44.806  37.826  33.846  1.00  0.00     0.034 A 
BRANCH  67  81
ATOM     81  C   UNL A   1      42.170  35.491  38.944  1.00  0.00     0.023 A 
ATOM     82  C   UNL A   1      42.133  36.648  39.755  1.00  0.00     0.012 A 
ATOM     83  C   UNL A   1      42.309  34.260  39.642  1.00  0.00     0.148 A 
ATOM     84  C   UNL A   1      42.234  36.597  41.155  1.00  0.00     0.002 A 
ATOM     85  C   UNL A   1      42.336  34.202  41.042  1.00  0.00     0.091 A 
ATOM     86  F   UNL A   1      42.511  33.127  38.966  1.00  0.00    -0.205 F 
ATOM     87  C   UNL A   1      42.318  35.372  41.801  1.00  0.00     0.022 A 
BRANCH  85  88
ATOM     88  S   UNL A   1      42.394  32.645  41.957  1.00  0.00     0.127 S 
ATOM     89  O   UNL A   1      41.136  32.680  42.706  1.00  0.00    -0.237 OA
ATOM     90  O   UNL A   1      42.433  31.652  40.884  1.00  0.00    -0.237 OA
ATOM     91  O   UNL A   1      43.596  32.695  42.779  1.00  0.00    -0.744 OA
ENDBRANCH  85  88
ENDBRANCH  67  81
BRANCH  68  92
ATOM     92  C   UNL A   1      42.739  34.898  28.803  1.00  0.00     0.023 A 
ATOM     93  C   UNL A   1      42.171  36.114  28.343  1.00  0.00     0.012 A 
ATOM     94  C   UNL A   1      43.298  34.011  27.882  1.00  0.00     0.148 A 
ATOM     95  C   UNL A   1      42.385  36.544  27.034  1.00  0.00     0.002 A 
ATOM     96  C   UNL A   1      43.600  34.492  26.613  1.00  0.00     0.091 A 
ATOM     97  F   UNL A   1      43.713  32.817  28.321  1.00  0.00    -0.205 F 
ATOM     98  C   UNL A   1      43.161  35.760  26.190  1.00  0.00     0.022 A 
BRANCH  96  99
ATOM     99  S   UNL A   1      44.950  33.763  25.672  1.00  0.00     0.127 S 
ATOM    100  O   UNL A   1      44.273  33.245  24.491  1.00  0.00    -0.237 OA
ATOM    101  O   UNL A   1      45.793  34.934  25.448  1.00  0.00    -0.237 OA
ATOM    102  O   UNL A   1      45.533  32.771  26.565  1.00  0.00    -0.744 OA
ENDBRANCH  96  99
ENDBRANCH  68  92
BRANCH  80 103
ATOM    103  C   UNL A   1      45.239  39.212  34.334  1.00  0.00     0.023 A 
ATOM    104  C   UNL A   1      46.468  39.413  34.986  1.00  0.00     0.012 A 
ATOM    105  C   UNL A   1      44.399  40.359  34.235  1.00  0.00     0.148 A 
ATOM    106  C   UNL A   1      46.929  40.688  35.337  1.00  0.00     0.002 A 
ATOM    107  C   UNL A   1      44.837  41.623  34.623  1.00  0.00     0.091 A 
ATOM    108  F   UNL A   1      43.147  40.246  33.787  1.00  0.00    -0.205 F 
ATOM    109  C   UNL A   1      46.124  41.798  35.129  1.00  0.00     0.022 A 
BRANCH 107 110
ATOM    110  S   UNL A   1      43.792  43.086  34.537  1.00  0.00     0.127 S 
ATOM    111  O   UNL A   1      42.870  42.857  35.652  1.00  0.00    -0.237 OA
ATOM    112  O   UNL A   1      44.763  44.157  34.762  1.00  0.00    -0.237 OA
ATOM    113  O   UNL A   1      43.177  43.086  33.219  1.00  0.00    -0.744 OA
ENDBRANCH 107 110
ENDBRANCH  80 103
ENDBRANCH  54  55
ENDBRANCH  47  49
ENDBRANCH  46  47
ENDBRANCH  45  46
ENDBRANCH  44  45
ENDBRANCH  43  44
ENDBRANCH  42  43
ENDBRANCH  41  42
ENDBRANCH  40  41
ENDBRANCH  39  40
ENDBRANCH   1  39
TORSDOF 30
ENDMDL
MODEL 3
REMARK VINA RESULT:      -8.7      1.903      2.204
REMARK SMILES Cc1ccc(S(=O)(=O)n2cc(C(=O)C(=O)NCC(=O)NCC(=O)OCCOCCOCCOCCOC(=O)c3ccc(-c4c5nc(c(-c6cccc(S(=O)(=O)[O-])c6F)c6ccc([nH]6)c(-c6cccc(S(=O)(=O)[O-])c6F)c6nc(c(-c7cccc(S(=O)(=O)[O-])c7F)c7ccc4[nH]7)C=C6)C=C5)cc3)c3ccccc32)cc1
REMARK SMILES IDX 28 1 27 2 26 3 25 4 24 5 22 6 23 7 21 8 20 9 18 10 19 11
REMARK SMILES IDX 17 13 16 14 14 15 15 16 12 18 13 19 11 20 9 21 10 22 107 23
REMARK SMILES IDX 102 24 106 25 103 26 105 27 104 28 6 29 7 30 8 31 5 32 1 33
REMARK SMILES IDX 2 34 3 35 109 36 4 37 108 38 29 39 30 40 31 41 32 42 33 43
REMARK SMILES IDX 34 44 35 45 36 46 37 47 38 48 39 49 40 50 101 51 41 52
REMARK SMILES IDX 100 53 42 54 43 55 44 56 94 57 45 58 99 59 93 60 95 61 46 62
REMARK SMILES IDX 98 63 92 64 91 65 47 67 79 68 59 69 78 70 60 71 63 72 77 73
REMARK SMILES IDX 96 74 61 75 62 76 76 78 97 79 64 80 48 81 49 82 57 83 50 84
REMARK SMILES IDX 52 85 58 86 51 87 53 88 54 89 55 90 56 91 80 92 81 93 89 94
REMARK SMILES IDX 82 95 84 96 90 97 83 98 85 99 86 100 87 101 88 102 65 103
REMARK SMILES IDX 66 104 74 105 67 106 69 107 75 108 68 109 70 110 71 111
REMARK SMILES IDX 72 112 73 113
REMARK H PARENT 20 12 16 17 95 66 63 77
REMARK Flexibility Score: inf
ROOT
ATOM      1  C   UNL A   1      33.143  28.678  25.633  1.00  0.00     0.188 C 
ENDROOT
BRANCH   1   2
ATOM      2  O   UNL A   1      33.429  27.932  24.461  1.00  0.00    -0.376 OA
BRANCH   2   3
ATOM      3  C   UNL A   1      32.418  26.938  24.191  1.00  0.00     0.202 C 
BRANCH   3   4
ATOM      4  C   UNL A   1      31.047  27.154  24.871  1.00  0.00     0.261 C 
BRANCH   4   5
ATOM      5  O   UNL A   1      30.462  25.887  25.278  1.00  0.00    -0.462 OA
BRANCH   5   6
ATOM      6  C   UNL A   1      30.558  24.857  24.408  1.00  0.00     0.325 C 
ATOM      7  O   UNL A   1      30.099  24.853  23.270  1.00  0.00    -0.250 OA
BRANCH   6   8
ATOM      8  C   UNL A   1      31.443  23.701  24.921  1.00  0.00     0.238 C 
BRANCH   8   9
ATOM      9  N   UNL A   1      31.921  22.607  24.068  1.00  0.00    -0.344 N 
ATOM     10  C   UNL A   1      32.792  21.604  24.366  1.00  0.00     0.239 C 
ATOM     11  O   UNL A   1      32.832  20.594  23.662  1.00  0.00    -0.273 OA
ATOM     12  H   UNL A   1      31.562  22.597  23.151  1.00  0.00     0.164 HD
BRANCH  10  13
ATOM     13  C   UNL A   1      33.780  21.802  25.496  1.00  0.00     0.216 C 
BRANCH  13  14
ATOM     14  N   UNL A   1      34.026  23.230  25.603  1.00  0.00    -0.340 N 
ATOM     15  C   UNL A   1      35.070  23.997  25.146  1.00  0.00     0.292 C 
ATOM     16  O   UNL A   1      35.037  25.209  25.317  1.00  0.00    -0.265 OA
ATOM     17  H   UNL A   1      33.327  23.732  26.082  1.00  0.00     0.164 HD
BRANCH  15  18
ATOM     18  C   UNL A   1      36.254  23.341  24.399  1.00  0.00     0.252 C 
ATOM     19  O   UNL A   1      36.137  23.141  23.192  1.00  0.00    -0.283 OA
BRANCH  18  20
ATOM     20  C   UNL A   1      37.482  22.963  25.102  1.00  0.00     0.054 A 
ATOM     21  N   UNL A   1      39.387  23.084  26.265  1.00  0.00    -0.240 N 
ATOM     22  C   UNL A   1      38.416  23.825  25.643  1.00  0.00     0.117 A 
ATOM     23  C   UNL A   1      39.230  21.742  25.977  1.00  0.00     0.065 A 
ATOM     24  C   UNL A   1      38.009  21.638  25.292  1.00  0.00     0.012 A 
ATOM     25  C   UNL A   1      40.041  20.621  26.221  1.00  0.00     0.028 A 
ATOM     26  C   UNL A   1      37.563  20.352  24.913  1.00  0.00     0.011 A 
ATOM     27  C   UNL A   1      39.599  19.372  25.778  1.00  0.00     0.002 A 
ATOM     28  C   UNL A   1      38.368  19.235  25.149  1.00  0.00     0.001 A 
BRANCH  21  29
ATOM     29  S   UNL A   1      40.769  23.772  26.993  1.00  0.00     0.268 S 
ATOM     30  O   UNL A   1      41.798  23.718  26.002  1.00  0.00    -0.201 OA
ATOM     31  O   UNL A   1      40.849  23.156  28.318  1.00  0.00    -0.201 OA
BRANCH  29  32
ATOM     32  C   UNL A   1      40.368  25.473  27.289  1.00  0.00     0.088 A 
ATOM     33  C   UNL A   1      39.522  29.645  27.808  1.00  0.00     0.044 C 
ATOM     34  C   UNL A   1      39.822  28.187  27.640  1.00  0.00    -0.051 A 
ATOM     35  C   UNL A   1      40.929  27.782  26.883  1.00  0.00     0.005 A 
ATOM     36  C   UNL A   1      39.008  27.221  28.241  1.00  0.00     0.005 A 
ATOM     37  C   UNL A   1      41.204  26.427  26.703  1.00  0.00     0.022 A 
ATOM     38  C   UNL A   1      39.282  25.865  28.074  1.00  0.00     0.022 A 
ENDBRANCH  29  32
ENDBRANCH  21  29
ENDBRANCH  18  20
ENDBRANCH  15  18
ENDBRANCH  13  14
ENDBRANCH  10  13
ENDBRANCH   8   9
ENDBRANCH   6   8
ENDBRANCH   5   6
ENDBRANCH   4   5
ENDBRANCH   3   4
ENDBRANCH   2   3
ENDBRANCH   1   2
BRANCH   1  39
ATOM     39  C   UNL A   1      34.180  28.658  26.741  1.00  0.00     0.188 C 
BRANCH  39  40
ATOM     40  O   UNL A   1      34.217  29.868  27.520  1.00  0.00    -0.377 OA
BRANCH  40  41
ATOM     41  C   UNL A   1      35.507  30.456  27.763  1.00  0.00     0.188 C 
BRANCH  41  42
ATOM     42  C   UNL A   1      35.455  31.950  28.057  1.00  0.00     0.188 C 
BRANCH  42  43
ATOM     43  O   UNL A   1      34.264  32.283  28.764  1.00  0.00    -0.376 OA
BRANCH  43  44
ATOM     44  C   UNL A   1      33.958  33.672  28.859  1.00  0.00     0.202 C 
BRANCH  44  45
ATOM     45  C   UNL A   1      34.421  34.357  30.147  1.00  0.00     0.261 C 
BRANCH  45  46
ATOM     46  O   UNL A   1      34.393  33.420  31.234  1.00  0.00    -0.460 OA
BRANCH  46  47
ATOM     47  C   UNL A   1      35.428  33.564  32.108  1.00  0.00     0.338 C 
ATOM     48  O   UNL A   1      35.582  34.539  32.822  1.00  0.00    -0.246 OA
BRANCH  47  49
ATOM     49  C   UNL A   1      36.408  32.460  31.902  1.00  0.00     0.060 A 
ATOM     50  C   UNL A   1      36.436  31.384  32.795  1.00  0.00     0.016 A 
ATOM     51  C   UNL A   1      37.477  32.654  31.032  1.00  0.00     0.016 A 
ATOM     52  C   UNL A   1      37.626  30.670  32.995  1.00  0.00     0.010 A 
ATOM     53  C   UNL A   1      38.671  32.014  31.300  1.00  0.00     0.010 A 
ATOM     54  C   UNL A   1      38.778  31.081  32.344  1.00  0.00    -0.014 A 
BRANCH  54  55
ATOM     55  C   UNL A   1      40.153  30.706  32.705  1.00  0.00     0.031 A 
ATOM     56  C   UNL A   1      40.709  29.454  32.109  1.00  0.00     0.074 A 
ATOM     57  C   UNL A   1      41.004  31.666  33.162  1.00  0.00     0.049 A 
ATOM     58  N   UNL A   1      41.954  29.128  32.139  1.00  0.00    -0.248 NA
ATOM     59  C   UNL A   1      39.893  28.453  31.424  1.00  0.00     0.031 C 
ATOM     60  C   UNL A   1      42.426  31.740  32.831  1.00  0.00     0.029 A 
ATOM     61  N   UNL A   1      40.824  32.781  33.994  1.00  0.00    -0.354 N 
ATOM     62  C   UNL A   1      42.158  28.076  31.279  1.00  0.00     0.074 A 
ATOM     63  C   UNL A   1      40.831  27.630  30.938  1.00  0.00     0.031 C 
ATOM     64  C   UNL A   1      43.010  32.761  33.458  1.00  0.00     0.029 A 
ATOM     65  C   UNL A   1      42.089  33.188  34.477  1.00  0.00     0.049 A 
ATOM     66  H   UNL A   1      39.962  33.207  34.206  1.00  0.00     0.167 HD
ATOM     67  C   UNL A   1      43.434  27.795  30.890  1.00  0.00     0.034 A 
ATOM     68  C   UNL A   1      42.480  33.261  35.784  1.00  0.00     0.034 A 
ATOM     69  C   UNL A   1      44.417  28.513  31.735  1.00  0.00     0.049 A 
ATOM     70  C   UNL A   1      43.441  32.136  36.166  1.00  0.00     0.074 A 
ATOM     71  C   UNL A   1      45.396  29.467  31.519  1.00  0.00     0.029 A 
ATOM     72  N   UNL A   1      44.312  28.400  33.123  1.00  0.00    -0.354 N 
ATOM     73  N   UNL A   1      44.057  31.368  35.303  1.00  0.00    -0.248 NA
ATOM     74  C   UNL A   1      43.735  31.736  37.538  1.00  0.00     0.031 C 
ATOM     75  C   UNL A   1      45.701  30.059  32.780  1.00  0.00     0.029 A 
ATOM     76  C   UNL A   1      45.126  29.305  33.782  1.00  0.00     0.049 A 
ATOM     77  H   UNL A   1      43.727  27.753  33.580  1.00  0.00     0.167 HD
ATOM     78  C   UNL A   1      44.668  30.316  35.933  1.00  0.00     0.074 A 
ATOM     79  C   UNL A   1      44.461  30.619  37.345  1.00  0.00     0.031 C 
ATOM     80  C   UNL A   1      45.238  29.270  35.243  1.00  0.00     0.034 A 
BRANCH  67  81
ATOM     81  C   UNL A   1      43.830  26.974  29.662  1.00  0.00     0.023 A 
ATOM     82  C   UNL A   1      43.792  25.566  29.780  1.00  0.00     0.012 A 
ATOM     83  C   UNL A   1      44.331  27.471  28.429  1.00  0.00     0.148 A 
ATOM     84  C   UNL A   1      44.227  24.709  28.756  1.00  0.00     0.002 A 
ATOM     85  C   UNL A   1      44.696  26.618  27.380  1.00  0.00     0.091 A 
ATOM     86  F   UNL A   1      44.553  28.779  28.276  1.00  0.00    -0.205 F 
ATOM     87  C   UNL A   1      44.662  25.233  27.548  1.00  0.00     0.022 A 
BRANCH  85  88
ATOM     88  S   UNL A   1      45.224  27.223  25.761  1.00  0.00     0.127 S 
ATOM     89  O   UNL A   1      44.160  28.170  25.423  1.00  0.00    -0.237 OA
ATOM     90  O   UNL A   1      46.514  27.844  26.064  1.00  0.00    -0.237 OA
ATOM     91  O   UNL A   1      45.305  26.056  24.892  1.00  0.00    -0.744 OA
ENDBRANCH  85  88
ENDBRANCH  67  81
BRANCH  68  92
ATOM     92  C   UNL A   1      41.526  34.021  36.631  1.00  0.00     0.023 A 
ATOM     93  C   UNL A   1      41.245  35.329  36.157  1.00  0.00     0.012 A 
ATOM     94  C   UNL A   1      40.539  33.315  37.320  1.00  0.00     0.148 A 
ATOM     95  C   UNL A   1      39.938  35.813  36.150  1.00  0.00     0.002 A 
ATOM     96  C   UNL A   1      39.225  33.756  37.212  1.00  0.00     0.091 A 
ATOM     97  F   UNL A   1      40.865  32.138  37.868  1.00  0.00    -0.205 F 
ATOM     98  C   UNL A   1      38.919  34.993  36.616  1.00  0.00     0.022 A 
BRANCH  96  99
ATOM     99  S   UNL A   1      37.868  32.584  37.358  1.00  0.00     0.127 S 
ATOM    100  O   UNL A   1      37.990  32.123  38.734  1.00  0.00    -0.237 OA
ATOM    101  O   UNL A   1      36.725  33.451  37.087  1.00  0.00    -0.237 OA
ATOM    102  O   UNL A   1      38.121  31.591  36.323  1.00  0.00    -0.744 OA
ENDBRANCH  96  99
ENDBRANCH  68  92
BRANCH  80 103
ATOM    103  C   UNL A   1      45.955  28.081  35.889  1.00  0.00     0.023 A 
ATOM    104  C   UNL A   1      45.348  26.817  35.985  1.00  0.00     0.012 A 
ATOM    105  C   UNL A   1      47.237  28.197  36.503  1.00  0.00     0.148 A 
ATOM    106  C   UNL A   1      46.030  25.694  36.469  1.00  0.00     0.002 A 
ATOM    107  C   UNL A   1      47.901  27.090  37.026  1.00  0.00     0.091 A 
ATOM    108  F   UNL A   1      47.828  29.388  36.618  1.00  0.00    -0.205 F 
ATOM    109  C   UNL A   1      47.319  25.825  36.964  1.00  0.00     0.022 A 
BRANCH 107 110
ATOM    110  S   UNL A   1      49.506  27.207  37.832  1.00  0.00     0.127 S 
ATOM    111  O   UNL A   1      49.718  25.825  38.270  1.00  0.00    -0.237 OA
ATOM    112  O   UNL A   1      50.363  27.632  36.725  1.00  0.00    -0.237 OA
ATOM    113  O   UNL A   1      49.367  28.179  38.906  1.00  0.00    -0.744 OA
ENDBRANCH 107 110
ENDBRANCH  80 103
ENDBRANCH  54  55
ENDBRANCH  47  49
ENDBRANCH  46  47
ENDBRANCH  45  46
ENDBRANCH  44  45
ENDBRANCH  43  44
ENDBRANCH  42  43
ENDBRANCH  41  42
ENDBRANCH  40  41
ENDBRANCH  39  40
ENDBRANCH   1  39
TORSDOF 30
ENDMDL
