MODEL 1
REMARK VINA RESULT:     -10.2      0.000      0.000
REMARK SMILES Cc1ccccc1/C=C1\SC(=O)N(CC(=O)Nc2ccccc2C(=O)OCCOCCOCCOCCOC(=O)c2ccc(-c3c4nc(c(-c5cccc(S(=O)(=O)[O-])c5F)c5ccc([nH]5)c(-c5cccc(S(=O)(=O)[O-])c5F)c5nc(c(-c6cccc(S(=O)(=O)[O-])c6F)c6ccc3[nH]6)C=C5)C=C4)cc2)C1=O
REMARK SMILES IDX 31 1 30 2 29 3 28 4 27 5 26 6 24 7 25 8 23 9 18 10 19 11
REMARK SMILES IDX 20 12 22 13 21 14 17 15 15 16 16 17 14 19 13 20 8 21 9 22
REMARK SMILES IDX 10 23 104 24 11 25 105 26 12 27 7 28 1 29 2 30 3 31 4 32
REMARK SMILES IDX 6 33 5 34 32 35 33 36 34 37 35 38 36 39 37 40 38 41 39 42
REMARK SMILES IDX 40 43 41 44 42 45 103 46 43 47 102 48 44 49 45 50 46 51
REMARK SMILES IDX 96 52 47 53 101 54 95 55 97 56 48 57 100 58 94 59 93 60
REMARK SMILES IDX 49 62 81 63 61 64 80 65 62 66 65 67 79 68 98 69 63 70 64 71
REMARK SMILES IDX 78 73 99 74 66 75 50 76 51 77 59 78 52 79 54 80 60 81 53 82
REMARK SMILES IDX 55 83 56 84 57 85 58 86 82 87 83 88 91 89 84 90 86 91 92 92
REMARK SMILES IDX 85 93 87 94 88 95 89 96 90 97 67 98 68 99 76 100 69 101
REMARK SMILES IDX 71 102 77 103 70 104 72 105 73 106 74 107 75 108
REMARK H PARENT 17 18 97 61 65 72
REMARK Flexibility Score: inf
ROOT
ATOM      1  C   UNL A   1      39.667  29.088  30.287  1.00  0.00     0.188 C 
ENDROOT
BRANCH   1   2
ATOM      2  C   UNL A   1      39.433  27.601  29.537  1.00  0.00     0.188 C 
BRANCH   2   3
ATOM      3  O   UNL A   1      39.106  26.895  27.909  1.00  0.00    -0.376 OA
BRANCH   3   4
ATOM      4  C   UNL A   1      39.358  25.247  27.207  1.00  0.00     0.202 C 
BRANCH   4   5
ATOM      5  C   UNL A   1      38.086  23.839  26.773  1.00  0.00     0.261 C 
BRANCH   5   6
ATOM      6  O   UNL A   1      37.574  22.335  25.778  1.00  0.00    -0.460 OA
BRANCH   6   7
ATOM      7  C   UNL A   1      37.188  20.880  25.119  1.00  0.00     0.340 C 
ATOM      8  O   UNL A   1      38.035  20.112  24.616  1.00  0.00    -0.246 OA
BRANCH   7   9
ATOM      9  C   UNL A   1      35.821  19.991  24.772  1.00  0.00     0.083 A 
ATOM     10  C   UNL A   1      34.404  20.286  24.558  1.00  0.00     0.055 A 
ATOM     11  C   UNL A   1      33.535  19.261  24.113  1.00  0.00     0.027 A 
ATOM     12  C   UNL A   1      33.924  17.934  24.072  1.00  0.00     0.002 A 
ATOM     13  C   UNL A   1      36.078  18.605  24.915  1.00  0.00     0.018 A 
ATOM     14  C   UNL A   1      35.174  17.598  24.546  1.00  0.00     0.001 A 
BRANCH  10  15
ATOM     15  N   UNL A   1      33.741  21.545  24.773  1.00  0.00    -0.324 N 
ATOM     16  C   UNL A   1      32.825  21.804  25.835  1.00  0.00     0.244 C 
ATOM     17  O   UNL A   1      33.146  21.864  27.024  1.00  0.00    -0.273 OA
ATOM     18  H   UNL A   1      33.934  22.278  24.143  1.00  0.00     0.170 HD
BRANCH  16  19
ATOM     19  C   UNL A   1      31.319  21.962  25.427  1.00  0.00     0.230 C 
BRANCH  19  20
ATOM     20  N   UNL A   1      31.056  23.365  25.548  1.00  0.00    -0.259 N 
ATOM     21  C   UNL A   1      29.562  26.876  23.717  1.00  0.00     0.029 C 
ATOM     22  C   UNL A   1      29.810  25.456  24.423  1.00  0.00     0.083 C 
ATOM     23  S   UNL A   1      29.381  24.908  26.188  1.00  0.00    -0.022 SA
ATOM     24  C   UNL A   1      30.928  24.126  24.385  1.00  0.00     0.268 C 
ATOM     25  C   UNL A   1      30.393  23.680  26.658  1.00  0.00     0.294 C 
ATOM     26  O   UNL A   1      31.485  23.572  23.448  1.00  0.00    -0.268 OA
ATOM     27  O   UNL A   1      30.292  23.075  27.705  1.00  0.00    -0.261 OA
BRANCH  21  28
ATOM     28  C   UNL A   1      29.009  28.592  23.262  1.00  0.00    -0.021 A 
ATOM     29  C   UNL A   1      30.245  30.207  21.623  1.00  0.00     0.045 C 
ATOM     30  C   UNL A   1      29.710  29.851  23.060  1.00  0.00    -0.044 A 
ATOM     31  C   UNL A   1      29.218  31.117  23.521  1.00  0.00     0.004 A 
ATOM     32  C   UNL A   1      27.865  31.300  23.597  1.00  0.00     0.000 A 
ATOM     33  C   UNL A   1      27.657  28.911  23.016  1.00  0.00     0.008 A 
ATOM     34  C   UNL A   1      27.094  30.220  23.204  1.00  0.00     0.001 A 
ENDBRANCH  21  28
ENDBRANCH  19  20
ENDBRANCH  16  19
ENDBRANCH  10  15
ENDBRANCH   7   9
ENDBRANCH   6   7
ENDBRANCH   5   6
ENDBRANCH   4   5
ENDBRANCH   3   4
ENDBRANCH   2   3
ENDBRANCH   1   2
BRANCH   1  35
ATOM     35  O   UNL A   1      40.545  29.572  31.310  1.00  0.00    -0.377 OA
BRANCH  35  36
ATOM     36  C   UNL A   1      41.449  28.750  32.062  1.00  0.00     0.188 C 
BRANCH  36  37
ATOM     37  C   UNL A   1      40.940  28.095  33.325  1.00  0.00     0.188 C 
BRANCH  37  38
ATOM     38  O   UNL A   1      41.219  28.980  34.379  1.00  0.00    -0.376 OA
BRANCH  38  39
ATOM     39  C   UNL A   1      40.309  30.035  34.579  1.00  0.00     0.202 C 
BRANCH  39  40
ATOM     40  C   UNL A   1      40.977  31.059  35.478  1.00  0.00     0.261 C 
BRANCH  40  41
ATOM     41  O   UNL A   1      41.297  32.239  34.695  1.00  0.00    -0.460 OA
BRANCH  41  42
ATOM     42  C   UNL A   1      40.424  33.292  34.851  1.00  0.00     0.338 C 
ATOM     43  O   UNL A   1      39.280  33.287  34.428  1.00  0.00    -0.246 OA
BRANCH  42  44
ATOM     44  C   UNL A   1      41.157  34.505  35.338  1.00  0.00     0.060 A 
ATOM     45  C   UNL A   1      40.955  35.782  34.810  1.00  0.00     0.016 A 
ATOM     46  C   UNL A   1      42.281  34.333  36.083  1.00  0.00     0.016 A 
ATOM     47  C   UNL A   1      42.037  36.730  34.682  1.00  0.00     0.010 A 
ATOM     48  C   UNL A   1      43.307  35.265  35.909  1.00  0.00     0.010 A 
ATOM     49  C   UNL A   1      43.373  36.417  34.985  1.00  0.00    -0.014 A 
BRANCH  49  50
ATOM     50  C   UNL A   1      44.898  37.276  34.277  1.00  0.00     0.031 A 
ATOM     51  C   UNL A   1      45.396  39.220  34.707  1.00  0.00     0.074 A 
ATOM     52  C   UNL A   1      45.214  36.349  33.184  1.00  0.00     0.049 A 
ATOM     53  N   UNL A   1      45.270  40.408  33.972  1.00  0.00    -0.248 NA
ATOM     54  C   UNL A   1      45.602  40.085  36.079  1.00  0.00     0.031 C 
ATOM     55  C   UNL A   1      46.497  35.832  32.636  1.00  0.00     0.029 A 
ATOM     56  N   UNL A   1      44.401  36.090  31.974  1.00  0.00    -0.354 N 
ATOM     57  C   UNL A   1      45.826  41.730  34.461  1.00  0.00     0.074 A 
ATOM     58  C   UNL A   1      45.780  41.405  35.860  1.00  0.00     0.031 C 
ATOM     59  C   UNL A   1      46.458  35.709  31.289  1.00  0.00     0.029 A 
ATOM     60  C   UNL A   1      45.203  36.194  30.776  1.00  0.00     0.049 A 
ATOM     61  H   UNL A   1      43.440  35.877  31.984  1.00  0.00     0.167 HD
ATOM     62  C   UNL A   1      46.529  42.895  33.799  1.00  0.00     0.034 A 
ATOM     63  C   UNL A   1      44.894  36.754  29.534  1.00  0.00     0.034 A 
ATOM     64  C   UNL A   1      47.302  42.837  32.277  1.00  0.00     0.049 A 
ATOM     65  C   UNL A   1      45.500  38.142  28.736  1.00  0.00     0.074 A 
ATOM     66  C   UNL A   1      48.637  42.648  31.812  1.00  0.00     0.029 A 
ATOM     67  N   UNL A   1      46.763  43.001  30.968  1.00  0.00    -0.354 N 
ATOM     68  N   UNL A   1      45.978  39.269  29.258  1.00  0.00    -0.248 NA
ATOM     69  C   UNL A   1      45.481  38.344  27.275  1.00  0.00     0.031 C 
ATOM     70  C   UNL A   1      48.628  41.964  30.543  1.00  0.00     0.029 A 
ATOM     71  C   UNL A   1      47.344  42.032  30.027  1.00  0.00     0.049 A 
ATOM     72  H   UNL A   1      46.088  43.674  30.727  1.00  0.00     0.167 HD
ATOM     73  C   UNL A   1      46.339  40.290  28.353  1.00  0.00     0.074 A 
ATOM     74  C   UNL A   1      45.981  39.600  27.101  1.00  0.00     0.031 C 
ATOM     75  C   UNL A   1      46.774  41.622  28.660  1.00  0.00     0.034 A 
BRANCH  62  76
ATOM     76  C   UNL A   1      47.154  44.047  34.706  1.00  0.00     0.023 A 
ATOM     77  C   UNL A   1      46.324  45.155  35.021  1.00  0.00     0.012 A 
ATOM     78  C   UNL A   1      48.469  44.150  35.210  1.00  0.00     0.148 A 
ATOM     79  C   UNL A   1      46.788  46.360  35.556  1.00  0.00     0.002 A 
ATOM     80  C   UNL A   1      48.954  45.368  35.732  1.00  0.00     0.091 A 
ATOM     81  F   UNL A   1      49.236  43.054  35.268  1.00  0.00    -0.205 F 
ATOM     82  C   UNL A   1      48.122  46.484  35.868  1.00  0.00     0.022 A 
BRANCH  80  83
ATOM     83  S   UNL A   1      50.670  45.631  36.214  1.00  0.00     0.127 S 
ATOM     84  O   UNL A   1      50.877  44.583  37.217  1.00  0.00    -0.237 OA
ATOM     85  O   UNL A   1      51.384  45.412  34.956  1.00  0.00    -0.237 OA
ATOM     86  O   UNL A   1      50.732  46.985  36.747  1.00  0.00    -0.744 OA
ENDBRANCH  80  83
ENDBRANCH  62  76
BRANCH  63  87
ATOM     87  C   UNL A   1      43.870  35.769  28.971  1.00  0.00     0.023 A 
ATOM     88  C   UNL A   1      42.632  36.390  28.631  1.00  0.00     0.012 A 
ATOM     89  C   UNL A   1      44.337  34.758  28.104  1.00  0.00     0.148 A 
ATOM     90  C   UNL A   1      42.083  36.244  27.348  1.00  0.00     0.002 A 
ATOM     91  C   UNL A   1      43.784  34.614  26.829  1.00  0.00     0.091 A 
ATOM     92  F   UNL A   1      45.387  34.025  28.476  1.00  0.00    -0.205 F 
ATOM     93  C   UNL A   1      42.693  35.397  26.428  1.00  0.00     0.022 A 
BRANCH  91  94
ATOM     94  S   UNL A   1      44.618  33.622  25.575  1.00  0.00     0.127 S 
ATOM     95  O   UNL A   1      44.205  34.285  24.344  1.00  0.00    -0.237 OA
ATOM     96  O   UNL A   1      46.029  33.798  25.929  1.00  0.00    -0.237 OA
ATOM     97  O   UNL A   1      44.123  32.271  25.790  1.00  0.00    -0.744 OA
ENDBRANCH  91  94
ENDBRANCH  63  87
BRANCH  75  98
ATOM     98  C   UNL A   1      46.553  42.864  27.727  1.00  0.00     0.023 A 
ATOM     99  C   UNL A   1      45.317  43.517  27.599  1.00  0.00     0.012 A 
ATOM    100  C   UNL A   1      47.680  43.621  27.286  1.00  0.00     0.148 A 
ATOM    101  C   UNL A   1      45.225  44.872  27.227  1.00  0.00     0.002 A 
ATOM    102  C   UNL A   1      47.604  44.997  27.078  1.00  0.00     0.091 A 
ATOM    103  F   UNL A   1      48.865  43.027  27.075  1.00  0.00    -0.205 F 
ATOM    104  C   UNL A   1      46.373  45.633  27.046  1.00  0.00     0.022 A 
BRANCH 102 105
ATOM    105  S   UNL A   1      49.111  45.987  27.171  1.00  0.00     0.127 S 
ATOM    106  O   UNL A   1      48.589  47.341  27.317  1.00  0.00    -0.237 OA
ATOM    107  O   UNL A   1      49.775  45.453  28.362  1.00  0.00    -0.237 OA
ATOM    108  O   UNL A   1      49.798  45.673  25.921  1.00  0.00    -0.744 OA
ENDBRANCH 102 105
ENDBRANCH  75  98
ENDBRANCH  49  50
ENDBRANCH  42  44
ENDBRANCH  41  42
ENDBRANCH  40  41
ENDBRANCH  39  40
ENDBRANCH  38  39
ENDBRANCH  37  38
ENDBRANCH  36  37
ENDBRANCH  35  36
ENDBRANCH   1  35
TORSDOF 27
ENDMDL
MODEL 2
REMARK VINA RESULT:      -9.7      6.358     13.927
REMARK SMILES Cc1ccccc1/C=C1\SC(=O)N(CC(=O)Nc2ccccc2C(=O)OCCOCCOCCOCCOC(=O)c2ccc(-c3c4nc(c(-c5cccc(S(=O)(=O)[O-])c5F)c5ccc([nH]5)c(-c5cccc(S(=O)(=O)[O-])c5F)c5nc(c(-c6cccc(S(=O)(=O)[O-])c6F)c6ccc3[nH]6)C=C5)C=C4)cc2)C1=O
REMARK SMILES IDX 31 1 30 2 29 3 28 4 27 5 26 6 24 7 25 8 23 9 18 10 19 11
REMARK SMILES IDX 20 12 22 13 21 14 17 15 15 16 16 17 14 19 13 20 8 21 9 22
REMARK SMILES IDX 10 23 104 24 11 25 105 26 12 27 7 28 1 29 2 30 3 31 4 32
REMARK SMILES IDX 6 33 5 34 32 35 33 36 34 37 35 38 36 39 37 40 38 41 39 42
REMARK SMILES IDX 40 43 41 44 42 45 103 46 43 47 102 48 44 49 45 50 46 51
REMARK SMILES IDX 96 52 47 53 101 54 95 55 97 56 48 57 100 58 94 59 93 60
REMARK SMILES IDX 49 62 81 63 61 64 80 65 62 66 65 67 79 68 98 69 63 70 64 71
REMARK SMILES IDX 78 73 99 74 66 75 50 76 51 77 59 78 52 79 54 80 60 81 53 82
REMARK SMILES IDX 55 83 56 84 57 85 58 86 82 87 83 88 91 89 84 90 86 91 92 92
REMARK SMILES IDX 85 93 87 94 88 95 89 96 90 97 67 98 68 99 76 100 69 101
REMARK SMILES IDX 71 102 77 103 70 104 72 105 73 106 74 107 75 108
REMARK H PARENT 17 18 97 61 65 72
REMARK Flexibility Score: inf
ROOT
ATOM      1  C   UNL A   1      51.889  37.309  28.288  1.00  0.00     0.188 C 
ENDROOT
BRANCH   1   2
ATOM      2  C   UNL A   1      50.514  36.482  27.785  1.00  0.00     0.188 C 
BRANCH   2   3
ATOM      3  O   UNL A   1      49.462  36.275  26.334  1.00  0.00    -0.376 OA
BRANCH   3   4
ATOM      4  C   UNL A   1      48.678  34.832  25.575  1.00  0.00     0.202 C 
BRANCH   4   5
ATOM      5  C   UNL A   1      48.216  33.095  26.319  1.00  0.00     0.261 C 
BRANCH   5   6
ATOM      6  O   UNL A   1      47.353  31.434  26.206  1.00  0.00    -0.460 OA
BRANCH   6   7
ATOM      7  C   UNL A   1      46.393  30.100  26.213  1.00  0.00     0.340 C 
ATOM      8  O   UNL A   1      46.474  29.197  25.355  1.00  0.00    -0.246 OA
BRANCH   7   9
ATOM      9  C   UNL A   1      45.093  29.503  27.069  1.00  0.00     0.083 A 
ATOM     10  C   UNL A   1      44.703  28.202  27.613  1.00  0.00     0.055 A 
ATOM     11  C   UNL A   1      43.564  28.105  28.446  1.00  0.00     0.027 A 
ATOM     12  C   UNL A   1      42.674  29.153  28.601  1.00  0.00     0.002 A 
ATOM     13  C   UNL A   1      44.037  30.448  27.096  1.00  0.00     0.018 A 
ATOM     14  C   UNL A   1      42.874  30.301  27.864  1.00  0.00     0.001 A 
BRANCH  10  15
ATOM     15  N   UNL A   1      45.352  26.938  27.380  1.00  0.00    -0.324 N 
ATOM     16  C   UNL A   1      44.676  25.743  26.995  1.00  0.00     0.244 C 
ATOM     17  O   UNL A   1      44.141  25.576  25.897  1.00  0.00    -0.273 OA
ATOM     18  H   UNL A   1      46.330  26.897  27.495  1.00  0.00     0.170 HD
BRANCH  16  19
ATOM     19  C   UNL A   1      44.585  24.617  28.083  1.00  0.00     0.230 C 
BRANCH  19  20
ATOM     20  N   UNL A   1      43.464  23.820  27.687  1.00  0.00    -0.259 N 
ATOM     21  C   UNL A   1      39.478  23.743  26.266  1.00  0.00     0.029 C 
ATOM     22  C   UNL A   1      41.061  23.873  26.498  1.00  0.00     0.083 C 
ATOM     23  S   UNL A   1      42.463  22.802  25.801  1.00  0.00    -0.022 SA
ATOM     24  C   UNL A   1      42.191  24.393  27.711  1.00  0.00     0.268 C 
ATOM     25  C   UNL A   1      43.779  22.871  26.808  1.00  0.00     0.294 C 
ATOM     26  O   UNL A   1      42.167  25.349  28.474  1.00  0.00    -0.268 OA
ATOM     27  O   UNL A   1      44.851  22.355  26.569  1.00  0.00    -0.261 OA
BRANCH  21  28
ATOM     28  C   UNL A   1      37.773  23.308  25.664  1.00  0.00    -0.021 A 
ATOM     29  C   UNL A   1      36.962  20.923  24.977  1.00  0.00     0.045 C 
ATOM     30  C   UNL A   1      37.272  22.424  24.622  1.00  0.00    -0.044 A 
ATOM     31  C   UNL A   1      36.182  22.760  23.752  1.00  0.00     0.004 A 
ATOM     32  C   UNL A   1      35.202  23.586  24.227  1.00  0.00     0.000 A 
ATOM     33  C   UNL A   1      36.606  23.855  26.238  1.00  0.00     0.008 A 
ATOM     34  C   UNL A   1      35.364  24.015  25.533  1.00  0.00     0.001 A 
ENDBRANCH  21  28
ENDBRANCH  19  20
ENDBRANCH  16  19
ENDBRANCH  10  15
ENDBRANCH   7   9
ENDBRANCH   6   7
ENDBRANCH   5   6
ENDBRANCH   4   5
ENDBRANCH   3   4
ENDBRANCH   2   3
ENDBRANCH   1   2
BRANCH   1  35
ATOM     35  O   UNL A   1      52.908  38.064  27.621  1.00  0.00    -0.377 OA
BRANCH  35  36
ATOM     36  C   UNL A   1      54.083  37.498  27.025  1.00  0.00     0.188 C 
BRANCH  36  37
ATOM     37  C   UNL A   1      54.337  37.753  25.557  1.00  0.00     0.188 C 
BRANCH  37  38
ATOM     38  O   UNL A   1      53.859  36.629  24.864  1.00  0.00    -0.376 OA
BRANCH  38  39
ATOM     39  C   UNL A   1      52.476  36.583  24.607  1.00  0.00     0.202 C 
BRANCH  39  40
ATOM     40  C   UNL A   1      52.125  35.161  24.212  1.00  0.00     0.261 C 
BRANCH  40  41
ATOM     41  O   UNL A   1      52.111  34.329  25.401  1.00  0.00    -0.460 OA
BRANCH  41  42
ATOM     42  C   UNL A   1      51.800  33.005  25.179  1.00  0.00     0.338 C 
ATOM     43  O   UNL A   1      51.319  32.593  24.137  1.00  0.00    -0.246 OA
BRANCH  42  44
ATOM     44  C   UNL A   1      51.868  32.235  26.462  1.00  0.00     0.060 A 
ATOM     45  C   UNL A   1      51.248  30.997  26.642  1.00  0.00     0.016 A 
ATOM     46  C   UNL A   1      52.258  32.883  27.593  1.00  0.00     0.016 A 
ATOM     47  C   UNL A   1      50.668  30.615  27.909  1.00  0.00     0.010 A 
ATOM     48  C   UNL A   1      51.654  32.491  28.789  1.00  0.00     0.010 A 
ATOM     49  C   UNL A   1      50.599  31.481  29.014  1.00  0.00    -0.014 A 
BRANCH  49  50
ATOM     50  C   UNL A   1      49.351  31.371  30.427  1.00  0.00     0.031 A 
ATOM     51  C   UNL A   1      48.382  29.637  30.941  1.00  0.00     0.074 A 
ATOM     52  C   UNL A   1      49.080  32.800  30.624  1.00  0.00     0.049 A 
ATOM     53  N   UNL A   1      47.075  29.185  30.707  1.00  0.00    -0.248 NA
ATOM     54  C   UNL A   1      48.851  28.111  31.297  1.00  0.00     0.031 C 
ATOM     55  C   UNL A   1      48.861  33.630  31.840  1.00  0.00     0.029 A 
ATOM     56  N   UNL A   1      48.409  33.717  29.676  1.00  0.00    -0.354 N 
ATOM     57  C   UNL A   1      46.543  27.894  31.296  1.00  0.00     0.074 A 
ATOM     58  C   UNL A   1      47.821  27.249  31.425  1.00  0.00     0.031 C 
ATOM     59  C   UNL A   1      47.919  34.580  31.641  1.00  0.00     0.029 A 
ATOM     60  C   UNL A   1      47.348  34.453  30.326  1.00  0.00     0.049 A 
ATOM     61  H   UNL A   1      48.653  33.813  28.726  1.00  0.00     0.167 HD
ATOM     62  C   UNL A   1      45.220  27.466  31.895  1.00  0.00     0.034 A 
ATOM     63  C   UNL A   1      46.076  34.795  29.859  1.00  0.00     0.034 A 
ATOM     64  C   UNL A   1      44.019  28.531  32.478  1.00  0.00     0.049 A 
ATOM     65  C   UNL A   1      44.517  34.276  30.340  1.00  0.00     0.074 A 
ATOM     66  C   UNL A   1      43.648  29.059  33.751  1.00  0.00     0.029 A 
ATOM     67  N   UNL A   1      42.974  29.204  31.783  1.00  0.00    -0.354 N 
ATOM     68  N   UNL A   1      44.143  33.110  30.859  1.00  0.00    -0.248 NA
ATOM     69  C   UNL A   1      43.277  35.051  30.142  1.00  0.00     0.031 C 
ATOM     70  C   UNL A   1      43.121  30.392  33.600  1.00  0.00     0.029 A 
ATOM     71  C   UNL A   1      42.818  30.585  32.262  1.00  0.00     0.049 A 
ATOM     72  H   UNL A   1      42.429  28.798  31.072  1.00  0.00     0.167 HD
ATOM     73  C   UNL A   1      42.764  32.925  31.091  1.00  0.00     0.074 A 
ATOM     74  C   UNL A   1      42.289  34.230  30.596  1.00  0.00     0.031 C 
ATOM     75  C   UNL A   1      42.099  31.735  31.538  1.00  0.00     0.034 A 
BRANCH  62  76
ATOM     76  C   UNL A   1      45.109  26.044  32.606  1.00  0.00     0.023 A 
ATOM     77  C   UNL A   1      44.746  24.935  31.796  1.00  0.00     0.012 A 
ATOM     78  C   UNL A   1      45.271  25.732  33.972  1.00  0.00     0.148 A 
ATOM     79  C   UNL A   1      44.335  23.696  32.297  1.00  0.00     0.002 A 
ATOM     80  C   UNL A   1      44.841  24.493  34.491  1.00  0.00     0.091 A 
ATOM     81  F   UNL A   1      45.920  26.592  34.768  1.00  0.00    -0.205 F 
ATOM     82  C   UNL A   1      44.336  23.490  33.656  1.00  0.00     0.022 A 
BRANCH  80  83
ATOM     83  S   UNL A   1      44.837  24.097  36.248  1.00  0.00     0.127 S 
ATOM     84  O   UNL A   1      44.856  22.632  36.240  1.00  0.00    -0.237 OA
ATOM     85  O   UNL A   1      46.081  24.713  36.710  1.00  0.00    -0.237 OA
ATOM     86  O   UNL A   1      43.611  24.673  36.786  1.00  0.00    -0.744 OA
ENDBRANCH  80  83
ENDBRANCH  62  76
BRANCH  63  87
ATOM     87  C   UNL A   1      46.385  35.844  28.791  1.00  0.00     0.023 A 
ATOM     88  C   UNL A   1      45.735  35.579  27.549  1.00  0.00     0.012 A 
ATOM     89  C   UNL A   1      46.460  37.194  29.197  1.00  0.00     0.148 A 
ATOM     90  C   UNL A   1      44.932  36.551  26.935  1.00  0.00     0.002 A 
ATOM     91  C   UNL A   1      45.660  38.159  28.579  1.00  0.00     0.091 A 
ATOM     92  F   UNL A   1      47.214  37.508  30.251  1.00  0.00    -0.205 F 
ATOM     93  C   UNL A   1      44.851  37.827  27.484  1.00  0.00     0.022 A 
BRANCH  91  94
ATOM     94  S   UNL A   1      45.437  39.782  29.334  1.00  0.00     0.127 S 
ATOM     95  O   UNL A   1      44.208  40.242  28.698  1.00  0.00    -0.237 OA
ATOM     96  O   UNL A   1      45.312  39.449  30.754  1.00  0.00    -0.237 OA
ATOM     97  O   UNL A   1      46.656  40.507  29.005  1.00  0.00    -0.744 OA
ENDBRANCH  91  94
ENDBRANCH  63  87
BRANCH  75  98
ATOM     98  C   UNL A   1      40.616  31.362  31.185  1.00  0.00     0.023 A 
ATOM     99  C   UNL A   1      40.050  31.584  29.920  1.00  0.00     0.012 A 
ATOM    100  C   UNL A   1      39.915  30.423  31.999  1.00  0.00     0.148 A 
ATOM    101  C   UNL A   1      38.977  30.810  29.437  1.00  0.00     0.002 A 
ATOM    102  C   UNL A   1      38.967  29.551  31.465  1.00  0.00     0.091 A 
ATOM    103  F   UNL A   1      40.166  30.335  33.315  1.00  0.00    -0.205 F 
ATOM    104  C   UNL A   1      38.489  29.741  30.178  1.00  0.00     0.022 A 
BRANCH 102 105
ATOM    105  S   UNL A   1      38.605  28.007  32.326  1.00  0.00     0.127 S 
ATOM    106  O   UNL A   1      38.444  27.063  31.226  1.00  0.00    -0.237 OA
ATOM    107  O   UNL A   1      39.805  27.802  33.141  1.00  0.00    -0.237 OA
ATOM    108  O   UNL A   1      37.411  28.327  33.105  1.00  0.00    -0.744 OA
ENDBRANCH 102 105
ENDBRANCH  75  98
ENDBRANCH  49  50
ENDBRANCH  42  44
ENDBRANCH  41  42
ENDBRANCH  40  41
ENDBRANCH  39  40
ENDBRANCH  38  39
ENDBRANCH  37  38
ENDBRANCH  36  37
ENDBRANCH  35  36
ENDBRANCH   1  35
TORSDOF 27
ENDMDL
MODEL 3
REMARK VINA RESULT:      -8.8      7.532     12.216
REMARK SMILES Cc1ccccc1/C=C1\SC(=O)N(CC(=O)Nc2ccccc2C(=O)OCCOCCOCCOCCOC(=O)c2ccc(-c3c4nc(c(-c5cccc(S(=O)(=O)[O-])c5F)c5ccc([nH]5)c(-c5cccc(S(=O)(=O)[O-])c5F)c5nc(c(-c6cccc(S(=O)(=O)[O-])c6F)c6ccc3[nH]6)C=C5)C=C4)cc2)C1=O
REMARK SMILES IDX 31 1 30 2 29 3 28 4 27 5 26 6 24 7 25 8 23 9 18 10 19 11
REMARK SMILES IDX 20 12 22 13 21 14 17 15 15 16 16 17 14 19 13 20 8 21 9 22
REMARK SMILES IDX 10 23 104 24 11 25 105 26 12 27 7 28 1 29 2 30 3 31 4 32
REMARK SMILES IDX 6 33 5 34 32 35 33 36 34 37 35 38 36 39 37 40 38 41 39 42
REMARK SMILES IDX 40 43 41 44 42 45 103 46 43 47 102 48 44 49 45 50 46 51
REMARK SMILES IDX 96 52 47 53 101 54 95 55 97 56 48 57 100 58 94 59 93 60
REMARK SMILES IDX 49 62 81 63 61 64 80 65 62 66 65 67 79 68 98 69 63 70 64 71
REMARK SMILES IDX 78 73 99 74 66 75 50 76 51 77 59 78 52 79 54 80 60 81 53 82
REMARK SMILES IDX 55 83 56 84 57 85 58 86 82 87 83 88 91 89 84 90 86 91 92 92
REMARK SMILES IDX 85 93 87 94 88 95 89 96 90 97 67 98 68 99 76 100 69 101
REMARK SMILES IDX 71 102 77 103 70 104 72 105 73 106 74 107 75 108
REMARK H PARENT 17 18 97 61 65 72
REMARK Flexibility Score: inf
ROOT
ATOM      1  C   UNL A   1      40.489  30.097  32.027  1.00  0.00     0.188 C 
ENDROOT
BRANCH   1   2
ATOM      2  C   UNL A   1      38.921  29.891  31.454  1.00  0.00     0.188 C 
BRANCH   2   3
ATOM      3  O   UNL A   1      37.693  30.716  30.422  1.00  0.00    -0.376 OA
BRANCH   3   4
ATOM      4  C   UNL A   1      37.176  30.493  28.702  1.00  0.00     0.202 C 
BRANCH   4   5
ATOM      5  C   UNL A   1      35.911  29.247  27.904  1.00  0.00     0.261 C 
BRANCH   5   6
ATOM      6  O   UNL A   1      34.625  28.812  26.612  1.00  0.00    -0.460 OA
BRANCH   6   7
ATOM      7  C   UNL A   1      33.464  28.687  25.456  1.00  0.00     0.340 C 
ATOM      8  O   UNL A   1      33.149  29.629  24.700  1.00  0.00    -0.246 OA
BRANCH   7   9
ATOM      9  C   UNL A   1      32.338  27.573  24.934  1.00  0.00     0.083 A 
ATOM     10  C   UNL A   1      32.362  26.167  24.530  1.00  0.00     0.055 A 
ATOM     11  C   UNL A   1      31.145  25.486  24.292  1.00  0.00     0.027 A 
ATOM     12  C   UNL A   1      29.933  26.150  24.220  1.00  0.00     0.002 A 
ATOM     13  C   UNL A   1      31.110  28.210  24.630  1.00  0.00     0.018 A 
ATOM     14  C   UNL A   1      29.928  27.525  24.315  1.00  0.00     0.001 A 
BRANCH  10  15
ATOM     15  N   UNL A   1      33.528  25.350  24.311  1.00  0.00    -0.324 N 
ATOM     16  C   UNL A   1      33.789  24.622  23.113  1.00  0.00     0.244 C 
ATOM     17  O   UNL A   1      34.056  25.148  22.031  1.00  0.00    -0.273 OA
ATOM     18  H   UNL A   1      34.189  25.291  25.040  1.00  0.00     0.170 HD
BRANCH  16  19
ATOM     19  C   UNL A   1      33.666  23.061  23.211  1.00  0.00     0.230 C 
BRANCH  19  20
ATOM     20  N   UNL A   1      34.649  22.681  24.181  1.00  0.00    -0.259 N 
ATOM     21  C   UNL A   1      38.579  23.210  25.660  1.00  0.00     0.029 C 
ATOM     22  C   UNL A   1      37.036  23.308  25.229  1.00  0.00     0.083 C 
ATOM     23  S   UNL A   1      35.485  23.245  26.320  1.00  0.00    -0.022 SA
ATOM     24  C   UNL A   1      35.997  22.909  23.895  1.00  0.00     0.268 C 
ATOM     25  C   UNL A   1      34.192  22.710  25.430  1.00  0.00     0.294 C 
ATOM     26  O   UNL A   1      36.168  23.003  22.688  1.00  0.00    -0.268 OA
ATOM     27  O   UNL A   1      33.053  22.653  25.845  1.00  0.00    -0.261 OA
BRANCH  21  28
ATOM     28  C   UNL A   1      40.196  23.159  26.576  1.00  0.00    -0.021 A 
ATOM     29  C   UNL A   1      42.262  21.693  25.940  1.00  0.00     0.045 C 
ATOM     30  C   UNL A   1      41.111  22.086  26.938  1.00  0.00    -0.044 A 
ATOM     31  C   UNL A   1      41.770  22.001  28.209  1.00  0.00     0.004 A 
ATOM     32  C   UNL A   1      42.070  23.162  28.866  1.00  0.00     0.000 A 
ATOM     33  C   UNL A   1      40.814  24.321  27.086  1.00  0.00     0.008 A 
ATOM     34  C   UNL A   1      41.703  24.327  28.215  1.00  0.00     0.001 A 
ENDBRANCH  21  28
ENDBRANCH  19  20
ENDBRANCH  16  19
ENDBRANCH  10  15
ENDBRANCH   7   9
ENDBRANCH   6   7
ENDBRANCH   5   6
ENDBRANCH   4   5
ENDBRANCH   3   4
ENDBRANCH   2   3
ENDBRANCH   1   2
BRANCH   1  35
ATOM     35  O   UNL A   1      41.167  29.759  33.242  1.00  0.00    -0.377 OA
BRANCH  35  36
ATOM     36  C   UNL A   1      41.636  30.713  34.206  1.00  0.00     0.188 C 
BRANCH  36  37
ATOM     37  C   UNL A   1      42.932  30.426  34.928  1.00  0.00     0.188 C 
BRANCH  37  38
ATOM     38  O   UNL A   1      43.377  29.174  34.474  1.00  0.00    -0.376 OA
BRANCH  38  39
ATOM     39  C   UNL A   1      44.728  28.856  34.709  1.00  0.00     0.202 C 
BRANCH  39  40
ATOM     40  C   UNL A   1      44.921  27.385  34.391  1.00  0.00     0.261 C 
BRANCH  40  41
ATOM     41  O   UNL A   1      45.710  27.262  33.179  1.00  0.00    -0.460 OA
BRANCH  41  42
ATOM     42  C   UNL A   1      45.211  26.375  32.251  1.00  0.00     0.338 C 
ATOM     43  O   UNL A   1      44.124  25.831  32.354  1.00  0.00    -0.246 OA
BRANCH  42  44
ATOM     44  C   UNL A   1      46.287  25.973  31.289  1.00  0.00     0.060 A 
ATOM     45  C   UNL A   1      47.581  26.498  31.328  1.00  0.00     0.016 A 
ATOM     46  C   UNL A   1      45.933  25.332  30.143  1.00  0.00     0.016 A 
ATOM     47  C   UNL A   1      48.340  26.737  30.123  1.00  0.00     0.010 A 
ATOM     48  C   UNL A   1      46.685  25.611  29.000  1.00  0.00     0.010 A 
ATOM     49  C   UNL A   1      47.812  26.553  28.833  1.00  0.00    -0.014 A 
BRANCH  49  50
ATOM     50  C   UNL A   1      48.412  27.409  27.261  1.00  0.00     0.031 A 
ATOM     51  C   UNL A   1      50.344  27.291  26.582  1.00  0.00     0.074 A 
ATOM     52  C   UNL A   1      47.305  28.352  27.060  1.00  0.00     0.049 A 
ATOM     53  N   UNL A   1      51.414  28.198  26.625  1.00  0.00    -0.248 NA
ATOM     54  C   UNL A   1      51.386  26.072  26.260  1.00  0.00     0.031 C 
ATOM     55  C   UNL A   1      46.595  28.834  25.843  1.00  0.00     0.029 A 
ATOM     56  N   UNL A   1      46.941  29.494  27.927  1.00  0.00    -0.354 N 
ATOM     57  C   UNL A   1      52.738  27.927  25.941  1.00  0.00     0.074 A 
ATOM     58  C   UNL A   1      52.635  26.494  25.974  1.00  0.00     0.031 C 
ATOM     59  C   UNL A   1      46.274  30.145  25.933  1.00  0.00     0.029 A 
ATOM     60  C   UNL A   1      46.787  30.706  27.155  1.00  0.00     0.049 A 
ATOM     61  H   UNL A   1      46.819  29.436  28.903  1.00  0.00     0.167 HD
ATOM     62  C   UNL A   1      53.721  28.771  25.159  1.00  0.00     0.034 A 
ATOM     63  C   UNL A   1      47.178  32.015  27.451  1.00  0.00     0.034 A 
ATOM     64  C   UNL A   1      53.363  30.278  24.440  1.00  0.00     0.049 A 
ATOM     65  C   UNL A   1      48.369  33.026  26.750  1.00  0.00     0.074 A 
ATOM     66  C   UNL A   1      52.985  30.730  23.140  1.00  0.00     0.029 A 
ATOM     67  N   UNL A   1      53.374  31.587  25.001  1.00  0.00    -0.354 N 
ATOM     68  N   UNL A   1      49.514  32.692  26.159  1.00  0.00    -0.248 NA
ATOM     69  C   UNL A   1      48.348  34.501  26.794  1.00  0.00     0.031 C 
ATOM     70  C   UNL A   1      52.120  31.878  23.247  1.00  0.00     0.029 A 
ATOM     71  C   UNL A   1      52.226  32.378  24.535  1.00  0.00     0.049 A 
ATOM     72  H   UNL A   1      54.062  31.919  25.621  1.00  0.00     0.167 HD
ATOM     73  C   UNL A   1      50.348  33.748  25.737  1.00  0.00     0.074 A 
ATOM     74  C   UNL A   1      49.512  34.873  26.192  1.00  0.00     0.031 C 
ATOM     75  C   UNL A   1      51.667  33.657  25.178  1.00  0.00     0.034 A 
BRANCH  62  76
ATOM     76  C   UNL A   1      54.936  28.062  24.409  1.00  0.00     0.023 A 
ATOM     77  C   UNL A   1      56.077  27.725  25.184  1.00  0.00     0.012 A 
ATOM     78  C   UNL A   1      55.062  27.761  23.036  1.00  0.00     0.148 A 
ATOM     79  C   UNL A   1      57.316  27.365  24.646  1.00  0.00     0.002 A 
ATOM     80  C   UNL A   1      56.312  27.416  22.479  1.00  0.00     0.091 A 
ATOM     81  F   UNL A   1      53.965  27.720  22.269  1.00  0.00    -0.205 F 
ATOM     82  C   UNL A   1      57.447  27.257  23.281  1.00  0.00     0.022 A 
BRANCH  80  83
ATOM     83  S   UNL A   1      56.591  27.208  20.712  1.00  0.00     0.127 S 
ATOM     84  O   UNL A   1      56.200  28.515  20.177  1.00  0.00    -0.237 OA
ATOM     85  O   UNL A   1      58.027  26.936  20.651  1.00  0.00    -0.237 OA
ATOM     86  O   UNL A   1      55.724  26.112  20.297  1.00  0.00    -0.744 OA
ENDBRANCH  80  83
ENDBRANCH  62  76
BRANCH  63  87
ATOM     87  C   UNL A   1      46.217  32.403  28.573  1.00  0.00     0.023 A 
ATOM     88  C   UNL A   1      46.883  32.677  29.805  1.00  0.00     0.012 A 
ATOM     89  C   UNL A   1      45.119  33.227  28.243  1.00  0.00     0.148 A 
ATOM     90  C   UNL A   1      46.676  33.889  30.480  1.00  0.00     0.002 A 
ATOM     91  C   UNL A   1      44.916  34.432  28.923  1.00  0.00     0.091 A 
ATOM     92  F   UNL A   1      44.355  32.896  27.202  1.00  0.00    -0.205 F 
ATOM     93  C   UNL A   1      45.730  34.792  30.005  1.00  0.00     0.022 A 
BRANCH  91  94
ATOM     94  S   UNL A   1      43.788  35.675  28.263  1.00  0.00     0.127 S 
ATOM     95  O   UNL A   1      44.295  35.851  26.907  1.00  0.00    -0.237 OA
ATOM     96  O   UNL A   1      42.492  34.999  28.357  1.00  0.00    -0.237 OA
ATOM     97  O   UNL A   1      43.926  36.807  29.167  1.00  0.00    -0.744 OA
ENDBRANCH  91  94
ENDBRANCH  63  87
BRANCH  75  98
ATOM     98  C   UNL A   1      52.767  34.766  25.318  1.00  0.00     0.023 A 
ATOM     99  C   UNL A   1      53.304  35.163  26.553  1.00  0.00     0.012 A 
ATOM    100  C   UNL A   1      53.550  35.126  24.180  1.00  0.00     0.148 A 
ATOM    101  C   UNL A   1      54.594  35.718  26.661  1.00  0.00     0.002 A 
ATOM    102  C   UNL A   1      54.882  35.519  24.299  1.00  0.00     0.091 A 
ATOM    103  F   UNL A   1      53.028  35.075  22.945  1.00  0.00    -0.205 F 
ATOM    104  C   UNL A   1      55.414  35.820  25.544  1.00  0.00     0.022 A 
BRANCH 102 105
ATOM    105  S   UNL A   1      55.988  35.329  22.886  1.00  0.00     0.127 S 
ATOM    106  O   UNL A   1      55.575  36.422  22.013  1.00  0.00    -0.237 OA
ATOM    107  O   UNL A   1      57.313  35.491  23.489  1.00  0.00    -0.237 OA
ATOM    108  O   UNL A   1      55.713  33.971  22.423  1.00  0.00    -0.744 OA
ENDBRANCH 102 105
ENDBRANCH  75  98
ENDBRANCH  49  50
ENDBRANCH  42  44
ENDBRANCH  41  42
ENDBRANCH  40  41
ENDBRANCH  39  40
ENDBRANCH  38  39
ENDBRANCH  37  38
ENDBRANCH  36  37
ENDBRANCH  35  36
ENDBRANCH   1  35
TORSDOF 27
ENDMDL
