MODEL 1
REMARK VINA RESULT:      -9.8      0.000      0.000
REMARK SMILES Cc1occc1C(=O)N[C@@H](C)CC(=O)OCCOCCOCCOCCOC(=O)c1ccc(-c2c3nc(c(-c4cccc(S(=O)(=O)[O-])c4F)c4ccc([nH]4)c(-c4cccc(S(=O)(=O)[O-])c4F)c4nc(c(-c5cccc(S(=O)(=O)[O-])c5F)c5ccc2[nH]5)C=C4)C=C3)cc1
REMARK SMILES IDX 21 1 20 2 19 3 18 4 17 5 16 6 15 7 13 8 14 9 12 10 10 11
REMARK SMILES IDX 11 12 9 13 7 14 8 15 6 17 1 18 2 19 3 20 4 21 5 22 22 23
REMARK SMILES IDX 23 24 24 25 25 26 26 27 27 28 28 29 29 30 30 31 31 32 92 33
REMARK SMILES IDX 32 34 91 35 33 36 34 37 35 38 85 39 36 40 90 41 84 42 86 43
REMARK SMILES IDX 37 44 89 45 83 46 82 47 38 49 70 50 50 51 69 52 51 53 54 54
REMARK SMILES IDX 68 55 87 56 52 57 53 58 67 60 88 61 55 62 39 63 40 64 48 65
REMARK SMILES IDX 41 66 43 67 49 68 42 69 44 70 45 71 46 72 47 73 71 74 72 75
REMARK SMILES IDX 80 76 73 77 75 78 81 79 74 80 76 81 77 82 78 83 79 84 56 85
REMARK SMILES IDX 57 86 65 87 58 88 60 89 66 90 59 91 61 92 62 93 63 94 64 95
REMARK H PARENT 9 16 86 48 54 59
REMARK Flexibility Score: inf
ROOT
ATOM      1  O   UNL A   1      32.458  21.994  26.207  1.00  0.00    -0.377 OA
ENDROOT
BRANCH   1   2
ATOM      2  C   UNL A   1      32.669  23.129  27.009  1.00  0.00     0.188 C 
BRANCH   2   3
ATOM      3  C   UNL A   1      32.107  24.446  26.473  1.00  0.00     0.188 C 
BRANCH   3   4
ATOM      4  O   UNL A   1      32.831  25.668  26.558  1.00  0.00    -0.376 OA
BRANCH   4   5
ATOM      5  C   UNL A   1      32.135  26.897  26.684  1.00  0.00     0.202 C 
BRANCH   5   6
ATOM      6  C   UNL A   1      32.344  27.930  25.564  1.00  0.00     0.261 C 
BRANCH   6   7
ATOM      7  O   UNL A   1      31.309  28.916  25.359  1.00  0.00    -0.463 OA
BRANCH   7   8
ATOM      8  C   UNL A   1      30.931  29.144  24.078  1.00  0.00     0.307 C 
ATOM      9  O   UNL A   1      30.034  29.910  23.740  1.00  0.00    -0.252 OA
BRANCH   8  10
ATOM     10  C   UNL A   1      31.634  28.251  23.067  1.00  0.00     0.147 C 
BRANCH  10  11
ATOM     11  C   UNL A   1      30.838  27.172  22.306  1.00  0.00     0.090 C 
ATOM     12  C   UNL A   1      30.434  26.069  23.291  1.00  0.00     0.031 C 
BRANCH  11  13
ATOM     13  N   UNL A   1      31.594  26.565  21.226  1.00  0.00    -0.349 N 
ATOM     14  C   UNL A   1      32.621  25.667  21.134  1.00  0.00     0.255 C 
ATOM     15  O   UNL A   1      33.029  25.498  19.980  1.00  0.00    -0.269 OA
ATOM     16  H   UNL A   1      31.293  26.876  20.342  1.00  0.00     0.164 HD
BRANCH  14  17
ATOM     17  C   UNL A   1      33.255  24.910  22.220  1.00  0.00     0.080 A 
ATOM     18  C   UNL A   1      32.592  22.310  22.394  1.00  0.00     0.088 C 
ATOM     19  C   UNL A   1      33.241  23.601  22.698  1.00  0.00     0.113 A 
ATOM     20  O   UNL A   1      34.105  23.472  23.756  1.00  0.00    -0.469 OA
ATOM     21  C   UNL A   1      34.660  24.674  24.001  1.00  0.00     0.196 A 
ATOM     22  C   UNL A   1      34.185  25.585  23.103  1.00  0.00     0.056 A 
ENDBRANCH  14  17
ENDBRANCH  11  13
ENDBRANCH  10  11
ENDBRANCH   8  10
ENDBRANCH   7   8
ENDBRANCH   6   7
ENDBRANCH   5   6
ENDBRANCH   4   5
ENDBRANCH   3   4
ENDBRANCH   2   3
ENDBRANCH   1   2
BRANCH   1  23
ATOM     23  C   UNL A   1      33.352  20.925  26.425  1.00  0.00     0.188 C 
BRANCH  23  24
ATOM     24  C   UNL A   1      34.105  20.471  25.167  1.00  0.00     0.188 C 
BRANCH  24  25
ATOM     25  O   UNL A   1      35.504  20.710  25.078  1.00  0.00    -0.376 OA
BRANCH  25  26
ATOM     26  C   UNL A   1      36.440  19.664  24.863  1.00  0.00     0.202 C 
BRANCH  26  27
ATOM     27  C   UNL A   1      37.957  19.889  24.841  1.00  0.00     0.261 C 
BRANCH  27  28
ATOM     28  O   UNL A   1      38.405  21.065  25.526  1.00  0.00    -0.460 OA
BRANCH  28  29
ATOM     29  C   UNL A   1      39.616  20.966  26.118  1.00  0.00     0.338 C 
ATOM     30  O   UNL A   1      40.428  20.058  25.978  1.00  0.00    -0.246 OA
BRANCH  29  31
ATOM     31  C   UNL A   1      39.944  22.217  26.825  1.00  0.00     0.060 A 
ATOM     32  C   UNL A   1      39.291  23.385  26.412  1.00  0.00     0.016 A 
ATOM     33  C   UNL A   1      40.930  22.269  27.812  1.00  0.00     0.016 A 
ATOM     34  C   UNL A   1      39.657  24.618  26.943  1.00  0.00     0.010 A 
ATOM     35  C   UNL A   1      41.308  23.512  28.336  1.00  0.00     0.010 A 
ATOM     36  C   UNL A   1      40.708  24.696  27.865  1.00  0.00    -0.014 A 
BRANCH  36  37
ATOM     37  C   UNL A   1      41.309  26.024  28.150  1.00  0.00     0.031 A 
ATOM     38  C   UNL A   1      42.707  26.300  27.662  1.00  0.00     0.074 A 
ATOM     39  C   UNL A   1      40.610  26.991  28.769  1.00  0.00     0.049 A 
ATOM     40  N   UNL A   1      43.418  27.393  27.755  1.00  0.00    -0.248 NA
ATOM     41  C   UNL A   1      43.395  25.194  26.975  1.00  0.00     0.031 C 
ATOM     42  C   UNL A   1      39.244  26.861  29.271  1.00  0.00     0.029 A 
ATOM     43  N   UNL A   1      40.966  28.279  29.090  1.00  0.00    -0.354 N 
ATOM     44  C   UNL A   1      44.643  27.101  27.164  1.00  0.00     0.074 A 
ATOM     45  C   UNL A   1      44.586  25.720  26.734  1.00  0.00     0.031 C 
ATOM     46  C   UNL A   1      38.881  28.019  29.850  1.00  0.00     0.029 A 
ATOM     47  C   UNL A   1      39.995  28.963  29.781  1.00  0.00     0.049 A 
ATOM     48  H   UNL A   1      41.835  28.674  28.847  1.00  0.00     0.167 HD
ATOM     49  C   UNL A   1      45.712  27.909  26.974  1.00  0.00     0.034 A 
ATOM     50  C   UNL A   1      40.012  30.203  30.311  1.00  0.00     0.034 A 
ATOM     51  C   UNL A   1      45.766  29.284  27.388  1.00  0.00     0.049 A 
ATOM     52  C   UNL A   1      41.234  31.069  30.129  1.00  0.00     0.074 A 
ATOM     53  C   UNL A   1      46.791  30.195  27.209  1.00  0.00     0.029 A 
ATOM     54  N   UNL A   1      44.761  29.944  28.077  1.00  0.00    -0.354 N 
ATOM     55  N   UNL A   1      42.340  30.815  29.472  1.00  0.00    -0.248 NA
ATOM     56  C   UNL A   1      41.194  32.409  30.734  1.00  0.00     0.031 C 
ATOM     57  C   UNL A   1      46.422  31.396  27.825  1.00  0.00     0.029 A 
ATOM     58  C   UNL A   1      45.148  31.245  28.348  1.00  0.00     0.049 A 
ATOM     59  H   UNL A   1      43.899  29.546  28.337  1.00  0.00     0.167 HD
ATOM     60  C   UNL A   1      43.109  31.973  29.551  1.00  0.00     0.074 A 
ATOM     61  C   UNL A   1      42.332  32.936  30.302  1.00  0.00     0.031 C 
ATOM     62  C   UNL A   1      44.348  32.214  29.053  1.00  0.00     0.034 A 
BRANCH  49  63
ATOM     63  C   UNL A   1      46.911  27.323  26.275  1.00  0.00     0.023 A 
ATOM     64  C   UNL A   1      47.041  27.452  24.877  1.00  0.00     0.012 A 
ATOM     65  C   UNL A   1      47.928  26.677  27.006  1.00  0.00     0.148 A 
ATOM     66  C   UNL A   1      48.143  26.914  24.212  1.00  0.00     0.002 A 
ATOM     67  C   UNL A   1      49.046  26.186  26.344  1.00  0.00     0.091 A 
ATOM     68  F   UNL A   1      47.777  26.544  28.331  1.00  0.00    -0.205 F 
ATOM     69  C   UNL A   1      49.148  26.290  24.947  1.00  0.00     0.022 A 
BRANCH  67  70
ATOM     70  S   UNL A   1      50.432  25.437  27.206  1.00  0.00     0.127 S 
ATOM     71  O   UNL A   1      51.389  25.247  26.117  1.00  0.00    -0.237 OA
ATOM     72  O   UNL A   1      50.798  26.482  28.163  1.00  0.00    -0.237 OA
ATOM     73  O   UNL A   1      49.919  24.214  27.808  1.00  0.00    -0.744 OA
ENDBRANCH  67  70
ENDBRANCH  49  63
BRANCH  50  74
ATOM     74  C   UNL A   1      38.820  30.723  31.040  1.00  0.00     0.023 A 
ATOM     75  C   UNL A   1      38.613  30.360  32.385  1.00  0.00     0.012 A 
ATOM     76  C   UNL A   1      37.887  31.568  30.406  1.00  0.00     0.148 A 
ATOM     77  C   UNL A   1      37.482  30.801  33.075  1.00  0.00     0.002 A 
ATOM     78  C   UNL A   1      36.793  32.048  31.116  1.00  0.00     0.091 A 
ATOM     79  F   UNL A   1      38.092  31.888  29.121  1.00  0.00    -0.205 F 
ATOM     80  C   UNL A   1      36.577  31.650  32.444  1.00  0.00     0.022 A 
BRANCH  78  81
ATOM     81  S   UNL A   1      35.635  33.236  30.425  1.00  0.00     0.127 S 
ATOM     82  O   UNL A   1      36.469  33.934  29.451  1.00  0.00    -0.237 OA
ATOM     83  O   UNL A   1      34.616  32.358  29.847  1.00  0.00    -0.237 OA
ATOM     84  O   UNL A   1      35.174  34.039  31.548  1.00  0.00    -0.744 OA
ENDBRANCH  78  81
ENDBRANCH  50  74
BRANCH  62  85
ATOM     85  C   UNL A   1      44.936  33.589  29.258  1.00  0.00     0.023 A 
ATOM     86  C   UNL A   1      45.627  33.892  30.449  1.00  0.00     0.012 A 
ATOM     87  C   UNL A   1      44.871  34.555  28.234  1.00  0.00     0.148 A 
ATOM     88  C   UNL A   1      46.209  35.146  30.631  1.00  0.00     0.002 A 
ATOM     89  C   UNL A   1      45.500  35.783  28.401  1.00  0.00     0.091 A 
ATOM     90  F   UNL A   1      44.197  34.254  27.113  1.00  0.00    -0.205 F 
ATOM     91  C   UNL A   1      46.156  36.086  29.604  1.00  0.00     0.022 A 
BRANCH  89  92
ATOM     92  S   UNL A   1      45.570  37.018  27.098  1.00  0.00     0.127 S 
ATOM     93  O   UNL A   1      46.671  37.867  27.550  1.00  0.00    -0.237 OA
ATOM     94  O   UNL A   1      45.871  36.206  25.918  1.00  0.00    -0.237 OA
ATOM     95  O   UNL A   1      44.260  37.655  27.074  1.00  0.00    -0.744 OA
ENDBRANCH  89  92
ENDBRANCH  62  85
ENDBRANCH  36  37
ENDBRANCH  29  31
ENDBRANCH  28  29
ENDBRANCH  27  28
ENDBRANCH  26  27
ENDBRANCH  25  26
ENDBRANCH  24  25
ENDBRANCH  23  24
ENDBRANCH   1  23
TORSDOF 26
ENDMDL
MODEL 2
REMARK VINA RESULT:      -9.7      0.969      2.435
REMARK SMILES Cc1occc1C(=O)N[C@@H](C)CC(=O)OCCOCCOCCOCCOC(=O)c1ccc(-c2c3nc(c(-c4cccc(S(=O)(=O)[O-])c4F)c4ccc([nH]4)c(-c4cccc(S(=O)(=O)[O-])c4F)c4nc(c(-c5cccc(S(=O)(=O)[O-])c5F)c5ccc2[nH]5)C=C4)C=C3)cc1
REMARK SMILES IDX 21 1 20 2 19 3 18 4 17 5 16 6 15 7 13 8 14 9 12 10 10 11
REMARK SMILES IDX 11 12 9 13 7 14 8 15 6 17 1 18 2 19 3 20 4 21 5 22 22 23
REMARK SMILES IDX 23 24 24 25 25 26 26 27 27 28 28 29 29 30 30 31 31 32 92 33
REMARK SMILES IDX 32 34 91 35 33 36 34 37 35 38 85 39 36 40 90 41 84 42 86 43
REMARK SMILES IDX 37 44 89 45 83 46 82 47 38 49 70 50 50 51 69 52 51 53 54 54
REMARK SMILES IDX 68 55 87 56 52 57 53 58 67 60 88 61 55 62 39 63 40 64 48 65
REMARK SMILES IDX 41 66 43 67 49 68 42 69 44 70 45 71 46 72 47 73 71 74 72 75
REMARK SMILES IDX 80 76 73 77 75 78 81 79 74 80 76 81 77 82 78 83 79 84 56 85
REMARK SMILES IDX 57 86 65 87 58 88 60 89 66 90 59 91 61 92 62 93 63 94 64 95
REMARK H PARENT 9 16 86 48 54 59
REMARK Flexibility Score: inf
ROOT
ATOM      1  O   UNL A   1      34.159  23.653  26.123  1.00  0.00    -0.377 OA
ENDROOT
BRANCH   1   2
ATOM      2  C   UNL A   1      35.244  24.346  25.559  1.00  0.00     0.188 C 
BRANCH   2   3
ATOM      3  C   UNL A   1      35.327  24.339  24.033  1.00  0.00     0.188 C 
BRANCH   3   4
ATOM      4  O   UNL A   1      35.208  23.141  23.273  1.00  0.00    -0.376 OA
BRANCH   4   5
ATOM      5  C   UNL A   1      34.121  22.974  22.378  1.00  0.00     0.202 C 
BRANCH   5   6
ATOM      6  C   UNL A   1      32.863  23.815  22.652  1.00  0.00     0.261 C 
BRANCH   6   7
ATOM      7  O   UNL A   1      32.848  25.176  22.166  1.00  0.00    -0.463 OA
BRANCH   7   8
ATOM      8  C   UNL A   1      31.646  25.802  22.147  1.00  0.00     0.307 C 
ATOM      9  O   UNL A   1      31.303  26.629  21.308  1.00  0.00    -0.252 OA
BRANCH   8  10
ATOM     10  C   UNL A   1      30.777  25.492  23.356  1.00  0.00     0.147 C 
BRANCH  10  11
ATOM     11  C   UNL A   1      30.745  26.465  24.552  1.00  0.00     0.090 C 
ATOM     12  C   UNL A   1      29.687  25.985  25.552  1.00  0.00     0.031 C 
BRANCH  11  13
ATOM     13  N   UNL A   1      30.423  27.827  24.167  1.00  0.00    -0.349 N 
ATOM     14  C   UNL A   1      30.809  29.076  24.568  1.00  0.00     0.255 C 
ATOM     15  O   UNL A   1      30.193  29.989  24.009  1.00  0.00    -0.269 OA
ATOM     16  H   UNL A   1      29.766  27.860  23.435  1.00  0.00     0.164 HD
BRANCH  14  17
ATOM     17  C   UNL A   1      31.843  29.426  25.550  1.00  0.00     0.080 A 
ATOM     18  C   UNL A   1      33.751  27.579  25.970  1.00  0.00     0.088 C 
ATOM     19  C   UNL A   1      32.988  28.838  26.084  1.00  0.00     0.113 A 
ATOM     20  O   UNL A   1      33.596  29.696  26.966  1.00  0.00    -0.469 OA
ATOM     21  C   UNL A   1      32.858  30.819  27.043  1.00  0.00     0.196 A 
ATOM     22  C   UNL A   1      31.783  30.716  26.209  1.00  0.00     0.056 A 
ENDBRANCH  14  17
ENDBRANCH  11  13
ENDBRANCH  10  11
ENDBRANCH   8  10
ENDBRANCH   7   8
ENDBRANCH   6   7
ENDBRANCH   5   6
ENDBRANCH   4   5
ENDBRANCH   3   4
ENDBRANCH   2   3
ENDBRANCH   1   2
BRANCH   1  23
ATOM     23  C   UNL A   1      34.501  22.522  26.895  1.00  0.00     0.188 C 
BRANCH  23  24
ATOM     24  C   UNL A   1      34.518  21.207  26.105  1.00  0.00     0.188 C 
BRANCH  24  25
ATOM     25  O   UNL A   1      35.516  21.014  25.110  1.00  0.00    -0.376 OA
BRANCH  25  26
ATOM     26  C   UNL A   1      36.305  19.834  25.045  1.00  0.00     0.202 C 
BRANCH  26  27
ATOM     27  C   UNL A   1      37.830  19.854  24.886  1.00  0.00     0.261 C 
BRANCH  27  28
ATOM     28  O   UNL A   1      38.473  21.044  25.358  1.00  0.00    -0.460 OA
BRANCH  28  29
ATOM     29  C   UNL A   1      39.560  20.847  26.136  1.00  0.00     0.338 C 
ATOM     30  O   UNL A   1      40.276  19.851  26.156  1.00  0.00    -0.246 OA
BRANCH  29  31
ATOM     31  C   UNL A   1      39.917  22.090  26.843  1.00  0.00     0.060 A 
ATOM     32  C   UNL A   1      39.248  23.262  26.470  1.00  0.00     0.016 A 
ATOM     33  C   UNL A   1      40.941  22.131  27.791  1.00  0.00     0.016 A 
ATOM     34  C   UNL A   1      39.636  24.489  27.000  1.00  0.00     0.010 A 
ATOM     35  C   UNL A   1      41.340  23.368  28.313  1.00  0.00     0.010 A 
ATOM     36  C   UNL A   1      40.722  24.557  27.880  1.00  0.00    -0.014 A 
BRANCH  36  37
ATOM     37  C   UNL A   1      41.334  25.882  28.155  1.00  0.00     0.031 A 
ATOM     38  C   UNL A   1      42.735  26.142  27.668  1.00  0.00     0.074 A 
ATOM     39  C   UNL A   1      40.643  26.860  28.766  1.00  0.00     0.049 A 
ATOM     40  N   UNL A   1      43.456  27.230  27.754  1.00  0.00    -0.248 NA
ATOM     41  C   UNL A   1      43.415  25.025  26.990  1.00  0.00     0.031 C 
ATOM     42  C   UNL A   1      39.274  26.746  29.266  1.00  0.00     0.029 A 
ATOM     43  N   UNL A   1      41.010  28.147  29.078  1.00  0.00    -0.354 N 
ATOM     44  C   UNL A   1      44.679  26.922  27.167  1.00  0.00     0.074 A 
ATOM     45  C   UNL A   1      44.610  25.539  26.748  1.00  0.00     0.031 C 
ATOM     46  C   UNL A   1      38.921  27.911  29.836  1.00  0.00     0.029 A 
ATOM     47  C   UNL A   1      40.044  28.846  29.762  1.00  0.00     0.049 A 
ATOM     48  H   UNL A   1      41.882  28.533  28.833  1.00  0.00     0.167 HD
ATOM     49  C   UNL A   1      45.755  27.719  26.973  1.00  0.00     0.034 A 
ATOM     50  C   UNL A   1      40.070  30.089  30.282  1.00  0.00     0.034 A 
ATOM     51  C   UNL A   1      45.821  29.097  27.377  1.00  0.00     0.049 A 
ATOM     52  C   UNL A   1      41.300  30.943  30.095  1.00  0.00     0.074 A 
ATOM     53  C   UNL A   1      46.855  29.998  27.192  1.00  0.00     0.029 A 
ATOM     54  N   UNL A   1      44.821  29.771  28.058  1.00  0.00    -0.354 N 
ATOM     55  N   UNL A   1      42.405  30.674  29.442  1.00  0.00    -0.248 NA
ATOM     56  C   UNL A   1      41.271  32.288  30.690  1.00  0.00     0.031 C 
ATOM     57  C   UNL A   1      46.495  31.206  27.799  1.00  0.00     0.029 A 
ATOM     58  C   UNL A   1      45.218  31.071  28.320  1.00  0.00     0.049 A 
ATOM     59  H   UNL A   1      43.955  29.382  28.320  1.00  0.00     0.167 HD
ATOM     60  C   UNL A   1      43.184  31.826  29.514  1.00  0.00     0.074 A 
ATOM     61  C   UNL A   1      42.414  32.802  30.257  1.00  0.00     0.031 C 
ATOM     62  C   UNL A   1      44.425  32.052  29.017  1.00  0.00     0.034 A 
BRANCH  49  63
ATOM     63  C   UNL A   1      46.951  27.117  26.281  1.00  0.00     0.023 A 
ATOM     64  C   UNL A   1      47.053  27.181  24.876  1.00  0.00     0.012 A 
ATOM     65  C   UNL A   1      47.990  26.522  27.023  1.00  0.00     0.148 A 
ATOM     66  C   UNL A   1      48.151  26.627  24.217  1.00  0.00     0.002 A 
ATOM     67  C   UNL A   1      49.103  26.016  26.364  1.00  0.00     0.091 A 
ATOM     68  F   UNL A   1      47.865  26.452  28.355  1.00  0.00    -0.205 F 
ATOM     69  C   UNL A   1      49.179  26.054  24.962  1.00  0.00     0.022 A 
BRANCH  67  70
ATOM     70  S   UNL A   1      50.516  25.330  27.235  1.00  0.00     0.127 S 
ATOM     71  O   UNL A   1      51.426  25.030  26.131  1.00  0.00    -0.237 OA
ATOM     72  O   UNL A   1      50.930  26.451  28.079  1.00  0.00    -0.237 OA
ATOM     73  O   UNL A   1      50.017  24.172  27.965  1.00  0.00    -0.744 OA
ENDBRANCH  67  70
ENDBRANCH  49  63
BRANCH  50  74
ATOM     74  C   UNL A   1      38.881  30.625  31.004  1.00  0.00     0.023 A 
ATOM     75  C   UNL A   1      38.695  30.314  32.366  1.00  0.00     0.012 A 
ATOM     76  C   UNL A   1      37.932  31.435  30.350  1.00  0.00     0.148 A 
ATOM     77  C   UNL A   1      37.568  30.769  33.052  1.00  0.00     0.002 A 
ATOM     78  C   UNL A   1      36.841  31.931  31.054  1.00  0.00     0.091 A 
ATOM     79  F   UNL A   1      38.118  31.707  29.051  1.00  0.00    -0.205 F 
ATOM     80  C   UNL A   1      36.646  31.584  32.400  1.00  0.00     0.022 A 
BRANCH  78  81
ATOM     81  S   UNL A   1      35.663  33.079  30.332  1.00  0.00     0.127 S 
ATOM     82  O   UNL A   1      36.511  33.849  29.426  1.00  0.00    -0.237 OA
ATOM     83  O   UNL A   1      34.726  32.169  29.673  1.00  0.00    -0.237 OA
ATOM     84  O   UNL A   1      35.098  33.823  31.449  1.00  0.00    -0.744 OA
ENDBRANCH  78  81
ENDBRANCH  50  74
BRANCH  62  85
ATOM     85  C   UNL A   1      45.026  33.423  29.212  1.00  0.00     0.023 A 
ATOM     86  C   UNL A   1      45.822  33.692  30.344  1.00  0.00     0.012 A 
ATOM     87  C   UNL A   1      44.863  34.422  28.230  1.00  0.00     0.148 A 
ATOM     88  C   UNL A   1      46.414  34.943  30.513  1.00  0.00     0.002 A 
ATOM     89  C   UNL A   1      45.501  35.648  28.379  1.00  0.00     0.091 A 
ATOM     90  F   UNL A   1      44.091  34.153  27.167  1.00  0.00    -0.205 F 
ATOM     91  C   UNL A   1      46.264  35.915  29.527  1.00  0.00     0.022 A 
BRANCH  89  92
ATOM     92  S   UNL A   1      45.447  36.925  27.117  1.00  0.00     0.127 S 
ATOM     93  O   UNL A   1      46.211  38.000  27.747  1.00  0.00    -0.237 OA
ATOM     94  O   UNL A   1      46.122  36.276  25.992  1.00  0.00    -0.237 OA
ATOM     95  O   UNL A   1      44.037  37.211  26.892  1.00  0.00    -0.744 OA
ENDBRANCH  89  92
ENDBRANCH  62  85
ENDBRANCH  36  37
ENDBRANCH  29  31
ENDBRANCH  28  29
ENDBRANCH  27  28
ENDBRANCH  26  27
ENDBRANCH  25  26
ENDBRANCH  24  25
ENDBRANCH  23  24
ENDBRANCH   1  23
TORSDOF 26
ENDMDL
MODEL 3
REMARK VINA RESULT:      -9.5      1.764      3.105
REMARK SMILES Cc1occc1C(=O)N[C@@H](C)CC(=O)OCCOCCOCCOCCOC(=O)c1ccc(-c2c3nc(c(-c4cccc(S(=O)(=O)[O-])c4F)c4ccc([nH]4)c(-c4cccc(S(=O)(=O)[O-])c4F)c4nc(c(-c5cccc(S(=O)(=O)[O-])c5F)c5ccc2[nH]5)C=C4)C=C3)cc1
REMARK SMILES IDX 21 1 20 2 19 3 18 4 17 5 16 6 15 7 13 8 14 9 12 10 10 11
REMARK SMILES IDX 11 12 9 13 7 14 8 15 6 17 1 18 2 19 3 20 4 21 5 22 22 23
REMARK SMILES IDX 23 24 24 25 25 26 26 27 27 28 28 29 29 30 30 31 31 32 92 33
REMARK SMILES IDX 32 34 91 35 33 36 34 37 35 38 85 39 36 40 90 41 84 42 86 43
REMARK SMILES IDX 37 44 89 45 83 46 82 47 38 49 70 50 50 51 69 52 51 53 54 54
REMARK SMILES IDX 68 55 87 56 52 57 53 58 67 60 88 61 55 62 39 63 40 64 48 65
REMARK SMILES IDX 41 66 43 67 49 68 42 69 44 70 45 71 46 72 47 73 71 74 72 75
REMARK SMILES IDX 80 76 73 77 75 78 81 79 74 80 76 81 77 82 78 83 79 84 56 85
REMARK SMILES IDX 57 86 65 87 58 88 60 89 66 90 59 91 61 92 62 93 63 94 64 95
REMARK H PARENT 9 16 86 48 54 59
REMARK Flexibility Score: inf
ROOT
ATOM      1  O   UNL A   1      33.104  22.848  26.072  1.00  0.00    -0.377 OA
ENDROOT
BRANCH   1   2
ATOM      2  C   UNL A   1      33.912  23.516  25.136  1.00  0.00     0.188 C 
BRANCH   2   3
ATOM      3  C   UNL A   1      33.388  24.861  24.633  1.00  0.00     0.188 C 
BRANCH   3   4
ATOM      4  O   UNL A   1      34.157  26.055  24.724  1.00  0.00    -0.376 OA
BRANCH   4   5
ATOM      5  C   UNL A   1      33.536  27.270  25.111  1.00  0.00     0.202 C 
BRANCH   5   6
ATOM      6  C   UNL A   1      32.932  28.128  23.987  1.00  0.00     0.261 C 
BRANCH   6   7
ATOM      7  O   UNL A   1      32.991  27.608  22.641  1.00  0.00    -0.463 OA
BRANCH   7   8
ATOM      8  C   UNL A   1      31.868  27.014  22.168  1.00  0.00     0.307 C 
ATOM      9  O   UNL A   1      31.848  25.966  21.531  1.00  0.00    -0.252 OA
BRANCH   8  10
ATOM     10  C   UNL A   1      30.608  27.839  22.377  1.00  0.00     0.147 C 
BRANCH  10  11
ATOM     11  C   UNL A   1      29.711  27.581  23.604  1.00  0.00     0.090 C 
ATOM     12  C   UNL A   1      29.830  26.105  24.002  1.00  0.00     0.031 C 
BRANCH  11  13
ATOM     13  N   UNL A   1      28.312  27.875  23.356  1.00  0.00    -0.349 N 
ATOM     14  C   UNL A   1      27.593  28.976  22.979  1.00  0.00     0.255 C 
ATOM     15  O   UNL A   1      26.371  28.793  22.978  1.00  0.00    -0.269 OA
ATOM     16  H   UNL A   1      27.737  27.087  23.491  1.00  0.00     0.164 HD
BRANCH  14  17
ATOM     17  C   UNL A   1      28.107  30.294  22.586  1.00  0.00     0.080 A 
ATOM     18  C   UNL A   1      29.643  31.554  24.397  1.00  0.00     0.088 C 
ATOM     19  C   UNL A   1      28.909  31.287  23.144  1.00  0.00     0.113 A 
ATOM     20  O   UNL A   1      29.083  32.315  22.252  1.00  0.00    -0.469 OA
ATOM     21  C   UNL A   1      28.388  32.030  21.135  1.00  0.00     0.196 A 
ATOM     22  C   UNL A   1      27.775  30.819  21.277  1.00  0.00     0.056 A 
ENDBRANCH  14  17
ENDBRANCH  11  13
ENDBRANCH  10  11
ENDBRANCH   8  10
ENDBRANCH   7   8
ENDBRANCH   6   7
ENDBRANCH   5   6
ENDBRANCH   4   5
ENDBRANCH   3   4
ENDBRANCH   2   3
ENDBRANCH   1   2
BRANCH   1  23
ATOM     23  C   UNL A   1      33.355  21.467  26.211  1.00  0.00     0.188 C 
BRANCH  23  24
ATOM     24  C   UNL A   1      34.328  20.900  25.169  1.00  0.00     0.188 C 
BRANCH  24  25
ATOM     25  O   UNL A   1      35.630  20.505  25.586  1.00  0.00    -0.376 OA
BRANCH  25  26
ATOM     26  C   UNL A   1      36.608  20.029  24.672  1.00  0.00     0.202 C 
BRANCH  26  27
ATOM     27  C   UNL A   1      38.108  20.007  24.988  1.00  0.00     0.261 C 
BRANCH  27  28
ATOM     28  O   UNL A   1      38.635  21.232  25.511  1.00  0.00    -0.460 OA
BRANCH  28  29
ATOM     29  C   UNL A   1      39.783  21.117  26.215  1.00  0.00     0.338 C 
ATOM     30  O   UNL A   1      40.593  20.198  26.150  1.00  0.00    -0.246 OA
BRANCH  29  31
ATOM     31  C   UNL A   1      40.059  22.362  26.953  1.00  0.00     0.060 A 
ATOM     32  C   UNL A   1      39.355  23.511  26.572  1.00  0.00     0.016 A 
ATOM     33  C   UNL A   1      41.044  22.431  27.940  1.00  0.00     0.016 A 
ATOM     34  C   UNL A   1      39.669  24.744  27.134  1.00  0.00     0.010 A 
ATOM     35  C   UNL A   1      41.369  23.675  28.495  1.00  0.00     0.010 A 
ATOM     36  C   UNL A   1      40.718  24.844  28.056  1.00  0.00    -0.014 A 
BRANCH  36  37
ATOM     37  C   UNL A   1      41.261  26.189  28.374  1.00  0.00     0.031 A 
ATOM     38  C   UNL A   1      42.700  26.482  28.036  1.00  0.00     0.074 A 
ATOM     39  C   UNL A   1      40.483  27.156  28.891  1.00  0.00     0.049 A 
ATOM     40  N   UNL A   1      43.378  27.590  28.181  1.00  0.00    -0.248 NA
ATOM     41  C   UNL A   1      43.478  25.374  27.454  1.00  0.00     0.031 C 
ATOM     42  C   UNL A   1      39.072  27.010  29.243  1.00  0.00     0.029 A 
ATOM     43  N   UNL A   1      40.780  28.456  29.219  1.00  0.00    -0.354 N 
ATOM     44  C   UNL A   1      44.665  27.309  27.734  1.00  0.00     0.074 A 
ATOM     45  C   UNL A   1      44.678  25.919  27.333  1.00  0.00     0.031 C 
ATOM     46  C   UNL A   1      38.629  28.172  29.752  1.00  0.00     0.029 A 
ATOM     47  C   UNL A   1      39.728  29.137  29.784  1.00  0.00     0.049 A 
ATOM     48  H   UNL A   1      41.663  28.863  29.064  1.00  0.00     0.167 HD
ATOM     49  C   UNL A   1      45.735  28.133  27.645  1.00  0.00     0.034 A 
ATOM     50  C   UNL A   1      39.665  30.387  30.284  1.00  0.00     0.034 A 
ATOM     51  C   UNL A   1      45.720  29.518  28.030  1.00  0.00     0.049 A 
ATOM     52  C   UNL A   1      40.885  31.272  30.216  1.00  0.00     0.074 A 
ATOM     53  C   UNL A   1      46.744  30.444  27.943  1.00  0.00     0.029 A 
ATOM     54  N   UNL A   1      44.635  30.173  28.589  1.00  0.00    -0.354 N 
ATOM     55  N   UNL A   1      42.061  31.025  29.691  1.00  0.00    -0.248 NA
ATOM     56  C   UNL A   1      40.757  32.624  30.783  1.00  0.00     0.031 C 
ATOM     57  C   UNL A   1      46.289  31.650  28.488  1.00  0.00     0.029 A 
ATOM     58  C   UNL A   1      44.967  31.486  28.871  1.00  0.00     0.049 A 
ATOM     59  H   UNL A   1      43.756  29.763  28.762  1.00  0.00     0.167 HD
ATOM     60  C   UNL A   1      42.797  32.200  29.827  1.00  0.00     0.074 A 
ATOM     61  C   UNL A   1      41.926  33.164  30.466  1.00  0.00     0.031 C 
ATOM     62  C   UNL A   1      44.078  32.454  29.462  1.00  0.00     0.034 A 
BRANCH  49  63
ATOM     63  C   UNL A   1      47.013  27.556  27.095  1.00  0.00     0.023 A 
ATOM     64  C   UNL A   1      47.935  26.937  27.964  1.00  0.00     0.012 A 
ATOM     65  C   UNL A   1      47.286  27.593  25.713  1.00  0.00     0.148 A 
ATOM     66  C   UNL A   1      49.125  26.400  27.474  1.00  0.00     0.002 A 
ATOM     67  C   UNL A   1      48.451  27.014  25.225  1.00  0.00     0.091 A 
ATOM     68  F   UNL A   1      46.409  28.205  24.905  1.00  0.00    -0.205 F 
ATOM     69  C   UNL A   1      49.377  26.430  26.104  1.00  0.00     0.022 A 
BRANCH  67  70
ATOM     70  S   UNL A   1      48.830  26.929  23.472  1.00  0.00     0.127 S 
ATOM     71  O   UNL A   1      48.304  28.207  22.994  1.00  0.00    -0.237 OA
ATOM     72  O   UNL A   1      50.290  26.835  23.478  1.00  0.00    -0.237 OA
ATOM     73  O   UNL A   1      48.148  25.745  22.969  1.00  0.00    -0.744 OA
ENDBRANCH  67  70
ENDBRANCH  49  63
BRANCH  50  74
ATOM     74  C   UNL A   1      38.392  30.899  30.865  1.00  0.00     0.023 A 
ATOM     75  C   UNL A   1      38.144  30.746  32.244  1.00  0.00     0.012 A 
ATOM     76  C   UNL A   1      37.423  31.531  30.061  1.00  0.00     0.148 A 
ATOM     77  C   UNL A   1      36.941  31.180  32.803  1.00  0.00     0.002 A 
ATOM     78  C   UNL A   1      36.251  32.010  30.635  1.00  0.00     0.091 A 
ATOM     79  F   UNL A   1      37.669  31.653  28.749  1.00  0.00    -0.205 F 
ATOM     80  C   UNL A   1      35.999  31.819  32.002  1.00  0.00     0.022 A 
BRANCH  78  81
ATOM     81  S   UNL A   1      35.030  32.946  29.707  1.00  0.00     0.127 S 
ATOM     82  O   UNL A   1      34.504  31.932  28.796  1.00  0.00    -0.237 OA
ATOM     83  O   UNL A   1      34.107  33.362  30.764  1.00  0.00    -0.237 OA
ATOM     84  O   UNL A   1      35.760  34.037  29.078  1.00  0.00    -0.744 OA
ENDBRANCH  78  81
ENDBRANCH  50  74
BRANCH  62  85
ATOM     85  C   UNL A   1      44.618  33.844  29.699  1.00  0.00     0.023 A 
ATOM     86  C   UNL A   1      45.384  34.118  30.849  1.00  0.00     0.012 A 
ATOM     87  C   UNL A   1      44.429  34.858  28.737  1.00  0.00     0.148 A 
ATOM     88  C   UNL A   1      45.921  35.389  31.057  1.00  0.00     0.002 A 
ATOM     89  C   UNL A   1      45.012  36.105  28.925  1.00  0.00     0.091 A 
ATOM     90  F   UNL A   1      43.685  34.582  27.656  1.00  0.00    -0.205 F 
ATOM     91  C   UNL A   1      45.746  36.377  30.090  1.00  0.00     0.022 A 
BRANCH  89  92
ATOM     92  S   UNL A   1      44.925  37.408  27.691  1.00  0.00     0.127 S 
ATOM     93  O   UNL A   1      45.722  38.463  28.314  1.00  0.00    -0.237 OA
ATOM     94  O   UNL A   1      45.551  36.776  26.529  1.00  0.00    -0.237 OA
ATOM     95  O   UNL A   1      43.510  37.712  27.525  1.00  0.00    -0.744 OA
ENDBRANCH  89  92
ENDBRANCH  62  85
ENDBRANCH  36  37
ENDBRANCH  29  31
ENDBRANCH  28  29
ENDBRANCH  27  28
ENDBRANCH  26  27
ENDBRANCH  25  26
ENDBRANCH  24  25
ENDBRANCH  23  24
ENDBRANCH   1  23
TORSDOF 26
ENDMDL
