MODEL 1
REMARK VINA RESULT:      -5.6      0.000      0.000
REMARK SMILES C[C@@H]1CN([C@@H](CCS(C)(=O)=O)C(=O)OCCOCCOCCOCCOC(=O)c2ccc(-c3c4nc(c(-c5cccc(S(=O)(=O)[O-])c5F)c5ccc([nH]5)c(-c5cccc(S(=O)(=O)[O-])c5F)c5nc(c(-c6cccc(S(=O)(=O)[O-])c6F)c6ccc3[nH]6)C=C5)C=C4)cc2)S(=O)(=O)C1
REMARK SMILES IDX 20 1 19 2 18 3 17 4 16 5 15 6 14 7 12 8 13 9 5 10 4 11 1 12
REMARK SMILES IDX 2 13 3 14 95 15 92 16 93 17 94 18 6 19 7 20 8 21 9 22 10 23
REMARK SMILES IDX 11 24 21 25 22 26 23 27 24 28 25 29 26 30 27 31 28 32 29 33
REMARK SMILES IDX 30 34 91 35 31 36 90 37 32 38 33 39 34 40 84 41 35 42 89 43
REMARK SMILES IDX 83 44 85 45 36 46 88 47 82 48 81 49 37 51 69 52 49 53 68 54
REMARK SMILES IDX 50 55 53 56 67 57 86 58 51 59 52 60 66 62 87 63 54 64 38 65
REMARK SMILES IDX 39 66 47 67 40 68 42 69 48 70 41 71 43 72 44 73 45 74 46 75
REMARK SMILES IDX 70 76 71 77 79 78 72 79 74 80 80 81 73 82 75 83 76 84 77 85
REMARK SMILES IDX 78 86 55 87 56 88 64 89 57 90 59 91 65 92 58 93 60 94 61 95
REMARK SMILES IDX 62 96 63 97
REMARK H PARENT 85 50 53 61
REMARK Flexibility Score: inf
ROOT
ATOM      1  O   UNL A   1      37.619  34.097  30.772  1.00  0.00    -0.377 OA
ENDROOT
BRANCH   1   2
ATOM      2  C   UNL A   1      38.025  33.812  29.459  1.00  0.00     0.188 C 
BRANCH   2   3
ATOM      3  C   UNL A   1      37.828  32.341  29.063  1.00  0.00     0.188 C 
BRANCH   3   4
ATOM      4  O   UNL A   1      37.653  31.338  30.053  1.00  0.00    -0.376 OA
BRANCH   4   5
ATOM      5  C   UNL A   1      38.738  30.522  30.484  1.00  0.00     0.202 C 
BRANCH   5   6
ATOM      6  C   UNL A   1      39.380  29.456  29.589  1.00  0.00     0.261 C 
BRANCH   6   7
ATOM      7  O   UNL A   1      40.629  29.815  28.974  1.00  0.00    -0.462 OA
BRANCH   7   8
ATOM      8  C   UNL A   1      41.722  29.169  29.395  1.00  0.00     0.324 C 
ATOM      9  O   UNL A   1      42.289  29.436  30.459  1.00  0.00    -0.250 OA
BRANCH   8  10
ATOM     10  C   UNL A   1      42.331  28.149  28.460  1.00  0.00     0.183 C 
BRANCH  10  11
ATOM     11  N   UNL A   1      43.189  28.319  27.258  1.00  0.00    -0.187 NA
ATOM     12  C   UNL A   1      45.309  25.943  25.220  1.00  0.00     0.010 C 
ATOM     13  C   UNL A   1      44.901  26.924  26.307  1.00  0.00     0.017 C 
ATOM     14  C   UNL A   1      43.387  27.138  26.380  1.00  0.00     0.107 C 
ATOM     15  C   UNL A   1      45.484  28.312  26.083  1.00  0.00     0.159 C 
ATOM     16  S   UNL A   1      44.485  29.408  27.081  1.00  0.00     0.215 S 
ATOM     17  O   UNL A   1      44.105  30.496  26.221  1.00  0.00    -0.212 OA
ATOM     18  O   UNL A   1      45.173  29.555  28.339  1.00  0.00    -0.212 OA
ENDBRANCH  10  11
BRANCH  10  19
ATOM     19  C   UNL A   1      42.534  26.837  29.245  1.00  0.00     0.048 C 
BRANCH  19  20
ATOM     20  C   UNL A   1      43.856  26.478  29.909  1.00  0.00     0.139 C 
BRANCH  20  21
ATOM     21  S   UNL A   1      44.623  24.886  29.622  1.00  0.00     0.147 S 
ATOM     22  C   UNL A   1      43.761  24.156  28.256  1.00  0.00     0.158 C 
ATOM     23  O   UNL A   1      45.963  25.145  29.133  1.00  0.00    -0.229 OA
ATOM     24  O   UNL A   1      44.402  24.004  30.745  1.00  0.00    -0.229 OA
ENDBRANCH  20  21
ENDBRANCH  19  20
ENDBRANCH  10  19
ENDBRANCH   8  10
ENDBRANCH   7   8
ENDBRANCH   6   7
ENDBRANCH   5   6
ENDBRANCH   4   5
ENDBRANCH   3   4
ENDBRANCH   2   3
ENDBRANCH   1   2
BRANCH   1  25
ATOM     25  C   UNL A   1      38.558  34.155  31.830  1.00  0.00     0.188 C 
BRANCH  25  26
ATOM     26  C   UNL A   1      38.072  34.543  33.237  1.00  0.00     0.188 C 
BRANCH  26  27
ATOM     27  O   UNL A   1      36.669  34.436  33.423  1.00  0.00    -0.376 OA
BRANCH  27  28
ATOM     28  C   UNL A   1      36.185  34.103  34.714  1.00  0.00     0.202 C 
BRANCH  28  29
ATOM     29  C   UNL A   1      37.186  33.722  35.818  1.00  0.00     0.261 C 
BRANCH  29  30
ATOM     30  O   UNL A   1      37.159  32.372  36.300  1.00  0.00    -0.460 OA
BRANCH  30  31
ATOM     31  C   UNL A   1      38.216  31.915  37.000  1.00  0.00     0.338 C 
ATOM     32  O   UNL A   1      38.220  31.533  38.155  1.00  0.00    -0.246 OA
BRANCH  31  33
ATOM     33  C   UNL A   1      39.359  31.798  36.070  1.00  0.00     0.060 A 
ATOM     34  C   UNL A   1      39.161  31.235  34.802  1.00  0.00     0.016 A 
ATOM     35  C   UNL A   1      40.630  32.217  36.467  1.00  0.00     0.016 A 
ATOM     36  C   UNL A   1      40.246  31.033  33.950  1.00  0.00     0.010 A 
ATOM     37  C   UNL A   1      41.719  31.998  35.618  1.00  0.00     0.010 A 
ATOM     38  C   UNL A   1      41.538  31.363  34.376  1.00  0.00    -0.014 A 
BRANCH  38  39
ATOM     39  C   UNL A   1      42.717  30.867  33.626  1.00  0.00     0.031 A 
ATOM     40  C   UNL A   1      43.163  29.449  33.857  1.00  0.00     0.074 A 
ATOM     41  C   UNL A   1      43.388  31.658  32.770  1.00  0.00     0.049 A 
ATOM     42  N   UNL A   1      44.202  28.815  33.381  1.00  0.00    -0.248 NA
ATOM     43  C   UNL A   1      42.324  28.637  34.756  1.00  0.00     0.031 C 
ATOM     44  C   UNL A   1      43.043  33.040  32.449  1.00  0.00     0.029 A 
ATOM     45  N   UNL A   1      44.522  31.410  32.038  1.00  0.00    -0.354 N 
ATOM     46  C   UNL A   1      44.166  27.548  33.952  1.00  0.00     0.074 A 
ATOM     47  C   UNL A   1      43.009  27.505  34.817  1.00  0.00     0.031 C 
ATOM     48  C   UNL A   1      43.968  33.534  31.606  1.00  0.00     0.029 A 
ATOM     49  C   UNL A   1      44.984  32.512  31.357  1.00  0.00     0.049 A 
ATOM     50  H   UNL A   1      44.962  30.530  32.003  1.00  0.00     0.167 HD
ATOM     51  C   UNL A   1      45.016  26.509  33.767  1.00  0.00     0.034 A 
ATOM     52  C   UNL A   1      46.115  32.682  30.643  1.00  0.00     0.034 A 
ATOM     53  C   UNL A   1      46.161  26.556  32.900  1.00  0.00     0.049 A 
ATOM     54  C   UNL A   1      47.068  31.525  30.484  1.00  0.00     0.074 A 
ATOM     55  C   UNL A   1      47.060  25.545  32.609  1.00  0.00     0.029 A 
ATOM     56  N   UNL A   1      46.580  27.677  32.202  1.00  0.00    -0.354 N 
ATOM     57  N   UNL A   1      46.973  30.302  30.948  1.00  0.00    -0.248 NA
ATOM     58  C   UNL A   1      48.273  31.764  29.675  1.00  0.00     0.031 C 
ATOM     59  C   UNL A   1      48.051  26.071  31.773  1.00  0.00     0.029 A 
ATOM     60  C   UNL A   1      47.737  27.392  31.497  1.00  0.00     0.049 A 
ATOM     61  H   UNL A   1      46.122  28.549  32.207  1.00  0.00     0.167 HD
ATOM     62  C   UNL A   1      48.077  29.616  30.454  1.00  0.00     0.074 A 
ATOM     63  C   UNL A   1      48.823  30.557  29.643  1.00  0.00     0.031 C 
ATOM     64  C   UNL A   1      48.444  28.325  30.655  1.00  0.00     0.034 A 
BRANCH  51  65
ATOM     65  C   UNL A   1      44.736  25.237  34.525  1.00  0.00     0.023 A 
ATOM     66  C   UNL A   1      43.850  24.277  33.994  1.00  0.00     0.012 A 
ATOM     67  C   UNL A   1      45.378  24.977  35.752  1.00  0.00     0.148 A 
ATOM     68  C   UNL A   1      43.572  23.102  34.693  1.00  0.00     0.002 A 
ATOM     69  C   UNL A   1      45.136  23.780  36.417  1.00  0.00     0.091 A 
ATOM     70  F   UNL A   1      46.202  25.908  36.253  1.00  0.00    -0.205 F 
ATOM     71  C   UNL A   1      44.221  22.851  35.898  1.00  0.00     0.022 A 
BRANCH  69  72
ATOM     72  S   UNL A   1      45.986  23.326  37.933  1.00  0.00     0.127 S 
ATOM     73  O   UNL A   1      47.382  23.584  37.578  1.00  0.00    -0.237 OA
ATOM     74  O   UNL A   1      45.419  24.270  38.896  1.00  0.00    -0.237 OA
ATOM     75  O   UNL A   1      45.653  21.930  38.180  1.00  0.00    -0.744 OA
ENDBRANCH  69  72
ENDBRANCH  51  65
BRANCH  52  76
ATOM     76  C   UNL A   1      46.400  33.997  30.001  1.00  0.00     0.023 A 
ATOM     77  C   UNL A   1      47.149  34.963  30.701  1.00  0.00     0.012 A 
ATOM     78  C   UNL A   1      45.937  34.293  28.704  1.00  0.00     0.148 A 
ATOM     79  C   UNL A   1      47.410  36.209  30.131  1.00  0.00     0.002 A 
ATOM     80  C   UNL A   1      46.240  35.518  28.124  1.00  0.00     0.091 A 
ATOM     81  F   UNL A   1      45.211  33.365  28.064  1.00  0.00    -0.205 F 
ATOM     82  C   UNL A   1      46.965  36.483  28.841  1.00  0.00     0.022 A 
BRANCH  80  83
ATOM     83  S   UNL A   1      45.780  35.936  26.439  1.00  0.00     0.127 S 
ATOM     84  O   UNL A   1      44.357  36.238  26.585  1.00  0.00    -0.237 OA
ATOM     85  O   UNL A   1      46.628  37.098  26.175  1.00  0.00    -0.237 OA
ATOM     86  O   UNL A   1      46.087  34.758  25.638  1.00  0.00    -0.744 OA
ENDBRANCH  80  83
ENDBRANCH  52  76
BRANCH  64  87
ATOM     87  C   UNL A   1      49.676  27.822  29.946  1.00  0.00     0.023 A 
ATOM     88  C   UNL A   1      50.955  28.037  30.497  1.00  0.00     0.012 A 
ATOM     89  C   UNL A   1      49.555  27.060  28.765  1.00  0.00     0.148 A 
ATOM     90  C   UNL A   1      52.094  27.535  29.867  1.00  0.00     0.002 A 
ATOM     91  C   UNL A   1      50.688  26.515  28.173  1.00  0.00     0.091 A 
ATOM     92  F   UNL A   1      48.331  26.876  28.247  1.00  0.00    -0.205 F 
ATOM     93  C   UNL A   1      51.959  26.765  28.713  1.00  0.00     0.022 A 
BRANCH  91  94
ATOM     94  S   UNL A   1      50.603  25.427  26.747  1.00  0.00     0.127 S 
ATOM     95  O   UNL A   1      49.539  24.503  27.140  1.00  0.00    -0.237 OA
ATOM     96  O   UNL A   1      50.241  26.353  25.674  1.00  0.00    -0.237 OA
ATOM     97  O   UNL A   1      51.926  24.830  26.613  1.00  0.00    -0.744 OA
ENDBRANCH  91  94
ENDBRANCH  64  87
ENDBRANCH  38  39
ENDBRANCH  31  33
ENDBRANCH  30  31
ENDBRANCH  29  30
ENDBRANCH  28  29
ENDBRANCH  27  28
ENDBRANCH  26  27
ENDBRANCH  25  26
ENDBRANCH   1  25
TORSDOF 27
ENDMDL
MODEL 2
REMARK VINA RESULT:      -5.4      2.975      9.212
REMARK SMILES C[C@@H]1CN([C@@H](CCS(C)(=O)=O)C(=O)OCCOCCOCCOCCOC(=O)c2ccc(-c3c4nc(c(-c5cccc(S(=O)(=O)[O-])c5F)c5ccc([nH]5)c(-c5cccc(S(=O)(=O)[O-])c5F)c5nc(c(-c6cccc(S(=O)(=O)[O-])c6F)c6ccc3[nH]6)C=C5)C=C4)cc2)S(=O)(=O)C1
REMARK SMILES IDX 20 1 19 2 18 3 17 4 16 5 15 6 14 7 12 8 13 9 5 10 4 11 1 12
REMARK SMILES IDX 2 13 3 14 95 15 92 16 93 17 94 18 6 19 7 20 8 21 9 22 10 23
REMARK SMILES IDX 11 24 21 25 22 26 23 27 24 28 25 29 26 30 27 31 28 32 29 33
REMARK SMILES IDX 30 34 91 35 31 36 90 37 32 38 33 39 34 40 84 41 35 42 89 43
REMARK SMILES IDX 83 44 85 45 36 46 88 47 82 48 81 49 37 51 69 52 49 53 68 54
REMARK SMILES IDX 50 55 53 56 67 57 86 58 51 59 52 60 66 62 87 63 54 64 38 65
REMARK SMILES IDX 39 66 47 67 40 68 42 69 48 70 41 71 43 72 44 73 45 74 46 75
REMARK SMILES IDX 70 76 71 77 79 78 72 79 74 80 80 81 73 82 75 83 76 84 77 85
REMARK SMILES IDX 78 86 55 87 56 88 64 89 57 90 59 91 65 92 58 93 60 94 61 95
REMARK SMILES IDX 62 96 63 97
REMARK H PARENT 85 50 53 61
REMARK Flexibility Score: inf
ROOT
ATOM      1  O   UNL A   1      51.441  32.021  26.066  1.00  0.00    -0.377 OA
ENDROOT
BRANCH   1   2
ATOM      2  C   UNL A   1      51.376  30.939  26.957  1.00  0.00     0.188 C 
BRANCH   2   3
ATOM      3  C   UNL A   1      50.746  29.678  26.345  1.00  0.00     0.188 C 
BRANCH   3   4
ATOM      4  O   UNL A   1      51.560  28.612  25.878  1.00  0.00    -0.376 OA
BRANCH   4   5
ATOM      5  C   UNL A   1      51.445  28.116  24.549  1.00  0.00     0.202 C 
BRANCH   5   6
ATOM      6  C   UNL A   1      50.179  27.428  24.026  1.00  0.00     0.261 C 
BRANCH   6   7
ATOM      7  O   UNL A   1      49.765  26.246  24.731  1.00  0.00    -0.462 OA
BRANCH   7   8
ATOM      8  C   UNL A   1      48.513  25.821  24.525  1.00  0.00     0.324 C 
ATOM      9  O   UNL A   1      48.084  25.523  23.405  1.00  0.00    -0.250 OA
BRANCH   8  10
ATOM     10  C   UNL A   1      47.575  25.819  25.709  1.00  0.00     0.183 C 
BRANCH  10  11
ATOM     11  N   UNL A   1      46.933  26.939  26.447  1.00  0.00    -0.187 NA
ATOM     12  C   UNL A   1      44.273  27.101  29.127  1.00  0.00     0.010 C 
ATOM     13  C   UNL A   1      44.917  27.045  27.752  1.00  0.00     0.017 C 
ATOM     14  C   UNL A   1      46.396  26.654  27.801  1.00  0.00     0.107 C 
ATOM     15  C   UNL A   1      44.890  28.393  27.044  1.00  0.00     0.159 C 
ATOM     16  S   UNL A   1      46.132  28.276  25.765  1.00  0.00     0.215 S 
ATOM     17  O   UNL A   1      46.944  29.457  25.888  1.00  0.00    -0.212 OA
ATOM     18  O   UNL A   1      45.444  27.872  24.564  1.00  0.00    -0.212 OA
ENDBRANCH  10  11
BRANCH  10  19
ATOM     19  C   UNL A   1      46.792  24.490  25.701  1.00  0.00     0.048 C 
BRANCH  19  20
ATOM     20  C   UNL A   1      45.452  24.336  24.993  1.00  0.00     0.139 C 
BRANCH  20  21
ATOM     21  S   UNL A   1      44.381  22.947  25.352  1.00  0.00     0.147 S 
ATOM     22  C   UNL A   1      43.551  23.336  26.869  1.00  0.00     0.158 C 
ATOM     23  O   UNL A   1      43.343  22.943  24.340  1.00  0.00    -0.229 OA
ATOM     24  O   UNL A   1      45.159  21.760  25.619  1.00  0.00    -0.229 OA
ENDBRANCH  20  21
ENDBRANCH  19  20
ENDBRANCH  10  19
ENDBRANCH   8  10
ENDBRANCH   7   8
ENDBRANCH   6   7
ENDBRANCH   5   6
ENDBRANCH   4   5
ENDBRANCH   3   4
ENDBRANCH   2   3
ENDBRANCH   1   2
BRANCH   1  25
ATOM     25  C   UNL A   1      52.045  33.244  26.446  1.00  0.00     0.188 C 
BRANCH  25  26
ATOM     26  C   UNL A   1      51.517  34.555  25.839  1.00  0.00     0.188 C 
BRANCH  26  27
ATOM     27  O   UNL A   1      50.467  35.162  26.577  1.00  0.00    -0.376 OA
BRANCH  27  28
ATOM     28  C   UNL A   1      49.142  35.046  26.085  1.00  0.00     0.202 C 
BRANCH  28  29
ATOM     29  C   UNL A   1      48.195  36.254  26.184  1.00  0.00     0.261 C 
BRANCH  29  30
ATOM     30  O   UNL A   1      46.824  36.052  25.815  1.00  0.00    -0.460 OA
BRANCH  30  31
ATOM     31  C   UNL A   1      45.861  36.444  26.672  1.00  0.00     0.338 C 
ATOM     32  O   UNL A   1      45.289  37.518  26.691  1.00  0.00    -0.246 OA
BRANCH  31  33
ATOM     33  C   UNL A   1      45.489  35.276  27.500  1.00  0.00     0.060 A 
ATOM     34  C   UNL A   1      45.816  35.267  28.862  1.00  0.00     0.016 A 
ATOM     35  C   UNL A   1      44.847  34.182  26.919  1.00  0.00     0.016 A 
ATOM     36  C   UNL A   1      45.556  34.135  29.635  1.00  0.00     0.010 A 
ATOM     37  C   UNL A   1      44.603  33.043  27.691  1.00  0.00     0.010 A 
ATOM     38  C   UNL A   1      44.998  32.998  29.040  1.00  0.00    -0.014 A 
BRANCH  38  39
ATOM     39  C   UNL A   1      45.012  31.701  29.759  1.00  0.00     0.031 A 
ATOM     40  C   UNL A   1      43.809  31.331  30.585  1.00  0.00     0.074 A 
ATOM     41  C   UNL A   1      46.071  30.875  29.696  1.00  0.00     0.049 A 
ATOM     42  N   UNL A   1      43.618  30.296  31.359  1.00  0.00    -0.248 NA
ATOM     43  C   UNL A   1      42.670  32.263  30.535  1.00  0.00     0.031 C 
ATOM     44  C   UNL A   1      47.284  31.113  28.918  1.00  0.00     0.029 A 
ATOM     45  N   UNL A   1      46.301  29.679  30.327  1.00  0.00    -0.354 N 
ATOM     46  C   UNL A   1      42.358  30.470  31.919  1.00  0.00     0.074 A 
ATOM     47  C   UNL A   1      41.834  31.716  31.405  1.00  0.00     0.031 C 
ATOM     48  C   UNL A   1      48.148  30.108  29.142  1.00  0.00     0.029 A 
ATOM     49  C   UNL A   1      47.561  29.177  30.105  1.00  0.00     0.049 A 
ATOM     50  H   UNL A   1      45.629  29.223  30.885  1.00  0.00     0.167 HD
ATOM     51  C   UNL A   1      41.692  29.663  32.779  1.00  0.00     0.034 A 
ATOM     52  C   UNL A   1      48.179  28.106  30.643  1.00  0.00     0.034 A 
ATOM     53  C   UNL A   1      42.215  28.423  33.282  1.00  0.00     0.049 A 
ATOM     54  C   UNL A   1      47.434  27.243  31.630  1.00  0.00     0.074 A 
ATOM     55  C   UNL A   1      41.604  27.510  34.123  1.00  0.00     0.029 A 
ATOM     56  N   UNL A   1      43.482  27.931  33.010  1.00  0.00    -0.354 N 
ATOM     57  N   UNL A   1      46.207  27.365  32.077  1.00  0.00    -0.248 NA
ATOM     58  C   UNL A   1      48.151  26.076  32.165  1.00  0.00     0.031 C 
ATOM     59  C   UNL A   1      42.521  26.490  34.398  1.00  0.00     0.029 A 
ATOM     60  C   UNL A   1      43.681  26.737  33.683  1.00  0.00     0.049 A 
ATOM     61  H   UNL A   1      44.143  28.366  32.424  1.00  0.00     0.167 HD
ATOM     62  C   UNL A   1      45.991  26.271  32.908  1.00  0.00     0.074 A 
ATOM     63  C   UNL A   1      47.211  25.490  32.894  1.00  0.00     0.031 C 
ATOM     64  C   UNL A   1      44.884  25.944  33.623  1.00  0.00     0.034 A 
BRANCH  51  65
ATOM     65  C   UNL A   1      40.324  30.106  33.234  1.00  0.00     0.023 A 
ATOM     66  C   UNL A   1      39.198  29.870  32.419  1.00  0.00     0.012 A 
ATOM     67  C   UNL A   1      40.150  30.729  34.485  1.00  0.00     0.148 A 
ATOM     68  C   UNL A   1      37.929  30.288  32.821  1.00  0.00     0.002 A 
ATOM     69  C   UNL A   1      38.876  31.094  34.902  1.00  0.00     0.091 A 
ATOM     70  F   UNL A   1      41.234  30.964  35.239  1.00  0.00    -0.205 F 
ATOM     71  C   UNL A   1      37.768  30.890  34.065  1.00  0.00     0.022 A 
BRANCH  69  72
ATOM     72  S   UNL A   1      38.553  31.801  36.522  1.00  0.00     0.127 S 
ATOM     73  O   UNL A   1      37.863  33.042  36.170  1.00  0.00    -0.237 OA
ATOM     74  O   UNL A   1      37.699  30.783  37.135  1.00  0.00    -0.237 OA
ATOM     75  O   UNL A   1      39.852  31.968  37.157  1.00  0.00    -0.744 OA
ENDBRANCH  69  72
ENDBRANCH  51  65
BRANCH  52  76
ATOM     76  C   UNL A   1      49.575  27.772  30.242  1.00  0.00     0.023 A 
ATOM     77  C   UNL A   1      49.797  26.975  29.101  1.00  0.00     0.012 A 
ATOM     78  C   UNL A   1      50.679  28.240  30.980  1.00  0.00     0.148 A 
ATOM     79  C   UNL A   1      51.093  26.630  28.718  1.00  0.00     0.002 A 
ATOM     80  C   UNL A   1      51.969  27.931  30.566  1.00  0.00     0.091 A 
ATOM     81  F   UNL A   1      50.443  28.982  32.071  1.00  0.00    -0.205 F 
ATOM     82  C   UNL A   1      52.179  27.116  29.443  1.00  0.00     0.022 A 
BRANCH  80  83
ATOM     83  S   UNL A   1      53.432  28.573  31.386  1.00  0.00     0.127 S 
ATOM     84  O   UNL A   1      53.060  29.967  31.613  1.00  0.00    -0.237 OA
ATOM     85  O   UNL A   1      53.486  27.750  32.594  1.00  0.00    -0.237 OA
ATOM     86  O   UNL A   1      54.535  28.366  30.455  1.00  0.00    -0.744 OA
ENDBRANCH  80  83
ENDBRANCH  52  76
BRANCH  64  87
ATOM     87  C   UNL A   1      44.905  24.657  34.408  1.00  0.00     0.023 A 
ATOM     88  C   UNL A   1      44.653  23.427  33.769  1.00  0.00     0.012 A 
ATOM     89  C   UNL A   1      45.257  24.664  35.774  1.00  0.00     0.148 A 
ATOM     90  C   UNL A   1      44.715  22.230  34.483  1.00  0.00     0.002 A 
ATOM     91  C   UNL A   1      45.373  23.464  36.465  1.00  0.00     0.091 A 
ATOM     92  F   UNL A   1      45.481  25.845  36.369  1.00  0.00    -0.205 F 
ATOM     93  C   UNL A   1      45.086  22.248  35.826  1.00  0.00     0.022 A 
BRANCH  91  94
ATOM     94  S   UNL A   1      45.944  23.380  38.166  1.00  0.00     0.127 S 
ATOM     95  O   UNL A   1      47.256  24.021  38.071  1.00  0.00    -0.237 OA
ATOM     96  O   UNL A   1      44.931  24.167  38.870  1.00  0.00    -0.237 OA
ATOM     97  O   UNL A   1      45.967  21.967  38.517  1.00  0.00    -0.744 OA
ENDBRANCH  91  94
ENDBRANCH  64  87
ENDBRANCH  38  39
ENDBRANCH  31  33
ENDBRANCH  30  31
ENDBRANCH  29  30
ENDBRANCH  28  29
ENDBRANCH  27  28
ENDBRANCH  26  27
ENDBRANCH  25  26
ENDBRANCH   1  25
TORSDOF 27
ENDMDL
MODEL 3
REMARK VINA RESULT:      -5.4      2.991      9.337
REMARK SMILES C[C@@H]1CN([C@@H](CCS(C)(=O)=O)C(=O)OCCOCCOCCOCCOC(=O)c2ccc(-c3c4nc(c(-c5cccc(S(=O)(=O)[O-])c5F)c5ccc([nH]5)c(-c5cccc(S(=O)(=O)[O-])c5F)c5nc(c(-c6cccc(S(=O)(=O)[O-])c6F)c6ccc3[nH]6)C=C5)C=C4)cc2)S(=O)(=O)C1
REMARK SMILES IDX 20 1 19 2 18 3 17 4 16 5 15 6 14 7 12 8 13 9 5 10 4 11 1 12
REMARK SMILES IDX 2 13 3 14 95 15 92 16 93 17 94 18 6 19 7 20 8 21 9 22 10 23
REMARK SMILES IDX 11 24 21 25 22 26 23 27 24 28 25 29 26 30 27 31 28 32 29 33
REMARK SMILES IDX 30 34 91 35 31 36 90 37 32 38 33 39 34 40 84 41 35 42 89 43
REMARK SMILES IDX 83 44 85 45 36 46 88 47 82 48 81 49 37 51 69 52 49 53 68 54
REMARK SMILES IDX 50 55 53 56 67 57 86 58 51 59 52 60 66 62 87 63 54 64 38 65
REMARK SMILES IDX 39 66 47 67 40 68 42 69 48 70 41 71 43 72 44 73 45 74 46 75
REMARK SMILES IDX 70 76 71 77 79 78 72 79 74 80 80 81 73 82 75 83 76 84 77 85
REMARK SMILES IDX 78 86 55 87 56 88 64 89 57 90 59 91 65 92 58 93 60 94 61 95
REMARK SMILES IDX 62 96 63 97
REMARK H PARENT 85 50 53 61
REMARK Flexibility Score: inf
ROOT
ATOM      1  O   UNL A   1      46.776  25.061  27.985  1.00  0.00    -0.377 OA
ENDROOT
BRANCH   1   2
ATOM      2  C   UNL A   1      46.267  23.812  27.599  1.00  0.00     0.188 C 
BRANCH   2   3
ATOM      3  C   UNL A   1      45.125  23.905  26.577  1.00  0.00     0.188 C 
BRANCH   3   4
ATOM      4  O   UNL A   1      43.853  23.334  26.852  1.00  0.00    -0.376 OA
BRANCH   4   5
ATOM      5  C   UNL A   1      43.263  23.422  28.144  1.00  0.00     0.202 C 
BRANCH   5   6
ATOM      6  C   UNL A   1      41.835  23.932  28.371  1.00  0.00     0.261 C 
BRANCH   6   7
ATOM      7  O   UNL A   1      41.301  24.792  27.350  1.00  0.00    -0.462 OA
BRANCH   7   8
ATOM      8  C   UNL A   1      40.276  25.581  27.693  1.00  0.00     0.324 C 
ATOM      9  O   UNL A   1      39.137  25.431  27.240  1.00  0.00    -0.250 OA
BRANCH   8  10
ATOM     10  C   UNL A   1      40.575  26.760  28.589  1.00  0.00     0.183 C 
BRANCH  10  11
ATOM     11  N   UNL A   1      41.606  27.827  28.485  1.00  0.00    -0.187 NA
ATOM     12  C   UNL A   1      44.600  28.339  26.236  1.00  0.00     0.010 C 
ATOM     13  C   UNL A   1      43.755  27.872  27.411  1.00  0.00     0.017 C 
ATOM     14  C   UNL A   1      42.253  28.032  27.165  1.00  0.00     0.107 C 
ATOM     15  C   UNL A   1      44.034  28.669  28.677  1.00  0.00     0.159 C 
ATOM     16  S   UNL A   1      42.620  28.383  29.732  1.00  0.00     0.215 S 
ATOM     17  O   UNL A   1      42.190  29.680  30.182  1.00  0.00    -0.212 OA
ATOM     18  O   UNL A   1      42.973  27.287  30.599  1.00  0.00    -0.212 OA
ENDBRANCH  10  11
BRANCH  10  19
ATOM     19  C   UNL A   1      39.272  27.160  29.310  1.00  0.00     0.048 C 
BRANCH  19  20
ATOM     20  C   UNL A   1      38.544  28.465  29.019  1.00  0.00     0.139 C 
BRANCH  20  21
ATOM     21  S   UNL A   1      38.154  29.611  30.338  1.00  0.00     0.147 S 
ATOM     22  C   UNL A   1      36.530  30.231  29.996  1.00  0.00     0.158 C 
ATOM     23  O   UNL A   1      38.015  28.827  31.549  1.00  0.00    -0.229 OA
ATOM     24  O   UNL A   1      39.032  30.757  30.294  1.00  0.00    -0.229 OA
ENDBRANCH  20  21
ENDBRANCH  19  20
ENDBRANCH  10  19
ENDBRANCH   8  10
ENDBRANCH   7   8
ENDBRANCH   6   7
ENDBRANCH   5   6
ENDBRANCH   4   5
ENDBRANCH   3   4
ENDBRANCH   2   3
ENDBRANCH   1   2
BRANCH   1  25
ATOM     25  C   UNL A   1      47.380  25.926  27.041  1.00  0.00     0.188 C 
BRANCH  25  26
ATOM     26  C   UNL A   1      48.385  25.343  26.033  1.00  0.00     0.188 C 
BRANCH  26  27
ATOM     27  O   UNL A   1      49.706  25.846  26.163  1.00  0.00    -0.376 OA
BRANCH  27  28
ATOM     28  C   UNL A   1      50.560  25.255  27.129  1.00  0.00     0.202 C 
BRANCH  28  29
ATOM     29  C   UNL A   1      51.821  26.012  27.581  1.00  0.00     0.261 C 
BRANCH  29  30
ATOM     30  O   UNL A   1      51.668  26.997  28.612  1.00  0.00    -0.460 OA
BRANCH  30  31
ATOM     31  C   UNL A   1      51.842  28.295  28.294  1.00  0.00     0.338 C 
ATOM     32  O   UNL A   1      52.773  28.781  27.678  1.00  0.00    -0.246 OA
BRANCH  31  33
ATOM     33  C   UNL A   1      50.615  29.025  28.681  1.00  0.00     0.060 A 
ATOM     34  C   UNL A   1      50.663  29.933  29.747  1.00  0.00     0.016 A 
ATOM     35  C   UNL A   1      49.416  28.783  28.010  1.00  0.00     0.016 A 
ATOM     36  C   UNL A   1      49.495  30.559  30.184  1.00  0.00     0.010 A 
ATOM     37  C   UNL A   1      48.244  29.398  28.460  1.00  0.00     0.010 A 
ATOM     38  C   UNL A   1      48.271  30.252  29.577  1.00  0.00    -0.014 A 
BRANCH  38  39
ATOM     39  C   UNL A   1      47.000  30.654  30.226  1.00  0.00     0.031 A 
ATOM     40  C   UNL A   1      46.458  29.786  31.330  1.00  0.00     0.074 A 
ATOM     41  C   UNL A   1      46.331  31.753  29.837  1.00  0.00     0.049 A 
ATOM     42  N   UNL A   1      45.336  29.886  31.993  1.00  0.00    -0.248 NA
ATOM     43  C   UNL A   1      47.296  28.645  31.736  1.00  0.00     0.031 C 
ATOM     44  C   UNL A   1      46.761  32.681  28.794  1.00  0.00     0.029 A 
ATOM     45  N   UNL A   1      45.126  32.254  30.262  1.00  0.00    -0.354 N 
ATOM     46  C   UNL A   1      45.313  28.802  32.862  1.00  0.00     0.074 A 
ATOM     47  C   UNL A   1      46.527  28.052  32.637  1.00  0.00     0.031 C 
ATOM     48  C   UNL A   1      45.816  33.625  28.635  1.00  0.00     0.029 A 
ATOM     49  C   UNL A   1      44.703  33.346  29.542  1.00  0.00     0.049 A 
ATOM     50  H   UNL A   1      44.613  31.869  31.010  1.00  0.00     0.167 HD
ATOM     51  C   UNL A   1      44.369  28.465  33.773  1.00  0.00     0.034 A 
ATOM     52  C   UNL A   1      43.537  34.021  29.589  1.00  0.00     0.034 A 
ATOM     53  C   UNL A   1      43.166  29.219  33.997  1.00  0.00     0.049 A 
ATOM     54  C   UNL A   1      42.482  33.603  30.582  1.00  0.00     0.074 A 
ATOM     55  C   UNL A   1      42.166  28.988  34.925  1.00  0.00     0.029 A 
ATOM     56  N   UNL A   1      42.787  30.337  33.272  1.00  0.00    -0.354 N 
ATOM     57  N   UNL A   1      42.513  32.636  31.467  1.00  0.00    -0.248 NA
ATOM     58  C   UNL A   1      41.241  34.392  30.603  1.00  0.00     0.031 C 
ATOM     59  C   UNL A   1      41.159  29.937  34.727  1.00  0.00     0.029 A 
ATOM     60  C   UNL A   1      41.558  30.796  33.716  1.00  0.00     0.049 A 
ATOM     61  H   UNL A   1      43.314  30.745  32.546  1.00  0.00     0.167 HD
ATOM     62  C   UNL A   1      41.320  32.727  32.177  1.00  0.00     0.074 A 
ATOM     63  C   UNL A   1      40.593  33.851  31.626  1.00  0.00     0.031 C 
ATOM     64  C   UNL A   1      40.866  31.946  33.190  1.00  0.00     0.034 A 
BRANCH  51  65
ATOM     65  C   UNL A   1      44.602  27.220  34.590  1.00  0.00     0.023 A 
ATOM     66  C   UNL A   1      45.306  27.296  35.810  1.00  0.00     0.012 A 
ATOM     67  C   UNL A   1      44.094  25.976  34.164  1.00  0.00     0.148 A 
ATOM     68  C   UNL A   1      45.541  26.148  36.568  1.00  0.00     0.002 A 
ATOM     69  C   UNL A   1      44.287  24.847  34.951  1.00  0.00     0.091 A 
ATOM     70  F   UNL A   1      43.445  25.918  32.993  1.00  0.00    -0.205 F 
ATOM     71  C   UNL A   1      45.024  24.928  36.143  1.00  0.00     0.022 A 
BRANCH  69  72
ATOM     72  S   UNL A   1      43.589  23.245  34.533  1.00  0.00     0.127 S 
ATOM     73  O   UNL A   1      44.398  22.347  35.356  1.00  0.00    -0.237 OA
ATOM     74  O   UNL A   1      42.202  23.391  34.975  1.00  0.00    -0.237 OA
ATOM     75  O   UNL A   1      43.757  23.095  33.095  1.00  0.00    -0.744 OA
ENDBRANCH  69  72
ENDBRANCH  51  65
BRANCH  52  76
ATOM     76  C   UNL A   1      43.311  35.182  28.682  1.00  0.00     0.023 A 
ATOM     77  C   UNL A   1      42.752  34.967  27.406  1.00  0.00     0.012 A 
ATOM     78  C   UNL A   1      43.643  36.493  29.076  1.00  0.00     0.148 A 
ATOM     79  C   UNL A   1      42.552  36.034  26.530  1.00  0.00     0.002 A 
ATOM     80  C   UNL A   1      43.397  37.557  28.216  1.00  0.00     0.091 A 
ATOM     81  F   UNL A   1      44.189  36.671  30.287  1.00  0.00    -0.205 F 
ATOM     82  C   UNL A   1      42.864  37.328  26.938  1.00  0.00     0.022 A 
BRANCH  80  83
ATOM     83  S   UNL A   1      43.692  39.267  28.678  1.00  0.00     0.127 S 
ATOM     84  O   UNL A   1      43.766  39.920  27.373  1.00  0.00    -0.237 OA
ATOM     85  O   UNL A   1      42.491  39.580  29.452  1.00  0.00    -0.237 OA
ATOM     86  O   UNL A   1      44.931  39.265  29.445  1.00  0.00    -0.744 OA
ENDBRANCH  80  83
ENDBRANCH  52  76
BRANCH  64  87
ATOM     87  C   UNL A   1      39.544  32.307  33.821  1.00  0.00     0.023 A 
ATOM     88  C   UNL A   1      38.344  32.162  33.096  1.00  0.00     0.012 A 
ATOM     89  C   UNL A   1      39.489  32.717  35.169  1.00  0.00     0.148 A 
ATOM     90  C   UNL A   1      37.116  32.452  33.691  1.00  0.00     0.002 A 
ATOM     91  C   UNL A   1      38.258  32.949  35.772  1.00  0.00     0.091 A 
ATOM     92  F   UNL A   1      40.641  32.862  35.840  1.00  0.00    -0.205 F 
ATOM     93  C   UNL A   1      37.073  32.833  35.030  1.00  0.00     0.022 A 
BRANCH  91  94
ATOM     94  S   UNL A   1      38.097  33.344  37.517  1.00  0.00     0.127 S 
ATOM     95  O   UNL A   1      38.931  32.312  38.134  1.00  0.00    -0.237 OA
ATOM     96  O   UNL A   1      38.654  34.696  37.580  1.00  0.00    -0.237 OA
ATOM     97  O   UNL A   1      36.675  33.258  37.823  1.00  0.00    -0.744 OA
ENDBRANCH  91  94
ENDBRANCH  64  87
ENDBRANCH  38  39
ENDBRANCH  31  33
ENDBRANCH  30  31
ENDBRANCH  29  30
ENDBRANCH  28  29
ENDBRANCH  27  28
ENDBRANCH  26  27
ENDBRANCH  25  26
ENDBRANCH   1  25
TORSDOF 27
ENDMDL
