MODEL 1
REMARK VINA RESULT:      -9.7      0.000      0.000
REMARK SMILES Cc1ccc(Nc2c(F)cccc2Cl)c(CC(=O)OCCOCCOCCOCCOC(=O)c2ccc(-c3c4nc(c(-c5cccc(S(=O)(=O)[O-])c5F)c5ccc([nH]5)c(-c5cccc(S(=O)(=O)[O-])c5F)c5nc(c(-c6cccc(S(=O)(=O)[O-])c6F)c6ccc3[nH]6)C=C5)C=C4)cc2)c1
REMARK SMILES IDX 25 1 24 2 23 3 22 4 21 5 20 6 19 7 17 8 18 9 16 10 15 11
REMARK SMILES IDX 1 12 2 13 3 14 97 15 4 16 5 17 6 18 7 20 8 21 13 22 9 23
REMARK SMILES IDX 10 24 12 25 14 26 11 27 26 28 27 29 28 30 29 31 30 32 31 33
REMARK SMILES IDX 32 34 33 35 34 36 35 37 96 38 36 39 95 40 37 41 38 42 39 43
REMARK SMILES IDX 89 44 40 45 94 46 88 47 90 48 41 49 93 50 87 51 86 52 42 54
REMARK SMILES IDX 74 55 54 56 73 57 55 58 58 59 72 60 91 61 56 62 57 63 71 65
REMARK SMILES IDX 92 66 59 67 43 68 44 69 52 70 45 71 47 72 53 73 46 74 48 75
REMARK SMILES IDX 49 76 50 77 51 78 75 79 76 80 84 81 77 82 79 83 85 84 78 85
REMARK SMILES IDX 80 86 81 87 82 88 83 89 60 90 61 91 69 92 62 93 64 94 70 95
REMARK SMILES IDX 63 96 65 97 66 98 67 99 68 100
REMARK H PARENT 6 19 90 53 58 64
REMARK Flexibility Score: inf
ROOT
ATOM      1  O   UNL A   1      33.390  28.097  26.260  1.00  0.00    -0.377 OA
ENDROOT
BRANCH   1   2
ATOM      2  C   UNL A   1      33.609  27.402  25.034  1.00  0.00     0.188 C 
BRANCH   2   3
ATOM      3  C   UNL A   1      33.979  28.365  23.941  1.00  0.00     0.188 C 
BRANCH   3   4
ATOM      4  O   UNL A   1      33.160  28.385  22.783  1.00  0.00    -0.376 OA
BRANCH   4   5
ATOM      5  C   UNL A   1      32.223  27.320  22.789  1.00  0.00     0.202 C 
BRANCH   5   6
ATOM      6  C   UNL A   1      32.303  26.333  21.612  1.00  0.00     0.261 C 
BRANCH   6   7
ATOM      7  O   UNL A   1      33.550  25.614  21.517  1.00  0.00    -0.463 OA
BRANCH   7   8
ATOM      8  C   UNL A   1      33.721  24.584  22.381  1.00  0.00     0.310 C 
ATOM      9  O   UNL A   1      34.800  24.198  22.817  1.00  0.00    -0.252 OA
BRANCH   8  10
ATOM     10  C   UNL A   1      32.441  23.847  22.704  1.00  0.00     0.160 C 
BRANCH  10  11
ATOM     11  C   UNL A   1      32.054  23.641  24.159  1.00  0.00    -0.013 A 
ATOM     12  C   UNL A   1      29.362  25.183  26.447  1.00  0.00     0.044 C 
ATOM     13  C   UNL A   1      30.512  24.360  25.952  1.00  0.00    -0.051 A 
ATOM     14  C   UNL A   1      31.103  23.436  26.799  1.00  0.00     0.005 A 
ATOM     15  C   UNL A   1      31.000  24.466  24.647  1.00  0.00     0.009 A 
ATOM     16  C   UNL A   1      32.162  22.645  26.347  1.00  0.00     0.026 A 
ATOM     17  C   UNL A   1      32.660  22.694  25.029  1.00  0.00     0.042 A 
BRANCH  17  18
ATOM     18  N   UNL A   1      33.753  21.861  24.621  1.00  0.00    -0.352 N 
ATOM     19  H   UNL A   1      34.641  22.288  24.625  1.00  0.00     0.167 HD
BRANCH  18  20
ATOM     20  C   UNL A   1      33.724  20.482  24.204  1.00  0.00     0.094 A 
ATOM     21  C   UNL A   1      32.611  19.882  23.600  1.00  0.00     0.148 A 
ATOM     22  C   UNL A   1      34.750  19.598  24.612  1.00  0.00     0.067 A 
ATOM     23  F   UNL A   1      31.677  20.633  22.994  1.00  0.00    -0.205 F 
ATOM     24  C   UNL A   1      32.411  18.497  23.609  1.00  0.00     0.041 A 
ATOM     25  C   UNL A   1      34.550  18.208  24.649  1.00  0.00     0.023 A 
ATOM     26  Cl  UNL A   1      36.293  20.203  25.107  1.00  0.00    -0.082 Cl
ATOM     27  C   UNL A   1      33.358  17.660  24.186  1.00  0.00     0.005 A 
ENDBRANCH  18  20
ENDBRANCH  17  18
ENDBRANCH  10  11
ENDBRANCH   8  10
ENDBRANCH   7   8
ENDBRANCH   6   7
ENDBRANCH   5   6
ENDBRANCH   4   5
ENDBRANCH   3   4
ENDBRANCH   2   3
ENDBRANCH   1   2
BRANCH   1  28
ATOM     28  C   UNL A   1      32.044  28.561  26.377  1.00  0.00     0.188 C 
BRANCH  28  29
ATOM     29  C   UNL A   1      31.946  29.980  26.935  1.00  0.00     0.188 C 
BRANCH  29  30
ATOM     30  O   UNL A   1      33.236  30.573  27.055  1.00  0.00    -0.376 OA
BRANCH  30  31
ATOM     31  C   UNL A   1      33.368  31.650  27.978  1.00  0.00     0.202 C 
BRANCH  31  32
ATOM     32  C   UNL A   1      33.124  32.960  27.227  1.00  0.00     0.261 C 
BRANCH  32  33
ATOM     33  O   UNL A   1      33.979  33.973  27.787  1.00  0.00    -0.460 OA
BRANCH  33  34
ATOM     34  C   UNL A   1      33.824  34.138  29.133  1.00  0.00     0.338 C 
ATOM     35  O   UNL A   1      32.844  34.647  29.658  1.00  0.00    -0.246 OA
BRANCH  34  36
ATOM     36  C   UNL A   1      35.091  33.783  29.839  1.00  0.00     0.060 A 
ATOM     37  C   UNL A   1      36.312  33.881  29.154  1.00  0.00     0.016 A 
ATOM     38  C   UNL A   1      35.066  33.181  31.096  1.00  0.00     0.016 A 
ATOM     39  C   UNL A   1      37.475  33.275  29.667  1.00  0.00     0.010 A 
ATOM     40  C   UNL A   1      36.222  32.576  31.595  1.00  0.00     0.010 A 
ATOM     41  C   UNL A   1      37.429  32.560  30.865  1.00  0.00    -0.014 A 
BRANCH  41  42
ATOM     42  C   UNL A   1      38.473  31.609  31.330  1.00  0.00     0.031 A 
ATOM     43  C   UNL A   1      38.709  30.299  30.636  1.00  0.00     0.074 A 
ATOM     44  C   UNL A   1      39.523  32.115  32.035  1.00  0.00     0.049 A 
ATOM     45  N   UNL A   1      39.720  29.525  30.889  1.00  0.00    -0.248 NA
ATOM     46  C   UNL A   1      37.835  29.737  29.607  1.00  0.00     0.031 C 
ATOM     47  C   UNL A   1      40.924  31.745  31.840  1.00  0.00     0.029 A 
ATOM     48  N   UNL A   1      39.597  33.081  33.040  1.00  0.00    -0.354 N 
ATOM     49  C   UNL A   1      39.855  28.665  29.826  1.00  0.00     0.074 A 
ATOM     50  C   UNL A   1      38.570  28.704  29.170  1.00  0.00     0.031 C 
ATOM     51  C   UNL A   1      41.717  32.446  32.648  1.00  0.00     0.029 A 
ATOM     52  C   UNL A   1      40.861  33.000  33.657  1.00  0.00     0.049 A 
ATOM     53  H   UNL A   1      38.883  33.716  33.279  1.00  0.00     0.167 HD
ATOM     54  C   UNL A   1      41.081  28.154  29.504  1.00  0.00     0.034 A 
ATOM     55  C   UNL A   1      41.098  32.821  34.986  1.00  0.00     0.034 A 
ATOM     56  C   UNL A   1      42.154  28.396  30.504  1.00  0.00     0.049 A 
ATOM     57  C   UNL A   1      41.713  31.454  35.278  1.00  0.00     0.074 A 
ATOM     58  C   UNL A   1      43.523  28.618  30.457  1.00  0.00     0.029 A 
ATOM     59  N   UNL A   1      41.840  28.436  31.862  1.00  0.00    -0.354 N 
ATOM     60  N   UNL A   1      42.369  30.722  34.409  1.00  0.00    -0.248 NA
ATOM     61  C   UNL A   1      41.544  30.755  36.549  1.00  0.00     0.031 C 
ATOM     62  C   UNL A   1      44.017  28.779  31.789  1.00  0.00     0.029 A 
ATOM     63  C   UNL A   1      42.959  28.599  32.658  1.00  0.00     0.049 A 
ATOM     64  H   UNL A   1      40.925  28.358  32.215  1.00  0.00     0.167 HD
ATOM     65  C   UNL A   1      42.471  29.436  34.876  1.00  0.00     0.074 A 
ATOM     66  C   UNL A   1      42.020  29.531  36.256  1.00  0.00     0.031 C 
ATOM     67  C   UNL A   1      42.818  28.368  34.089  1.00  0.00     0.034 A 
BRANCH  54  68
ATOM     68  C   UNL A   1      41.377  27.476  28.168  1.00  0.00     0.023 A 
ATOM     69  C   UNL A   1      41.333  28.275  27.002  1.00  0.00     0.012 A 
ATOM     70  C   UNL A   1      41.608  26.090  27.963  1.00  0.00     0.148 A 
ATOM     71  C   UNL A   1      41.470  27.737  25.716  1.00  0.00     0.002 A 
ATOM     72  C   UNL A   1      41.856  25.574  26.684  1.00  0.00     0.091 A 
ATOM     73  F   UNL A   1      41.497  25.239  28.990  1.00  0.00    -0.205 F 
ATOM     74  C   UNL A   1      41.753  26.390  25.555  1.00  0.00     0.022 A 
BRANCH  72  75
ATOM     75  S   UNL A   1      42.395  23.874  26.412  1.00  0.00     0.127 S 
ATOM     76  O   UNL A   1      42.745  23.878  24.993  1.00  0.00    -0.237 OA
ATOM     77  O   UNL A   1      43.540  23.758  27.317  1.00  0.00    -0.237 OA
ATOM     78  O   UNL A   1      41.261  23.033  26.779  1.00  0.00    -0.744 OA
ENDBRANCH  72  75
ENDBRANCH  54  68
BRANCH  55  79
ATOM     79  C   UNL A   1      40.210  33.666  35.824  1.00  0.00     0.023 A 
ATOM     80  C   UNL A   1      39.017  33.026  36.241  1.00  0.00     0.012 A 
ATOM     81  C   UNL A   1      40.746  34.692  36.613  1.00  0.00     0.148 A 
ATOM     82  C   UNL A   1      38.475  33.275  37.502  1.00  0.00     0.002 A 
ATOM     83  C   UNL A   1      40.237  34.889  37.896  1.00  0.00     0.091 A 
ATOM     84  F   UNL A   1      41.845  35.321  36.177  1.00  0.00    -0.205 F 
ATOM     85  C   UNL A   1      39.120  34.169  38.350  1.00  0.00     0.022 A 
BRANCH  83  86
ATOM     86  S   UNL A   1      41.178  35.822  39.116  1.00  0.00     0.127 S 
ATOM     87  O   UNL A   1      41.135  37.169  38.560  1.00  0.00    -0.237 OA
ATOM     88  O   UNL A   1      40.394  35.622  40.335  1.00  0.00    -0.237 OA
ATOM     89  O   UNL A   1      42.479  35.168  39.143  1.00  0.00    -0.744 OA
ENDBRANCH  83  86
ENDBRANCH  55  79
BRANCH  67  90
ATOM     90  C   UNL A   1      42.980  26.938  34.586  1.00  0.00     0.023 A 
ATOM     91  C   UNL A   1      41.874  26.194  35.036  1.00  0.00     0.012 A 
ATOM     92  C   UNL A   1      44.261  26.335  34.735  1.00  0.00     0.148 A 
ATOM     93  C   UNL A   1      42.014  24.884  35.509  1.00  0.00     0.002 A 
ATOM     94  C   UNL A   1      44.404  25.059  35.270  1.00  0.00     0.091 A 
ATOM     95  F   UNL A   1      45.360  26.991  34.346  1.00  0.00    -0.205 F 
ATOM     96  C   UNL A   1      43.277  24.316  35.627  1.00  0.00     0.022 A 
BRANCH  94  97
ATOM     97  S   UNL A   1      46.011  24.315  35.603  1.00  0.00     0.127 S 
ATOM     98  O   UNL A   1      45.625  23.047  36.228  1.00  0.00    -0.237 OA
ATOM     99  O   UNL A   1      46.562  24.185  34.256  1.00  0.00    -0.237 OA
ATOM    100  O   UNL A   1      46.716  25.231  36.486  1.00  0.00    -0.744 OA
ENDBRANCH  94  97
ENDBRANCH  67  90
ENDBRANCH  41  42
ENDBRANCH  34  36
ENDBRANCH  33  34
ENDBRANCH  32  33
ENDBRANCH  31  32
ENDBRANCH  30  31
ENDBRANCH  29  30
ENDBRANCH  28  29
ENDBRANCH   1  28
TORSDOF 26
ENDMDL
MODEL 2
REMARK VINA RESULT:      -9.7      4.772     10.767
REMARK SMILES Cc1ccc(Nc2c(F)cccc2Cl)c(CC(=O)OCCOCCOCCOCCOC(=O)c2ccc(-c3c4nc(c(-c5cccc(S(=O)(=O)[O-])c5F)c5ccc([nH]5)c(-c5cccc(S(=O)(=O)[O-])c5F)c5nc(c(-c6cccc(S(=O)(=O)[O-])c6F)c6ccc3[nH]6)C=C5)C=C4)cc2)c1
REMARK SMILES IDX 25 1 24 2 23 3 22 4 21 5 20 6 19 7 17 8 18 9 16 10 15 11
REMARK SMILES IDX 1 12 2 13 3 14 97 15 4 16 5 17 6 18 7 20 8 21 13 22 9 23
REMARK SMILES IDX 10 24 12 25 14 26 11 27 26 28 27 29 28 30 29 31 30 32 31 33
REMARK SMILES IDX 32 34 33 35 34 36 35 37 96 38 36 39 95 40 37 41 38 42 39 43
REMARK SMILES IDX 89 44 40 45 94 46 88 47 90 48 41 49 93 50 87 51 86 52 42 54
REMARK SMILES IDX 74 55 54 56 73 57 55 58 58 59 72 60 91 61 56 62 57 63 71 65
REMARK SMILES IDX 92 66 59 67 43 68 44 69 52 70 45 71 47 72 53 73 46 74 48 75
REMARK SMILES IDX 49 76 50 77 51 78 75 79 76 80 84 81 77 82 79 83 85 84 78 85
REMARK SMILES IDX 80 86 81 87 82 88 83 89 60 90 61 91 69 92 62 93 64 94 70 95
REMARK SMILES IDX 63 96 65 97 66 98 67 99 68 100
REMARK H PARENT 6 19 90 53 58 64
REMARK Flexibility Score: inf
ROOT
ATOM      1  O   UNL A   1      41.000  19.703  26.795  1.00  0.00    -0.377 OA
ENDROOT
BRANCH   1   2
ATOM      2  C   UNL A   1      41.543  20.996  27.052  1.00  0.00     0.188 C 
BRANCH   2   3
ATOM      3  C   UNL A   1      40.444  22.011  27.194  1.00  0.00     0.188 C 
BRANCH   3   4
ATOM      4  O   UNL A   1      40.793  23.284  27.714  1.00  0.00    -0.376 OA
BRANCH   4   5
ATOM      5  C   UNL A   1      39.784  24.246  27.459  1.00  0.00     0.202 C 
BRANCH   5   6
ATOM      6  C   UNL A   1      38.983  24.067  26.157  1.00  0.00     0.261 C 
BRANCH   6   7
ATOM      7  O   UNL A   1      37.572  23.830  26.350  1.00  0.00    -0.463 OA
BRANCH   7   8
ATOM      8  C   UNL A   1      36.886  23.363  25.279  1.00  0.00     0.310 C 
ATOM      9  O   UNL A   1      37.239  22.432  24.564  1.00  0.00    -0.252 OA
BRANCH   8  10
ATOM     10  C   UNL A   1      35.653  24.174  24.951  1.00  0.00     0.160 C 
BRANCH  10  11
ATOM     11  C   UNL A   1      34.283  23.597  25.269  1.00  0.00    -0.013 A 
ATOM     12  C   UNL A   1      32.887  20.011  25.489  1.00  0.00     0.044 C 
ATOM     13  C   UNL A   1      32.986  21.507  25.502  1.00  0.00    -0.051 A 
ATOM     14  C   UNL A   1      31.879  22.261  25.856  1.00  0.00     0.005 A 
ATOM     15  C   UNL A   1      34.173  22.179  25.198  1.00  0.00     0.009 A 
ATOM     16  C   UNL A   1      31.961  23.655  25.895  1.00  0.00     0.026 A 
ATOM     17  C   UNL A   1      33.146  24.370  25.631  1.00  0.00     0.042 A 
BRANCH  17  18
ATOM     18  N   UNL A   1      33.172  25.803  25.682  1.00  0.00    -0.352 N 
ATOM     19  H   UNL A   1      33.817  26.196  26.313  1.00  0.00     0.167 HD
BRANCH  18  20
ATOM     20  C   UNL A   1      32.378  26.742  24.931  1.00  0.00     0.094 A 
ATOM     21  C   UNL A   1      32.406  26.833  23.533  1.00  0.00     0.148 A 
ATOM     22  C   UNL A   1      31.705  27.792  25.599  1.00  0.00     0.067 A 
ATOM     23  F   UNL A   1      32.835  25.799  22.792  1.00  0.00    -0.205 F 
ATOM     24  C   UNL A   1      32.011  27.989  22.850  1.00  0.00     0.041 A 
ATOM     25  C   UNL A   1      31.328  28.967  24.929  1.00  0.00     0.023 A 
ATOM     26  Cl  UNL A   1      31.342  27.676  27.286  1.00  0.00    -0.082 Cl
ATOM     27  C   UNL A   1      31.522  29.082  23.555  1.00  0.00     0.005 A 
ENDBRANCH  18  20
ENDBRANCH  17  18
ENDBRANCH  10  11
ENDBRANCH   8  10
ENDBRANCH   7   8
ENDBRANCH   6   7
ENDBRANCH   5   6
ENDBRANCH   4   5
ENDBRANCH   3   4
ENDBRANCH   2   3
ENDBRANCH   1   2
BRANCH   1  28
ATOM     28  C   UNL A   1      41.839  18.934  25.932  1.00  0.00     0.188 C 
BRANCH  28  29
ATOM     29  C   UNL A   1      43.010  18.279  26.662  1.00  0.00     0.188 C 
BRANCH  29  30
ATOM     30  O   UNL A   1      44.199  18.339  25.879  1.00  0.00    -0.376 OA
BRANCH  30  31
ATOM     31  C   UNL A   1      44.164  19.159  24.715  1.00  0.00     0.202 C 
BRANCH  31  32
ATOM     32  C   UNL A   1      44.705  20.541  25.085  1.00  0.00     0.261 C 
BRANCH  32  33
ATOM     33  O   UNL A   1      43.712  21.526  24.746  1.00  0.00    -0.460 OA
BRANCH  33  34
ATOM     34  C   UNL A   1      44.238  22.726  24.363  1.00  0.00     0.338 C 
ATOM     35  O   UNL A   1      45.138  22.855  23.545  1.00  0.00    -0.246 OA
BRANCH  34  36
ATOM     36  C   UNL A   1      43.689  23.819  25.219  1.00  0.00     0.060 A 
ATOM     37  C   UNL A   1      42.942  24.848  24.627  1.00  0.00     0.016 A 
ATOM     38  C   UNL A   1      44.062  23.936  26.557  1.00  0.00     0.016 A 
ATOM     39  C   UNL A   1      42.674  26.039  25.330  1.00  0.00     0.010 A 
ATOM     40  C   UNL A   1      43.798  25.122  27.246  1.00  0.00     0.010 A 
ATOM     41  C   UNL A   1      43.154  26.215  26.629  1.00  0.00    -0.014 A 
BRANCH  41  42
ATOM     42  C   UNL A   1      43.235  27.519  27.338  1.00  0.00     0.031 A 
ATOM     43  C   UNL A   1      42.018  28.369  27.561  1.00  0.00     0.074 A 
ATOM     44  C   UNL A   1      44.266  27.706  28.207  1.00  0.00     0.049 A 
ATOM     45  N   UNL A   1      42.004  29.417  28.326  1.00  0.00    -0.248 NA
ATOM     46  C   UNL A   1      40.713  28.128  26.942  1.00  0.00     0.031 C 
ATOM     47  C   UNL A   1      44.152  28.315  29.532  1.00  0.00     0.029 A 
ATOM     48  N   UNL A   1      45.621  27.376  28.137  1.00  0.00    -0.354 N 
ATOM     49  C   UNL A   1      40.692  29.690  28.627  1.00  0.00     0.074 A 
ATOM     50  C   UNL A   1      39.941  29.000  27.605  1.00  0.00     0.031 C 
ATOM     51  C   UNL A   1      45.327  28.315  30.158  1.00  0.00     0.029 A 
ATOM     52  C   UNL A   1      46.314  28.077  29.144  1.00  0.00     0.049 A 
ATOM     53  H   UNL A   1      46.027  26.753  27.490  1.00  0.00     0.167 HD
ATOM     54  C   UNL A   1      40.368  30.311  29.800  1.00  0.00     0.034 A 
ATOM     55  C   UNL A   1      47.379  28.905  28.960  1.00  0.00     0.034 A 
ATOM     56  C   UNL A   1      41.516  30.864  30.566  1.00  0.00     0.049 A 
ATOM     57  C   UNL A   1      47.025  30.362  29.250  1.00  0.00     0.074 A 
ATOM     58  C   UNL A   1      41.825  31.031  31.909  1.00  0.00     0.029 A 
ATOM     59  N   UNL A   1      42.623  31.369  29.887  1.00  0.00    -0.354 N 
ATOM     60  N   UNL A   1      46.031  30.760  30.007  1.00  0.00    -0.248 NA
ATOM     61  C   UNL A   1      47.704  31.492  28.619  1.00  0.00     0.031 C 
ATOM     62  C   UNL A   1      43.111  31.646  32.020  1.00  0.00     0.029 A 
ATOM     63  C   UNL A   1      43.567  31.907  30.742  1.00  0.00     0.049 A 
ATOM     64  H   UNL A   1      42.723  31.345  28.908  1.00  0.00     0.167 HD
ATOM     65  C   UNL A   1      45.778  32.089  29.774  1.00  0.00     0.074 A 
ATOM     66  C   UNL A   1      46.909  32.520  28.967  1.00  0.00     0.031 C 
ATOM     67  C   UNL A   1      44.626  32.722  30.164  1.00  0.00     0.034 A 
BRANCH  54  68
ATOM     68  C   UNL A   1      38.946  30.348  30.360  1.00  0.00     0.023 A 
ATOM     69  C   UNL A   1      38.378  29.128  30.790  1.00  0.00     0.012 A 
ATOM     70  C   UNL A   1      38.094  31.483  30.410  1.00  0.00     0.148 A 
ATOM     71  C   UNL A   1      37.045  29.024  31.207  1.00  0.00     0.002 A 
ATOM     72  C   UNL A   1      36.798  31.397  30.934  1.00  0.00     0.091 A 
ATOM     73  F   UNL A   1      38.494  32.638  29.867  1.00  0.00    -0.205 F 
ATOM     74  C   UNL A   1      36.259  30.162  31.301  1.00  0.00     0.022 A 
BRANCH  72  75
ATOM     75  S   UNL A   1      35.779  32.853  31.243  1.00  0.00     0.127 S 
ATOM     76  O   UNL A   1      36.647  33.673  32.086  1.00  0.00    -0.237 OA
ATOM     77  O   UNL A   1      35.569  33.384  29.895  1.00  0.00    -0.237 OA
ATOM     78  O   UNL A   1      34.564  32.361  31.882  1.00  0.00    -0.744 OA
ENDBRANCH  72  75
ENDBRANCH  54  68
BRANCH  55  79
ATOM     79  C   UNL A   1      48.366  28.334  28.010  1.00  0.00     0.023 A 
ATOM     80  C   UNL A   1      49.172  27.303  28.554  1.00  0.00     0.012 A 
ATOM     81  C   UNL A   1      48.113  28.347  26.632  1.00  0.00     0.148 A 
ATOM     82  C   UNL A   1      49.562  26.215  27.775  1.00  0.00     0.002 A 
ATOM     83  C   UNL A   1      48.451  27.225  25.875  1.00  0.00     0.091 A 
ATOM     84  F   UNL A   1      47.393  29.357  26.128  1.00  0.00    -0.205 F 
ATOM     85  C   UNL A   1      49.153  26.152  26.447  1.00  0.00     0.022 A 
BRANCH  83  86
ATOM     86  S   UNL A   1      47.725  26.973  24.247  1.00  0.00     0.127 S 
ATOM     87  O   UNL A   1      46.300  26.950  24.556  1.00  0.00    -0.237 OA
ATOM     88  O   UNL A   1      48.188  28.150  23.513  1.00  0.00    -0.237 OA
ATOM     89  O   UNL A   1      48.311  25.724  23.783  1.00  0.00    -0.744 OA
ENDBRANCH  83  86
ENDBRANCH  55  79
BRANCH  67  90
ATOM     90  C   UNL A   1      44.335  34.202  29.957  1.00  0.00     0.023 A 
ATOM     91  C   UNL A   1      44.199  35.078  31.048  1.00  0.00     0.012 A 
ATOM     92  C   UNL A   1      44.063  34.740  28.666  1.00  0.00     0.148 A 
ATOM     93  C   UNL A   1      43.916  36.437  30.868  1.00  0.00     0.002 A 
ATOM     94  C   UNL A   1      43.714  36.076  28.497  1.00  0.00     0.091 A 
ATOM     95  F   UNL A   1      44.154  33.961  27.583  1.00  0.00    -0.205 F 
ATOM     96  C   UNL A   1      43.672  36.936  29.594  1.00  0.00     0.022 A 
BRANCH  94  97
ATOM     97  S   UNL A   1      43.230  36.763  26.903  1.00  0.00     0.127 S 
ATOM     98  O   UNL A   1      43.061  35.550  26.098  1.00  0.00    -0.237 OA
ATOM     99  O   UNL A   1      41.984  37.447  27.240  1.00  0.00    -0.237 OA
ATOM    100  O   UNL A   1      44.323  37.622  26.474  1.00  0.00    -0.744 OA
ENDBRANCH  94  97
ENDBRANCH  67  90
ENDBRANCH  41  42
ENDBRANCH  34  36
ENDBRANCH  33  34
ENDBRANCH  32  33
ENDBRANCH  31  32
ENDBRANCH  30  31
ENDBRANCH  29  30
ENDBRANCH  28  29
ENDBRANCH   1  28
TORSDOF 26
ENDMDL
MODEL 3
REMARK VINA RESULT:      -9.0      4.879     10.394
REMARK SMILES Cc1ccc(Nc2c(F)cccc2Cl)c(CC(=O)OCCOCCOCCOCCOC(=O)c2ccc(-c3c4nc(c(-c5cccc(S(=O)(=O)[O-])c5F)c5ccc([nH]5)c(-c5cccc(S(=O)(=O)[O-])c5F)c5nc(c(-c6cccc(S(=O)(=O)[O-])c6F)c6ccc3[nH]6)C=C5)C=C4)cc2)c1
REMARK SMILES IDX 25 1 24 2 23 3 22 4 21 5 20 6 19 7 17 8 18 9 16 10 15 11
REMARK SMILES IDX 1 12 2 13 3 14 97 15 4 16 5 17 6 18 7 20 8 21 13 22 9 23
REMARK SMILES IDX 10 24 12 25 14 26 11 27 26 28 27 29 28 30 29 31 30 32 31 33
REMARK SMILES IDX 32 34 33 35 34 36 35 37 96 38 36 39 95 40 37 41 38 42 39 43
REMARK SMILES IDX 89 44 40 45 94 46 88 47 90 48 41 49 93 50 87 51 86 52 42 54
REMARK SMILES IDX 74 55 54 56 73 57 55 58 58 59 72 60 91 61 56 62 57 63 71 65
REMARK SMILES IDX 92 66 59 67 43 68 44 69 52 70 45 71 47 72 53 73 46 74 48 75
REMARK SMILES IDX 49 76 50 77 51 78 75 79 76 80 84 81 77 82 79 83 85 84 78 85
REMARK SMILES IDX 80 86 81 87 82 88 83 89 60 90 61 91 69 92 62 93 64 94 70 95
REMARK SMILES IDX 63 96 65 97 66 98 67 99 68 100
REMARK H PARENT 6 19 90 53 58 64
REMARK Flexibility Score: inf
ROOT
ATOM      1  O   UNL A   1      34.277  29.284  26.378  1.00  0.00    -0.377 OA
ENDROOT
BRANCH   1   2
ATOM      2  C   UNL A   1      32.917  28.866  26.474  1.00  0.00     0.188 C 
BRANCH   2   3
ATOM      3  C   UNL A   1      32.327  28.675  25.105  1.00  0.00     0.188 C 
BRANCH   3   4
ATOM      4  O   UNL A   1      31.394  27.618  24.937  1.00  0.00    -0.376 OA
BRANCH   4   5
ATOM      5  C   UNL A   1      31.269  26.842  26.117  1.00  0.00     0.202 C 
BRANCH   5   6
ATOM      6  C   UNL A   1      30.095  25.849  26.161  1.00  0.00     0.261 C 
BRANCH   6   7
ATOM      7  O   UNL A   1      30.380  24.558  25.583  1.00  0.00    -0.463 OA
BRANCH   7   8
ATOM      8  C   UNL A   1      30.816  23.598  26.434  1.00  0.00     0.310 C 
ATOM      9  O   UNL A   1      30.348  23.372  27.544  1.00  0.00    -0.252 OA
BRANCH   8  10
ATOM     10  C   UNL A   1      32.040  22.861  25.939  1.00  0.00     0.160 C 
BRANCH  10  11
ATOM     11  C   UNL A   1      32.397  22.931  24.463  1.00  0.00    -0.013 A 
ATOM     12  C   UNL A   1      33.216  25.825  22.052  1.00  0.00     0.044 C 
ATOM     13  C   UNL A   1      32.956  24.453  22.598  1.00  0.00    -0.051 A 
ATOM     14  C   UNL A   1      33.113  23.350  21.775  1.00  0.00     0.005 A 
ATOM     15  C   UNL A   1      32.585  24.237  23.928  1.00  0.00     0.009 A 
ATOM     16  C   UNL A   1      32.896  22.064  22.275  1.00  0.00     0.026 A 
ATOM     17  C   UNL A   1      32.557  21.800  23.617  1.00  0.00     0.042 A 
BRANCH  17  18
ATOM     18  N   UNL A   1      32.342  20.458  24.075  1.00  0.00    -0.352 N 
ATOM     19  H   UNL A   1      31.529  20.315  24.611  1.00  0.00     0.167 HD
BRANCH  18  20
ATOM     20  C   UNL A   1      33.159  19.292  23.854  1.00  0.00     0.094 A 
ATOM     21  C   UNL A   1      32.714  18.159  23.159  1.00  0.00     0.148 A 
ATOM     22  C   UNL A   1      34.382  19.143  24.548  1.00  0.00     0.067 A 
ATOM     23  F   UNL A   1      31.680  18.244  22.307  1.00  0.00    -0.205 F 
ATOM     24  C   UNL A   1      33.303  16.900  23.326  1.00  0.00     0.041 A 
ATOM     25  C   UNL A   1      34.968  17.882  24.743  1.00  0.00     0.023 A 
ATOM     26  Cl  UNL A   1      35.196  20.519  25.208  1.00  0.00    -0.082 Cl
ATOM     27  C   UNL A   1      34.400  16.749  24.165  1.00  0.00     0.005 A 
ENDBRANCH  18  20
ENDBRANCH  17  18
ENDBRANCH  10  11
ENDBRANCH   8  10
ENDBRANCH   7   8
ENDBRANCH   6   7
ENDBRANCH   5   6
ENDBRANCH   4   5
ENDBRANCH   3   4
ENDBRANCH   2   3
ENDBRANCH   1   2
BRANCH   1  28
ATOM     28  C   UNL A   1      34.718  29.942  27.566  1.00  0.00     0.188 C 
BRANCH  28  29
ATOM     29  C   UNL A   1      36.068  29.432  28.069  1.00  0.00     0.188 C 
BRANCH  29  30
ATOM     30  O   UNL A   1      37.073  30.434  27.942  1.00  0.00    -0.376 OA
BRANCH  30  31
ATOM     31  C   UNL A   1      38.308  30.197  28.610  1.00  0.00     0.202 C 
BRANCH  31  32
ATOM     32  C   UNL A   1      38.153  28.947  29.477  1.00  0.00     0.261 C 
BRANCH  32  33
ATOM     33  O   UNL A   1      38.560  29.269  30.820  1.00  0.00    -0.460 OA
BRANCH  33  34
ATOM     34  C   UNL A   1      37.581  29.866  31.561  1.00  0.00     0.338 C 
ATOM     35  O   UNL A   1      36.406  29.526  31.554  1.00  0.00    -0.246 OA
BRANCH  34  36
ATOM     36  C   UNL A   1      38.118  31.093  32.220  1.00  0.00     0.060 A 
ATOM     37  C   UNL A   1      37.788  32.354  31.702  1.00  0.00     0.016 A 
ATOM     38  C   UNL A   1      39.087  31.004  33.219  1.00  0.00     0.016 A 
ATOM     39  C   UNL A   1      38.505  33.502  32.091  1.00  0.00     0.010 A 
ATOM     40  C   UNL A   1      39.798  32.145  33.596  1.00  0.00     0.010 A 
ATOM     41  C   UNL A   1      39.562  33.401  32.997  1.00  0.00    -0.014 A 
BRANCH  41  42
ATOM     42  C   UNL A   1      40.593  34.448  33.225  1.00  0.00     0.031 A 
ATOM     43  C   UNL A   1      40.603  35.282  34.472  1.00  0.00     0.074 A 
ATOM     44  C   UNL A   1      41.785  34.316  32.579  1.00  0.00     0.049 A 
ATOM     45  N   UNL A   1      41.578  36.075  34.798  1.00  0.00    -0.248 NA
ATOM     46  C   UNL A   1      39.524  35.311  35.460  1.00  0.00     0.031 C 
ATOM     47  C   UNL A   1      43.099  34.539  33.182  1.00  0.00     0.029 A 
ATOM     48  N   UNL A   1      42.107  33.928  31.278  1.00  0.00    -0.354 N 
ATOM     49  C   UNL A   1      41.461  36.341  36.141  1.00  0.00     0.074 A 
ATOM     50  C   UNL A   1      40.089  36.015  36.451  1.00  0.00     0.031 C 
ATOM     51  C   UNL A   1      44.071  34.286  32.309  1.00  0.00     0.029 A 
ATOM     52  C   UNL A   1      43.447  34.273  31.017  1.00  0.00     0.049 A 
ATOM     53  H   UNL A   1      41.496  33.484  30.644  1.00  0.00     0.167 HD
ATOM     54  C   UNL A   1      42.569  36.631  36.886  1.00  0.00     0.034 A 
ATOM     55  C   UNL A   1      43.894  35.046  29.989  1.00  0.00     0.034 A 
ATOM     56  C   UNL A   1      43.814  36.871  36.109  1.00  0.00     0.049 A 
ATOM     57  C   UNL A   1      44.440  36.385  30.478  1.00  0.00     0.074 A 
ATOM     58  C   UNL A   1      45.168  36.637  36.306  1.00  0.00     0.029 A 
ATOM     59  N   UNL A   1      43.742  37.469  34.852  1.00  0.00    -0.354 N 
ATOM     60  N   UNL A   1      44.879  36.623  31.691  1.00  0.00    -0.248 NA
ATOM     61  C   UNL A   1      44.438  37.598  29.662  1.00  0.00     0.031 C 
ATOM     62  C   UNL A   1      45.895  37.109  35.169  1.00  0.00     0.029 A 
ATOM     63  C   UNL A   1      44.990  37.683  34.297  1.00  0.00     0.049 A 
ATOM     64  H   UNL A   1      42.898  37.712  34.409  1.00  0.00     0.167 HD
ATOM     65  C   UNL A   1      44.958  37.978  31.894  1.00  0.00     0.074 A 
ATOM     66  C   UNL A   1      44.760  38.540  30.567  1.00  0.00     0.031 C 
ATOM     67  C   UNL A   1      45.080  38.554  33.133  1.00  0.00     0.034 A 
BRANCH  54  68
ATOM     68  C   UNL A   1      42.577  36.607  38.413  1.00  0.00     0.023 A 
ATOM     69  C   UNL A   1      42.111  37.758  39.090  1.00  0.00     0.012 A 
ATOM     70  C   UNL A   1      43.094  35.570  39.234  1.00  0.00     0.148 A 
ATOM     71  C   UNL A   1      42.184  37.893  40.483  1.00  0.00     0.002 A 
ATOM     72  C   UNL A   1      43.062  35.662  40.631  1.00  0.00     0.091 A 
ATOM     73  F   UNL A   1      43.708  34.522  38.672  1.00  0.00    -0.205 F 
ATOM     74  C   UNL A   1      42.639  36.837  41.257  1.00  0.00     0.022 A 
BRANCH  72  75
ATOM     75  S   UNL A   1      43.476  34.273  41.705  1.00  0.00     0.127 S 
ATOM     76  O   UNL A   1      42.505  33.260  41.298  1.00  0.00    -0.237 OA
ATOM     77  O   UNL A   1      44.857  33.976  41.317  1.00  0.00    -0.237 OA
ATOM     78  O   UNL A   1      43.336  34.768  43.069  1.00  0.00    -0.744 OA
ENDBRANCH  72  75
ENDBRANCH  54  68
BRANCH  55  79
ATOM     79  C   UNL A   1      43.232  34.697  28.706  1.00  0.00     0.023 A 
ATOM     80  C   UNL A   1      42.336  35.683  28.224  1.00  0.00     0.012 A 
ATOM     81  C   UNL A   1      43.863  33.842  27.794  1.00  0.00     0.148 A 
ATOM     82  C   UNL A   1      42.214  35.929  26.856  1.00  0.00     0.002 A 
ATOM     83  C   UNL A   1      43.786  34.136  26.433  1.00  0.00     0.091 A 
ATOM     84  F   UNL A   1      44.666  32.883  28.272  1.00  0.00    -0.205 F 
ATOM     85  C   UNL A   1      42.983  35.189  25.965  1.00  0.00     0.022 A 
BRANCH  83  86
ATOM     86  S   UNL A   1      44.949  33.397  25.274  1.00  0.00     0.127 S 
ATOM     87  O   UNL A   1      46.051  34.352  25.308  1.00  0.00    -0.237 OA
ATOM     88  O   UNL A   1      45.225  32.100  25.892  1.00  0.00    -0.237 OA
ATOM     89  O   UNL A   1      44.204  33.305  24.027  1.00  0.00    -0.744 OA
ENDBRANCH  83  86
ENDBRANCH  55  79
BRANCH  67  90
ATOM     90  C   UNL A   1      45.211  40.049  33.387  1.00  0.00     0.023 A 
ATOM     91  C   UNL A   1      46.440  40.618  33.768  1.00  0.00     0.012 A 
ATOM     92  C   UNL A   1      44.080  40.916  33.375  1.00  0.00     0.148 A 
ATOM     93  C   UNL A   1      46.567  41.990  34.019  1.00  0.00     0.002 A 
ATOM     94  C   UNL A   1      44.198  42.265  33.692  1.00  0.00     0.091 A 
ATOM     95  F   UNL A   1      42.876  40.440  33.040  1.00  0.00    -0.205 F 
ATOM     96  C   UNL A   1      45.448  42.812  33.982  1.00  0.00     0.022 A 
BRANCH  94  97
ATOM     97  S   UNL A   1      42.776  43.363  33.821  1.00  0.00     0.127 S 
ATOM     98  O   UNL A   1      43.412  44.627  34.201  1.00  0.00    -0.237 OA
ATOM     99  O   UNL A   1      42.252  43.332  32.457  1.00  0.00    -0.237 OA
ATOM    100  O   UNL A   1      41.906  42.797  34.842  1.00  0.00    -0.744 OA
ENDBRANCH  94  97
ENDBRANCH  67  90
ENDBRANCH  41  42
ENDBRANCH  34  36
ENDBRANCH  33  34
ENDBRANCH  32  33
ENDBRANCH  31  32
ENDBRANCH  30  31
ENDBRANCH  29  30
ENDBRANCH  28  29
ENDBRANCH   1  28
TORSDOF 26
ENDMDL
