MODEL 1
REMARK VINA RESULT:      -9.0      0.000      0.000
REMARK SMILES C#CC[N@H+](CC(=O)OCCOCCOCCOCCOC(=O)c1ccc(-c2c3nc(c(-c4cccc(S(=O)(=O)[O-])c4F)c4ccc([nH]4)c(-c4cccc(S(=O)(=O)[O-])c4F)c4nc(c(-c5cccc(S(=O)(=O)[O-])c5F)c5ccc2[nH]5)C=C4)C=C3)cc1)[C@H](C)c1nc2ccccc2s1
REMARK SMILES IDX 14 1 13 2 12 3 11 4 10 5 9 6 8 7 6 8 7 9 5 10 4 11 3 13 2 14
REMARK SMILES IDX 1 15 86 16 87 17 88 18 89 19 96 20 90 21 95 22 91 23 94 24
REMARK SMILES IDX 92 25 93 26 15 27 16 28 17 29 18 30 19 31 20 32 21 33 22 34
REMARK SMILES IDX 23 35 24 36 85 37 25 38 84 39 26 40 27 41 28 42 78 43 29 44
REMARK SMILES IDX 83 45 77 46 79 47 30 48 82 49 76 50 75 51 31 53 63 54 43 55
REMARK SMILES IDX 62 56 44 57 47 58 61 59 80 60 45 61 46 62 60 64 81 65 48 66
REMARK SMILES IDX 32 67 33 68 41 69 34 70 36 71 42 72 35 73 37 74 38 75 39 76
REMARK SMILES IDX 40 77 64 78 65 79 73 80 66 81 68 82 74 83 67 84 69 85 70 86
REMARK SMILES IDX 71 87 72 88 49 89 50 90 58 91 51 92 53 93 59 94 52 95 54 96
REMARK SMILES IDX 55 97 56 98 57 99
REMARK H PARENT 4 12 79 52 47 63
REMARK Flexibility Score: inf
ROOT
ATOM      1  O   UNL A   1      33.326  20.889  25.982  1.00  0.00    -0.377 OA
ENDROOT
BRANCH   1   2
ATOM      2  C   UNL A   1      33.781  21.295  27.252  1.00  0.00     0.188 C 
BRANCH   2   3
ATOM      3  C   UNL A   1      33.400  22.707  27.726  1.00  0.00     0.188 C 
BRANCH   3   4
ATOM      4  O   UNL A   1      32.075  23.164  27.557  1.00  0.00    -0.376 OA
BRANCH   4   5
ATOM      5  C   UNL A   1      31.652  23.851  26.389  1.00  0.00     0.202 C 
BRANCH   5   6
ATOM      6  C   UNL A   1      30.278  24.508  26.170  1.00  0.00     0.261 C 
BRANCH   6   7
ATOM      7  O   UNL A   1      30.167  25.458  25.111  1.00  0.00    -0.459 OA
BRANCH   7   8
ATOM      8  C   UNL A   1      30.602  25.058  23.899  1.00  0.00     0.361 C 
ATOM      9  O   UNL A   1      30.230  24.018  23.351  1.00  0.00    -0.245 OA
BRANCH   8  10
ATOM     10  C   UNL A   1      31.580  25.987  23.190  1.00  0.00     0.387 C 
BRANCH  10  11
ATOM     11  N   UNL A   1      31.133  27.306  22.656  1.00  0.00    -0.308 N 
ATOM     12  H   UNL A   1      30.875  27.209  21.674  1.00  0.00     0.350 HD
BRANCH  11  13
ATOM     13  C   UNL A   1      29.898  27.776  23.322  1.00  0.00     0.355 C 
BRANCH  13  14
ATOM     14  C   UNL A   1      29.284  28.935  22.646  1.00  0.00    -0.047 C 
ATOM     15  C   UNL A   1      28.746  29.883  22.128  1.00  0.00     0.010 C 
ENDBRANCH  13  14
ENDBRANCH  11  13
BRANCH  11  16
ATOM     16  C   UNL A   1      32.278  28.288  22.720  1.00  0.00     0.242 C 
ATOM     17  C   UNL A   1      33.524  27.865  21.910  1.00  0.00     0.083 C 
BRANCH  16  18
ATOM     18  C   UNL A   1      32.744  28.672  24.119  1.00  0.00     0.151 A 
ATOM     19  N   UNL A   1      32.186  29.644  24.812  1.00  0.00    -0.235 NA
ATOM     20  S   UNL A   1      34.024  27.848  24.926  1.00  0.00    -0.113 S 
ATOM     21  C   UNL A   1      32.959  29.941  25.912  1.00  0.00     0.082 A 
ATOM     22  C   UNL A   1      34.011  29.058  26.163  1.00  0.00     0.055 A 
ATOM     23  C   UNL A   1      32.788  31.065  26.742  1.00  0.00     0.030 A 
ATOM     24  C   UNL A   1      34.880  29.247  27.251  1.00  0.00     0.021 A 
ATOM     25  C   UNL A   1      33.681  31.293  27.789  1.00  0.00     0.002 A 
ATOM     26  C   UNL A   1      34.707  30.388  28.045  1.00  0.00     0.002 A 
ENDBRANCH  16  18
ENDBRANCH  11  16
ENDBRANCH  10  11
ENDBRANCH   8  10
ENDBRANCH   7   8
ENDBRANCH   6   7
ENDBRANCH   5   6
ENDBRANCH   4   5
ENDBRANCH   3   4
ENDBRANCH   2   3
ENDBRANCH   1   2
BRANCH   1  27
ATOM     27  C   UNL A   1      34.201  20.281  25.051  1.00  0.00     0.188 C 
BRANCH  27  28
ATOM     28  C   UNL A   1      35.604  20.853  24.760  1.00  0.00     0.188 C 
BRANCH  28  29
ATOM     29  O   UNL A   1      36.681  19.949  24.914  1.00  0.00    -0.376 OA
BRANCH  29  30
ATOM     30  C   UNL A   1      37.987  20.469  25.106  1.00  0.00     0.202 C 
BRANCH  30  31
ATOM     31  C   UNL A   1      39.149  19.524  25.463  1.00  0.00     0.261 C 
BRANCH  31  32
ATOM     32  O   UNL A   1      40.106  19.994  26.424  1.00  0.00    -0.460 OA
BRANCH  32  33
ATOM     33  C   UNL A   1      41.417  19.794  26.168  1.00  0.00     0.338 C 
ATOM     34  O   UNL A   1      41.918  18.815  25.647  1.00  0.00    -0.246 OA
BRANCH  33  35
ATOM     35  C   UNL A   1      42.128  21.061  26.460  1.00  0.00     0.060 A 
ATOM     36  C   UNL A   1      42.639  21.279  27.748  1.00  0.00     0.016 A 
ATOM     37  C   UNL A   1      42.317  22.015  25.460  1.00  0.00     0.016 A 
ATOM     38  C   UNL A   1      43.334  22.455  28.040  1.00  0.00     0.010 A 
ATOM     39  C   UNL A   1      42.985  23.206  25.763  1.00  0.00     0.010 A 
ATOM     40  C   UNL A   1      43.481  23.441  27.058  1.00  0.00    -0.014 A 
BRANCH  40  41
ATOM     41  C   UNL A   1      44.041  24.770  27.406  1.00  0.00     0.031 A 
ATOM     42  C   UNL A   1      43.121  25.827  27.948  1.00  0.00     0.074 A 
ATOM     43  C   UNL A   1      45.343  25.047  27.213  1.00  0.00     0.049 A 
ATOM     44  N   UNL A   1      43.365  27.083  28.215  1.00  0.00    -0.248 NA
ATOM     45  C   UNL A   1      41.736  25.408  28.224  1.00  0.00     0.031 C 
ATOM     46  C   UNL A   1      46.343  24.102  26.721  1.00  0.00     0.029 A 
ATOM     47  N   UNL A   1      46.038  26.222  27.374  1.00  0.00    -0.354 N 
ATOM     48  C   UNL A   1      42.159  27.618  28.649  1.00  0.00     0.074 A 
ATOM     49  C   UNL A   1      41.183  26.549  28.610  1.00  0.00     0.031 C 
ATOM     50  C   UNL A   1      47.517  24.743  26.584  1.00  0.00     0.029 A 
ATOM     51  C   UNL A   1      47.338  26.152  26.934  1.00  0.00     0.049 A 
ATOM     52  H   UNL A   1      45.642  27.034  27.767  1.00  0.00     0.167 HD
ATOM     53  C   UNL A   1      41.886  28.885  29.045  1.00  0.00     0.034 A 
ATOM     54  C   UNL A   1      48.265  27.122  26.787  1.00  0.00     0.034 A 
ATOM     55  C   UNL A   1      42.859  29.945  29.079  1.00  0.00     0.049 A 
ATOM     56  C   UNL A   1      47.919  28.539  27.165  1.00  0.00     0.074 A 
ATOM     57  C   UNL A   1      42.692  31.249  29.509  1.00  0.00     0.029 A 
ATOM     58  N   UNL A   1      44.169  29.834  28.638  1.00  0.00    -0.354 N 
ATOM     59  N   UNL A   1      46.809  29.011  27.679  1.00  0.00    -0.248 NA
ATOM     60  C   UNL A   1      48.962  29.557  26.961  1.00  0.00     0.031 C 
ATOM     61  C   UNL A   1      43.884  31.943  29.273  1.00  0.00     0.029 A 
ATOM     62  C   UNL A   1      44.811  31.056  28.750  1.00  0.00     0.049 A 
ATOM     63  H   UNL A   1      44.581  29.009  28.296  1.00  0.00     0.167 HD
ATOM     64  C   UNL A   1      47.027  30.370  27.882  1.00  0.00     0.074 A 
ATOM     65  C   UNL A   1      48.386  30.642  27.463  1.00  0.00     0.031 C 
ATOM     66  C   UNL A   1      46.175  31.312  28.360  1.00  0.00     0.034 A 
BRANCH  53  67
ATOM     67  C   UNL A   1      40.473  29.199  29.460  1.00  0.00     0.023 A 
ATOM     68  C   UNL A   1      39.555  29.710  28.519  1.00  0.00     0.012 A 
ATOM     69  C   UNL A   1      40.041  28.947  30.778  1.00  0.00     0.148 A 
ATOM     70  C   UNL A   1      38.245  30.008  28.895  1.00  0.00     0.002 A 
ATOM     71  C   UNL A   1      38.721  29.198  31.131  1.00  0.00     0.091 A 
ATOM     72  F   UNL A   1      40.931  28.477  31.662  1.00  0.00    -0.205 F 
ATOM     73  C   UNL A   1      37.827  29.742  30.196  1.00  0.00     0.022 A 
BRANCH  71  74
ATOM     74  S   UNL A   1      38.063  28.817  32.757  1.00  0.00     0.127 S 
ATOM     75  O   UNL A   1      38.888  29.666  33.615  1.00  0.00    -0.237 OA
ATOM     76  O   UNL A   1      36.670  29.247  32.631  1.00  0.00    -0.237 OA
ATOM     77  O   UNL A   1      38.244  27.384  32.942  1.00  0.00    -0.744 OA
ENDBRANCH  71  74
ENDBRANCH  53  67
BRANCH  54  78
ATOM     78  C   UNL A   1      49.614  26.788  26.245  1.00  0.00     0.023 A 
ATOM     79  C   UNL A   1      50.523  26.064  27.040  1.00  0.00     0.012 A 
ATOM     80  C   UNL A   1      49.996  27.177  24.946  1.00  0.00     0.148 A 
ATOM     81  C   UNL A   1      51.798  25.758  26.563  1.00  0.00     0.002 A 
ATOM     82  C   UNL A   1      51.245  26.819  24.455  1.00  0.00     0.091 A 
ATOM     83  F   UNL A   1      49.121  27.879  24.212  1.00  0.00    -0.205 F 
ATOM     84  C   UNL A   1      52.155  26.125  25.268  1.00  0.00     0.022 A 
BRANCH  82  85
ATOM     85  S   UNL A   1      51.751  27.143  22.762  1.00  0.00     0.127 S 
ATOM     86  O   UNL A   1      51.846  28.600  22.753  1.00  0.00    -0.237 OA
ATOM     87  O   UNL A   1      53.032  26.439  22.696  1.00  0.00    -0.237 OA
ATOM     88  O   UNL A   1      50.706  26.578  21.919  1.00  0.00    -0.744 OA
ENDBRANCH  82  85
ENDBRANCH  54  78
BRANCH  66  89
ATOM     89  C   UNL A   1      46.682  32.728  28.480  1.00  0.00     0.023 A 
ATOM     90  C   UNL A   1      46.477  33.641  27.427  1.00  0.00     0.012 A 
ATOM     91  C   UNL A   1      47.285  33.176  29.673  1.00  0.00     0.148 A 
ATOM     92  C   UNL A   1      46.890  34.968  27.547  1.00  0.00     0.002 A 
ATOM     93  C   UNL A   1      47.647  34.511  29.805  1.00  0.00     0.091 A 
ATOM     94  F   UNL A   1      47.481  32.291  30.661  1.00  0.00    -0.205 F 
ATOM     95  C   UNL A   1      47.463  35.405  28.739  1.00  0.00     0.022 A 
BRANCH  93  96
ATOM     96  S   UNL A   1      48.308  35.193  31.332  1.00  0.00     0.127 S 
ATOM     97  O   UNL A   1      47.246  34.871  32.285  1.00  0.00    -0.237 OA
ATOM     98  O   UNL A   1      49.538  34.421  31.504  1.00  0.00    -0.237 OA
ATOM     99  O   UNL A   1      48.508  36.615  31.089  1.00  0.00    -0.744 OA
ENDBRANCH  93  96
ENDBRANCH  66  89
ENDBRANCH  40  41
ENDBRANCH  33  35
ENDBRANCH  32  33
ENDBRANCH  31  32
ENDBRANCH  30  31
ENDBRANCH  29  30
ENDBRANCH  28  29
ENDBRANCH  27  28
ENDBRANCH   1  27
TORSDOF 28
ENDMDL
MODEL 2
REMARK VINA RESULT:      -8.8      1.901      2.464
REMARK SMILES C#CC[N@H+](CC(=O)OCCOCCOCCOCCOC(=O)c1ccc(-c2c3nc(c(-c4cccc(S(=O)(=O)[O-])c4F)c4ccc([nH]4)c(-c4cccc(S(=O)(=O)[O-])c4F)c4nc(c(-c5cccc(S(=O)(=O)[O-])c5F)c5ccc2[nH]5)C=C4)C=C3)cc1)[C@H](C)c1nc2ccccc2s1
REMARK SMILES IDX 14 1 13 2 12 3 11 4 10 5 9 6 8 7 6 8 7 9 5 10 4 11 3 13 2 14
REMARK SMILES IDX 1 15 86 16 87 17 88 18 89 19 96 20 90 21 95 22 91 23 94 24
REMARK SMILES IDX 92 25 93 26 15 27 16 28 17 29 18 30 19 31 20 32 21 33 22 34
REMARK SMILES IDX 23 35 24 36 85 37 25 38 84 39 26 40 27 41 28 42 78 43 29 44
REMARK SMILES IDX 83 45 77 46 79 47 30 48 82 49 76 50 75 51 31 53 63 54 43 55
REMARK SMILES IDX 62 56 44 57 47 58 61 59 80 60 45 61 46 62 60 64 81 65 48 66
REMARK SMILES IDX 32 67 33 68 41 69 34 70 36 71 42 72 35 73 37 74 38 75 39 76
REMARK SMILES IDX 40 77 64 78 65 79 73 80 66 81 68 82 74 83 67 84 69 85 70 86
REMARK SMILES IDX 71 87 72 88 49 89 50 90 58 91 51 92 53 93 59 94 52 95 54 96
REMARK SMILES IDX 55 97 56 98 57 99
REMARK H PARENT 4 12 79 52 47 63
REMARK Flexibility Score: inf
ROOT
ATOM      1  O   UNL A   1      34.380  21.160  26.262  1.00  0.00    -0.377 OA
ENDROOT
BRANCH   1   2
ATOM      2  C   UNL A   1      34.420  22.266  27.133  1.00  0.00     0.188 C 
BRANCH   2   3
ATOM      3  C   UNL A   1      33.198  23.197  27.158  1.00  0.00     0.188 C 
BRANCH   3   4
ATOM      4  O   UNL A   1      31.926  22.668  27.470  1.00  0.00    -0.376 OA
BRANCH   4   5
ATOM      5  C   UNL A   1      30.768  22.976  26.708  1.00  0.00     0.202 C 
BRANCH   5   6
ATOM      6  C   UNL A   1      29.526  23.731  27.211  1.00  0.00     0.261 C 
BRANCH   6   7
ATOM      7  O   UNL A   1      29.059  24.824  26.420  1.00  0.00    -0.459 OA
BRANCH   7   8
ATOM      8  C   UNL A   1      29.998  25.675  25.961  1.00  0.00     0.361 C 
ATOM      9  O   UNL A   1      31.009  25.982  26.596  1.00  0.00    -0.245 OA
BRANCH   8  10
ATOM     10  C   UNL A   1      29.775  26.240  24.562  1.00  0.00     0.387 C 
BRANCH  10  11
ATOM     11  N   UNL A   1      30.808  27.093  23.907  1.00  0.00    -0.308 N 
ATOM     12  H   UNL A   1      31.732  26.837  24.252  1.00  0.00     0.350 HD
BRANCH  11  13
ATOM     13  C   UNL A   1      30.872  26.854  22.448  1.00  0.00     0.355 C 
BRANCH  13  14
ATOM     14  C   UNL A   1      32.073  26.101  22.040  1.00  0.00    -0.047 C 
ATOM     15  C   UNL A   1      33.050  25.456  21.747  1.00  0.00     0.010 C 
ENDBRANCH  13  14
ENDBRANCH  11  13
BRANCH  11  16
ATOM     16  C   UNL A   1      30.578  28.538  24.284  1.00  0.00     0.242 C 
ATOM     17  C   UNL A   1      30.258  29.463  23.090  1.00  0.00     0.083 C 
BRANCH  16  18
ATOM     18  C   UNL A   1      31.690  29.195  25.094  1.00  0.00     0.151 A 
ATOM     19  N   UNL A   1      32.866  28.629  25.276  1.00  0.00    -0.235 NA
ATOM     20  S   UNL A   1      31.512  30.748  25.817  1.00  0.00    -0.113 S 
ATOM     21  C   UNL A   1      33.570  29.310  26.243  1.00  0.00     0.082 A 
ATOM     22  C   UNL A   1      33.004  30.516  26.661  1.00  0.00     0.055 A 
ATOM     23  C   UNL A   1      34.758  28.859  26.848  1.00  0.00     0.030 A 
ATOM     24  C   UNL A   1      33.617  31.308  27.647  1.00  0.00     0.021 A 
ATOM     25  C   UNL A   1      35.343  29.609  27.868  1.00  0.00     0.002 A 
ATOM     26  C   UNL A   1      34.784  30.824  28.254  1.00  0.00     0.002 A 
ENDBRANCH  16  18
ENDBRANCH  11  16
ENDBRANCH  10  11
ENDBRANCH   8  10
ENDBRANCH   7   8
ENDBRANCH   6   7
ENDBRANCH   5   6
ENDBRANCH   4   5
ENDBRANCH   3   4
ENDBRANCH   2   3
ENDBRANCH   1   2
BRANCH   1  27
ATOM     27  C   UNL A   1      35.304  21.030  25.199  1.00  0.00     0.188 C 
BRANCH  27  28
ATOM     28  C   UNL A   1      36.639  21.805  25.183  1.00  0.00     0.188 C 
BRANCH  28  29
ATOM     29  O   UNL A   1      37.774  21.069  24.769  1.00  0.00    -0.376 OA
BRANCH  29  30
ATOM     30  C   UNL A   1      38.898  21.005  25.630  1.00  0.00     0.202 C 
BRANCH  30  31
ATOM     31  C   UNL A   1      39.677  19.686  25.787  1.00  0.00     0.261 C 
BRANCH  31  32
ATOM     32  O   UNL A   1      40.851  19.710  26.611  1.00  0.00    -0.460 OA
BRANCH  32  33
ATOM     33  C   UNL A   1      42.041  19.949  26.019  1.00  0.00     0.338 C 
ATOM     34  O   UNL A   1      42.590  19.259  25.180  1.00  0.00    -0.246 OA
BRANCH  33  35
ATOM     35  C   UNL A   1      42.483  21.302  26.430  1.00  0.00     0.060 A 
ATOM     36  C   UNL A   1      42.663  22.292  25.452  1.00  0.00     0.016 A 
ATOM     37  C   UNL A   1      42.688  21.602  27.778  1.00  0.00     0.016 A 
ATOM     38  C   UNL A   1      43.055  23.581  25.819  1.00  0.00     0.010 A 
ATOM     39  C   UNL A   1      43.112  22.885  28.140  1.00  0.00     0.010 A 
ATOM     40  C   UNL A   1      43.315  23.876  27.162  1.00  0.00    -0.014 A 
BRANCH  40  41
ATOM     41  C   UNL A   1      43.919  25.177  27.542  1.00  0.00     0.031 A 
ATOM     42  C   UNL A   1      43.039  26.238  28.142  1.00  0.00     0.074 A 
ATOM     43  C   UNL A   1      45.223  25.426  27.329  1.00  0.00     0.049 A 
ATOM     44  N   UNL A   1      43.323  27.478  28.445  1.00  0.00    -0.248 NA
ATOM     45  C   UNL A   1      41.650  25.847  28.434  1.00  0.00     0.031 C 
ATOM     46  C   UNL A   1      46.185  24.473  26.782  1.00  0.00     0.029 A 
ATOM     47  N   UNL A   1      45.952  26.576  27.514  1.00  0.00    -0.354 N 
ATOM     48  C   UNL A   1      42.141  28.029  28.925  1.00  0.00     0.074 A 
ATOM     49  C   UNL A   1      41.137  26.988  28.872  1.00  0.00     0.031 C 
ATOM     50  C   UNL A   1      47.373  25.088  26.640  1.00  0.00     0.029 A 
ATOM     51  C   UNL A   1      47.240  26.487  27.042  1.00  0.00     0.049 A 
ATOM     52  H   UNL A   1      45.588  27.384  27.943  1.00  0.00     0.167 HD
ATOM     53  C   UNL A   1      41.912  29.288  29.370  1.00  0.00     0.034 A 
ATOM     54  C   UNL A   1      48.189  27.437  26.907  1.00  0.00     0.034 A 
ATOM     55  C   UNL A   1      42.914  30.320  29.418  1.00  0.00     0.049 A 
ATOM     56  C   UNL A   1      47.890  28.849  27.341  1.00  0.00     0.074 A 
ATOM     57  C   UNL A   1      42.792  31.612  29.896  1.00  0.00     0.029 A 
ATOM     58  N   UNL A   1      44.210  30.190  28.943  1.00  0.00    -0.354 N 
ATOM     59  N   UNL A   1      46.805  29.332  27.896  1.00  0.00    -0.248 NA
ATOM     60  C   UNL A   1      48.956  29.846  27.148  1.00  0.00     0.031 C 
ATOM     61  C   UNL A   1      43.996  32.282  29.656  1.00  0.00     0.029 A 
ATOM     62  C   UNL A   1      44.887  31.390  29.082  1.00  0.00     0.049 A 
ATOM     63  H   UNL A   1      44.592  29.367  28.564  1.00  0.00     0.167 HD
ATOM     64  C   UNL A   1      47.064  30.677  28.141  1.00  0.00     0.074 A 
ATOM     65  C   UNL A   1      48.421  30.927  27.700  1.00  0.00     0.031 C 
ATOM     66  C   UNL A   1      46.249  31.624  28.670  1.00  0.00     0.034 A 
BRANCH  53  67
ATOM     67  C   UNL A   1      40.517  29.624  29.828  1.00  0.00     0.023 A 
ATOM     68  C   UNL A   1      39.540  30.022  28.892  1.00  0.00     0.012 A 
ATOM     69  C   UNL A   1      40.162  29.505  31.187  1.00  0.00     0.148 A 
ATOM     70  C   UNL A   1      38.247  30.339  29.306  1.00  0.00     0.002 A 
ATOM     71  C   UNL A   1      38.858  29.774  31.585  1.00  0.00     0.091 A 
ATOM     72  F   UNL A   1      41.107  29.142  32.065  1.00  0.00    -0.205 F 
ATOM     73  C   UNL A   1      37.905  30.206  30.649  1.00  0.00     0.022 A 
BRANCH  71  74
ATOM     74  S   UNL A   1      38.296  29.556  33.276  1.00  0.00     0.127 S 
ATOM     75  O   UNL A   1      37.370  28.433  33.135  1.00  0.00    -0.237 OA
ATOM     76  O   UNL A   1      39.542  29.234  33.973  1.00  0.00    -0.237 OA
ATOM     77  O   UNL A   1      37.687  30.819  33.666  1.00  0.00    -0.744 OA
ENDBRANCH  71  74
ENDBRANCH  53  67
BRANCH  54  78
ATOM     78  C   UNL A   1      49.516  27.087  26.323  1.00  0.00     0.023 A 
ATOM     79  C   UNL A   1      49.657  26.991  24.925  1.00  0.00     0.012 A 
ATOM     80  C   UNL A   1      50.638  26.858  27.144  1.00  0.00     0.148 A 
ATOM     81  C   UNL A   1      50.884  26.644  24.357  1.00  0.00     0.002 A 
ATOM     82  C   UNL A   1      51.870  26.571  26.570  1.00  0.00     0.091 A 
ATOM     83  F   UNL A   1      50.478  26.939  28.472  1.00  0.00    -0.205 F 
ATOM     84  C   UNL A   1      51.991  26.445  25.177  1.00  0.00     0.022 A 
BRANCH  82  85
ATOM     85  S   UNL A   1      53.377  26.414  27.534  1.00  0.00     0.127 S 
ATOM     86  O   UNL A   1      53.975  25.212  26.961  1.00  0.00    -0.237 OA
ATOM     87  O   UNL A   1      54.067  27.664  27.210  1.00  0.00    -0.237 OA
ATOM     88  O   UNL A   1      52.951  26.302  28.922  1.00  0.00    -0.744 OA
ENDBRANCH  82  85
ENDBRANCH  54  78
BRANCH  66  89
ATOM     89  C   UNL A   1      46.797  33.021  28.827  1.00  0.00     0.023 A 
ATOM     90  C   UNL A   1      47.432  33.396  30.028  1.00  0.00     0.012 A 
ATOM     91  C   UNL A   1      46.759  33.933  27.753  1.00  0.00     0.148 A 
ATOM     92  C   UNL A   1      47.993  34.666  30.167  1.00  0.00     0.002 A 
ATOM     93  C   UNL A   1      47.365  35.177  27.881  1.00  0.00     0.091 A 
ATOM     94  F   UNL A   1      46.142  33.561  26.621  1.00  0.00    -0.205 F 
ATOM     95  C   UNL A   1      47.971  35.550  29.091  1.00  0.00     0.022 A 
BRANCH  93  96
ATOM     96  S   UNL A   1      47.470  36.351  26.524  1.00  0.00     0.127 S 
ATOM     97  O   UNL A   1      48.164  37.473  27.154  1.00  0.00    -0.237 OA
ATOM     98  O   UNL A   1      48.266  35.614  25.543  1.00  0.00    -0.237 OA
ATOM     99  O   UNL A   1      46.099  36.625  26.117  1.00  0.00    -0.744 OA
ENDBRANCH  93  96
ENDBRANCH  66  89
ENDBRANCH  40  41
ENDBRANCH  33  35
ENDBRANCH  32  33
ENDBRANCH  31  32
ENDBRANCH  30  31
ENDBRANCH  29  30
ENDBRANCH  28  29
ENDBRANCH  27  28
ENDBRANCH   1  27
TORSDOF 28
ENDMDL
MODEL 3
REMARK VINA RESULT:      -8.7      1.597      2.885
REMARK SMILES C#CC[N@H+](CC(=O)OCCOCCOCCOCCOC(=O)c1ccc(-c2c3nc(c(-c4cccc(S(=O)(=O)[O-])c4F)c4ccc([nH]4)c(-c4cccc(S(=O)(=O)[O-])c4F)c4nc(c(-c5cccc(S(=O)(=O)[O-])c5F)c5ccc2[nH]5)C=C4)C=C3)cc1)[C@H](C)c1nc2ccccc2s1
REMARK SMILES IDX 14 1 13 2 12 3 11 4 10 5 9 6 8 7 6 8 7 9 5 10 4 11 3 13 2 14
REMARK SMILES IDX 1 15 86 16 87 17 88 18 89 19 96 20 90 21 95 22 91 23 94 24
REMARK SMILES IDX 92 25 93 26 15 27 16 28 17 29 18 30 19 31 20 32 21 33 22 34
REMARK SMILES IDX 23 35 24 36 85 37 25 38 84 39 26 40 27 41 28 42 78 43 29 44
REMARK SMILES IDX 83 45 77 46 79 47 30 48 82 49 76 50 75 51 31 53 63 54 43 55
REMARK SMILES IDX 62 56 44 57 47 58 61 59 80 60 45 61 46 62 60 64 81 65 48 66
REMARK SMILES IDX 32 67 33 68 41 69 34 70 36 71 42 72 35 73 37 74 38 75 39 76
REMARK SMILES IDX 40 77 64 78 65 79 73 80 66 81 68 82 74 83 67 84 69 85 70 86
REMARK SMILES IDX 71 87 72 88 49 89 50 90 58 91 51 92 53 93 59 94 52 95 54 96
REMARK SMILES IDX 55 97 56 98 57 99
REMARK H PARENT 4 12 79 52 47 63
REMARK Flexibility Score: inf
ROOT
ATOM      1  O   UNL A   1      33.731  20.738  26.534  1.00  0.00    -0.377 OA
ENDROOT
BRANCH   1   2
ATOM      2  C   UNL A   1      33.489  21.951  27.208  1.00  0.00     0.188 C 
BRANCH   2   3
ATOM      3  C   UNL A   1      32.092  22.575  27.070  1.00  0.00     0.188 C 
BRANCH   3   4
ATOM      4  O   UNL A   1      31.527  22.741  25.786  1.00  0.00    -0.376 OA
BRANCH   4   5
ATOM      5  C   UNL A   1      30.393  23.565  25.557  1.00  0.00     0.202 C 
BRANCH   5   6
ATOM      6  C   UNL A   1      30.208  25.012  26.048  1.00  0.00     0.261 C 
BRANCH   6   7
ATOM      7  O   UNL A   1      29.838  25.990  25.077  1.00  0.00    -0.459 OA
BRANCH   7   8
ATOM      8  C   UNL A   1      30.617  27.088  25.006  1.00  0.00     0.361 C 
ATOM      9  O   UNL A   1      30.416  28.016  24.220  1.00  0.00    -0.245 OA
BRANCH   8  10
ATOM     10  C   UNL A   1      31.777  27.161  25.992  1.00  0.00     0.387 C 
BRANCH  10  11
ATOM     11  N   UNL A   1      32.672  28.353  26.034  1.00  0.00    -0.308 N 
ATOM     12  H   UNL A   1      32.126  29.197  25.867  1.00  0.00     0.350 HD
BRANCH  11  13
ATOM     13  C   UNL A   1      33.261  28.549  27.378  1.00  0.00     0.355 C 
BRANCH  13  14
ATOM     14  C   UNL A   1      34.272  29.622  27.413  1.00  0.00    -0.047 C 
ATOM     15  C   UNL A   1      35.089  30.510  27.394  1.00  0.00     0.010 C 
ENDBRANCH  13  14
ENDBRANCH  11  13
BRANCH  11  16
ATOM     16  C   UNL A   1      33.692  28.256  24.925  1.00  0.00     0.242 C 
ATOM     17  C   UNL A   1      33.536  29.328  23.824  1.00  0.00     0.083 C 
BRANCH  16  18
ATOM     18  C   UNL A   1      33.796  26.900  24.238  1.00  0.00     0.151 A 
ATOM     19  N   UNL A   1      33.556  26.734  22.953  1.00  0.00    -0.235 NA
ATOM     20  S   UNL A   1      34.265  25.471  25.079  1.00  0.00    -0.113 S 
ATOM     21  C   UNL A   1      33.472  25.391  22.660  1.00  0.00     0.082 A 
ATOM     22  C   UNL A   1      33.841  24.527  23.692  1.00  0.00     0.055 A 
ATOM     23  C   UNL A   1      33.007  24.856  21.444  1.00  0.00     0.030 A 
ATOM     24  C   UNL A   1      33.797  23.132  23.528  1.00  0.00     0.021 A 
ATOM     25  C   UNL A   1      32.903  23.473  21.293  1.00  0.00     0.002 A 
ATOM     26  C   UNL A   1      33.304  22.623  22.319  1.00  0.00     0.002 A 
ENDBRANCH  16  18
ENDBRANCH  11  16
ENDBRANCH  10  11
ENDBRANCH   8  10
ENDBRANCH   7   8
ENDBRANCH   6   7
ENDBRANCH   5   6
ENDBRANCH   4   5
ENDBRANCH   3   4
ENDBRANCH   2   3
ENDBRANCH   1   2
BRANCH   1  27
ATOM     27  C   UNL A   1      34.727  20.642  25.533  1.00  0.00     0.188 C 
BRANCH  27  28
ATOM     28  C   UNL A   1      36.124  21.273  25.713  1.00  0.00     0.188 C 
BRANCH  28  29
ATOM     29  O   UNL A   1      37.117  20.840  24.804  1.00  0.00    -0.376 OA
BRANCH  29  30
ATOM     30  C   UNL A   1      38.481  20.963  25.172  1.00  0.00     0.202 C 
BRANCH  30  31
ATOM     31  C   UNL A   1      39.257  19.732  25.676  1.00  0.00     0.261 C 
BRANCH  31  32
ATOM     32  O   UNL A   1      40.354  19.969  26.571  1.00  0.00    -0.460 OA
BRANCH  32  33
ATOM     33  C   UNL A   1      41.609  19.885  26.078  1.00  0.00     0.338 C 
ATOM     34  O   UNL A   1      42.052  19.011  25.357  1.00  0.00    -0.246 OA
BRANCH  33  35
ATOM     35  C   UNL A   1      42.307  21.148  26.413  1.00  0.00     0.060 A 
ATOM     36  C   UNL A   1      42.687  21.390  27.742  1.00  0.00     0.016 A 
ATOM     37  C   UNL A   1      42.614  22.075  25.416  1.00  0.00     0.016 A 
ATOM     38  C   UNL A   1      43.367  22.563  28.077  1.00  0.00     0.010 A 
ATOM     39  C   UNL A   1      43.267  23.263  25.760  1.00  0.00     0.010 A 
ATOM     40  C   UNL A   1      43.631  23.523  27.094  1.00  0.00    -0.014 A 
BRANCH  40  41
ATOM     41  C   UNL A   1      44.175  24.852  27.468  1.00  0.00     0.031 A 
ATOM     42  C   UNL A   1      43.235  25.898  27.997  1.00  0.00     0.074 A 
ATOM     43  C   UNL A   1      45.479  25.138  27.310  1.00  0.00     0.049 A 
ATOM     44  N   UNL A   1      43.465  27.153  28.280  1.00  0.00    -0.248 NA
ATOM     45  C   UNL A   1      41.846  25.469  28.233  1.00  0.00     0.031 C 
ATOM     46  C   UNL A   1      46.496  24.203  26.834  1.00  0.00     0.029 A 
ATOM     47  N   UNL A   1      46.162  26.315  27.499  1.00  0.00    -0.354 N 
ATOM     48  C   UNL A   1      42.245  27.677  28.689  1.00  0.00     0.074 A 
ATOM     49  C   UNL A   1      41.277  26.604  28.616  1.00  0.00     0.031 C 
ATOM     50  C   UNL A   1      47.670  24.853  26.733  1.00  0.00     0.029 A 
ATOM     51  C   UNL A   1      47.474  26.256  27.091  1.00  0.00     0.049 A 
ATOM     52  H   UNL A   1      45.753  27.121  27.889  1.00  0.00     0.167 HD
ATOM     53  C   UNL A   1      41.955  28.939  29.090  1.00  0.00     0.034 A 
ATOM     54  C   UNL A   1      48.398  27.233  26.975  1.00  0.00     0.034 A 
ATOM     55  C   UNL A   1      42.921  30.004  29.157  1.00  0.00     0.049 A 
ATOM     56  C   UNL A   1      48.035  28.645  27.358  1.00  0.00     0.074 A 
ATOM     57  C   UNL A   1      42.735  31.303  29.595  1.00  0.00     0.029 A 
ATOM     58  N   UNL A   1      44.241  29.905  28.748  1.00  0.00    -0.354 N 
ATOM     59  N   UNL A   1      46.909  29.106  27.848  1.00  0.00    -0.248 NA
ATOM     60  C   UNL A   1      49.076  29.670  27.189  1.00  0.00     0.031 C 
ATOM     61  C   UNL A   1      43.928  32.006  29.395  1.00  0.00     0.029 A 
ATOM     62  C   UNL A   1      44.873  31.129  28.887  1.00  0.00     0.049 A 
ATOM     63  H   UNL A   1      44.667  29.085  28.409  1.00  0.00     0.167 HD
ATOM     64  C   UNL A   1      47.114  30.464  28.068  1.00  0.00     0.074 A 
ATOM     65  C   UNL A   1      48.482  30.747  27.686  1.00  0.00     0.031 C 
ATOM     66  C   UNL A   1      46.245  31.397  28.533  1.00  0.00     0.034 A 
BRANCH  53  67
ATOM     67  C   UNL A   1      40.530  29.241  29.473  1.00  0.00     0.023 A 
ATOM     68  C   UNL A   1      39.626  29.733  28.508  1.00  0.00     0.012 A 
ATOM     69  C   UNL A   1      40.074  28.998  30.783  1.00  0.00     0.148 A 
ATOM     70  C   UNL A   1      38.305  30.019  28.853  1.00  0.00     0.002 A 
ATOM     71  C   UNL A   1      38.744  29.237  31.107  1.00  0.00     0.091 A 
ATOM     72  F   UNL A   1      40.950  28.547  31.691  1.00  0.00    -0.205 F 
ATOM     73  C   UNL A   1      37.863  29.762  30.148  1.00  0.00     0.022 A 
BRANCH  71  74
ATOM     74  S   UNL A   1      38.057  28.865  32.723  1.00  0.00     0.127 S 
ATOM     75  O   UNL A   1      38.917  29.659  33.599  1.00  0.00    -0.237 OA
ATOM     76  O   UNL A   1      36.688  29.366  32.595  1.00  0.00    -0.237 OA
ATOM     77  O   UNL A   1      38.165  27.422  32.887  1.00  0.00    -0.744 OA
ENDBRANCH  71  74
ENDBRANCH  53  67
BRANCH  54  78
ATOM     78  C   UNL A   1      49.762  26.912  26.464  1.00  0.00     0.023 A 
ATOM     79  C   UNL A   1      50.683  26.256  27.304  1.00  0.00     0.012 A 
ATOM     80  C   UNL A   1      50.147  27.246  25.151  1.00  0.00     0.148 A 
ATOM     81  C   UNL A   1      51.971  25.964  26.855  1.00  0.00     0.002 A 
ATOM     82  C   UNL A   1      51.412  26.900  24.690  1.00  0.00     0.091 A 
ATOM     83  F   UNL A   1      49.261  27.884  24.373  1.00  0.00    -0.205 F 
ATOM     84  C   UNL A   1      52.332  26.276  25.547  1.00  0.00     0.022 A 
BRANCH  82  85
ATOM     85  S   UNL A   1      51.927  27.153  22.989  1.00  0.00     0.127 S 
ATOM     86  O   UNL A   1      52.253  28.576  22.983  1.00  0.00    -0.237 OA
ATOM     87  O   UNL A   1      53.078  26.254  22.891  1.00  0.00    -0.237 OA
ATOM     88  O   UNL A   1      50.788  26.768  22.167  1.00  0.00    -0.744 OA
ENDBRANCH  82  85
ENDBRANCH  54  78
BRANCH  66  89
ATOM     89  C   UNL A   1      46.741  32.814  28.679  1.00  0.00     0.023 A 
ATOM     90  C   UNL A   1      47.222  33.266  29.925  1.00  0.00     0.012 A 
ATOM     91  C   UNL A   1      46.810  33.670  27.562  1.00  0.00     0.148 A 
ATOM     92  C   UNL A   1      47.735  34.556  30.061  1.00  0.00     0.002 A 
ATOM     93  C   UNL A   1      47.371  34.935  27.694  1.00  0.00     0.091 A 
ATOM     94  F   UNL A   1      46.339  33.226  26.387  1.00  0.00    -0.205 F 
ATOM     95  C   UNL A   1      47.821  35.385  28.944  1.00  0.00     0.022 A 
BRANCH  93  96
ATOM     96  S   UNL A   1      47.609  36.042  26.298  1.00  0.00     0.127 S 
ATOM     97  O   UNL A   1      46.283  36.646  26.167  1.00  0.00    -0.237 OA
ATOM     98  O   UNL A   1      48.644  36.946  26.798  1.00  0.00    -0.237 OA
ATOM     99  O   UNL A   1      48.018  35.204  25.180  1.00  0.00    -0.744 OA
ENDBRANCH  93  96
ENDBRANCH  66  89
ENDBRANCH  40  41
ENDBRANCH  33  35
ENDBRANCH  32  33
ENDBRANCH  31  32
ENDBRANCH  30  31
ENDBRANCH  29  30
ENDBRANCH  28  29
ENDBRANCH  27  28
ENDBRANCH   1  27
TORSDOF 28
ENDMDL
