MODEL 1
REMARK VINA RESULT:      -8.5      0.000      0.000
REMARK SMILES C[C@@]([NH2+]CC(=O)Nc1cccc(F)c1)(C(=O)OCCOCCOCCOCCOC(=O)c1ccc(-c2c3nc(c(-c4cccc(S(=O)(=O)[O-])c4F)c4ccc([nH]4)c(-c4cccc(S(=O)(=O)[O-])c4F)c4nc(c(-c5cccc(S(=O)(=O)[O-])c5F)c5ccc2[nH]5)C=C4)C=C3)cc1)C(F)(F)F
REMARK SMILES IDX 22 1 21 2 20 3 19 4 18 5 17 6 15 7 16 8 2 9 1 10 3 11 4 14
REMARK SMILES IDX 5 15 6 16 7 17 8 19 9 20 14 21 10 22 12 23 11 24 13 25 95 26
REMARK SMILES IDX 96 27 97 28 98 29 23 30 24 31 25 32 26 33 27 34 28 35 29 36
REMARK SMILES IDX 30 37 31 38 32 39 33 40 94 41 34 42 93 43 35 44 36 45 37 46
REMARK SMILES IDX 87 47 38 48 92 49 86 50 88 51 39 52 91 53 85 54 84 55 40 57
REMARK SMILES IDX 72 58 52 59 71 60 53 61 56 62 70 63 89 64 54 65 55 66 69 68
REMARK SMILES IDX 90 69 57 70 41 71 42 72 50 73 43 74 45 75 51 76 44 77 46 78
REMARK SMILES IDX 47 79 48 80 49 81 73 82 74 83 82 84 75 85 77 86 83 87 76 88
REMARK SMILES IDX 78 89 79 90 80 91 81 92 58 93 59 94 67 95 60 96 62 97 68 98
REMARK SMILES IDX 61 99 63 100 64 101 65 102 66 103
REMARK H PARENT 3 12 3 13 7 18 88 56 56 67
REMARK Flexibility Score: inf
ROOT
ATOM      1  C   UNL A   1      34.294  32.912  28.722  1.00  0.00     0.188 C 
ENDROOT
BRANCH   1   2
ATOM      2  C   UNL A   1      34.956  31.894  27.824  1.00  0.00     0.188 C 
BRANCH   2   3
ATOM      3  O   UNL A   1      34.571  30.534  27.845  1.00  0.00    -0.376 OA
BRANCH   3   4
ATOM      4  C   UNL A   1      33.290  30.267  27.268  1.00  0.00     0.202 C 
BRANCH   4   5
ATOM      5  C   UNL A   1      32.839  28.788  27.131  1.00  0.00     0.261 C 
BRANCH   5   6
ATOM      6  O   UNL A   1      32.429  28.238  25.848  1.00  0.00    -0.458 OA
BRANCH   6   7
ATOM      7  C   UNL A   1      31.551  27.197  25.744  1.00  0.00     0.377 C 
ATOM      8  O   UNL A   1      31.252  26.532  26.721  1.00  0.00    -0.244 OA
BRANCH   7   9
ATOM      9  C   UNL A   1      31.199  26.847  24.271  1.00  0.00     0.287 C 
ATOM     10  C   UNL A   1      32.566  26.579  23.566  1.00  0.00     0.103 C 
BRANCH   9  11
ATOM     11  N   UNL A   1      30.215  25.712  24.405  1.00  0.00    -0.317 N 
ATOM     12  H   UNL A   1      29.325  26.005  24.001  1.00  0.00     0.347 HD
ATOM     13  H   UNL A   1      30.131  25.497  25.398  1.00  0.00     0.347 HD
BRANCH  11  14
ATOM     14  C   UNL A   1      30.672  24.442  23.702  1.00  0.00     0.363 C 
BRANCH  14  15
ATOM     15  C   UNL A   1      31.288  23.255  24.547  1.00  0.00     0.279 C 
ATOM     16  O   UNL A   1      30.636  22.835  25.513  1.00  0.00    -0.268 OA
ATOM     17  N   UNL A   1      32.267  22.434  23.998  1.00  0.00    -0.321 N 
ATOM     18  H   UNL A   1      31.896  21.669  23.503  1.00  0.00     0.170 HD
BRANCH  17  19
ATOM     19  C   UNL A   1      33.705  22.461  24.000  1.00  0.00     0.044 A 
ATOM     20  C   UNL A   1      34.531  23.410  23.388  1.00  0.00     0.026 A 
ATOM     21  C   UNL A   1      34.363  21.435  24.689  1.00  0.00     0.065 A 
ATOM     22  C   UNL A   1      35.934  23.282  23.333  1.00  0.00     0.005 A 
ATOM     23  C   UNL A   1      35.762  21.323  24.665  1.00  0.00     0.125 A 
ATOM     24  C   UNL A   1      36.554  22.218  23.964  1.00  0.00     0.039 A 
ATOM     25  F   UNL A   1      36.351  20.324  25.337  1.00  0.00    -0.207 F 
ENDBRANCH  17  19
ENDBRANCH  14  15
ENDBRANCH  11  14
ENDBRANCH   9  11
BRANCH   9  26
ATOM     26  C   UNL A   1      30.613  27.907  23.295  1.00  0.00     0.455 C 
ATOM     27  F   UNL A   1      30.290  27.423  22.080  1.00  0.00    -0.164 F 
ATOM     28  F   UNL A   1      29.464  28.434  23.820  1.00  0.00    -0.164 F 
ATOM     29  F   UNL A   1      31.389  28.992  23.135  1.00  0.00    -0.164 F 
ENDBRANCH   9  26
ENDBRANCH   7   9
ENDBRANCH   6   7
ENDBRANCH   5   6
ENDBRANCH   4   5
ENDBRANCH   3   4
ENDBRANCH   2   3
ENDBRANCH   1   2
BRANCH   1  30
ATOM     30  O   UNL A   1      35.168  33.605  29.586  1.00  0.00    -0.377 OA
BRANCH  30  31
ATOM     31  C   UNL A   1      34.614  33.950  30.850  1.00  0.00     0.188 C 
BRANCH  31  32
ATOM     32  C   UNL A   1      35.485  33.706  32.105  1.00  0.00     0.188 C 
BRANCH  32  33
ATOM     33  O   UNL A   1      35.314  32.446  32.751  1.00  0.00    -0.376 OA
BRANCH  33  34
ATOM     34  C   UNL A   1      36.374  31.498  32.593  1.00  0.00     0.202 C 
BRANCH  34  35
ATOM     35  C   UNL A   1      36.287  30.480  31.434  1.00  0.00     0.261 C 
BRANCH  35  36
ATOM     36  O   UNL A   1      36.934  30.848  30.210  1.00  0.00    -0.460 OA
BRANCH  36  37
ATOM     37  C   UNL A   1      38.203  30.432  30.032  1.00  0.00     0.338 C 
ATOM     38  O   UNL A   1      38.559  29.320  29.668  1.00  0.00    -0.246 OA
BRANCH  37  39
ATOM     39  C   UNL A   1      39.092  31.611  30.107  1.00  0.00     0.060 A 
ATOM     40  C   UNL A   1      40.462  31.381  30.310  1.00  0.00     0.016 A 
ATOM     41  C   UNL A   1      38.616  32.910  29.894  1.00  0.00     0.016 A 
ATOM     42  C   UNL A   1      41.354  32.448  30.332  1.00  0.00     0.010 A 
ATOM     43  C   UNL A   1      39.503  33.988  29.975  1.00  0.00     0.010 A 
ATOM     44  C   UNL A   1      40.863  33.756  30.246  1.00  0.00    -0.014 A 
BRANCH  44  45
ATOM     45  C   UNL A   1      41.711  34.830  30.807  1.00  0.00     0.031 A 
ATOM     46  C   UNL A   1      41.703  34.977  32.305  1.00  0.00     0.074 A 
ATOM     47  C   UNL A   1      42.523  35.580  30.042  1.00  0.00     0.049 A 
ATOM     48  N   UNL A   1      42.411  35.767  33.064  1.00  0.00    -0.248 NA
ATOM     49  C   UNL A   1      40.779  34.099  33.051  1.00  0.00     0.031 C 
ATOM     50  C   UNL A   1      42.629  35.501  28.587  1.00  0.00     0.029 A 
ATOM     51  N   UNL A   1      43.414  36.563  30.395  1.00  0.00    -0.354 N 
ATOM     52  C   UNL A   1      42.007  35.493  34.365  1.00  0.00     0.074 A 
ATOM     53  C   UNL A   1      40.984  34.479  34.300  1.00  0.00     0.031 C 
ATOM     54  C   UNL A   1      43.525  36.415  28.169  1.00  0.00     0.029 A 
ATOM     55  C   UNL A   1      44.041  37.151  29.323  1.00  0.00     0.049 A 
ATOM     56  H   UNL A   1      43.588  36.821  31.329  1.00  0.00     0.167 HD
ATOM     57  C   UNL A   1      42.467  36.024  35.517  1.00  0.00     0.034 A 
ATOM     58  C   UNL A   1      44.919  38.174  29.286  1.00  0.00     0.034 A 
ATOM     59  C   UNL A   1      43.498  37.018  35.575  1.00  0.00     0.049 A 
ATOM     60  C   UNL A   1      45.382  38.787  30.585  1.00  0.00     0.074 A 
ATOM     61  C   UNL A   1      44.061  37.599  36.695  1.00  0.00     0.029 A 
ATOM     62  N   UNL A   1      44.104  37.590  34.469  1.00  0.00    -0.354 N 
ATOM     63  N   UNL A   1      45.077  38.441  31.813  1.00  0.00    -0.248 NA
ATOM     64  C   UNL A   1      46.332  39.907  30.500  1.00  0.00     0.031 C 
ATOM     65  C   UNL A   1      44.983  38.554  36.264  1.00  0.00     0.029 A 
ATOM     66  C   UNL A   1      45.023  38.536  34.877  1.00  0.00     0.049 A 
ATOM     67  H   UNL A   1      43.908  37.357  33.533  1.00  0.00     0.167 HD
ATOM     68  C   UNL A   1      45.813  39.280  32.645  1.00  0.00     0.074 A 
ATOM     69  C   UNL A   1      46.596  40.138  31.781  1.00  0.00     0.031 C 
ATOM     70  C   UNL A   1      45.830  39.344  33.999  1.00  0.00     0.034 A 
BRANCH  57  71
ATOM     71  C   UNL A   1      41.880  35.530  36.809  1.00  0.00     0.023 A 
ATOM     72  C   UNL A   1      40.750  36.171  37.354  1.00  0.00     0.012 A 
ATOM     73  C   UNL A   1      42.394  34.376  37.431  1.00  0.00     0.148 A 
ATOM     74  C   UNL A   1      40.145  35.676  38.508  1.00  0.00     0.002 A 
ATOM     75  C   UNL A   1      41.757  33.862  38.552  1.00  0.00     0.091 A 
ATOM     76  F   UNL A   1      43.488  33.803  36.909  1.00  0.00    -0.205 F 
ATOM     77  C   UNL A   1      40.639  34.514  39.097  1.00  0.00     0.022 A 
BRANCH  75  78
ATOM     78  S   UNL A   1      42.260  32.326  39.332  1.00  0.00     0.127 S 
ATOM     79  O   UNL A   1      41.170  32.106  40.283  1.00  0.00    -0.237 OA
ATOM     80  O   UNL A   1      42.276  31.401  38.200  1.00  0.00    -0.237 OA
ATOM     81  O   UNL A   1      43.561  32.582  39.934  1.00  0.00    -0.744 OA
ENDBRANCH  75  78
ENDBRANCH  57  71
BRANCH  58  82
ATOM     82  C   UNL A   1      45.434  38.664  27.974  1.00  0.00     0.023 A 
ATOM     83  C   UNL A   1      46.431  37.939  27.295  1.00  0.00     0.012 A 
ATOM     84  C   UNL A   1      44.910  39.829  27.379  1.00  0.00     0.148 A 
ATOM     85  C   UNL A   1      46.911  38.374  26.058  1.00  0.00     0.002 A 
ATOM     86  C   UNL A   1      45.349  40.225  26.121  1.00  0.00     0.091 A 
ATOM     87  F   UNL A   1      43.977  40.519  28.050  1.00  0.00    -0.205 F 
ATOM     88  C   UNL A   1      46.362  39.509  25.466  1.00  0.00     0.022 A 
BRANCH  86  89
ATOM     89  S   UNL A   1      44.605  41.592  25.224  1.00  0.00     0.127 S 
ATOM     90  O   UNL A   1      45.435  41.650  24.023  1.00  0.00    -0.237 OA
ATOM     91  O   UNL A   1      43.243  41.102  25.010  1.00  0.00    -0.237 OA
ATOM     92  O   UNL A   1      44.698  42.744  26.110  1.00  0.00    -0.744 OA
ENDBRANCH  86  89
ENDBRANCH  58  82
BRANCH  70  93
ATOM     93  C   UNL A   1      46.726  40.356  34.660  1.00  0.00     0.023 A 
ATOM     94  C   UNL A   1      48.052  40.006  34.978  1.00  0.00     0.012 A 
ATOM     95  C   UNL A   1      46.306  41.695  34.802  1.00  0.00     0.148 A 
ATOM     96  C   UNL A   1      48.946  40.973  35.436  1.00  0.00     0.002 A 
ATOM     97  C   UNL A   1      47.217  42.661  35.207  1.00  0.00     0.091 A 
ATOM     98  F   UNL A   1      45.037  42.000  34.496  1.00  0.00    -0.205 F 
ATOM     99  C   UNL A   1      48.534  42.301  35.534  1.00  0.00     0.022 A 
BRANCH  97 100
ATOM    100  S   UNL A   1      46.816  44.412  35.253  1.00  0.00     0.127 S 
ATOM    101  O   UNL A   1      46.054  44.574  34.015  1.00  0.00    -0.237 OA
ATOM    102  O   UNL A   1      46.022  44.514  36.477  1.00  0.00    -0.237 OA
ATOM    103  O   UNL A   1      48.089  45.119  35.290  1.00  0.00    -0.744 OA
ENDBRANCH  97 100
ENDBRANCH  70  93
ENDBRANCH  44  45
ENDBRANCH  37  39
ENDBRANCH  36  37
ENDBRANCH  35  36
ENDBRANCH  34  35
ENDBRANCH  33  34
ENDBRANCH  32  33
ENDBRANCH  31  32
ENDBRANCH  30  31
ENDBRANCH   1  30
TORSDOF 28
ENDMDL
MODEL 2
REMARK VINA RESULT:      -8.5      8.153     12.010
REMARK SMILES C[C@@]([NH2+]CC(=O)Nc1cccc(F)c1)(C(=O)OCCOCCOCCOCCOC(=O)c1ccc(-c2c3nc(c(-c4cccc(S(=O)(=O)[O-])c4F)c4ccc([nH]4)c(-c4cccc(S(=O)(=O)[O-])c4F)c4nc(c(-c5cccc(S(=O)(=O)[O-])c5F)c5ccc2[nH]5)C=C4)C=C3)cc1)C(F)(F)F
REMARK SMILES IDX 22 1 21 2 20 3 19 4 18 5 17 6 15 7 16 8 2 9 1 10 3 11 4 14
REMARK SMILES IDX 5 15 6 16 7 17 8 19 9 20 14 21 10 22 12 23 11 24 13 25 95 26
REMARK SMILES IDX 96 27 97 28 98 29 23 30 24 31 25 32 26 33 27 34 28 35 29 36
REMARK SMILES IDX 30 37 31 38 32 39 33 40 94 41 34 42 93 43 35 44 36 45 37 46
REMARK SMILES IDX 87 47 38 48 92 49 86 50 88 51 39 52 91 53 85 54 84 55 40 57
REMARK SMILES IDX 72 58 52 59 71 60 53 61 56 62 70 63 89 64 54 65 55 66 69 68
REMARK SMILES IDX 90 69 57 70 41 71 42 72 50 73 43 74 45 75 51 76 44 77 46 78
REMARK SMILES IDX 47 79 48 80 49 81 73 82 74 83 82 84 75 85 77 86 83 87 76 88
REMARK SMILES IDX 78 89 79 90 80 91 81 92 58 93 59 94 67 95 60 96 62 97 68 98
REMARK SMILES IDX 61 99 63 100 64 101 65 102 66 103
REMARK H PARENT 3 12 3 13 7 18 88 56 56 67
REMARK Flexibility Score: inf
ROOT
ATOM      1  C   UNL A   1      34.699  31.703  27.699  1.00  0.00     0.188 C 
ENDROOT
BRANCH   1   2
ATOM      2  C   UNL A   1      35.205  30.280  27.734  1.00  0.00     0.188 C 
BRANCH   2   3
ATOM      3  O   UNL A   1      34.724  29.307  26.828  1.00  0.00    -0.376 OA
BRANCH   3   4
ATOM      4  C   UNL A   1      33.586  28.573  27.289  1.00  0.00     0.202 C 
BRANCH   4   5
ATOM      5  C   UNL A   1      33.061  27.405  26.413  1.00  0.00     0.261 C 
BRANCH   5   6
ATOM      6  O   UNL A   1      31.801  27.505  25.692  1.00  0.00    -0.458 OA
BRANCH   6   7
ATOM      7  C   UNL A   1      31.469  28.599  24.944  1.00  0.00     0.377 C 
ATOM      8  O   UNL A   1      31.490  29.717  25.430  1.00  0.00    -0.244 OA
BRANCH   7   9
ATOM      9  C   UNL A   1      30.870  28.226  23.560  1.00  0.00     0.287 C 
ATOM     10  C   UNL A   1      31.763  28.955  22.507  1.00  0.00     0.103 C 
BRANCH   9  11
ATOM     11  N   UNL A   1      30.852  26.718  23.580  1.00  0.00    -0.317 N 
ATOM     12  H   UNL A   1      29.887  26.407  23.689  1.00  0.00     0.347 HD
ATOM     13  H   UNL A   1      31.441  26.416  24.356  1.00  0.00     0.347 HD
BRANCH  11  14
ATOM     14  C   UNL A   1      31.421  26.099  22.311  1.00  0.00     0.363 C 
BRANCH  14  15
ATOM     15  C   UNL A   1      32.973  25.816  22.204  1.00  0.00     0.279 C 
ATOM     16  O   UNL A   1      33.548  26.139  21.156  1.00  0.00    -0.268 OA
ATOM     17  N   UNL A   1      33.737  25.635  23.352  1.00  0.00    -0.321 N 
ATOM     18  H   UNL A   1      34.085  26.478  23.721  1.00  0.00     0.170 HD
BRANCH  17  19
ATOM     19  C   UNL A   1      34.130  24.481  24.115  1.00  0.00     0.044 A 
ATOM     20  C   UNL A   1      35.012  24.447  25.201  1.00  0.00     0.026 A 
ATOM     21  C   UNL A   1      33.572  23.250  23.745  1.00  0.00     0.065 A 
ATOM     22  C   UNL A   1      35.437  23.247  25.805  1.00  0.00     0.005 A 
ATOM     23  C   UNL A   1      33.968  22.056  24.368  1.00  0.00     0.125 A 
ATOM     24  C   UNL A   1      34.922  22.038  25.373  1.00  0.00     0.039 A 
ATOM     25  F   UNL A   1      33.410  20.900  23.982  1.00  0.00    -0.207 F 
ENDBRANCH  17  19
ENDBRANCH  14  15
ENDBRANCH  11  14
ENDBRANCH   9  11
BRANCH   9  26
ATOM     26  C   UNL A   1      29.472  28.739  23.107  1.00  0.00     0.455 C 
ATOM     27  F   UNL A   1      29.361  28.944  21.781  1.00  0.00    -0.164 F 
ATOM     28  F   UNL A   1      28.514  27.820  23.439  1.00  0.00    -0.164 F 
ATOM     29  F   UNL A   1      29.059  29.843  23.752  1.00  0.00    -0.164 F 
ENDBRANCH   9  26
ENDBRANCH   7   9
ENDBRANCH   6   7
ENDBRANCH   5   6
ENDBRANCH   4   5
ENDBRANCH   3   4
ENDBRANCH   2   3
ENDBRANCH   1   2
BRANCH   1  30
ATOM     30  O   UNL A   1      34.203  32.191  28.927  1.00  0.00    -0.377 OA
BRANCH  30  31
ATOM     31  C   UNL A   1      34.968  33.237  29.511  1.00  0.00     0.188 C 
BRANCH  31  32
ATOM     32  C   UNL A   1      34.649  33.630  30.973  1.00  0.00     0.188 C 
BRANCH  32  33
ATOM     33  O   UNL A   1      34.298  32.559  31.847  1.00  0.00    -0.376 OA
BRANCH  33  34
ATOM     34  C   UNL A   1      35.374  31.926  32.546  1.00  0.00     0.202 C 
BRANCH  34  35
ATOM     35  C   UNL A   1      36.822  32.340  32.202  1.00  0.00     0.261 C 
BRANCH  35  36
ATOM     36  O   UNL A   1      37.491  31.557  31.206  1.00  0.00    -0.460 OA
BRANCH  36  37
ATOM     37  C   UNL A   1      37.447  30.218  31.341  1.00  0.00     0.338 C 
ATOM     38  O   UNL A   1      36.561  29.475  30.941  1.00  0.00    -0.246 OA
BRANCH  37  39
ATOM     39  C   UNL A   1      38.765  29.759  31.829  1.00  0.00     0.060 A 
ATOM     40  C   UNL A   1      39.853  30.634  31.684  1.00  0.00     0.016 A 
ATOM     41  C   UNL A   1      38.923  28.539  32.498  1.00  0.00     0.016 A 
ATOM     42  C   UNL A   1      41.105  30.281  32.175  1.00  0.00     0.010 A 
ATOM     43  C   UNL A   1      40.192  28.157  32.939  1.00  0.00     0.010 A 
ATOM     44  C   UNL A   1      41.292  29.009  32.730  1.00  0.00    -0.014 A 
BRANCH  44  45
ATOM     45  C   UNL A   1      42.669  28.471  32.729  1.00  0.00     0.031 A 
ATOM     46  C   UNL A   1      43.133  27.815  31.456  1.00  0.00     0.074 A 
ATOM     47  C   UNL A   1      43.507  28.635  33.768  1.00  0.00     0.049 A 
ATOM     48  N   UNL A   1      44.307  27.341  31.147  1.00  0.00    -0.248 NA
ATOM     49  C   UNL A   1      42.134  27.692  30.374  1.00  0.00     0.031 C 
ATOM     50  C   UNL A   1      43.170  29.279  35.035  1.00  0.00     0.029 A 
ATOM     51  N   UNL A   1      44.821  28.264  33.912  1.00  0.00    -0.354 N 
ATOM     52  C   UNL A   1      44.184  26.853  29.853  1.00  0.00     0.074 A 
ATOM     53  C   UNL A   1      42.822  27.070  29.433  1.00  0.00     0.031 C 
ATOM     54  C   UNL A   1      44.249  29.241  35.839  1.00  0.00     0.029 A 
ATOM     55  C   UNL A   1      45.344  28.558  35.149  1.00  0.00     0.049 A 
ATOM     56  H   UNL A   1      45.340  27.830  33.198  1.00  0.00     0.167 HD
ATOM     57  C   UNL A   1      45.131  26.294  29.071  1.00  0.00     0.034 A 
ATOM     58  C   UNL A   1      46.563  28.291  35.661  1.00  0.00     0.034 A 
ATOM     59  C   UNL A   1      46.488  26.098  29.488  1.00  0.00     0.049 A 
ATOM     60  C   UNL A   1      47.592  27.619  34.784  1.00  0.00     0.074 A 
ATOM     61  C   UNL A   1      47.538  25.571  28.760  1.00  0.00     0.029 A 
ATOM     62  N   UNL A   1      46.977  26.405  30.748  1.00  0.00    -0.354 N 
ATOM     63  N   UNL A   1      47.496  27.265  33.525  1.00  0.00    -0.248 NA
ATOM     64  C   UNL A   1      48.905  27.336  35.384  1.00  0.00     0.031 C 
ATOM     65  C   UNL A   1      48.655  25.521  29.595  1.00  0.00     0.029 A 
ATOM     66  C   UNL A   1      48.311  26.058  30.827  1.00  0.00     0.049 A 
ATOM     67  H   UNL A   1      46.452  26.810  31.475  1.00  0.00     0.167 HD
ATOM     68  C   UNL A   1      48.738  26.744  33.174  1.00  0.00     0.074 A 
ATOM     69  C   UNL A   1      49.577  26.846  34.349  1.00  0.00     0.031 C 
ATOM     70  C   UNL A   1      49.142  26.217  31.993  1.00  0.00     0.034 A 
BRANCH  57  71
ATOM     71  C   UNL A   1      44.745  25.872  27.681  1.00  0.00     0.023 A 
ATOM     72  C   UNL A   1      44.781  26.809  26.631  1.00  0.00     0.012 A 
ATOM     73  C   UNL A   1      44.438  24.527  27.405  1.00  0.00     0.148 A 
ATOM     74  C   UNL A   1      44.504  26.415  25.322  1.00  0.00     0.002 A 
ATOM     75  C   UNL A   1      44.211  24.132  26.093  1.00  0.00     0.091 A 
ATOM     76  F   UNL A   1      44.381  23.661  28.427  1.00  0.00    -0.205 F 
ATOM     77  C   UNL A   1      44.236  25.075  25.052  1.00  0.00     0.022 A 
BRANCH  75  78
ATOM     78  S   UNL A   1      43.943  22.419  25.630  1.00  0.00     0.127 S 
ATOM     79  O   UNL A   1      43.639  22.544  24.203  1.00  0.00    -0.237 OA
ATOM     80  O   UNL A   1      45.242  21.817  25.925  1.00  0.00    -0.237 OA
ATOM     81  O   UNL A   1      42.842  21.942  26.455  1.00  0.00    -0.744 OA
ENDBRANCH  75  78
ENDBRANCH  57  71
BRANCH  58  82
ATOM     82  C   UNL A   1      46.881  28.683  37.065  1.00  0.00     0.023 A 
ATOM     83  C   UNL A   1      47.561  29.888  37.321  1.00  0.00     0.012 A 
ATOM     84  C   UNL A   1      46.479  27.880  38.151  1.00  0.00     0.148 A 
ATOM     85  C   UNL A   1      47.851  30.278  38.630  1.00  0.00     0.002 A 
ATOM     86  C   UNL A   1      46.718  28.301  39.453  1.00  0.00     0.091 A 
ATOM     87  F   UNL A   1      45.853  26.724  37.887  1.00  0.00    -0.205 F 
ATOM     88  C   UNL A   1      47.420  29.492  39.696  1.00  0.00     0.022 A 
BRANCH  86  89
ATOM     89  S   UNL A   1      46.081  27.424  40.885  1.00  0.00     0.127 S 
ATOM     90  O   UNL A   1      44.664  27.777  40.848  1.00  0.00    -0.237 OA
ATOM     91  O   UNL A   1      46.378  26.033  40.539  1.00  0.00    -0.237 OA
ATOM     92  O   UNL A   1      46.828  27.933  42.026  1.00  0.00    -0.744 OA
ENDBRANCH  86  89
ENDBRANCH  58  82
BRANCH  70  93
ATOM     93  C   UNL A   1      50.557  25.716  31.876  1.00  0.00     0.023 A 
ATOM     94  C   UNL A   1      51.586  26.615  31.539  1.00  0.00     0.012 A 
ATOM     95  C   UNL A   1      50.882  24.401  32.270  1.00  0.00     0.148 A 
ATOM     96  C   UNL A   1      52.920  26.211  31.587  1.00  0.00     0.002 A 
ATOM     97  C   UNL A   1      52.215  24.023  32.368  1.00  0.00     0.091 A 
ATOM     98  F   UNL A   1      49.882  23.563  32.582  1.00  0.00    -0.205 F 
ATOM     99  C   UNL A   1      53.234  24.923  32.017  1.00  0.00     0.022 A 
BRANCH  97 100
ATOM    100  S   UNL A   1      52.724  22.429  33.021  1.00  0.00     0.127 S 
ATOM    101  O   UNL A   1      54.180  22.518  32.921  1.00  0.00    -0.237 OA
ATOM    102  O   UNL A   1      52.201  22.474  34.386  1.00  0.00    -0.237 OA
ATOM    103  O   UNL A   1      52.108  21.424  32.164  1.00  0.00    -0.744 OA
ENDBRANCH  97 100
ENDBRANCH  70  93
ENDBRANCH  44  45
ENDBRANCH  37  39
ENDBRANCH  36  37
ENDBRANCH  35  36
ENDBRANCH  34  35
ENDBRANCH  33  34
ENDBRANCH  32  33
ENDBRANCH  31  32
ENDBRANCH  30  31
ENDBRANCH   1  30
TORSDOF 28
ENDMDL
MODEL 3
REMARK VINA RESULT:      -8.4      5.752     12.543
REMARK SMILES C[C@@]([NH2+]CC(=O)Nc1cccc(F)c1)(C(=O)OCCOCCOCCOCCOC(=O)c1ccc(-c2c3nc(c(-c4cccc(S(=O)(=O)[O-])c4F)c4ccc([nH]4)c(-c4cccc(S(=O)(=O)[O-])c4F)c4nc(c(-c5cccc(S(=O)(=O)[O-])c5F)c5ccc2[nH]5)C=C4)C=C3)cc1)C(F)(F)F
REMARK SMILES IDX 22 1 21 2 20 3 19 4 18 5 17 6 15 7 16 8 2 9 1 10 3 11 4 14
REMARK SMILES IDX 5 15 6 16 7 17 8 19 9 20 14 21 10 22 12 23 11 24 13 25 95 26
REMARK SMILES IDX 96 27 97 28 98 29 23 30 24 31 25 32 26 33 27 34 28 35 29 36
REMARK SMILES IDX 30 37 31 38 32 39 33 40 94 41 34 42 93 43 35 44 36 45 37 46
REMARK SMILES IDX 87 47 38 48 92 49 86 50 88 51 39 52 91 53 85 54 84 55 40 57
REMARK SMILES IDX 72 58 52 59 71 60 53 61 56 62 70 63 89 64 54 65 55 66 69 68
REMARK SMILES IDX 90 69 57 70 41 71 42 72 50 73 43 74 45 75 51 76 44 77 46 78
REMARK SMILES IDX 47 79 48 80 49 81 73 82 74 83 82 84 75 85 77 86 83 87 76 88
REMARK SMILES IDX 78 89 79 90 80 91 81 92 58 93 59 94 67 95 60 96 62 97 68 98
REMARK SMILES IDX 61 99 63 100 64 101 65 102 66 103
REMARK H PARENT 3 12 3 13 7 18 88 56 56 67
REMARK Flexibility Score: inf
ROOT
ATOM      1  C   UNL A   1      38.020  32.276  35.015  1.00  0.00     0.188 C 
ENDROOT
BRANCH   1   2
ATOM      2  C   UNL A   1      38.962  31.620  34.034  1.00  0.00     0.188 C 
BRANCH   2   3
ATOM      3  O   UNL A   1      39.030  32.041  32.686  1.00  0.00    -0.376 OA
BRANCH   3   4
ATOM      4  C   UNL A   1      39.126  33.456  32.506  1.00  0.00     0.202 C 
BRANCH   4   5
ATOM      5  C   UNL A   1      38.240  34.120  31.420  1.00  0.00     0.261 C 
BRANCH   5   6
ATOM      6  O   UNL A   1      37.188  33.378  30.742  1.00  0.00    -0.458 OA
BRANCH   6   7
ATOM      7  C   UNL A   1      37.340  32.878  29.479  1.00  0.00     0.377 C 
ATOM      8  O   UNL A   1      38.073  33.427  28.675  1.00  0.00    -0.244 OA
BRANCH   7   9
ATOM      9  C   UNL A   1      36.337  31.737  29.156  1.00  0.00     0.287 C 
ATOM     10  C   UNL A   1      35.603  31.430  30.499  1.00  0.00     0.103 C 
BRANCH   9  11
ATOM     11  N   UNL A   1      35.538  32.289  28.001  1.00  0.00    -0.317 N 
ATOM     12  H   UNL A   1      34.671  31.757  27.923  1.00  0.00     0.347 HD
ATOM     13  H   UNL A   1      36.114  32.205  27.164  1.00  0.00     0.347 HD
BRANCH  11  14
ATOM     14  C   UNL A   1      35.189  33.761  28.167  1.00  0.00     0.363 C 
BRANCH  14  15
ATOM     15  C   UNL A   1      33.825  34.172  28.853  1.00  0.00     0.279 C 
ATOM     16  O   UNL A   1      32.805  34.181  28.151  1.00  0.00    -0.268 OA
ATOM     17  N   UNL A   1      33.679  34.096  30.234  1.00  0.00    -0.321 N 
ATOM     18  H   UNL A   1      33.377  33.212  30.542  1.00  0.00     0.170 HD
BRANCH  17  19
ATOM     19  C   UNL A   1      33.875  35.031  31.309  1.00  0.00     0.044 A 
ATOM     20  C   UNL A   1      34.483  34.782  32.544  1.00  0.00     0.026 A 
ATOM     21  C   UNL A   1      33.418  36.340  31.109  1.00  0.00     0.065 A 
ATOM     22  C   UNL A   1      34.514  35.728  33.588  1.00  0.00     0.005 A 
ATOM     23  C   UNL A   1      33.477  37.296  32.135  1.00  0.00     0.125 A 
ATOM     24  C   UNL A   1      33.990  36.994  33.386  1.00  0.00     0.039 A 
ATOM     25  F   UNL A   1      33.026  38.536  31.901  1.00  0.00    -0.207 F 
ENDBRANCH  17  19
ENDBRANCH  14  15
ENDBRANCH  11  14
ENDBRANCH   9  11
BRANCH   9  26
ATOM     26  C   UNL A   1      36.816  30.302  28.793  1.00  0.00     0.455 C 
ATOM     27  F   UNL A   1      35.818  29.428  28.558  1.00  0.00    -0.164 F 
ATOM     28  F   UNL A   1      37.573  30.341  27.654  1.00  0.00    -0.164 F 
ATOM     29  F   UNL A   1      37.660  29.764  29.690  1.00  0.00    -0.164 F 
ENDBRANCH   9  26
ENDBRANCH   7   9
ENDBRANCH   6   7
ENDBRANCH   5   6
ENDBRANCH   4   5
ENDBRANCH   3   4
ENDBRANCH   2   3
ENDBRANCH   1   2
BRANCH   1  30
ATOM     30  O   UNL A   1      38.409  32.186  36.369  1.00  0.00    -0.377 OA
BRANCH  30  31
ATOM     31  C   UNL A   1      37.650  32.986  37.267  1.00  0.00     0.188 C 
BRANCH  31  32
ATOM     32  C   UNL A   1      37.913  32.810  38.781  1.00  0.00     0.188 C 
BRANCH  32  33
ATOM     33  O   UNL A   1      39.184  33.255  39.252  1.00  0.00    -0.376 OA
BRANCH  33  34
ATOM     34  C   UNL A   1      39.177  34.110  40.398  1.00  0.00     0.202 C 
BRANCH  34  35
ATOM     35  C   UNL A   1      40.433  34.959  40.694  1.00  0.00     0.261 C 
BRANCH  35  36
ATOM     36  O   UNL A   1      41.495  34.884  39.735  1.00  0.00    -0.460 OA
BRANCH  36  37
ATOM     37  C   UNL A   1      41.596  35.889  38.845  1.00  0.00     0.338 C 
ATOM     38  O   UNL A   1      41.632  37.085  39.100  1.00  0.00    -0.246 OA
BRANCH  37  39
ATOM     39  C   UNL A   1      41.912  35.307  37.523  1.00  0.00     0.060 A 
ATOM     40  C   UNL A   1      40.835  34.955  36.694  1.00  0.00     0.016 A 
ATOM     41  C   UNL A   1      43.228  35.190  37.061  1.00  0.00     0.016 A 
ATOM     42  C   UNL A   1      41.069  34.455  35.418  1.00  0.00     0.010 A 
ATOM     43  C   UNL A   1      43.467  34.633  35.802  1.00  0.00     0.010 A 
ATOM     44  C   UNL A   1      42.386  34.219  35.003  1.00  0.00    -0.014 A 
BRANCH  44  45
ATOM     45  C   UNL A   1      42.583  33.220  33.931  1.00  0.00     0.031 A 
ATOM     46  C   UNL A   1      42.743  33.759  32.534  1.00  0.00     0.074 A 
ATOM     47  C   UNL A   1      42.709  31.907  34.184  1.00  0.00     0.049 A 
ATOM     48  N   UNL A   1      43.014  33.126  31.427  1.00  0.00    -0.248 NA
ATOM     49  C   UNL A   1      42.593  35.219  32.367  1.00  0.00     0.031 C 
ATOM     50  C   UNL A   1      42.600  31.283  35.500  1.00  0.00     0.029 A 
ATOM     51  N   UNL A   1      42.958  30.860  33.331  1.00  0.00    -0.354 N 
ATOM     52  C   UNL A   1      43.050  34.101  30.439  1.00  0.00     0.074 A 
ATOM     53  C   UNL A   1      42.758  35.367  31.064  1.00  0.00     0.031 C 
ATOM     54  C   UNL A   1      42.761  29.953  35.364  1.00  0.00     0.029 A 
ATOM     55  C   UNL A   1      42.971  29.634  33.951  1.00  0.00     0.049 A 
ATOM     56  H   UNL A   1      43.113  30.977  32.366  1.00  0.00     0.167 HD
ATOM     57  C   UNL A   1      43.326  33.958  29.126  1.00  0.00     0.034 A 
ATOM     58  C   UNL A   1      43.122  28.399  33.429  1.00  0.00     0.034 A 
ATOM     59  C   UNL A   1      43.633  32.699  28.513  1.00  0.00     0.049 A 
ATOM     60  C   UNL A   1      43.379  28.259  31.948  1.00  0.00     0.074 A 
ATOM     61  C   UNL A   1      43.961  32.448  27.195  1.00  0.00     0.029 A 
ATOM     62  N   UNL A   1      43.632  31.481  29.173  1.00  0.00    -0.354 N 
ATOM     63  N   UNL A   1      43.522  29.199  31.045  1.00  0.00    -0.248 NA
ATOM     64  C   UNL A   1      43.528  26.895  31.418  1.00  0.00     0.031 C 
ATOM     65  C   UNL A   1      44.119  31.070  27.049  1.00  0.00     0.029 A 
ATOM     66  C   UNL A   1      43.933  30.468  28.284  1.00  0.00     0.049 A 
ATOM     67  H   UNL A   1      43.445  31.357  30.132  1.00  0.00     0.167 HD
ATOM     68  C   UNL A   1      43.802  28.546  29.848  1.00  0.00     0.074 A 
ATOM     69  C   UNL A   1      43.829  27.129  30.145  1.00  0.00     0.031 C 
ATOM     70  C   UNL A   1      44.004  29.068  28.614  1.00  0.00     0.034 A 
BRANCH  57  71
ATOM     71  C   UNL A   1      43.329  35.189  28.264  1.00  0.00     0.023 A 
ATOM     72  C   UNL A   1      42.112  35.711  27.785  1.00  0.00     0.012 A 
ATOM     73  C   UNL A   1      44.531  35.876  28.007  1.00  0.00     0.148 A 
ATOM     74  C   UNL A   1      42.092  36.897  27.052  1.00  0.00     0.002 A 
ATOM     75  C   UNL A   1      44.497  37.081  27.318  1.00  0.00     0.091 A 
ATOM     76  F   UNL A   1      45.679  35.341  28.448  1.00  0.00    -0.205 F 
ATOM     77  C   UNL A   1      43.281  37.589  26.833  1.00  0.00     0.022 A 
BRANCH  75  78
ATOM     78  S   UNL A   1      45.958  38.090  27.060  1.00  0.00     0.127 S 
ATOM     79  O   UNL A   1      46.761  37.230  26.189  1.00  0.00    -0.237 OA
ATOM     80  O   UNL A   1      45.400  39.271  26.403  1.00  0.00    -0.237 OA
ATOM     81  O   UNL A   1      46.525  38.331  28.379  1.00  0.00    -0.744 OA
ENDBRANCH  75  78
ENDBRANCH  57  71
BRANCH  58  82
ATOM     82  C   UNL A   1      43.057  27.203  34.319  1.00  0.00     0.023 A 
ATOM     83  C   UNL A   1      41.809  26.641  34.650  1.00  0.00     0.012 A 
ATOM     84  C   UNL A   1      44.232  26.598  34.808  1.00  0.00     0.148 A 
ATOM     85  C   UNL A   1      41.732  25.510  35.467  1.00  0.00     0.002 A 
ATOM     86  C   UNL A   1      44.152  25.440  35.571  1.00  0.00     0.091 A 
ATOM     87  F   UNL A   1      45.409  27.161  34.500  1.00  0.00    -0.205 F 
ATOM     88  C   UNL A   1      42.902  24.904  35.917  1.00  0.00     0.022 A 
BRANCH  86  89
ATOM     89  S   UNL A   1      45.606  24.515  36.079  1.00  0.00     0.127 S 
ATOM     90  O   UNL A   1      45.010  23.379  36.777  1.00  0.00    -0.237 OA
ATOM     91  O   UNL A   1      46.220  24.194  34.790  1.00  0.00    -0.237 OA
ATOM     92  O   UNL A   1      46.384  25.425  36.907  1.00  0.00    -0.744 OA
ENDBRANCH  86  89
ENDBRANCH  58  82
BRANCH  70  93
ATOM     93  C   UNL A   1      44.292  28.129  27.473  1.00  0.00     0.023 A 
ATOM     94  C   UNL A   1      43.230  27.655  26.680  1.00  0.00     0.012 A 
ATOM     95  C   UNL A   1      45.622  27.863  27.088  1.00  0.00     0.148 A 
ATOM     96  C   UNL A   1      43.488  26.922  25.522  1.00  0.00     0.002 A 
ATOM     97  C   UNL A   1      45.871  27.178  25.906  1.00  0.00     0.091 A 
ATOM     98  F   UNL A   1      46.615  28.322  27.864  1.00  0.00    -0.205 F 
ATOM     99  C   UNL A   1      44.805  26.698  25.127  1.00  0.00     0.022 A 
BRANCH  97 100
ATOM    100  S   UNL A   1      47.528  26.942  25.254  1.00  0.00     0.127 S 
ATOM    101  O   UNL A   1      48.196  26.277  26.372  1.00  0.00    -0.237 OA
ATOM    102  O   UNL A   1      47.283  26.087  24.092  1.00  0.00    -0.237 OA
ATOM    103  O   UNL A   1      48.033  28.272  24.937  1.00  0.00    -0.744 OA
ENDBRANCH  97 100
ENDBRANCH  70  93
ENDBRANCH  44  45
ENDBRANCH  37  39
ENDBRANCH  36  37
ENDBRANCH  35  36
ENDBRANCH  34  35
ENDBRANCH  33  34
ENDBRANCH  32  33
ENDBRANCH  31  32
ENDBRANCH  30  31
ENDBRANCH   1  30
TORSDOF 28
ENDMDL
