MODEL 1
REMARK VINA RESULT:      -9.1      0.000      0.000
REMARK SMILES Cc1c(C(=O)OCCOCCOCCOCCOC(=O)c2ccc(-c3c4nc(c(-c5cccc(S(=O)(=O)[O-])c5F)c5ccc([nH]5)c(-c5cccc(S(=O)(=O)[O-])c5F)c5nc(c(-c6cccc(S(=O)(=O)[O-])c6F)c6ccc3[nH]6)C=C5)C=C4)cc2)cccc1-n1c(C)cc(/C=C2/C(=O)NC(=S)N=C2O)c1C
REMARK SMILES IDX 12 1 11 2 10 3 9 4 8 5 7 6 6 7 4 8 5 9 3 10 1 11 2 12 87 13
REMARK SMILES IDX 84 14 86 15 85 16 88 17 89 18 103 19 90 20 91 21 92 22
REMARK SMILES IDX 104 23 93 24 94 25 95 26 101 27 96 28 97 29 100 30 98 31
REMARK SMILES IDX 99 33 102 34 13 36 14 37 15 38 16 39 17 40 18 41 19 42 20 43
REMARK SMILES IDX 21 44 22 45 83 46 23 47 82 48 24 49 25 50 26 51 76 52 27 53
REMARK SMILES IDX 81 54 75 55 77 56 28 57 80 58 74 59 73 60 29 62 61 63 41 64
REMARK SMILES IDX 60 65 42 66 45 67 59 68 78 69 43 70 44 71 58 73 79 74 46 75
REMARK SMILES IDX 30 76 31 77 39 78 32 79 34 80 40 81 33 82 35 83 36 84 37 85
REMARK SMILES IDX 38 86 62 87 63 88 71 89 64 90 66 91 72 92 65 93 67 94 68 95
REMARK SMILES IDX 69 96 70 97 47 98 48 99 56 100 49 101 51 102 57 103 50 104
REMARK SMILES IDX 52 105 53 106 54 107 55 108
REMARK H PARENT 97 32 102 35 77 61 45 72
REMARK Flexibility Score: inf
ROOT
ATOM      1  O   UNL A   1      34.416  34.332  30.259  1.00  0.00    -0.377 OA
ENDROOT
BRANCH   1   2
ATOM      2  C   UNL A   1      33.664  34.344  29.057  1.00  0.00     0.188 C 
BRANCH   2   3
ATOM      3  C   UNL A   1      33.836  33.269  27.967  1.00  0.00     0.188 C 
BRANCH   3   4
ATOM      4  O   UNL A   1      33.891  31.897  28.299  1.00  0.00    -0.376 OA
BRANCH   4   5
ATOM      5  C   UNL A   1      33.640  31.005  27.221  1.00  0.00     0.202 C 
BRANCH   5   6
ATOM      6  C   UNL A   1      32.228  30.524  26.984  1.00  0.00     0.261 C 
BRANCH   6   7
ATOM      7  O   UNL A   1      32.194  29.132  27.256  1.00  0.00    -0.460 OA
BRANCH   7   8
ATOM      8  C   UNL A   1      33.106  28.418  26.598  1.00  0.00     0.338 C 
ATOM      9  O   UNL A   1      34.277  28.690  26.451  1.00  0.00    -0.246 OA
BRANCH   8  10
ATOM     10  C   UNL A   1      32.537  27.078  26.296  1.00  0.00     0.065 A 
ATOM     11  C   UNL A   1      34.256  26.122  24.598  1.00  0.00     0.047 C 
ATOM     12  C   UNL A   1      33.126  26.008  25.588  1.00  0.00    -0.012 A 
ATOM     13  C   UNL A   1      32.446  24.782  25.633  1.00  0.00     0.049 A 
ATOM     14  C   UNL A   1      31.195  26.985  26.712  1.00  0.00     0.016 A 
ATOM     15  C   UNL A   1      31.123  24.686  26.092  1.00  0.00     0.027 A 
ATOM     16  C   UNL A   1      30.476  25.812  26.571  1.00  0.00     0.003 A 
BRANCH  13  17
ATOM     17  N   UNL A   1      33.009  23.631  25.037  1.00  0.00    -0.318 N 
ATOM     18  C   UNL A   1      32.834  23.180  23.739  1.00  0.00     0.020 A 
ATOM     19  C   UNL A   1      33.864  22.766  25.705  1.00  0.00     0.027 A 
ATOM     20  C   UNL A   1      31.823  23.701  22.773  1.00  0.00     0.065 C 
ATOM     21  C   UNL A   1      33.839  22.255  23.522  1.00  0.00     0.031 A 
ATOM     22  C   UNL A   1      34.569  22.087  24.733  1.00  0.00    -0.003 A 
ATOM     23  C   UNL A   1      33.846  22.699  27.199  1.00  0.00     0.065 C 
BRANCH  22  24
ATOM     24  C   UNL A   1      35.710  21.239  24.855  1.00  0.00     0.029 C 
ATOM     25  C   UNL A   1      36.999  21.506  25.139  1.00  0.00     0.102 C 
ATOM     26  C   UNL A   1      37.896  20.327  25.239  1.00  0.00     0.262 C 
ATOM     27  C   UNL A   1      37.680  22.768  25.438  1.00  0.00     0.226 C 
ATOM     28  O   UNL A   1      37.651  19.224  24.764  1.00  0.00    -0.269 OA
ATOM     29  N   UNL A   1      39.050  20.568  25.935  1.00  0.00    -0.297 N 
ATOM     30  N   UNL A   1      38.798  22.911  26.051  1.00  0.00    -0.184 NA
ATOM     31  C   UNL A   1      39.474  21.780  26.419  1.00  0.00     0.203 C 
ATOM     32  H   UNL A   1      39.634  19.793  26.106  1.00  0.00     0.172 HD
ATOM     33  S   UNL A   1      40.863  21.800  27.357  1.00  0.00    -0.038 S 
BRANCH  27  34
ATOM     34  O   UNL A   1      37.135  23.879  24.945  1.00  0.00    -0.493 OA
ATOM     35  H   UNL A   1      36.232  23.887  24.692  1.00  0.00     0.295 HD
ENDBRANCH  27  34
ENDBRANCH  22  24
ENDBRANCH  13  17
ENDBRANCH   8  10
ENDBRANCH   7   8
ENDBRANCH   6   7
ENDBRANCH   5   6
ENDBRANCH   4   5
ENDBRANCH   3   4
ENDBRANCH   2   3
ENDBRANCH   1   2
BRANCH   1  36
ATOM     36  C   UNL A   1      35.060  33.125  30.666  1.00  0.00     0.188 C 
BRANCH  36  37
ATOM     37  C   UNL A   1      35.387  32.977  32.143  1.00  0.00     0.188 C 
BRANCH  37  38
ATOM     38  O   UNL A   1      36.533  32.142  32.273  1.00  0.00    -0.376 OA
BRANCH  38  39
ATOM     39  C   UNL A   1      36.910  31.399  31.125  1.00  0.00     0.202 C 
BRANCH  39  40
ATOM     40  C   UNL A   1      36.558  29.912  31.206  1.00  0.00     0.261 C 
BRANCH  40  41
ATOM     41  O   UNL A   1      37.083  29.370  32.434  1.00  0.00    -0.460 OA
BRANCH  41  42
ATOM     42  C   UNL A   1      38.170  28.562  32.277  1.00  0.00     0.338 C 
ATOM     43  O   UNL A   1      38.114  27.417  31.860  1.00  0.00    -0.246 OA
BRANCH  42  44
ATOM     44  C   UNL A   1      39.359  29.169  32.944  1.00  0.00     0.060 A 
ATOM     45  C   UNL A   1      40.644  28.674  32.694  1.00  0.00     0.016 A 
ATOM     46  C   UNL A   1      39.163  29.974  34.054  1.00  0.00     0.016 A 
ATOM     47  C   UNL A   1      41.651  28.781  33.673  1.00  0.00     0.010 A 
ATOM     48  C   UNL A   1      40.134  29.988  35.040  1.00  0.00     0.010 A 
ATOM     49  C   UNL A   1      41.365  29.319  34.915  1.00  0.00    -0.014 A 
BRANCH  49  50
ATOM     50  C   UNL A   1      42.241  29.253  36.117  1.00  0.00     0.031 A 
ATOM     51  C   UNL A   1      42.487  27.882  36.708  1.00  0.00     0.074 A 
ATOM     52  C   UNL A   1      43.121  30.258  36.398  1.00  0.00     0.049 A 
ATOM     53  N   UNL A   1      43.399  27.566  37.567  1.00  0.00    -0.248 NA
ATOM     54  C   UNL A   1      41.757  26.707  36.253  1.00  0.00     0.031 C 
ATOM     55  C   UNL A   1      44.415  30.051  37.046  1.00  0.00     0.029 A 
ATOM     56  N   UNL A   1      43.178  31.630  36.121  1.00  0.00    -0.354 N 
ATOM     57  C   UNL A   1      43.634  26.203  37.495  1.00  0.00     0.074 A 
ATOM     58  C   UNL A   1      42.533  25.714  36.701  1.00  0.00     0.031 C 
ATOM     59  C   UNL A   1      45.112  31.181  37.151  1.00  0.00     0.029 A 
ATOM     60  C   UNL A   1      44.147  32.216  36.960  1.00  0.00     0.049 A 
ATOM     61  H   UNL A   1      42.634  32.105  35.452  1.00  0.00     0.167 HD
ATOM     62  C   UNL A   1      44.810  25.686  37.985  1.00  0.00     0.034 A 
ATOM     63  C   UNL A   1      43.937  33.136  37.948  1.00  0.00     0.034 A 
ATOM     64  C   UNL A   1      45.656  26.751  38.627  1.00  0.00     0.049 A 
ATOM     65  C   UNL A   1      44.339  32.521  39.312  1.00  0.00     0.074 A 
ATOM     66  C   UNL A   1      46.958  27.208  38.449  1.00  0.00     0.029 A 
ATOM     67  N   UNL A   1      45.077  27.670  39.519  1.00  0.00    -0.354 N 
ATOM     68  N   UNL A   1      44.351  31.222  39.542  1.00  0.00    -0.248 NA
ATOM     69  C   UNL A   1      45.003  33.248  40.392  1.00  0.00     0.031 C 
ATOM     70  C   UNL A   1      47.114  28.444  39.146  1.00  0.00     0.029 A 
ATOM     71  C   UNL A   1      45.932  28.724  39.819  1.00  0.00     0.049 A 
ATOM     72  H   UNL A   1      44.169  27.578  39.887  1.00  0.00     0.167 HD
ATOM     73  C   UNL A   1      45.162  30.922  40.607  1.00  0.00     0.074 A 
ATOM     74  C   UNL A   1      45.482  32.239  41.152  1.00  0.00     0.031 C 
ATOM     75  C   UNL A   1      45.645  29.665  40.908  1.00  0.00     0.034 A 
BRANCH  62  76
ATOM     76  C   UNL A   1      45.351  24.250  37.702  1.00  0.00     0.023 A 
ATOM     77  C   UNL A   1      45.401  23.333  38.782  1.00  0.00     0.012 A 
ATOM     78  C   UNL A   1      45.814  23.710  36.469  1.00  0.00     0.148 A 
ATOM     79  C   UNL A   1      45.935  22.036  38.687  1.00  0.00     0.002 A 
ATOM     80  C   UNL A   1      46.358  22.413  36.368  1.00  0.00     0.091 A 
ATOM     81  F   UNL A   1      45.670  24.401  35.340  1.00  0.00    -0.205 F 
ATOM     82  C   UNL A   1      46.429  21.577  37.481  1.00  0.00     0.022 A 
BRANCH  80  83
ATOM     83  S   UNL A   1      47.002  21.723  34.823  1.00  0.00     0.127 S 
ATOM     84  O   UNL A   1      45.814  21.706  33.967  1.00  0.00    -0.237 OA
ATOM     85  O   UNL A   1      48.009  22.709  34.435  1.00  0.00    -0.237 OA
ATOM     86  O   UNL A   1      47.515  20.399  35.152  1.00  0.00    -0.744 OA
ENDBRANCH  80  83
ENDBRANCH  62  76
BRANCH  63  87
ATOM     87  C   UNL A   1      42.916  34.145  37.542  1.00  0.00     0.023 A 
ATOM     88  C   UNL A   1      43.147  34.702  36.252  1.00  0.00     0.012 A 
ATOM     89  C   UNL A   1      41.591  33.945  37.950  1.00  0.00     0.148 A 
ATOM     90  C   UNL A   1      42.126  34.731  35.296  1.00  0.00     0.002 A 
ATOM     91  C   UNL A   1      40.573  33.985  36.994  1.00  0.00     0.091 A 
ATOM     92  F   UNL A   1      41.364  33.563  39.213  1.00  0.00    -0.205 F 
ATOM     93  C   UNL A   1      40.852  34.304  35.651  1.00  0.00     0.022 A 
BRANCH  91  94
ATOM     94  S   UNL A   1      38.935  33.382  37.413  1.00  0.00     0.127 S 
ATOM     95  O   UNL A   1      39.200  31.989  37.749  1.00  0.00    -0.237 OA
ATOM     96  O   UNL A   1      38.561  34.228  38.545  1.00  0.00    -0.237 OA
ATOM     97  O   UNL A   1      38.153  33.623  36.208  1.00  0.00    -0.744 OA
ENDBRANCH  91  94
ENDBRANCH  63  87
BRANCH  75  98
ATOM     98  C   UNL A   1      45.938  29.158  42.320  1.00  0.00     0.023 A 
ATOM     99  C   UNL A   1      47.117  28.471  42.643  1.00  0.00     0.012 A 
ATOM    100  C   UNL A   1      45.112  29.546  43.423  1.00  0.00     0.148 A 
ATOM    101  C   UNL A   1      47.481  28.218  43.970  1.00  0.00     0.002 A 
ATOM    102  C   UNL A   1      45.520  29.374  44.736  1.00  0.00     0.091 A 
ATOM    103  F   UNL A   1      43.907  30.086  43.218  1.00  0.00    -0.205 F 
ATOM    104  C   UNL A   1      46.707  28.702  45.015  1.00  0.00     0.022 A 
BRANCH 102 105
ATOM    105  S   UNL A   1      44.622  30.080  46.129  1.00  0.00     0.127 S 
ATOM    106  O   UNL A   1      44.748  31.512  45.860  1.00  0.00    -0.237 OA
ATOM    107  O   UNL A   1      43.280  29.535  45.921  1.00  0.00    -0.237 OA
ATOM    108  O   UNL A   1      45.288  29.611  47.335  1.00  0.00    -0.744 OA
ENDBRANCH 102 105
ENDBRANCH  75  98
ENDBRANCH  49  50
ENDBRANCH  42  44
ENDBRANCH  41  42
ENDBRANCH  40  41
ENDBRANCH  39  40
ENDBRANCH  38  39
ENDBRANCH  37  38
ENDBRANCH  36  37
ENDBRANCH   1  36
TORSDOF 26
ENDMDL
MODEL 2
REMARK VINA RESULT:      -8.9      6.633     14.463
REMARK SMILES Cc1c(C(=O)OCCOCCOCCOCCOC(=O)c2ccc(-c3c4nc(c(-c5cccc(S(=O)(=O)[O-])c5F)c5ccc([nH]5)c(-c5cccc(S(=O)(=O)[O-])c5F)c5nc(c(-c6cccc(S(=O)(=O)[O-])c6F)c6ccc3[nH]6)C=C5)C=C4)cc2)cccc1-n1c(C)cc(/C=C2/C(=O)NC(=S)N=C2O)c1C
REMARK SMILES IDX 12 1 11 2 10 3 9 4 8 5 7 6 6 7 4 8 5 9 3 10 1 11 2 12 87 13
REMARK SMILES IDX 84 14 86 15 85 16 88 17 89 18 103 19 90 20 91 21 92 22
REMARK SMILES IDX 104 23 93 24 94 25 95 26 101 27 96 28 97 29 100 30 98 31
REMARK SMILES IDX 99 33 102 34 13 36 14 37 15 38 16 39 17 40 18 41 19 42 20 43
REMARK SMILES IDX 21 44 22 45 83 46 23 47 82 48 24 49 25 50 26 51 76 52 27 53
REMARK SMILES IDX 81 54 75 55 77 56 28 57 80 58 74 59 73 60 29 62 61 63 41 64
REMARK SMILES IDX 60 65 42 66 45 67 59 68 78 69 43 70 44 71 58 73 79 74 46 75
REMARK SMILES IDX 30 76 31 77 39 78 32 79 34 80 40 81 33 82 35 83 36 84 37 85
REMARK SMILES IDX 38 86 62 87 63 88 71 89 64 90 66 91 72 92 65 93 67 94 68 95
REMARK SMILES IDX 69 96 70 97 47 98 48 99 56 100 49 101 51 102 57 103 50 104
REMARK SMILES IDX 52 105 53 106 54 107 55 108
REMARK H PARENT 97 32 102 35 77 61 45 72
REMARK Flexibility Score: inf
ROOT
ATOM      1  O   UNL A   1      46.504  23.618  24.181  1.00  0.00    -0.377 OA
ENDROOT
BRANCH   1   2
ATOM      2  C   UNL A   1      46.661  24.788  24.968  1.00  0.00     0.188 C 
BRANCH   2   3
ATOM      3  C   UNL A   1      48.035  25.250  25.489  1.00  0.00     0.188 C 
BRANCH   3   4
ATOM      4  O   UNL A   1      48.603  24.683  26.651  1.00  0.00    -0.376 OA
BRANCH   4   5
ATOM      5  C   UNL A   1      49.313  25.592  27.482  1.00  0.00     0.202 C 
BRANCH   5   6
ATOM      6  C   UNL A   1      50.365  26.480  26.861  1.00  0.00     0.261 C 
BRANCH   6   7
ATOM      7  O   UNL A   1      50.086  27.817  27.246  1.00  0.00    -0.460 OA
BRANCH   7   8
ATOM      8  C   UNL A   1      49.292  28.478  26.405  1.00  0.00     0.338 C 
ATOM      9  O   UNL A   1      49.235  28.349  25.202  1.00  0.00    -0.246 OA
BRANCH   8  10
ATOM     10  C   UNL A   1      48.271  29.217  27.193  1.00  0.00     0.065 A 
ATOM     11  C   UNL A   1      49.610  31.282  28.027  1.00  0.00     0.047 C 
ATOM     12  C   UNL A   1      48.344  30.520  27.731  1.00  0.00    -0.012 A 
ATOM     13  C   UNL A   1      47.153  31.047  28.251  1.00  0.00     0.049 A 
ATOM     14  C   UNL A   1      47.161  28.402  27.487  1.00  0.00     0.016 A 
ATOM     15  C   UNL A   1      46.032  30.239  28.499  1.00  0.00     0.027 A 
ATOM     16  C   UNL A   1      46.066  28.894  28.175  1.00  0.00     0.003 A 
BRANCH  13  17
ATOM     17  N   UNL A   1      47.106  32.379  28.721  1.00  0.00    -0.318 N 
ATOM     18  C   UNL A   1      46.806  33.521  27.997  1.00  0.00     0.020 A 
ATOM     19  C   UNL A   1      47.352  32.732  30.040  1.00  0.00     0.027 A 
ATOM     20  C   UNL A   1      46.698  33.597  26.511  1.00  0.00     0.065 C 
ATOM     21  C   UNL A   1      46.534  34.502  28.934  1.00  0.00     0.031 A 
ATOM     22  C   UNL A   1      46.760  33.963  30.233  1.00  0.00    -0.003 A 
ATOM     23  C   UNL A   1      48.164  31.833  30.918  1.00  0.00     0.065 C 
BRANCH  22  24
ATOM     24  C   UNL A   1      46.530  34.689  31.439  1.00  0.00     0.029 C 
ATOM     25  C   UNL A   1      47.257  35.631  32.071  1.00  0.00     0.102 C 
ATOM     26  C   UNL A   1      46.644  36.204  33.296  1.00  0.00     0.262 C 
ATOM     27  C   UNL A   1      48.538  36.252  31.729  1.00  0.00     0.226 C 
ATOM     28  O   UNL A   1      45.746  35.673  33.939  1.00  0.00    -0.269 OA
ATOM     29  N   UNL A   1      47.165  37.417  33.658  1.00  0.00    -0.297 N 
ATOM     30  N   UNL A   1      48.985  37.376  32.157  1.00  0.00    -0.184 NA
ATOM     31  C   UNL A   1      48.233  38.054  33.077  1.00  0.00     0.203 C 
ATOM     32  H   UNL A   1      46.729  37.880  34.410  1.00  0.00     0.172 HD
ATOM     33  S   UNL A   1      48.604  39.598  33.613  1.00  0.00    -0.038 S 
BRANCH  27  34
ATOM     34  O   UNL A   1      49.370  35.541  30.968  1.00  0.00    -0.493 OA
ATOM     35  H   UNL A   1      49.157  35.374  30.071  1.00  0.00     0.295 HD
ENDBRANCH  27  34
ENDBRANCH  22  24
ENDBRANCH  13  17
ENDBRANCH   8  10
ENDBRANCH   7   8
ENDBRANCH   6   7
ENDBRANCH   5   6
ENDBRANCH   4   5
ENDBRANCH   3   4
ENDBRANCH   2   3
ENDBRANCH   1   2
BRANCH   1  36
ATOM     36  C   UNL A   1      45.775  22.513  24.715  1.00  0.00     0.188 C 
BRANCH  36  37
ATOM     37  C   UNL A   1      46.409  21.138  24.587  1.00  0.00     0.188 C 
BRANCH  37  38
ATOM     38  O   UNL A   1      45.392  20.197  24.259  1.00  0.00    -0.376 OA
BRANCH  38  39
ATOM     39  C   UNL A   1      44.638  19.675  25.341  1.00  0.00     0.202 C 
BRANCH  39  40
ATOM     40  C   UNL A   1      43.156  20.053  25.303  1.00  0.00     0.261 C 
BRANCH  40  41
ATOM     41  O   UNL A   1      42.860  20.912  26.421  1.00  0.00    -0.460 OA
BRANCH  41  42
ATOM     42  C   UNL A   1      42.611  22.210  26.087  1.00  0.00     0.338 C 
ATOM     43  O   UNL A   1      42.518  22.614  24.940  1.00  0.00    -0.246 OA
BRANCH  42  44
ATOM     44  C   UNL A   1      42.754  23.083  27.290  1.00  0.00     0.060 A 
ATOM     45  C   UNL A   1      41.650  23.353  28.107  1.00  0.00     0.016 A 
ATOM     46  C   UNL A   1      43.873  23.892  27.398  1.00  0.00     0.016 A 
ATOM     47  C   UNL A   1      41.581  24.557  28.835  1.00  0.00     0.010 A 
ATOM     48  C   UNL A   1      43.748  25.109  28.044  1.00  0.00     0.010 A 
ATOM     49  C   UNL A   1      42.571  25.513  28.701  1.00  0.00    -0.014 A 
BRANCH  49  50
ATOM     50  C   UNL A   1      42.500  26.917  29.190  1.00  0.00     0.031 A 
ATOM     51  C   UNL A   1      41.503  27.829  28.508  1.00  0.00     0.074 A 
ATOM     52  C   UNL A   1      42.947  27.248  30.437  1.00  0.00     0.049 A 
ATOM     53  N   UNL A   1      41.095  28.979  28.932  1.00  0.00    -0.248 NA
ATOM     54  C   UNL A   1      40.784  27.420  27.308  1.00  0.00     0.031 C 
ATOM     55  C   UNL A   1      42.359  28.302  31.261  1.00  0.00     0.029 A 
ATOM     56  N   UNL A   1      43.902  26.724  31.317  1.00  0.00    -0.354 N 
ATOM     57  C   UNL A   1      39.877  29.271  28.342  1.00  0.00     0.074 A 
ATOM     58  C   UNL A   1      39.768  28.289  27.291  1.00  0.00     0.031 C 
ATOM     59  C   UNL A   1      42.934  28.386  32.459  1.00  0.00     0.029 A 
ATOM     60  C   UNL A   1      44.170  27.686  32.311  1.00  0.00     0.049 A 
ATOM     61  H   UNL A   1      44.316  25.833  31.253  1.00  0.00     0.167 HD
ATOM     62  C   UNL A   1      39.048  30.207  28.915  1.00  0.00     0.034 A 
ATOM     63  C   UNL A   1      45.349  28.340  32.531  1.00  0.00     0.034 A 
ATOM     64  C   UNL A   1      39.686  30.848  30.116  1.00  0.00     0.049 A 
ATOM     65  C   UNL A   1      45.141  29.858  32.299  1.00  0.00     0.074 A 
ATOM     66  C   UNL A   1      39.327  31.003  31.451  1.00  0.00     0.029 A 
ATOM     67  N   UNL A   1      41.017  31.296  30.054  1.00  0.00    -0.354 N 
ATOM     68  N   UNL A   1      44.192  30.346  31.523  1.00  0.00    -0.248 NA
ATOM     69  C   UNL A   1      45.759  30.917  33.095  1.00  0.00     0.031 C 
ATOM     70  C   UNL A   1      40.468  31.439  32.191  1.00  0.00     0.029 A 
ATOM     71  C   UNL A   1      41.522  31.627  31.306  1.00  0.00     0.049 A 
ATOM     72  H   UNL A   1      41.533  31.367  29.218  1.00  0.00     0.167 HD
ATOM     73  C   UNL A   1      43.921  31.651  31.845  1.00  0.00     0.074 A 
ATOM     74  C   UNL A   1      44.989  31.982  32.784  1.00  0.00     0.031 C 
ATOM     75  C   UNL A   1      42.792  32.346  31.461  1.00  0.00     0.034 A 
BRANCH  62  76
ATOM     76  C   UNL A   1      37.543  30.417  28.559  1.00  0.00     0.023 A 
ATOM     77  C   UNL A   1      36.812  29.302  28.077  1.00  0.00     0.012 A 
ATOM     78  C   UNL A   1      36.773  31.610  28.656  1.00  0.00     0.148 A 
ATOM     79  C   UNL A   1      35.475  29.366  27.648  1.00  0.00     0.002 A 
ATOM     80  C   UNL A   1      35.434  31.683  28.220  1.00  0.00     0.091 A 
ATOM     81  F   UNL A   1      37.283  32.690  29.245  1.00  0.00    -0.205 F 
ATOM     82  C   UNL A   1      34.786  30.562  27.704  1.00  0.00     0.022 A 
BRANCH  80  83
ATOM     83  S   UNL A   1      34.451  33.202  28.283  1.00  0.00     0.127 S 
ATOM     84  O   UNL A   1      33.198  32.792  27.645  1.00  0.00    -0.237 OA
ATOM     85  O   UNL A   1      34.342  33.447  29.719  1.00  0.00    -0.237 OA
ATOM     86  O   UNL A   1      35.199  34.203  27.531  1.00  0.00    -0.744 OA
ENDBRANCH  80  83
ENDBRANCH  62  76
BRANCH  63  87
ATOM     87  C   UNL A   1      46.518  27.430  32.355  1.00  0.00     0.023 A 
ATOM     88  C   UNL A   1      47.189  27.599  31.110  1.00  0.00     0.012 A 
ATOM     89  C   UNL A   1      47.284  27.113  33.484  1.00  0.00     0.148 A 
ATOM     90  C   UNL A   1      48.575  27.783  31.069  1.00  0.00     0.002 A 
ATOM     91  C   UNL A   1      48.669  27.289  33.435  1.00  0.00     0.091 A 
ATOM     92  F   UNL A   1      46.647  26.807  34.621  1.00  0.00    -0.205 F 
ATOM     93  C   UNL A   1      49.306  27.698  32.248  1.00  0.00     0.022 A 
BRANCH  91  94
ATOM     94  S   UNL A   1      49.626  27.242  34.953  1.00  0.00     0.127 S 
ATOM     95  O   UNL A   1      49.043  28.339  35.715  1.00  0.00    -0.237 OA
ATOM     96  O   UNL A   1      49.335  25.908  35.476  1.00  0.00    -0.237 OA
ATOM     97  O   UNL A   1      51.001  27.419  34.508  1.00  0.00    -0.744 OA
ENDBRANCH  91  94
ENDBRANCH  63  87
BRANCH  75  98
ATOM     98  C   UNL A   1      42.741  33.850  31.197  1.00  0.00     0.023 A 
ATOM     99  C   UNL A   1      42.868  34.799  32.221  1.00  0.00     0.012 A 
ATOM    100  C   UNL A   1      42.770  34.360  29.859  1.00  0.00     0.148 A 
ATOM    101  C   UNL A   1      43.053  36.159  31.947  1.00  0.00     0.002 A 
ATOM    102  C   UNL A   1      43.044  35.692  29.592  1.00  0.00     0.091 A 
ATOM    103  F   UNL A   1      42.526  33.559  28.818  1.00  0.00    -0.205 F 
ATOM    104  C   UNL A   1      43.182  36.599  30.638  1.00  0.00     0.022 A 
BRANCH 102 105
ATOM    105  S   UNL A   1      43.338  36.303  27.922  1.00  0.00     0.127 S 
ATOM    106  O   UNL A   1      43.460  35.053  27.173  1.00  0.00    -0.237 OA
ATOM    107  O   UNL A   1      42.109  37.053  27.663  1.00  0.00    -0.237 OA
ATOM    108  O   UNL A   1      44.545  37.113  27.982  1.00  0.00    -0.744 OA
ENDBRANCH 102 105
ENDBRANCH  75  98
ENDBRANCH  49  50
ENDBRANCH  42  44
ENDBRANCH  41  42
ENDBRANCH  40  41
ENDBRANCH  39  40
ENDBRANCH  38  39
ENDBRANCH  37  38
ENDBRANCH  36  37
ENDBRANCH   1  36
TORSDOF 26
ENDMDL
MODEL 3
REMARK VINA RESULT:      -8.7      7.855     14.546
REMARK SMILES Cc1c(C(=O)OCCOCCOCCOCCOC(=O)c2ccc(-c3c4nc(c(-c5cccc(S(=O)(=O)[O-])c5F)c5ccc([nH]5)c(-c5cccc(S(=O)(=O)[O-])c5F)c5nc(c(-c6cccc(S(=O)(=O)[O-])c6F)c6ccc3[nH]6)C=C5)C=C4)cc2)cccc1-n1c(C)cc(/C=C2/C(=O)NC(=S)N=C2O)c1C
REMARK SMILES IDX 12 1 11 2 10 3 9 4 8 5 7 6 6 7 4 8 5 9 3 10 1 11 2 12 87 13
REMARK SMILES IDX 84 14 86 15 85 16 88 17 89 18 103 19 90 20 91 21 92 22
REMARK SMILES IDX 104 23 93 24 94 25 95 26 101 27 96 28 97 29 100 30 98 31
REMARK SMILES IDX 99 33 102 34 13 36 14 37 15 38 16 39 17 40 18 41 19 42 20 43
REMARK SMILES IDX 21 44 22 45 83 46 23 47 82 48 24 49 25 50 26 51 76 52 27 53
REMARK SMILES IDX 81 54 75 55 77 56 28 57 80 58 74 59 73 60 29 62 61 63 41 64
REMARK SMILES IDX 60 65 42 66 45 67 59 68 78 69 43 70 44 71 58 73 79 74 46 75
REMARK SMILES IDX 30 76 31 77 39 78 32 79 34 80 40 81 33 82 35 83 36 84 37 85
REMARK SMILES IDX 38 86 62 87 63 88 71 89 64 90 66 91 72 92 65 93 67 94 68 95
REMARK SMILES IDX 69 96 70 97 47 98 48 99 56 100 49 101 51 102 57 103 50 104
REMARK SMILES IDX 52 105 53 106 54 107 55 108
REMARK H PARENT 97 32 102 35 77 61 45 72
REMARK Flexibility Score: inf
ROOT
ATOM      1  O   UNL A   1      50.105  36.327  27.144  1.00  0.00    -0.377 OA
ENDROOT
BRANCH   1   2
ATOM      2  C   UNL A   1      49.454  37.513  27.570  1.00  0.00     0.188 C 
BRANCH   2   3
ATOM      3  C   UNL A   1      48.770  38.477  26.581  1.00  0.00     0.188 C 
BRANCH   3   4
ATOM      4  O   UNL A   1      47.363  38.532  26.471  1.00  0.00    -0.376 OA
BRANCH   4   5
ATOM      5  C   UNL A   1      46.871  38.848  25.176  1.00  0.00     0.202 C 
BRANCH   5   6
ATOM      6  C   UNL A   1      46.597  40.293  24.830  1.00  0.00     0.261 C 
BRANCH   6   7
ATOM      7  O   UNL A   1      45.974  40.896  25.953  1.00  0.00    -0.460 OA
BRANCH   7   8
ATOM      8  C   UNL A   1      44.661  41.081  25.823  1.00  0.00     0.338 C 
ATOM      9  O   UNL A   1      44.079  41.513  24.853  1.00  0.00    -0.246 OA
BRANCH   8  10
ATOM     10  C   UNL A   1      43.970  40.414  26.958  1.00  0.00     0.065 A 
ATOM     11  C   UNL A   1      45.470  41.070  28.976  1.00  0.00     0.047 C 
ATOM     12  C   UNL A   1      44.199  40.565  28.342  1.00  0.00    -0.012 A 
ATOM     13  C   UNL A   1      43.259  39.973  29.198  1.00  0.00     0.049 A 
ATOM     14  C   UNL A   1      43.056  39.445  26.503  1.00  0.00     0.016 A 
ATOM     15  C   UNL A   1      42.319  39.041  28.732  1.00  0.00     0.027 A 
ATOM     16  C   UNL A   1      42.266  38.728  27.385  1.00  0.00     0.003 A 
BRANCH  13  17
ATOM     17  N   UNL A   1      43.352  40.153  30.596  1.00  0.00    -0.318 N 
ATOM     18  C   UNL A   1      42.905  41.232  31.341  1.00  0.00     0.020 A 
ATOM     19  C   UNL A   1      43.918  39.218  31.451  1.00  0.00     0.027 A 
ATOM     20  C   UNL A   1      42.440  42.534  30.780  1.00  0.00     0.065 C 
ATOM     21  C   UNL A   1      42.887  40.803  32.656  1.00  0.00     0.031 A 
ATOM     22  C   UNL A   1      43.413  39.481  32.708  1.00  0.00    -0.003 A 
ATOM     23  C   UNL A   1      44.904  38.223  30.926  1.00  0.00     0.065 C 
BRANCH  22  24
ATOM     24  C   UNL A   1      43.497  38.711  33.905  1.00  0.00     0.029 C 
ATOM     25  C   UNL A   1      44.367  38.743  34.933  1.00  0.00     0.102 C 
ATOM     26  C   UNL A   1      44.083  37.807  36.049  1.00  0.00     0.262 C 
ATOM     27  C   UNL A   1      45.531  39.597  35.185  1.00  0.00     0.226 C 
ATOM     28  O   UNL A   1      43.367  36.816  35.962  1.00  0.00    -0.269 OA
ATOM     29  N   UNL A   1      44.691  38.151  37.227  1.00  0.00    -0.297 N 
ATOM     30  N   UNL A   1      46.082  39.828  36.321  1.00  0.00    -0.184 NA
ATOM     31  C   UNL A   1      45.589  39.172  37.416  1.00  0.00     0.203 C 
ATOM     32  H   UNL A   1      44.460  37.612  38.019  1.00  0.00     0.172 HD
ATOM     33  S   UNL A   1      46.098  39.481  38.982  1.00  0.00    -0.038 S 
BRANCH  27  34
ATOM     34  O   UNL A   1      46.140  40.117  34.121  1.00  0.00    -0.493 OA
ATOM     35  H   UNL A   1      47.024  39.876  33.923  1.00  0.00     0.295 HD
ENDBRANCH  27  34
ENDBRANCH  22  24
ENDBRANCH  13  17
ENDBRANCH   8  10
ENDBRANCH   7   8
ENDBRANCH   6   7
ENDBRANCH   5   6
ENDBRANCH   4   5
ENDBRANCH   3   4
ENDBRANCH   2   3
ENDBRANCH   1   2
BRANCH   1  36
ATOM     36  C   UNL A   1      50.368  36.138  25.754  1.00  0.00     0.188 C 
BRANCH  36  37
ATOM     37  C   UNL A   1      50.791  34.747  25.311  1.00  0.00     0.188 C 
BRANCH  37  38
ATOM     38  O   UNL A   1      49.637  33.913  25.265  1.00  0.00    -0.376 OA
BRANCH  38  39
ATOM     39  C   UNL A   1      49.505  32.956  26.304  1.00  0.00     0.202 C 
BRANCH  39  40
ATOM     40  C   UNL A   1      48.234  33.121  27.140  1.00  0.00     0.261 C 
BRANCH  40  41
ATOM     41  O   UNL A   1      47.087  33.064  26.270  1.00  0.00    -0.460 OA
BRANCH  41  42
ATOM     42  C   UNL A   1      46.341  34.205  26.241  1.00  0.00     0.338 C 
ATOM     43  O   UNL A   1      46.789  35.306  25.968  1.00  0.00    -0.246 OA
BRANCH  42  44
ATOM     44  C   UNL A   1      45.005  33.956  26.857  1.00  0.00     0.060 A 
ATOM     45  C   UNL A   1      44.186  35.028  27.234  1.00  0.00     0.016 A 
ATOM     46  C   UNL A   1      44.727  32.699  27.367  1.00  0.00     0.016 A 
ATOM     47  C   UNL A   1      43.267  34.883  28.291  1.00  0.00     0.010 A 
ATOM     48  C   UNL A   1      43.888  32.601  28.463  1.00  0.00     0.010 A 
ATOM     49  C   UNL A   1      43.208  33.703  29.010  1.00  0.00    -0.014 A 
BRANCH  49  50
ATOM     50  C   UNL A   1      42.489  33.502  30.298  1.00  0.00     0.031 A 
ATOM     51  C   UNL A   1      41.129  34.153  30.431  1.00  0.00     0.074 A 
ATOM     52  C   UNL A   1      42.799  32.455  31.118  1.00  0.00     0.049 A 
ATOM     53  N   UNL A   1      40.239  33.901  31.333  1.00  0.00    -0.248 NA
ATOM     54  C   UNL A   1      40.625  35.089  29.435  1.00  0.00     0.031 C 
ATOM     55  C   UNL A   1      41.826  31.765  31.962  1.00  0.00     0.029 A 
ATOM     56  N   UNL A   1      43.945  31.683  31.347  1.00  0.00    -0.354 N 
ATOM     57  C   UNL A   1      38.997  34.297  30.864  1.00  0.00     0.074 A 
ATOM     58  C   UNL A   1      39.315  35.089  29.701  1.00  0.00     0.031 C 
ATOM     59  C   UNL A   1      42.365  30.738  32.618  1.00  0.00     0.029 A 
ATOM     60  C   UNL A   1      43.773  30.973  32.551  1.00  0.00     0.049 A 
ATOM     61  H   UNL A   1      44.738  31.643  30.764  1.00  0.00     0.167 HD
ATOM     62  C   UNL A   1      37.857  33.779  31.431  1.00  0.00     0.034 A 
ATOM     63  C   UNL A   1      44.490  31.115  33.705  1.00  0.00     0.034 A 
ATOM     64  C   UNL A   1      38.177  32.874  32.588  1.00  0.00     0.049 A 
ATOM     65  C   UNL A   1      43.548  31.605  34.834  1.00  0.00     0.074 A 
ATOM     66  C   UNL A   1      37.880  31.554  32.912  1.00  0.00     0.029 A 
ATOM     67  N   UNL A   1      39.109  33.275  33.561  1.00  0.00    -0.354 N 
ATOM     68  N   UNL A   1      42.432  32.270  34.605  1.00  0.00    -0.248 NA
ATOM     69  C   UNL A   1      43.619  31.170  36.228  1.00  0.00     0.031 C 
ATOM     70  C   UNL A   1      38.706  31.147  34.003  1.00  0.00     0.029 A 
ATOM     71  C   UNL A   1      39.470  32.234  34.408  1.00  0.00     0.049 A 
ATOM     72  H   UNL A   1      39.466  34.190  33.634  1.00  0.00     0.167 HD
ATOM     73  C   UNL A   1      41.577  32.173  35.673  1.00  0.00     0.074 A 
ATOM     74  C   UNL A   1      42.406  31.538  36.694  1.00  0.00     0.031 C 
ATOM     75  C   UNL A   1      40.230  32.468  35.641  1.00  0.00     0.034 A 
BRANCH  62  76
ATOM     76  C   UNL A   1      36.423  33.880  30.824  1.00  0.00     0.023 A 
ATOM     77  C   UNL A   1      36.082  32.992  29.773  1.00  0.00     0.012 A 
ATOM     78  C   UNL A   1      35.371  34.766  31.190  1.00  0.00     0.148 A 
ATOM     79  C   UNL A   1      34.856  33.023  29.085  1.00  0.00     0.002 A 
ATOM     80  C   UNL A   1      34.143  34.808  30.500  1.00  0.00     0.091 A 
ATOM     81  F   UNL A   1      35.492  35.539  32.267  1.00  0.00    -0.205 F 
ATOM     82  C   UNL A   1      33.888  33.942  29.438  1.00  0.00     0.022 A 
BRANCH  80  83
ATOM     83  S   UNL A   1      32.810  35.961  30.912  1.00  0.00     0.127 S 
ATOM     84  O   UNL A   1      32.195  36.212  29.607  1.00  0.00    -0.237 OA
ATOM     85  O   UNL A   1      31.983  35.174  31.825  1.00  0.00    -0.237 OA
ATOM     86  O   UNL A   1      33.452  37.132  31.500  1.00  0.00    -0.744 OA
ENDBRANCH  80  83
ENDBRANCH  62  76
BRANCH  63  87
ATOM     87  C   UNL A   1      45.940  31.321  33.422  1.00  0.00     0.023 A 
ATOM     88  C   UNL A   1      46.554  30.217  32.762  1.00  0.00     0.012 A 
ATOM     89  C   UNL A   1      46.372  32.613  33.095  1.00  0.00     0.148 A 
ATOM     90  C   UNL A   1      47.305  30.413  31.598  1.00  0.00     0.002 A 
ATOM     91  C   UNL A   1      47.131  32.802  31.937  1.00  0.00     0.091 A 
ATOM     92  F   UNL A   1      45.908  33.641  33.816  1.00  0.00    -0.205 F 
ATOM     93  C   UNL A   1      47.533  31.709  31.147  1.00  0.00     0.022 A 
BRANCH  91  94
ATOM     94  S   UNL A   1      47.389  34.462  31.304  1.00  0.00     0.127 S 
ATOM     95  O   UNL A   1      48.072  35.109  32.417  1.00  0.00    -0.237 OA
ATOM     96  O   UNL A   1      48.219  34.230  30.123  1.00  0.00    -0.237 OA
ATOM     97  O   UNL A   1      46.045  34.936  31.002  1.00  0.00    -0.744 OA
ENDBRANCH  91  94
ENDBRANCH  63  87
BRANCH  75  98
ATOM     98  C   UNL A   1      39.429  33.016  36.822  1.00  0.00     0.023 A 
ATOM     99  C   UNL A   1      38.524  32.229  37.547  1.00  0.00     0.012 A 
ATOM    100  C   UNL A   1      39.724  34.305  37.371  1.00  0.00     0.148 A 
ATOM    101  C   UNL A   1      37.974  32.664  38.758  1.00  0.00     0.002 A 
ATOM    102  C   UNL A   1      39.249  34.694  38.614  1.00  0.00     0.091 A 
ATOM    103  F   UNL A   1      40.469  35.183  36.694  1.00  0.00    -0.205 F 
ATOM    104  C   UNL A   1      38.366  33.875  39.311  1.00  0.00     0.022 A 
BRANCH 102 105
ATOM    105  S   UNL A   1      39.810  36.196  39.437  1.00  0.00     0.127 S 
ATOM    106  O   UNL A   1      39.201  36.046  40.759  1.00  0.00    -0.237 OA
ATOM    107  O   UNL A   1      41.262  36.021  39.411  1.00  0.00    -0.237 OA
ATOM    108  O   UNL A   1      39.317  37.313  38.647  1.00  0.00    -0.744 OA
ENDBRANCH 102 105
ENDBRANCH  75  98
ENDBRANCH  49  50
ENDBRANCH  42  44
ENDBRANCH  41  42
ENDBRANCH  40  41
ENDBRANCH  39  40
ENDBRANCH  38  39
ENDBRANCH  37  38
ENDBRANCH  36  37
ENDBRANCH   1  36
TORSDOF 26
ENDMDL
