MODEL 1
REMARK VINA RESULT:     -12.0      0.000      0.000
REMARK SMILES Cc1ccc(NC(=O)[C@H]2CC(Cl)=CC[C@@H]2C(=O)OCCOCCOCCOCCOC(=O)c2ccc(-c3c4nc(c(-c5cccc(S(=O)(=O)[O-])c5F)c5ccc([nH]5)c(-c5cccc(S(=O)(=O)[O-])c5F)c5nc(c(-c6cccc(S(=O)(=O)[O-])c6F)c6ccc3[nH]6)C=C5)C=C4)cc2)cc1[N+](=O)[O-]
REMARK SMILES IDX 24 1 23 2 22 3 21 4 20 5 19 6 18 7 16 8 17 9 15 10 9 11
REMARK SMILES IDX 10 12 11 13 14 14 12 15 13 16 7 17 6 18 8 20 5 21 1 22 2 23
REMARK SMILES IDX 3 24 97 25 4 26 96 27 98 28 99 29 100 30 25 31 26 32 27 33
REMARK SMILES IDX 28 34 29 35 30 36 31 37 32 38 33 39 34 40 95 41 35 42 94 43
REMARK SMILES IDX 36 44 37 45 38 46 88 47 39 48 93 49 87 50 89 51 40 52 92 53
REMARK SMILES IDX 86 54 85 55 41 57 73 58 53 59 72 60 54 61 57 62 71 63 90 64
REMARK SMILES IDX 55 65 56 66 70 68 91 69 58 70 42 71 43 72 51 73 44 74 46 75
REMARK SMILES IDX 52 76 45 77 47 78 48 79 49 80 50 81 74 82 75 83 83 84 76 85
REMARK SMILES IDX 78 86 84 87 77 88 79 89 80 90 81 91 82 92 59 93 60 94 68 95
REMARK SMILES IDX 61 96 63 97 69 98 62 99 64 100 65 101 66 102 67 103
REMARK H PARENT 6 19 89 56 57 67
REMARK Flexibility Score: inf
ROOT
ATOM      1  O   UNL A   1      46.046  37.404  27.155  1.00  0.00    -0.377 OA
ENDROOT
BRANCH   1   2
ATOM      2  C   UNL A   1      46.447  36.534  26.102  1.00  0.00     0.188 C 
BRANCH   2   3
ATOM      3  C   UNL A   1      46.293  35.040  26.275  1.00  0.00     0.188 C 
BRANCH   3   4
ATOM      4  O   UNL A   1      44.997  34.677  26.497  1.00  0.00    -0.376 OA
BRANCH   4   5
ATOM      5  C   UNL A   1      44.327  33.435  26.774  1.00  0.00     0.202 C 
BRANCH   5   6
ATOM      6  C   UNL A   1      44.847  31.421  26.911  1.00  0.00     0.261 C 
BRANCH   6   7
ATOM      7  O   UNL A   1      43.776  29.944  27.282  1.00  0.00    -0.463 OA
BRANCH   7   8
ATOM      8  C   UNL A   1      42.366  29.719  28.110  1.00  0.00     0.310 C 
ATOM      9  O   UNL A   1      42.174  30.356  29.147  1.00  0.00    -0.252 OA
BRANCH   8  10
ATOM     10  C   UNL A   1      40.928  28.710  27.431  1.00  0.00     0.116 C 
ATOM     11  C   UNL A   1      39.121  28.554  28.061  1.00  0.00     0.098 C 
ATOM     12  C   UNL A   1      38.724  27.074  27.725  1.00  0.00     0.062 C 
ATOM     13  C   UNL A   1      39.825  26.055  27.485  1.00  0.00     0.015 C 
ATOM     14  C   UNL A   1      41.600  27.566  26.691  1.00  0.00     0.044 C 
ATOM     15  Cl  UNL A   1      39.407  24.407  27.828  1.00  0.00    -0.089 Cl
ATOM     16  C   UNL A   1      41.066  26.261  27.038  1.00  0.00    -0.010 C 
BRANCH  11  17
ATOM     17  C   UNL A   1      37.480  29.567  28.426  1.00  0.00     0.228 C 
ATOM     18  N   UNL A   1      35.809  29.652  27.906  1.00  0.00    -0.326 N 
ATOM     19  H   UNL A   1      35.437  30.497  28.249  1.00  0.00     0.169 HD
ATOM     20  O   UNL A   1      37.674  30.458  29.296  1.00  0.00    -0.274 OA
BRANCH  18  21
ATOM     21  C   UNL A   1      34.480  28.803  26.982  1.00  0.00     0.048 A 
ATOM     22  C   UNL A   1      30.341  29.662  23.974  1.00  0.00     0.052 C 
ATOM     23  C   UNL A   1      31.381  28.849  24.875  1.00  0.00     0.027 A 
ATOM     24  C   UNL A   1      31.941  29.852  25.778  1.00  0.00     0.012 A 
ATOM     25  C   UNL A   1      32.298  27.355  24.898  1.00  0.00     0.274 A 
ATOM     26  C   UNL A   1      33.492  29.917  26.823  1.00  0.00     0.027 A 
ATOM     27  C   UNL A   1      33.912  27.141  25.910  1.00  0.00     0.112 A 
BRANCH  25  28
ATOM     28  N   UNL A   1      31.809  26.568  23.830  1.00  0.00     0.063 N 
ATOM     29  O   UNL A   1      30.791  25.928  24.055  1.00  0.00    -0.258 OA
ATOM     30  O   UNL A   1      32.495  26.501  22.791  1.00  0.00    -0.258 OA
ENDBRANCH  25  28
ENDBRANCH  18  21
ENDBRANCH  11  17
ENDBRANCH   8  10
ENDBRANCH   7   8
ENDBRANCH   6   7
ENDBRANCH   5   6
ENDBRANCH   4   5
ENDBRANCH   3   4
ENDBRANCH   2   3
ENDBRANCH   1   2
BRANCH   1  31
ATOM     31  C   UNL A   1      45.650  38.700  26.724  1.00  0.00     0.188 C 
BRANCH  31  32
ATOM     32  C   UNL A   1      44.138  38.900  26.949  1.00  0.00     0.188 C 
BRANCH  32  33
ATOM     33  O   UNL A   1      43.244  37.846  26.788  1.00  0.00    -0.376 OA
BRANCH  33  34
ATOM     34  C   UNL A   1      42.232  38.143  27.706  1.00  0.00     0.202 C 
BRANCH  34  35
ATOM     35  C   UNL A   1      41.846  39.691  27.888  1.00  0.00     0.261 C 
BRANCH  35  36
ATOM     36  O   UNL A   1      42.073  40.637  29.275  1.00  0.00    -0.460 OA
BRANCH  36  37
ATOM     37  C   UNL A   1      42.517  40.835  30.663  1.00  0.00     0.338 C 
ATOM     38  O   UNL A   1      42.269  41.963  31.102  1.00  0.00    -0.246 OA
BRANCH  37  39
ATOM     39  C   UNL A   1      43.363  39.798  31.745  1.00  0.00     0.060 A 
ATOM     40  C   UNL A   1      43.692  38.470  31.486  1.00  0.00     0.016 A 
ATOM     41  C   UNL A   1      43.703  40.042  33.099  1.00  0.00     0.016 A 
ATOM     42  C   UNL A   1      43.896  37.466  32.633  1.00  0.00     0.010 A 
ATOM     43  C   UNL A   1      43.563  39.005  34.223  1.00  0.00     0.010 A 
ATOM     44  C   UNL A   1      43.303  37.646  34.018  1.00  0.00    -0.014 A 
BRANCH  44  45
ATOM     45  C   UNL A   1      42.250  36.413  35.092  1.00  0.00     0.031 A 
ATOM     46  C   UNL A   1      43.792  35.434  34.942  1.00  0.00     0.074 A 
ATOM     47  C   UNL A   1      40.605  35.730  35.433  1.00  0.00     0.049 A 
ATOM     48  N   UNL A   1      43.958  34.167  34.598  1.00  0.00    -0.248 NA
ATOM     49  C   UNL A   1      45.159  36.068  34.888  1.00  0.00     0.031 C 
ATOM     50  C   UNL A   1      39.940  34.202  36.273  1.00  0.00     0.029 A 
ATOM     51  N   UNL A   1      39.157  35.394  34.895  1.00  0.00    -0.354 N 
ATOM     52  C   UNL A   1      45.204  33.869  35.101  1.00  0.00     0.074 A 
ATOM     53  C   UNL A   1      45.937  35.003  34.694  1.00  0.00     0.031 C 
ATOM     54  C   UNL A   1      38.920  33.416  35.934  1.00  0.00     0.029 A 
ATOM     55  C   UNL A   1      38.439  34.096  34.820  1.00  0.00     0.049 A 
ATOM     56  H   UNL A   1      38.651  36.168  34.557  1.00  0.00     0.167 HD
ATOM     57  C   UNL A   1      45.335  33.122  36.248  1.00  0.00     0.034 A 
ATOM     58  C   UNL A   1      37.833  33.429  33.778  1.00  0.00     0.034 A 
ATOM     59  C   UNL A   1      44.085  32.313  36.528  1.00  0.00     0.049 A 
ATOM     60  C   UNL A   1      38.688  32.158  33.621  1.00  0.00     0.074 A 
ATOM     61  C   UNL A   1      43.241  32.079  37.612  1.00  0.00     0.029 A 
ATOM     62  N   UNL A   1      43.353  31.815  35.442  1.00  0.00    -0.354 N 
ATOM     63  N   UNL A   1      39.796  32.009  34.296  1.00  0.00    -0.248 NA
ATOM     64  C   UNL A   1      38.508  31.099  32.644  1.00  0.00     0.031 C 
ATOM     65  C   UNL A   1      42.005  31.495  37.140  1.00  0.00     0.029 A 
ATOM     66  C   UNL A   1      42.130  31.247  35.783  1.00  0.00     0.049 A 
ATOM     67  H   UNL A   1      43.677  31.863  34.514  1.00  0.00     0.167 HD
ATOM     68  C   UNL A   1      40.410  30.859  34.015  1.00  0.00     0.074 A 
ATOM     69  C   UNL A   1      39.617  30.368  32.883  1.00  0.00     0.031 C 
ATOM     70  C   UNL A   1      41.468  30.418  34.761  1.00  0.00     0.034 A 
BRANCH  57  71
ATOM     71  C   UNL A   1      46.503  33.414  37.281  1.00  0.00     0.023 A 
ATOM     72  C   UNL A   1      47.752  32.813  37.028  1.00  0.00     0.012 A 
ATOM     73  C   UNL A   1      46.480  34.194  38.494  1.00  0.00     0.148 A 
ATOM     74  C   UNL A   1      48.868  32.950  37.880  1.00  0.00     0.002 A 
ATOM     75  C   UNL A   1      47.604  34.365  39.326  1.00  0.00     0.091 A 
ATOM     76  F   UNL A   1      45.374  34.803  38.915  1.00  0.00    -0.205 F 
ATOM     77  C   UNL A   1      48.803  33.735  39.021  1.00  0.00     0.022 A 
BRANCH  75  78
ATOM     78  S   UNL A   1      47.604  35.407  40.817  1.00  0.00     0.127 S 
ATOM     79  O   UNL A   1      47.007  36.653  40.331  1.00  0.00    -0.237 OA
ATOM     80  O   UNL A   1      46.746  34.646  41.725  1.00  0.00    -0.237 OA
ATOM     81  O   UNL A   1      48.991  35.537  41.245  1.00  0.00    -0.744 OA
ENDBRANCH  75  78
ENDBRANCH  57  71
BRANCH  58  82
ATOM     82  C   UNL A   1      37.459  34.203  32.553  1.00  0.00     0.023 A 
ATOM     83  C   UNL A   1      38.017  33.873  30.912  1.00  0.00     0.012 A 
ATOM     84  C   UNL A   1      35.773  34.690  32.740  1.00  0.00     0.148 A 
ATOM     85  C   UNL A   1      36.962  33.885  29.471  1.00  0.00     0.002 A 
ATOM     86  C   UNL A   1      34.530  34.693  31.077  1.00  0.00     0.091 A 
ATOM     87  F   UNL A   1      35.641  35.237  33.982  1.00  0.00    -0.205 F 
ATOM     88  C   UNL A   1      35.259  34.223  29.515  1.00  0.00     0.022 A 
BRANCH  86  89
ATOM     89  S   UNL A   1      32.917  35.692  30.329  1.00  0.00     0.127 S 
ATOM     90  O   UNL A   1      32.584  34.746  29.262  1.00  0.00    -0.237 OA
ATOM     91  O   UNL A   1      32.015  35.672  31.478  1.00  0.00    -0.237 OA
ATOM     92  O   UNL A   1      33.290  37.024  29.884  1.00  0.00    -0.744 OA
ENDBRANCH  86  89
ENDBRANCH  58  82
BRANCH  70  93
ATOM     93  C   UNL A   1      42.024  29.051  34.538  1.00  0.00     0.023 A 
ATOM     94  C   UNL A   1      42.668  28.732  33.336  1.00  0.00     0.012 A 
ATOM     95  C   UNL A   1      41.838  28.012  35.475  1.00  0.00     0.148 A 
ATOM     96  C   UNL A   1      43.296  27.508  33.162  1.00  0.00     0.002 A 
ATOM     97  C   UNL A   1      42.381  26.768  35.265  1.00  0.00     0.091 A 
ATOM     98  F   UNL A   1      41.100  28.191  36.569  1.00  0.00    -0.205 F 
ATOM     99  C   UNL A   1      43.165  26.529  34.137  1.00  0.00     0.022 A 
BRANCH  97 100
ATOM    100  S   UNL A   1      42.027  25.402  36.368  1.00  0.00     0.127 S 
ATOM    101  O   UNL A   1      41.028  26.008  37.248  1.00  0.00    -0.237 OA
ATOM    102  O   UNL A   1      41.505  24.405  35.434  1.00  0.00    -0.237 OA
ATOM    103  O   UNL A   1      43.275  25.040  37.022  1.00  0.00    -0.744 OA
ENDBRANCH  97 100
ENDBRANCH  70  93
ENDBRANCH  44  45
ENDBRANCH  37  39
ENDBRANCH  36  37
ENDBRANCH  35  36
ENDBRANCH  34  35
ENDBRANCH  33  34
ENDBRANCH  32  33
ENDBRANCH  31  32
ENDBRANCH   1  31
TORSDOF 26
ENDMDL
MODEL 2
REMARK VINA RESULT:     -11.8      8.170     15.349
REMARK SMILES Cc1ccc(NC(=O)[C@H]2CC(Cl)=CC[C@@H]2C(=O)OCCOCCOCCOCCOC(=O)c2ccc(-c3c4nc(c(-c5cccc(S(=O)(=O)[O-])c5F)c5ccc([nH]5)c(-c5cccc(S(=O)(=O)[O-])c5F)c5nc(c(-c6cccc(S(=O)(=O)[O-])c6F)c6ccc3[nH]6)C=C5)C=C4)cc2)cc1[N+](=O)[O-]
REMARK SMILES IDX 24 1 23 2 22 3 21 4 20 5 19 6 18 7 16 8 17 9 15 10 9 11
REMARK SMILES IDX 10 12 11 13 14 14 12 15 13 16 7 17 6 18 8 20 5 21 1 22 2 23
REMARK SMILES IDX 3 24 97 25 4 26 96 27 98 28 99 29 100 30 25 31 26 32 27 33
REMARK SMILES IDX 28 34 29 35 30 36 31 37 32 38 33 39 34 40 95 41 35 42 94 43
REMARK SMILES IDX 36 44 37 45 38 46 88 47 39 48 93 49 87 50 89 51 40 52 92 53
REMARK SMILES IDX 86 54 85 55 41 57 73 58 53 59 72 60 54 61 57 62 71 63 90 64
REMARK SMILES IDX 55 65 56 66 70 68 91 69 58 70 42 71 43 72 51 73 44 74 46 75
REMARK SMILES IDX 52 76 45 77 47 78 48 79 49 80 50 81 74 82 75 83 83 84 76 85
REMARK SMILES IDX 78 86 84 87 77 88 79 89 80 90 81 91 82 92 59 93 60 94 68 95
REMARK SMILES IDX 61 96 63 97 69 98 62 99 64 100 65 101 66 102 67 103
REMARK H PARENT 6 19 89 56 57 67
REMARK Flexibility Score: inf
ROOT
ATOM      1  O   UNL A   1      45.237  19.716  36.181  1.00  0.00    -0.377 OA
ENDROOT
BRANCH   1   2
ATOM      2  C   UNL A   1      45.257  18.349  36.575  1.00  0.00     0.188 C 
BRANCH   2   3
ATOM      3  C   UNL A   1      45.453  17.998  38.033  1.00  0.00     0.188 C 
BRANCH   3   4
ATOM      4  O   UNL A   1      45.955  19.045  38.752  1.00  0.00    -0.376 OA
BRANCH   4   5
ATOM      5  C   UNL A   1      46.880  19.169  39.846  1.00  0.00     0.202 C 
BRANCH   5   6
ATOM      6  C   UNL A   1      48.814  18.529  40.285  1.00  0.00     0.261 C 
BRANCH   6   7
ATOM      7  O   UNL A   1      50.206  19.448  41.115  1.00  0.00    -0.463 OA
BRANCH   7   8
ATOM      8  C   UNL A   1      50.498  19.951  42.659  1.00  0.00     0.310 C 
ATOM      9  O   UNL A   1      50.381  21.148  42.930  1.00  0.00    -0.252 OA
BRANCH   8  10
ATOM     10  C   UNL A   1      50.778  18.760  44.090  1.00  0.00     0.116 C 
ATOM     11  C   UNL A   1      49.697  18.411  45.637  1.00  0.00     0.098 C 
ATOM     12  C   UNL A   1      50.737  18.089  46.768  1.00  0.00     0.062 C 
ATOM     13  C   UNL A   1      52.174  18.551  46.596  1.00  0.00     0.015 C 
ATOM     14  C   UNL A   1      52.288  18.592  44.137  1.00  0.00     0.044 C 
ATOM     15  Cl  UNL A   1      53.054  18.819  48.067  1.00  0.00    -0.089 Cl
ATOM     16  C   UNL A   1      52.848  18.767  45.465  1.00  0.00    -0.010 C 
BRANCH  11  17
ATOM     17  C   UNL A   1      47.932  17.786  46.225  1.00  0.00     0.228 C 
ATOM     18  N   UNL A   1      46.418  17.208  45.556  1.00  0.00    -0.326 N 
ATOM     19  H   UNL A   1      45.750  17.229  46.279  1.00  0.00     0.169 HD
ATOM     20  O   UNL A   1      47.826  17.822  47.480  1.00  0.00    -0.274 OA
BRANCH  18  21
ATOM     21  C   UNL A   1      45.583  16.582  44.056  1.00  0.00     0.048 A 
ATOM     22  C   UNL A   1      41.213  14.333  42.395  1.00  0.00     0.052 C 
ATOM     23  C   UNL A   1      42.710  14.889  42.345  1.00  0.00     0.027 A 
ATOM     24  C   UNL A   1      43.163  14.840  43.733  1.00  0.00     0.012 A 
ATOM     25  C   UNL A   1      43.788  15.832  41.332  1.00  0.00     0.274 A 
ATOM     26  C   UNL A   1      44.551  15.683  44.663  1.00  0.00     0.027 A 
ATOM     27  C   UNL A   1      45.307  16.774  42.026  1.00  0.00     0.112 A 
BRANCH  25  28
ATOM     28  N   UNL A   1      43.128  16.000  40.093  1.00  0.00     0.063 N 
ATOM     29  O   UNL A   1      42.661  17.109  39.877  1.00  0.00    -0.258 OA
ATOM     30  O   UNL A   1      42.981  14.995  39.368  1.00  0.00    -0.258 OA
ENDBRANCH  25  28
ENDBRANCH  18  21
ENDBRANCH  11  17
ENDBRANCH   8  10
ENDBRANCH   7   8
ENDBRANCH   6   7
ENDBRANCH   5   6
ENDBRANCH   4   5
ENDBRANCH   3   4
ENDBRANCH   2   3
ENDBRANCH   1   2
BRANCH   1  31
ATOM     31  C   UNL A   1      46.061  20.015  35.062  1.00  0.00     0.188 C 
BRANCH  31  32
ATOM     32  C   UNL A   1      47.335  20.755  35.516  1.00  0.00     0.188 C 
BRANCH  32  33
ATOM     33  O   UNL A   1      47.857  21.807  34.771  1.00  0.00    -0.376 OA
BRANCH  33  34
ATOM     34  C   UNL A   1      48.821  22.354  35.623  1.00  0.00     0.202 C 
BRANCH  34  35
ATOM     35  C   UNL A   1      48.445  23.734  36.355  1.00  0.00     0.261 C 
BRANCH  35  36
ATOM     36  O   UNL A   1      46.908  24.438  36.463  1.00  0.00    -0.460 OA
BRANCH  36  37
ATOM     37  C   UNL A   1      45.446  24.369  36.611  1.00  0.00     0.338 C 
ATOM     38  O   UNL A   1      45.033  23.234  36.875  1.00  0.00    -0.246 OA
BRANCH  37  39
ATOM     39  C   UNL A   1      44.226  25.568  36.426  1.00  0.00     0.060 A 
ATOM     40  C   UNL A   1      43.081  25.430  35.646  1.00  0.00     0.016 A 
ATOM     41  C   UNL A   1      44.254  26.914  36.869  1.00  0.00     0.016 A 
ATOM     42  C   UNL A   1      42.367  26.660  35.061  1.00  0.00     0.010 A 
ATOM     43  C   UNL A   1      43.773  28.107  36.029  1.00  0.00     0.010 A 
ATOM     44  C   UNL A   1      43.051  27.995  34.836  1.00  0.00    -0.014 A 
BRANCH  44  45
ATOM     45  C   UNL A   1      43.116  29.108  33.243  1.00  0.00     0.031 A 
ATOM     46  C   UNL A   1      41.938  30.092  34.243  1.00  0.00     0.074 A 
ATOM     47  C   UNL A   1      43.247  29.153  31.434  1.00  0.00     0.049 A 
ATOM     48  N   UNL A   1      40.762  30.596  33.908  1.00  0.00    -0.248 NA
ATOM     49  C   UNL A   1      42.027  30.189  35.745  1.00  0.00     0.031 C 
ATOM     50  C   UNL A   1      42.854  30.393  30.096  1.00  0.00     0.029 A 
ATOM     51  N   UNL A   1      43.009  28.417  30.056  1.00  0.00    -0.354 N 
ATOM     52  C   UNL A   1      40.569  31.586  34.845  1.00  0.00     0.074 A 
ATOM     53  C   UNL A   1      40.944  30.914  36.028  1.00  0.00     0.031 C 
ATOM     54  C   UNL A   1      42.316  30.208  28.892  1.00  0.00     0.029 A 
ATOM     55  C   UNL A   1      42.199  28.823  28.878  1.00  0.00     0.049 A 
ATOM     56  H   UNL A   1      43.470  27.552  29.963  1.00  0.00     0.167 HD
ATOM     57  C   UNL A   1      40.744  32.909  34.511  1.00  0.00     0.034 A 
ATOM     58  C   UNL A   1      41.190  28.193  28.183  1.00  0.00     0.034 A 
ATOM     59  C   UNL A   1      40.647  33.119  33.015  1.00  0.00     0.049 A 
ATOM     60  C   UNL A   1      39.964  29.088  28.445  1.00  0.00     0.074 A 
ATOM     61  C   UNL A   1      41.389  33.760  32.024  1.00  0.00     0.029 A 
ATOM     62  N   UNL A   1      39.762  32.318  32.281  1.00  0.00    -0.354 N 
ATOM     63  N   UNL A   1      40.025  30.074  29.298  1.00  0.00    -0.248 NA
ATOM     64  C   UNL A   1      38.611  28.878  27.962  1.00  0.00     0.031 C 
ATOM     65  C   UNL A   1      40.963  33.287  30.725  1.00  0.00     0.029 A 
ATOM     66  C   UNL A   1      39.872  32.450  30.902  1.00  0.00     0.049 A 
ATOM     67  H   UNL A   1      39.116  31.711  32.708  1.00  0.00     0.167 HD
ATOM     68  C   UNL A   1      38.864  30.722  29.407  1.00  0.00     0.074 A 
ATOM     69  C   UNL A   1      37.969  29.860  28.629  1.00  0.00     0.031 C 
ATOM     70  C   UNL A   1      38.773  31.907  30.086  1.00  0.00     0.034 A 
BRANCH  57  71
ATOM     71  C   UNL A   1      41.340  33.940  35.558  1.00  0.00     0.023 A 
ATOM     72  C   UNL A   1      42.699  34.286  35.420  1.00  0.00     0.012 A 
ATOM     73  C   UNL A   1      40.702  34.574  36.686  1.00  0.00     0.148 A 
ATOM     74  C   UNL A   1      43.374  35.158  36.301  1.00  0.00     0.002 A 
ATOM     75  C   UNL A   1      41.363  35.475  37.544  1.00  0.00     0.091 A 
ATOM     76  F   UNL A   1      39.431  34.335  36.997  1.00  0.00    -0.205 F 
ATOM     77  C   UNL A   1      42.707  35.764  37.354  1.00  0.00     0.022 A 
BRANCH  75  78
ATOM     78  S   UNL A   1      40.545  36.335  38.923  1.00  0.00     0.127 S 
ATOM     79  O   UNL A   1      40.123  35.226  39.781  1.00  0.00    -0.237 OA
ATOM     80  O   UNL A   1      41.634  37.140  39.475  1.00  0.00    -0.237 OA
ATOM     81  O   UNL A   1      39.443  37.101  38.352  1.00  0.00    -0.744 OA
ENDBRANCH  75  78
ENDBRANCH  57  71
BRANCH  58  82
ATOM     82  C   UNL A   1      41.044  26.710  28.319  1.00  0.00     0.023 A 
ATOM     83  C   UNL A   1      39.519  25.826  28.398  1.00  0.00     0.012 A 
ATOM     84  C   UNL A   1      42.348  25.972  27.387  1.00  0.00     0.148 A 
ATOM     85  C   UNL A   1      39.188  24.314  27.507  1.00  0.00     0.002 A 
ATOM     86  C   UNL A   1      41.974  24.223  26.332  1.00  0.00     0.091 A 
ATOM     87  F   UNL A   1      43.508  26.597  27.742  1.00  0.00    -0.205 F 
ATOM     88  C   UNL A   1      40.330  23.536  26.453  1.00  0.00     0.022 A 
BRANCH  86  89
ATOM     89  S   UNL A   1      42.928  22.528  25.722  1.00  0.00     0.127 S 
ATOM     90  O   UNL A   1      43.277  22.979  24.373  1.00  0.00    -0.237 OA
ATOM     91  O   UNL A   1      44.042  22.475  26.665  1.00  0.00    -0.237 OA
ATOM     92  O   UNL A   1      42.038  21.380  25.780  1.00  0.00    -0.744 OA
ENDBRANCH  86  89
ENDBRANCH  58  82
BRANCH  70  93
ATOM     93  C   UNL A   1      37.508  32.697  30.046  1.00  0.00     0.023 A 
ATOM     94  C   UNL A   1      36.962  33.105  28.822  1.00  0.00     0.012 A 
ATOM     95  C   UNL A   1      36.874  33.143  31.225  1.00  0.00     0.148 A 
ATOM     96  C   UNL A   1      35.727  33.731  28.762  1.00  0.00     0.002 A 
ATOM     97  C   UNL A   1      35.694  33.845  31.170  1.00  0.00     0.091 A 
ATOM     98  F   UNL A   1      37.416  32.933  32.423  1.00  0.00    -0.205 F 
ATOM     99  C   UNL A   1      35.084  34.088  29.940  1.00  0.00     0.022 A 
BRANCH  97 100
ATOM    100  S   UNL A   1      34.961  34.547  32.644  1.00  0.00     0.127 S 
ATOM    101  O   UNL A   1      36.106  35.257  33.213  1.00  0.00    -0.237 OA
ATOM    102  O   UNL A   1      33.923  35.403  32.072  1.00  0.00    -0.237 OA
ATOM    103  O   UNL A   1      34.470  33.440  33.451  1.00  0.00    -0.744 OA
ENDBRANCH  97 100
ENDBRANCH  70  93
ENDBRANCH  44  45
ENDBRANCH  37  39
ENDBRANCH  36  37
ENDBRANCH  35  36
ENDBRANCH  34  35
ENDBRANCH  33  34
ENDBRANCH  32  33
ENDBRANCH  31  32
ENDBRANCH   1  31
TORSDOF 26
ENDMDL
MODEL 3
REMARK VINA RESULT:     -11.5      4.771     11.006
REMARK SMILES Cc1ccc(NC(=O)[C@H]2CC(Cl)=CC[C@@H]2C(=O)OCCOCCOCCOCCOC(=O)c2ccc(-c3c4nc(c(-c5cccc(S(=O)(=O)[O-])c5F)c5ccc([nH]5)c(-c5cccc(S(=O)(=O)[O-])c5F)c5nc(c(-c6cccc(S(=O)(=O)[O-])c6F)c6ccc3[nH]6)C=C5)C=C4)cc2)cc1[N+](=O)[O-]
REMARK SMILES IDX 24 1 23 2 22 3 21 4 20 5 19 6 18 7 16 8 17 9 15 10 9 11
REMARK SMILES IDX 10 12 11 13 14 14 12 15 13 16 7 17 6 18 8 20 5 21 1 22 2 23
REMARK SMILES IDX 3 24 97 25 4 26 96 27 98 28 99 29 100 30 25 31 26 32 27 33
REMARK SMILES IDX 28 34 29 35 30 36 31 37 32 38 33 39 34 40 95 41 35 42 94 43
REMARK SMILES IDX 36 44 37 45 38 46 88 47 39 48 93 49 87 50 89 51 40 52 92 53
REMARK SMILES IDX 86 54 85 55 41 57 73 58 53 59 72 60 54 61 57 62 71 63 90 64
REMARK SMILES IDX 55 65 56 66 70 68 91 69 58 70 42 71 43 72 51 73 44 74 46 75
REMARK SMILES IDX 52 76 45 77 47 78 48 79 49 80 50 81 74 82 75 83 83 84 76 85
REMARK SMILES IDX 78 86 84 87 77 88 79 89 80 90 81 91 82 92 59 93 60 94 68 95
REMARK SMILES IDX 61 96 63 97 69 98 62 99 64 100 65 101 66 102 67 103
REMARK H PARENT 6 19 89 56 57 67
REMARK Flexibility Score: inf
ROOT
ATOM      1  O   UNL A   1      45.530  33.147  38.839  1.00  0.00    -0.377 OA
ENDROOT
BRANCH   1   2
ATOM      2  C   UNL A   1      45.647  31.908  38.149  1.00  0.00     0.188 C 
BRANCH   2   3
ATOM      3  C   UNL A   1      44.553  31.483  37.195  1.00  0.00     0.188 C 
BRANCH   3   4
ATOM      4  O   UNL A   1      44.653  30.166  36.850  1.00  0.00    -0.376 OA
BRANCH   4   5
ATOM      5  C   UNL A   1      45.428  29.428  35.891  1.00  0.00     0.202 C 
BRANCH   5   6
ATOM      6  C   UNL A   1      45.052  28.209  34.242  1.00  0.00     0.261 C 
BRANCH   6   7
ATOM      7  O   UNL A   1      43.425  27.655  33.526  1.00  0.00    -0.463 OA
BRANCH   7   8
ATOM      8  C   UNL A   1      41.849  28.075  33.780  1.00  0.00     0.310 C 
ATOM      9  O   UNL A   1      41.200  27.469  34.634  1.00  0.00    -0.252 OA
BRANCH   8  10
ATOM     10  C   UNL A   1      41.051  29.588  32.993  1.00  0.00     0.116 C 
ATOM     11  C   UNL A   1      39.307  30.344  33.259  1.00  0.00     0.098 C 
ATOM     12  C   UNL A   1      38.922  30.925  31.853  1.00  0.00     0.062 C 
ATOM     13  C   UNL A   1      39.645  30.407  30.622  1.00  0.00     0.015 C 
ATOM     14  C   UNL A   1      41.772  29.733  31.663  1.00  0.00     0.044 C 
ATOM     15  Cl  UNL A   1      38.757  30.508  29.136  1.00  0.00    -0.089 Cl
ATOM     16  C   UNL A   1      40.874  29.893  30.534  1.00  0.00    -0.010 C 
BRANCH  11  17
ATOM     17  C   UNL A   1      38.114  31.134  34.603  1.00  0.00     0.228 C 
ATOM     18  N   UNL A   1      36.999  32.473  34.790  1.00  0.00    -0.326 N 
ATOM     19  H   UNL A   1      36.810  32.566  35.752  1.00  0.00     0.169 HD
ATOM     20  O   UNL A   1      38.166  30.503  35.691  1.00  0.00    -0.274 OA
BRANCH  18  21
ATOM     21  C   UNL A   1      36.047  33.765  33.916  1.00  0.00     0.048 A 
ATOM     22  C   UNL A   1      33.415  34.713  29.545  1.00  0.00     0.052 C 
ATOM     23  C   UNL A   1      34.141  35.010  30.937  1.00  0.00     0.027 A 
ATOM     24  C   UNL A   1      35.137  33.948  31.063  1.00  0.00     0.012 A 
ATOM     25  C   UNL A   1      33.915  35.883  32.441  1.00  0.00     0.274 A 
ATOM     26  C   UNL A   1      36.093  33.246  32.511  1.00  0.00     0.027 A 
ATOM     27  C   UNL A   1      34.798  35.392  34.071  1.00  0.00     0.112 A 
BRANCH  25  28
ATOM     28  N   UNL A   1      32.781  36.708  32.259  1.00  0.00     0.063 N 
ATOM     29  O   UNL A   1      33.001  37.904  32.129  1.00  0.00    -0.258 OA
ATOM     30  O   UNL A   1      31.654  36.180  32.347  1.00  0.00    -0.258 OA
ENDBRANCH  25  28
ENDBRANCH  18  21
ENDBRANCH  11  17
ENDBRANCH   8  10
ENDBRANCH   7   8
ENDBRANCH   6   7
ENDBRANCH   5   6
ENDBRANCH   4   5
ENDBRANCH   3   4
ENDBRANCH   2   3
ENDBRANCH   1   2
BRANCH   1  31
ATOM     31  C   UNL A   1      44.996  34.206  38.053  1.00  0.00     0.188 C 
BRANCH  31  32
ATOM     32  C   UNL A   1      44.917  35.502  38.883  1.00  0.00     0.188 C 
BRANCH  32  33
ATOM     33  O   UNL A   1      43.716  35.922  39.445  1.00  0.00    -0.376 OA
BRANCH  33  34
ATOM     34  C   UNL A   1      42.754  35.281  38.659  1.00  0.00     0.202 C 
BRANCH  34  35
ATOM     35  C   UNL A   1      41.477  36.151  38.219  1.00  0.00     0.261 C 
BRANCH  35  36
ATOM     36  O   UNL A   1      40.588  35.995  36.786  1.00  0.00    -0.460 OA
BRANCH  36  37
ATOM     37  C   UNL A   1      40.370  35.453  35.436  1.00  0.00     0.338 C 
ATOM     38  O   UNL A   1      39.216  35.611  35.023  1.00  0.00    -0.246 OA
BRANCH  37  39
ATOM     39  C   UNL A   1      41.418  34.599  34.372  1.00  0.00     0.060 A 
ATOM     40  C   UNL A   1      42.750  34.924  34.128  1.00  0.00     0.016 A 
ATOM     41  C   UNL A   1      41.081  33.568  33.459  1.00  0.00     0.016 A 
ATOM     42  C   UNL A   1      43.432  34.536  32.806  1.00  0.00     0.010 A 
ATOM     43  C   UNL A   1      41.623  33.476  32.025  1.00  0.00     0.010 A 
ATOM     44  C   UNL A   1      42.673  34.254  31.524  1.00  0.00    -0.014 A 
BRANCH  44  45
ATOM     45  C   UNL A   1      42.931  34.980  29.738  1.00  0.00     0.031 A 
ATOM     46  C   UNL A   1      44.201  33.660  29.708  1.00  0.00     0.074 A 
ATOM     47  C   UNL A   1      42.937  36.465  28.696  1.00  0.00     0.049 A 
ATOM     48  N   UNL A   1      45.472  33.719  29.345  1.00  0.00    -0.248 NA
ATOM     49  C   UNL A   1      44.027  32.345  30.424  1.00  0.00     0.031 C 
ATOM     50  C   UNL A   1      43.651  36.928  27.035  1.00  0.00     0.029 A 
ATOM     51  N   UNL A   1      43.128  38.031  28.598  1.00  0.00    -0.354 N 
ATOM     52  C   UNL A   1      45.782  32.405  29.082  1.00  0.00     0.074 A 
ATOM     53  C   UNL A   1      45.205  31.763  30.198  1.00  0.00     0.031 C 
ATOM     54  C   UNL A   1      44.227  38.061  26.640  1.00  0.00     0.029 A 
ATOM     55  C   UNL A   1      44.079  38.833  27.787  1.00  0.00     0.049 A 
ATOM     56  H   UNL A   1      42.519  38.558  29.164  1.00  0.00     0.167 HD
ATOM     57  C   UNL A   1      45.884  31.957  27.785  1.00  0.00     0.034 A 
ATOM     58  C   UNL A   1      44.997  39.804  28.123  1.00  0.00     0.034 A 
ATOM     59  C   UNL A   1      46.124  33.100  26.822  1.00  0.00     0.049 A 
ATOM     60  C   UNL A   1      46.349  39.153  27.775  1.00  0.00     0.074 A 
ATOM     61  C   UNL A   1      45.588  33.547  25.615  1.00  0.00     0.029 A 
ATOM     62  N   UNL A   1      46.890  34.190  27.253  1.00  0.00    -0.354 N 
ATOM     63  N   UNL A   1      46.417  37.899  27.419  1.00  0.00    -0.248 NA
ATOM     64  C   UNL A   1      47.669  39.733  27.951  1.00  0.00     0.031 C 
ATOM     65  C   UNL A   1      46.006  34.913  25.382  1.00  0.00     0.029 A 
ATOM     66  C   UNL A   1      46.904  35.269  26.376  1.00  0.00     0.049 A 
ATOM     67  H   UNL A   1      47.379  34.193  28.107  1.00  0.00     0.167 HD
ATOM     68  C   UNL A   1      47.668  37.507  27.177  1.00  0.00     0.074 A 
ATOM     69  C   UNL A   1      48.437  38.669  27.635  1.00  0.00     0.031 C 
ATOM     70  C   UNL A   1      47.935  36.298  26.594  1.00  0.00     0.034 A 
BRANCH  57  71
ATOM     71  C   UNL A   1      45.422  30.491  27.393  1.00  0.00     0.023 A 
ATOM     72  C   UNL A   1      46.396  29.473  27.444  1.00  0.00     0.012 A 
ATOM     73  C   UNL A   1      44.132  30.025  26.943  1.00  0.00     0.148 A 
ATOM     74  C   UNL A   1      46.139  28.133  27.083  1.00  0.00     0.002 A 
ATOM     75  C   UNL A   1      43.864  28.680  26.621  1.00  0.00     0.091 A 
ATOM     76  F   UNL A   1      43.102  30.853  26.795  1.00  0.00    -0.205 F 
ATOM     77  C   UNL A   1      44.874  27.730  26.685  1.00  0.00     0.022 A 
BRANCH  75  78
ATOM     78  S   UNL A   1      42.223  28.073  26.126  1.00  0.00     0.127 S 
ATOM     79  O   UNL A   1      41.339  28.730  27.091  1.00  0.00    -0.237 OA
ATOM     80  O   UNL A   1      42.104  28.583  24.760  1.00  0.00    -0.237 OA
ATOM     81  O   UNL A   1      42.255  26.620  26.239  1.00  0.00    -0.744 OA
ENDBRANCH  75  78
ENDBRANCH  57  71
BRANCH  58  82
ATOM     82  C   UNL A   1      44.851  40.504  29.438  1.00  0.00     0.023 A 
ATOM     83  C   UNL A   1      43.828  41.906  29.753  1.00  0.00     0.012 A 
ATOM     84  C   UNL A   1      44.923  39.268  30.695  1.00  0.00     0.148 A 
ATOM     85  C   UNL A   1      42.785  42.084  31.193  1.00  0.00     0.002 A 
ATOM     86  C   UNL A   1      43.704  39.453  32.367  1.00  0.00     0.091 A 
ATOM     87  F   UNL A   1      46.008  38.484  30.436  1.00  0.00    -0.205 F 
ATOM     88  C   UNL A   1      42.655  40.896  32.453  1.00  0.00     0.022 A 
BRANCH  86  89
ATOM     89  S   UNL A   1      43.691  38.994  34.353  1.00  0.00     0.127 S 
ATOM     90  O   UNL A   1      44.852  38.102  34.351  1.00  0.00    -0.237 OA
ATOM     91  O   UNL A   1      43.921  40.307  34.949  1.00  0.00    -0.237 OA
ATOM     92  O   UNL A   1      42.433  38.374  34.736  1.00  0.00    -0.744 OA
ENDBRANCH  86  89
ENDBRANCH  58  82
BRANCH  70  93
ATOM     93  C   UNL A   1      49.326  35.959  26.175  1.00  0.00     0.023 A 
ATOM     94  C   UNL A   1      49.729  36.127  24.845  1.00  0.00     0.012 A 
ATOM     95  C   UNL A   1      50.247  35.370  27.068  1.00  0.00     0.148 A 
ATOM     96  C   UNL A   1      51.049  35.934  24.466  1.00  0.00     0.002 A 
ATOM     97  C   UNL A   1      51.533  35.091  26.672  1.00  0.00     0.091 A 
ATOM     98  F   UNL A   1      49.891  35.032  28.306  1.00  0.00    -0.205 F 
ATOM     99  C   UNL A   1      51.957  35.430  25.388  1.00  0.00     0.022 A 
BRANCH  97 100
ATOM    100  S   UNL A   1      52.663  34.208  27.744  1.00  0.00     0.127 S 
ATOM    101  O   UNL A   1      52.065  32.873  27.739  1.00  0.00    -0.237 OA
ATOM    102  O   UNL A   1      53.917  34.327  27.002  1.00  0.00    -0.237 OA
ATOM    103  O   UNL A   1      52.646  34.878  29.035  1.00  0.00    -0.744 OA
ENDBRANCH  97 100
ENDBRANCH  70  93
ENDBRANCH  44  45
ENDBRANCH  37  39
ENDBRANCH  36  37
ENDBRANCH  35  36
ENDBRANCH  34  35
ENDBRANCH  33  34
ENDBRANCH  32  33
ENDBRANCH  31  32
ENDBRANCH   1  31
TORSDOF 26
ENDMDL
