MODEL 1
REMARK VINA RESULT:     -10.7      0.000      0.000
REMARK SMILES C[C@@H]1Cc2cc(C(=O)NC3(C(=O)OCCOCCOCCOCCOC(=O)c4ccc(-c5c6nc(c(-c7cccc(S(=O)(=O)[O-])c7F)c7ccc([nH]7)c(-c7cccc(S(=O)(=O)[O-])c7F)c7nc(c(-c8cccc(S(=O)(=O)[O-])c8F)c8ccc5[nH]8)C=C7)C=C6)cc4)CCCCC3)ccc2N1S(C)(=O)=O
REMARK SMILES IDX 19 1 18 2 17 3 16 4 15 5 14 6 13 7 11 8 12 9 10 10 91 11
REMARK SMILES IDX 95 12 92 13 94 14 93 15 9 16 7 17 8 18 6 20 1 21 2 22 3 23
REMARK SMILES IDX 99 24 4 25 98 26 5 27 97 28 96 29 100 30 101 31 102 32
REMARK SMILES IDX 103 33 20 34 21 35 22 36 23 37 24 38 25 39 26 40 27 41 28 42
REMARK SMILES IDX 29 43 90 44 30 45 89 46 31 47 32 48 33 49 83 50 34 51 88 52
REMARK SMILES IDX 82 53 84 54 35 55 87 56 81 57 80 58 36 60 68 61 48 62 67 63
REMARK SMILES IDX 49 64 52 65 66 66 85 67 50 68 51 69 65 71 86 72 53 73 37 74
REMARK SMILES IDX 38 75 46 76 39 77 41 78 47 79 40 80 42 81 43 82 44 83 45 84
REMARK SMILES IDX 69 85 70 86 78 87 71 88 73 89 79 90 72 91 74 92 75 93 76 94
REMARK SMILES IDX 77 95 54 96 55 97 63 98 56 99 58 100 64 101 57 102 59 103
REMARK SMILES IDX 60 104 61 105 62 106
REMARK H PARENT 9 19 84 59 52 70
REMARK Flexibility Score: inf
ROOT
ATOM      1  O   UNL A   1      34.762  32.726  28.455  1.00  0.00    -0.377 OA
ENDROOT
BRANCH   1   2
ATOM      2  C   UNL A   1      34.055  31.570  28.031  1.00  0.00     0.188 C 
BRANCH   2   3
ATOM      3  C   UNL A   1      34.854  30.329  27.623  1.00  0.00     0.188 C 
BRANCH   3   4
ATOM      4  O   UNL A   1      34.175  29.480  26.712  1.00  0.00    -0.376 OA
BRANCH   4   5
ATOM      5  C   UNL A   1      33.239  28.550  27.228  1.00  0.00     0.202 C 
BRANCH   5   6
ATOM      6  C   UNL A   1      31.753  28.703  26.794  1.00  0.00     0.261 C 
BRANCH   6   7
ATOM      7  O   UNL A   1      31.324  28.272  25.478  1.00  0.00    -0.461 OA
BRANCH   7   8
ATOM      8  C   UNL A   1      31.228  29.256  24.568  1.00  0.00     0.331 C 
ATOM      9  O   UNL A   1      31.378  30.416  24.919  1.00  0.00    -0.249 OA
BRANCH   8  10
ATOM     10  C   UNL A   1      30.897  28.865  23.091  1.00  0.00     0.138 C 
ATOM     11  C   UNL A   1      29.971  29.800  22.296  1.00  0.00     0.040 C 
ATOM     12  C   UNL A   1      30.176  27.480  22.996  1.00  0.00     0.040 C 
ATOM     13  C   UNL A   1      28.583  29.932  22.899  1.00  0.00     0.003 C 
ATOM     14  C   UNL A   1      28.733  27.472  23.526  1.00  0.00     0.003 C 
ATOM     15  C   UNL A   1      27.871  28.588  22.944  1.00  0.00     0.000 C 
BRANCH  10  16
ATOM     16  N   UNL A   1      32.238  28.782  22.375  1.00  0.00    -0.336 N 
ATOM     17  C   UNL A   1      33.334  27.919  22.432  1.00  0.00     0.252 C 
ATOM     18  O   UNL A   1      34.310  28.197  21.730  1.00  0.00    -0.269 OA
ATOM     19  H   UNL A   1      32.361  29.505  21.717  1.00  0.00     0.165 HD
BRANCH  17  20
ATOM     20  C   UNL A   1      33.360  26.602  23.163  1.00  0.00     0.040 A 
ATOM     21  C   UNL A   1      33.259  21.080  23.980  1.00  0.00     0.032 C 
ATOM     22  C   UNL A   1      32.126  22.105  24.029  1.00  0.00     0.101 C 
ATOM     23  C   UNL A   1      32.059  22.998  22.765  1.00  0.00     0.063 C 
ATOM     24  N   UNL A   1      32.430  23.016  25.193  1.00  0.00    -0.267 N 
ATOM     25  C   UNL A   1      32.598  24.306  23.247  1.00  0.00    -0.021 A 
ATOM     26  C   UNL A   1      32.784  24.283  24.627  1.00  0.00     0.055 A 
ATOM     27  C   UNL A   1      32.845  25.466  22.504  1.00  0.00     0.019 A 
ATOM     28  C   UNL A   1      33.392  25.341  25.266  1.00  0.00     0.028 A 
ATOM     29  C   UNL A   1      33.733  26.472  24.510  1.00  0.00     0.016 A 
BRANCH  24  30
ATOM     30  S   UNL A   1      31.270  22.946  26.439  1.00  0.00     0.232 S 
ATOM     31  C   UNL A   1      30.380  24.478  26.260  1.00  0.00     0.183 C 
ATOM     32  O   UNL A   1      30.371  21.838  26.199  1.00  0.00    -0.207 OA
ATOM     33  O   UNL A   1      32.002  23.042  27.689  1.00  0.00    -0.207 OA
ENDBRANCH  24  30
ENDBRANCH  17  20
ENDBRANCH  10  16
ENDBRANCH   8  10
ENDBRANCH   7   8
ENDBRANCH   6   7
ENDBRANCH   5   6
ENDBRANCH   4   5
ENDBRANCH   3   4
ENDBRANCH   2   3
ENDBRANCH   1   2
BRANCH   1  34
ATOM     34  C   UNL A   1      34.040  33.757  29.135  1.00  0.00     0.188 C 
BRANCH  34  35
ATOM     35  C   UNL A   1      33.341  34.883  28.337  1.00  0.00     0.188 C 
BRANCH  35  36
ATOM     36  O   UNL A   1      32.633  35.821  29.132  1.00  0.00    -0.376 OA
BRANCH  36  37
ATOM     37  C   UNL A   1      33.336  36.982  29.544  1.00  0.00     0.202 C 
BRANCH  37  38
ATOM     38  C   UNL A   1      32.952  37.585  30.903  1.00  0.00     0.261 C 
BRANCH  38  39
ATOM     39  O   UNL A   1      33.486  36.938  32.071  1.00  0.00    -0.460 OA
BRANCH  39  40
ATOM     40  C   UNL A   1      33.013  35.713  32.415  1.00  0.00     0.338 C 
ATOM     41  O   UNL A   1      31.867  35.342  32.402  1.00  0.00    -0.246 OA
BRANCH  40  42
ATOM     42  C   UNL A   1      34.206  34.842  32.589  1.00  0.00     0.060 A 
ATOM     43  C   UNL A   1      35.472  35.310  32.234  1.00  0.00     0.016 A 
ATOM     44  C   UNL A   1      34.041  33.526  33.043  1.00  0.00     0.016 A 
ATOM     45  C   UNL A   1      36.581  34.473  32.373  1.00  0.00     0.010 A 
ATOM     46  C   UNL A   1      35.150  32.682  33.163  1.00  0.00     0.010 A 
ATOM     47  C   UNL A   1      36.431  33.162  32.862  1.00  0.00    -0.014 A 
BRANCH  47  48
ATOM     48  C   UNL A   1      37.632  32.408  33.299  1.00  0.00     0.031 A 
ATOM     49  C   UNL A   1      38.226  31.284  32.507  1.00  0.00     0.074 A 
ATOM     50  C   UNL A   1      38.180  32.772  34.474  1.00  0.00     0.049 A 
ATOM     51  N   UNL A   1      39.331  30.623  32.741  1.00  0.00    -0.248 NA
ATOM     52  C   UNL A   1      37.498  30.835  31.311  1.00  0.00     0.031 C 
ATOM     53  C   UNL A   1      37.648  33.815  35.356  1.00  0.00     0.029 A 
ATOM     54  N   UNL A   1      39.294  32.318  35.130  1.00  0.00    -0.354 N 
ATOM     55  C   UNL A   1      39.441  29.682  31.726  1.00  0.00     0.074 A 
ATOM     56  C   UNL A   1      38.275  29.844  30.880  1.00  0.00     0.031 C 
ATOM     57  C   UNL A   1      38.447  33.935  36.425  1.00  0.00     0.029 A 
ATOM     58  C   UNL A   1      39.537  32.973  36.313  1.00  0.00     0.049 A 
ATOM     59  H   UNL A   1      39.865  31.593  34.787  1.00  0.00     0.167 HD
ATOM     60  C   UNL A   1      40.435  28.787  31.513  1.00  0.00     0.034 A 
ATOM     61  C   UNL A   1      40.532  32.829  37.208  1.00  0.00     0.034 A 
ATOM     62  C   UNL A   1      41.593  28.638  32.358  1.00  0.00     0.049 A 
ATOM     63  C   UNL A   1      41.620  31.834  36.942  1.00  0.00     0.074 A 
ATOM     64  C   UNL A   1      42.679  27.796  32.183  1.00  0.00     0.029 A 
ATOM     65  N   UNL A   1      41.813  29.329  33.539  1.00  0.00    -0.354 N 
ATOM     66  N   UNL A   1      41.778  31.052  35.902  1.00  0.00    -0.248 NA
ATOM     67  C   UNL A   1      42.683  31.720  37.950  1.00  0.00     0.031 C 
ATOM     68  C   UNL A   1      43.547  27.966  33.264  1.00  0.00     0.029 A 
ATOM     69  C   UNL A   1      43.012  28.928  34.106  1.00  0.00     0.049 A 
ATOM     70  H   UNL A   1      41.208  30.006  33.919  1.00  0.00     0.167 HD
ATOM     71  C   UNL A   1      42.966  30.367  36.120  1.00  0.00     0.074 A 
ATOM     72  C   UNL A   1      43.495  30.837  37.383  1.00  0.00     0.031 C 
ATOM     73  C   UNL A   1      43.553  29.426  35.344  1.00  0.00     0.034 A 
BRANCH  60  74
ATOM     74  C   UNL A   1      40.381  27.933  30.275  1.00  0.00     0.023 A 
ATOM     75  C   UNL A   1      39.392  26.931  30.188  1.00  0.00     0.012 A 
ATOM     76  C   UNL A   1      41.184  28.214  29.152  1.00  0.00     0.148 A 
ATOM     77  C   UNL A   1      39.204  26.220  29.004  1.00  0.00     0.002 A 
ATOM     78  C   UNL A   1      40.974  27.516  27.968  1.00  0.00     0.091 A 
ATOM     79  F   UNL A   1      42.115  29.171  29.258  1.00  0.00    -0.205 F 
ATOM     80  C   UNL A   1      39.986  26.520  27.892  1.00  0.00     0.022 A 
BRANCH  78  81
ATOM     81  S   UNL A   1      41.893  27.848  26.459  1.00  0.00     0.127 S 
ATOM     82  O   UNL A   1      41.508  29.231  26.181  1.00  0.00    -0.237 OA
ATOM     83  O   UNL A   1      43.277  27.676  26.899  1.00  0.00    -0.237 OA
ATOM     84  O   UNL A   1      41.432  26.871  25.482  1.00  0.00    -0.744 OA
ENDBRANCH  78  81
ENDBRANCH  60  74
BRANCH  61  85
ATOM     85  C   UNL A   1      40.571  33.723  38.393  1.00  0.00     0.023 A 
ATOM     86  C   UNL A   1      41.424  34.841  38.380  1.00  0.00     0.012 A 
ATOM     87  C   UNL A   1      39.710  33.519  39.489  1.00  0.00     0.148 A 
ATOM     88  C   UNL A   1      41.427  35.742  39.446  1.00  0.00     0.002 A 
ATOM     89  C   UNL A   1      39.692  34.439  40.529  1.00  0.00     0.091 A 
ATOM     90  F   UNL A   1      38.904  32.448  39.468  1.00  0.00    -0.205 F 
ATOM     91  C   UNL A   1      40.555  35.545  40.514  1.00  0.00     0.022 A 
BRANCH  89  92
ATOM     92  S   UNL A   1      38.541  34.324  41.902  1.00  0.00     0.127 S 
ATOM     93  O   UNL A   1      38.662  35.650  42.503  1.00  0.00    -0.237 OA
ATOM     94  O   UNL A   1      37.276  34.074  41.210  1.00  0.00    -0.237 OA
ATOM     95  O   UNL A   1      39.012  33.220  42.726  1.00  0.00    -0.744 OA
ENDBRANCH  89  92
ENDBRANCH  61  85
BRANCH  73  96
ATOM     96  C   UNL A   1      44.849  28.829  35.817  1.00  0.00     0.023 A 
ATOM     97  C   UNL A   1      46.064  29.461  35.487  1.00  0.00     0.012 A 
ATOM     98  C   UNL A   1      44.855  27.719  36.684  1.00  0.00     0.148 A 
ATOM     99  C   UNL A   1      47.267  28.995  36.012  1.00  0.00     0.002 A 
ATOM    100  C   UNL A   1      46.055  27.279  37.229  1.00  0.00     0.091 A 
ATOM    101  F   UNL A   1      43.685  27.130  36.974  1.00  0.00    -0.205 F 
ATOM    102  C   UNL A   1      47.262  27.914  36.891  1.00  0.00     0.022 A 
BRANCH 100 103
ATOM    103  S   UNL A   1      46.147  25.942  38.424  1.00  0.00     0.127 S 
ATOM    104  O   UNL A   1      45.997  24.766  37.567  1.00  0.00    -0.237 OA
ATOM    105  O   UNL A   1      47.486  26.121  38.985  1.00  0.00    -0.237 OA
ATOM    106  O   UNL A   1      45.056  26.161  39.365  1.00  0.00    -0.744 OA
ENDBRANCH 100 103
ENDBRANCH  73  96
ENDBRANCH  47  48
ENDBRANCH  40  42
ENDBRANCH  39  40
ENDBRANCH  38  39
ENDBRANCH  37  38
ENDBRANCH  36  37
ENDBRANCH  35  36
ENDBRANCH  34  35
ENDBRANCH   1  34
TORSDOF 26
ENDMDL
MODEL 2
REMARK VINA RESULT:      -9.9      4.921      7.859
REMARK SMILES C[C@@H]1Cc2cc(C(=O)NC3(C(=O)OCCOCCOCCOCCOC(=O)c4ccc(-c5c6nc(c(-c7cccc(S(=O)(=O)[O-])c7F)c7ccc([nH]7)c(-c7cccc(S(=O)(=O)[O-])c7F)c7nc(c(-c8cccc(S(=O)(=O)[O-])c8F)c8ccc5[nH]8)C=C7)C=C6)cc4)CCCCC3)ccc2N1S(C)(=O)=O
REMARK SMILES IDX 19 1 18 2 17 3 16 4 15 5 14 6 13 7 11 8 12 9 10 10 91 11
REMARK SMILES IDX 95 12 92 13 94 14 93 15 9 16 7 17 8 18 6 20 1 21 2 22 3 23
REMARK SMILES IDX 99 24 4 25 98 26 5 27 97 28 96 29 100 30 101 31 102 32
REMARK SMILES IDX 103 33 20 34 21 35 22 36 23 37 24 38 25 39 26 40 27 41 28 42
REMARK SMILES IDX 29 43 90 44 30 45 89 46 31 47 32 48 33 49 83 50 34 51 88 52
REMARK SMILES IDX 82 53 84 54 35 55 87 56 81 57 80 58 36 60 68 61 48 62 67 63
REMARK SMILES IDX 49 64 52 65 66 66 85 67 50 68 51 69 65 71 86 72 53 73 37 74
REMARK SMILES IDX 38 75 46 76 39 77 41 78 47 79 40 80 42 81 43 82 44 83 45 84
REMARK SMILES IDX 69 85 70 86 78 87 71 88 73 89 79 90 72 91 74 92 75 93 76 94
REMARK SMILES IDX 77 95 54 96 55 97 63 98 56 99 58 100 64 101 57 102 59 103
REMARK SMILES IDX 60 104 61 105 62 106
REMARK H PARENT 9 19 84 59 52 70
REMARK Flexibility Score: inf
ROOT
ATOM      1  O   UNL A   1      35.099  33.741  28.294  1.00  0.00    -0.377 OA
ENDROOT
BRANCH   1   2
ATOM      2  C   UNL A   1      33.990  32.937  27.922  1.00  0.00     0.188 C 
BRANCH   2   3
ATOM      3  C   UNL A   1      34.127  31.413  28.007  1.00  0.00     0.188 C 
BRANCH   3   4
ATOM      4  O   UNL A   1      33.427  30.714  26.990  1.00  0.00    -0.376 OA
BRANCH   4   5
ATOM      5  C   UNL A   1      33.196  29.327  27.163  1.00  0.00     0.202 C 
BRANCH   5   6
ATOM      6  C   UNL A   1      31.787  28.778  26.800  1.00  0.00     0.261 C 
BRANCH   6   7
ATOM      7  O   UNL A   1      31.494  28.346  25.447  1.00  0.00    -0.461 OA
BRANCH   7   8
ATOM      8  C   UNL A   1      31.128  29.331  24.609  1.00  0.00     0.331 C 
ATOM      9  O   UNL A   1      31.025  30.472  25.033  1.00  0.00    -0.249 OA
BRANCH   8  10
ATOM     10  C   UNL A   1      30.822  28.960  23.123  1.00  0.00     0.138 C 
ATOM     11  C   UNL A   1      29.878  29.885  22.336  1.00  0.00     0.040 C 
ATOM     12  C   UNL A   1      30.139  27.558  22.995  1.00  0.00     0.040 C 
ATOM     13  C   UNL A   1      28.482  29.969  22.928  1.00  0.00     0.003 C 
ATOM     14  C   UNL A   1      28.691  27.502  23.511  1.00  0.00     0.003 C 
ATOM     15  C   UNL A   1      27.805  28.606  22.941  1.00  0.00     0.000 C 
BRANCH  10  16
ATOM     16  N   UNL A   1      32.170  28.925  22.418  1.00  0.00    -0.336 N 
ATOM     17  C   UNL A   1      33.305  28.115  22.500  1.00  0.00     0.252 C 
ATOM     18  O   UNL A   1      34.273  28.425  21.800  1.00  0.00    -0.269 OA
ATOM     19  H   UNL A   1      32.265  29.640  21.748  1.00  0.00     0.165 HD
BRANCH  17  20
ATOM     20  C   UNL A   1      33.385  26.815  23.256  1.00  0.00     0.040 A 
ATOM     21  C   UNL A   1      33.128  21.327  24.248  1.00  0.00     0.032 C 
ATOM     22  C   UNL A   1      32.078  22.417  24.459  1.00  0.00     0.101 C 
ATOM     23  C   UNL A   1      31.842  23.286  23.199  1.00  0.00     0.063 C 
ATOM     24  N   UNL A   1      32.628  23.333  25.525  1.00  0.00    -0.267 N 
ATOM     25  C   UNL A   1      32.526  24.570  23.540  1.00  0.00    -0.021 A 
ATOM     26  C   UNL A   1      32.947  24.565  24.868  1.00  0.00     0.055 A 
ATOM     27  C   UNL A   1      32.703  25.697  22.730  1.00  0.00     0.019 A 
ATOM     28  C   UNL A   1      33.713  25.598  25.360  1.00  0.00     0.028 A 
ATOM     29  C   UNL A   1      33.978  26.691  24.523  1.00  0.00     0.016 A 
BRANCH  24  30
ATOM     30  S   UNL A   1      31.699  23.358  26.954  1.00  0.00     0.232 S 
ATOM     31  C   UNL A   1      30.223  22.471  26.501  1.00  0.00     0.183 C 
ATOM     32  O   UNL A   1      32.395  22.632  27.994  1.00  0.00    -0.207 OA
ATOM     33  O   UNL A   1      31.300  24.738  27.161  1.00  0.00    -0.207 OA
ENDBRANCH  24  30
ENDBRANCH  17  20
ENDBRANCH  10  16
ENDBRANCH   8  10
ENDBRANCH   7   8
ENDBRANCH   6   7
ENDBRANCH   5   6
ENDBRANCH   4   5
ENDBRANCH   3   4
ENDBRANCH   2   3
ENDBRANCH   1   2
BRANCH   1  34
ATOM     34  C   UNL A   1      36.062  33.196  29.203  1.00  0.00     0.188 C 
BRANCH  34  35
ATOM     35  C   UNL A   1      36.305  33.861  30.579  1.00  0.00     0.188 C 
BRANCH  35  36
ATOM     36  O   UNL A   1      35.125  34.149  31.314  1.00  0.00    -0.376 OA
BRANCH  36  37
ATOM     37  C   UNL A   1      34.643  33.139  32.186  1.00  0.00     0.202 C 
BRANCH  37  38
ATOM     38  C   UNL A   1      35.413  32.924  33.497  1.00  0.00     0.261 C 
BRANCH  38  39
ATOM     39  O   UNL A   1      36.275  31.776  33.560  1.00  0.00    -0.460 OA
BRANCH  39  40
ATOM     40  C   UNL A   1      37.367  31.820  34.368  1.00  0.00     0.338 C 
ATOM     41  O   UNL A   1      37.384  31.938  35.566  1.00  0.00    -0.246 OA
BRANCH  40  42
ATOM     42  C   UNL A   1      38.529  31.461  33.512  1.00  0.00     0.060 A 
ATOM     43  C   UNL A   1      39.494  30.567  33.979  1.00  0.00     0.016 A 
ATOM     44  C   UNL A   1      38.686  32.082  32.265  1.00  0.00     0.016 A 
ATOM     45  C   UNL A   1      40.596  30.262  33.179  1.00  0.00     0.010 A 
ATOM     46  C   UNL A   1      39.801  31.790  31.473  1.00  0.00     0.010 A 
ATOM     47  C   UNL A   1      40.745  30.851  31.911  1.00  0.00    -0.014 A 
BRANCH  47  48
ATOM     48  C   UNL A   1      41.732  30.286  30.958  1.00  0.00     0.031 A 
ATOM     49  C   UNL A   1      41.496  29.024  30.187  1.00  0.00     0.074 A 
ATOM     50  C   UNL A   1      42.890  30.959  30.815  1.00  0.00     0.049 A 
ATOM     51  N   UNL A   1      42.243  28.492  29.253  1.00  0.00    -0.248 NA
ATOM     52  C   UNL A   1      40.281  28.255  30.496  1.00  0.00     0.031 C 
ATOM     53  C   UNL A   1      43.249  32.169  31.562  1.00  0.00     0.029 A 
ATOM     54  N   UNL A   1      43.971  30.736  30.004  1.00  0.00    -0.354 N 
ATOM     55  C   UNL A   1      41.596  27.330  28.855  1.00  0.00     0.074 A 
ATOM     56  C   UNL A   1      40.400  27.222  29.666  1.00  0.00     0.031 C 
ATOM     57  C   UNL A   1      44.456  32.591  31.159  1.00  0.00     0.029 A 
ATOM     58  C   UNL A   1      44.960  31.679  30.138  1.00  0.00     0.049 A 
ATOM     59  H   UNL A   1      44.033  29.973  29.385  1.00  0.00     0.167 HD
ATOM     60  C   UNL A   1      41.961  26.454  27.888  1.00  0.00     0.034 A 
ATOM     61  C   UNL A   1      46.140  31.811  29.504  1.00  0.00     0.034 A 
ATOM     62  C   UNL A   1      43.150  26.575  27.085  1.00  0.00     0.049 A 
ATOM     63  C   UNL A   1      46.512  30.829  28.435  1.00  0.00     0.074 A 
ATOM     64  C   UNL A   1      43.565  25.763  26.041  1.00  0.00     0.029 A 
ATOM     65  N   UNL A   1      44.121  27.552  27.237  1.00  0.00    -0.354 N 
ATOM     66  N   UNL A   1      45.819  29.816  27.977  1.00  0.00    -0.248 NA
ATOM     67  C   UNL A   1      47.810  31.021  27.774  1.00  0.00     0.031 C 
ATOM     68  C   UNL A   1      44.793  26.240  25.574  1.00  0.00     0.029 A 
ATOM     69  C   UNL A   1      45.136  27.360  26.314  1.00  0.00     0.049 A 
ATOM     70  H   UNL A   1      44.094  28.277  27.903  1.00  0.00     0.167 HD
ATOM     71  C   UNL A   1      46.585  29.261  26.961  1.00  0.00     0.074 A 
ATOM     72  C   UNL A   1      47.789  30.059  26.860  1.00  0.00     0.031 C 
ATOM     73  C   UNL A   1      46.313  28.180  26.193  1.00  0.00     0.034 A 
BRANCH  60  74
ATOM     74  C   UNL A   1      41.034  25.312  27.567  1.00  0.00     0.023 A 
ATOM     75  C   UNL A   1      39.759  25.603  27.042  1.00  0.00     0.012 A 
ATOM     76  C   UNL A   1      41.469  23.973  27.633  1.00  0.00     0.148 A 
ATOM     77  C   UNL A   1      38.928  24.580  26.587  1.00  0.00     0.002 A 
ATOM     78  C   UNL A   1      40.643  22.961  27.157  1.00  0.00     0.091 A 
ATOM     79  F   UNL A   1      42.685  23.721  28.135  1.00  0.00    -0.205 F 
ATOM     80  C   UNL A   1      39.373  23.262  26.634  1.00  0.00     0.022 A 
BRANCH  78  81
ATOM     81  S   UNL A   1      41.129  21.231  27.128  1.00  0.00     0.127 S 
ATOM     82  O   UNL A   1      40.926  20.847  28.525  1.00  0.00    -0.237 OA
ATOM     83  O   UNL A   1      40.165  20.656  26.191  1.00  0.00    -0.237 OA
ATOM     84  O   UNL A   1      42.514  21.208  26.678  1.00  0.00    -0.744 OA
ENDBRANCH  78  81
ENDBRANCH  60  74
BRANCH  61  85
ATOM     85  C   UNL A   1      47.003  32.978  29.820  1.00  0.00     0.023 A 
ATOM     86  C   UNL A   1      47.846  32.922  30.944  1.00  0.00     0.012 A 
ATOM     87  C   UNL A   1      47.051  34.100  28.971  1.00  0.00     0.148 A 
ATOM     88  C   UNL A   1      48.723  33.970  31.224  1.00  0.00     0.002 A 
ATOM     89  C   UNL A   1      47.951  35.124  29.235  1.00  0.00     0.091 A 
ATOM     90  F   UNL A   1      46.240  34.121  27.904  1.00  0.00    -0.205 F 
ATOM     91  C   UNL A   1      48.782  35.065  30.366  1.00  0.00     0.022 A 
BRANCH  89  92
ATOM     92  S   UNL A   1      48.168  36.529  28.139  1.00  0.00     0.127 S 
ATOM     93  O   UNL A   1      49.503  36.992  28.509  1.00  0.00    -0.237 OA
ATOM     94  O   UNL A   1      48.078  35.897  26.823  1.00  0.00    -0.237 OA
ATOM     95  O   UNL A   1      47.081  37.447  28.449  1.00  0.00    -0.744 OA
ENDBRANCH  89  92
ENDBRANCH  61  85
BRANCH  73  96
ATOM     96  C   UNL A   1      47.325  27.779  25.156  1.00  0.00     0.023 A 
ATOM     97  C   UNL A   1      47.039  27.988  23.792  1.00  0.00     0.012 A 
ATOM     98  C   UNL A   1      48.599  27.313  25.536  1.00  0.00     0.148 A 
ATOM     99  C   UNL A   1      48.006  27.735  22.821  1.00  0.00     0.002 A 
ATOM    100  C   UNL A   1      49.569  27.093  24.565  1.00  0.00     0.091 A 
ATOM    101  F   UNL A   1      48.842  27.114  26.840  1.00  0.00    -0.205 F 
ATOM    102  C   UNL A   1      49.272  27.301  23.208  1.00  0.00     0.022 A 
BRANCH 100 103
ATOM    103  S   UNL A   1      51.249  26.602  24.964  1.00  0.00     0.127 S 
ATOM    104  O   UNL A   1      51.032  25.327  25.648  1.00  0.00    -0.237 OA
ATOM    105  O   UNL A   1      51.860  26.488  23.641  1.00  0.00    -0.237 OA
ATOM    106  O   UNL A   1      51.796  27.664  25.800  1.00  0.00    -0.744 OA
ENDBRANCH 100 103
ENDBRANCH  73  96
ENDBRANCH  47  48
ENDBRANCH  40  42
ENDBRANCH  39  40
ENDBRANCH  38  39
ENDBRANCH  37  38
ENDBRANCH  36  37
ENDBRANCH  35  36
ENDBRANCH  34  35
ENDBRANCH   1  34
TORSDOF 26
ENDMDL
MODEL 3
REMARK VINA RESULT:      -9.9      2.309      2.613
REMARK SMILES C[C@@H]1Cc2cc(C(=O)NC3(C(=O)OCCOCCOCCOCCOC(=O)c4ccc(-c5c6nc(c(-c7cccc(S(=O)(=O)[O-])c7F)c7ccc([nH]7)c(-c7cccc(S(=O)(=O)[O-])c7F)c7nc(c(-c8cccc(S(=O)(=O)[O-])c8F)c8ccc5[nH]8)C=C7)C=C6)cc4)CCCCC3)ccc2N1S(C)(=O)=O
REMARK SMILES IDX 19 1 18 2 17 3 16 4 15 5 14 6 13 7 11 8 12 9 10 10 91 11
REMARK SMILES IDX 95 12 92 13 94 14 93 15 9 16 7 17 8 18 6 20 1 21 2 22 3 23
REMARK SMILES IDX 99 24 4 25 98 26 5 27 97 28 96 29 100 30 101 31 102 32
REMARK SMILES IDX 103 33 20 34 21 35 22 36 23 37 24 38 25 39 26 40 27 41 28 42
REMARK SMILES IDX 29 43 90 44 30 45 89 46 31 47 32 48 33 49 83 50 34 51 88 52
REMARK SMILES IDX 82 53 84 54 35 55 87 56 81 57 80 58 36 60 68 61 48 62 67 63
REMARK SMILES IDX 49 64 52 65 66 66 85 67 50 68 51 69 65 71 86 72 53 73 37 74
REMARK SMILES IDX 38 75 46 76 39 77 41 78 47 79 40 80 42 81 43 82 44 83 45 84
REMARK SMILES IDX 69 85 70 86 78 87 71 88 73 89 79 90 72 91 74 92 75 93 76 94
REMARK SMILES IDX 77 95 54 96 55 97 63 98 56 99 58 100 64 101 57 102 59 103
REMARK SMILES IDX 60 104 61 105 62 106
REMARK H PARENT 9 19 84 59 52 70
REMARK Flexibility Score: inf
ROOT
ATOM      1  O   UNL A   1      34.628  33.247  28.181  1.00  0.00    -0.377 OA
ENDROOT
BRANCH   1   2
ATOM      2  C   UNL A   1      34.013  32.017  27.829  1.00  0.00     0.188 C 
BRANCH   2   3
ATOM      3  C   UNL A   1      34.903  30.793  27.590  1.00  0.00     0.188 C 
BRANCH   3   4
ATOM      4  O   UNL A   1      34.292  29.781  26.807  1.00  0.00    -0.376 OA
BRANCH   4   5
ATOM      5  C   UNL A   1      33.321  28.949  27.418  1.00  0.00     0.202 C 
BRANCH   5   6
ATOM      6  C   UNL A   1      31.858  29.046  26.900  1.00  0.00     0.261 C 
BRANCH   6   7
ATOM      7  O   UNL A   1      31.450  28.319  25.713  1.00  0.00    -0.461 OA
BRANCH   7   8
ATOM      8  C   UNL A   1      31.163  29.091  24.652  1.00  0.00     0.331 C 
ATOM      9  O   UNL A   1      31.138  30.305  24.782  1.00  0.00    -0.249 OA
BRANCH   8  10
ATOM     10  C   UNL A   1      30.844  28.389  23.293  1.00  0.00     0.138 C 
ATOM     11  C   UNL A   1      29.649  28.915  22.480  1.00  0.00     0.040 C 
ATOM     12  C   UNL A   1      30.512  26.871  23.478  1.00  0.00     0.040 C 
ATOM     13  C   UNL A   1      28.322  28.793  23.210  1.00  0.00     0.003 C 
ATOM     14  C   UNL A   1      29.163  26.590  24.162  1.00  0.00     0.003 C 
ATOM     15  C   UNL A   1      27.997  27.341  23.526  1.00  0.00     0.000 C 
BRANCH  10  16
ATOM     16  N   UNL A   1      32.104  28.525  22.450  1.00  0.00    -0.336 N 
ATOM     17  C   UNL A   1      33.363  27.919  22.452  1.00  0.00     0.252 C 
ATOM     18  O   UNL A   1      34.191  28.334  21.638  1.00  0.00    -0.269 OA
ATOM     19  H   UNL A   1      32.011  29.198  21.737  1.00  0.00     0.165 HD
BRANCH  17  20
ATOM     20  C   UNL A   1      33.735  26.706  23.263  1.00  0.00     0.040 A 
ATOM     21  C   UNL A   1      35.548  21.554  24.422  1.00  0.00     0.032 C 
ATOM     22  C   UNL A   1      34.128  22.071  24.193  1.00  0.00     0.101 C 
ATOM     23  C   UNL A   1      33.980  22.881  22.881  1.00  0.00     0.063 C 
ATOM     24  N   UNL A   1      33.836  23.022  25.328  1.00  0.00    -0.267 N 
ATOM     25  C   UNL A   1      33.886  24.293  23.363  1.00  0.00    -0.021 A 
ATOM     26  C   UNL A   1      33.794  24.333  24.752  1.00  0.00     0.055 A 
ATOM     27  C   UNL A   1      33.822  25.464  22.600  1.00  0.00     0.019 A 
ATOM     28  C   UNL A   1      33.826  25.538  25.418  1.00  0.00     0.028 A 
ATOM     29  C   UNL A   1      33.859  26.718  24.662  1.00  0.00     0.016 A 
BRANCH  24  30
ATOM     30  S   UNL A   1      32.567  22.509  26.343  1.00  0.00     0.232 S 
ATOM     31  C   UNL A   1      33.397  22.088  27.861  1.00  0.00     0.183 C 
ATOM     32  O   UNL A   1      31.663  23.613  26.582  1.00  0.00    -0.207 OA
ATOM     33  O   UNL A   1      32.074  21.262  25.787  1.00  0.00    -0.207 OA
ENDBRANCH  24  30
ENDBRANCH  17  20
ENDBRANCH  10  16
ENDBRANCH   8  10
ENDBRANCH   7   8
ENDBRANCH   6   7
ENDBRANCH   5   6
ENDBRANCH   4   5
ENDBRANCH   3   4
ENDBRANCH   2   3
ENDBRANCH   1   2
BRANCH   1  34
ATOM     34  C   UNL A   1      33.943  34.117  29.088  1.00  0.00     0.188 C 
BRANCH  34  35
ATOM     35  C   UNL A   1      33.615  35.573  28.682  1.00  0.00     0.188 C 
BRANCH  35  36
ATOM     36  O   UNL A   1      32.751  36.257  29.577  1.00  0.00    -0.376 OA
BRANCH  36  37
ATOM     37  C   UNL A   1      33.277  37.392  30.245  1.00  0.00     0.202 C 
BRANCH  37  38
ATOM     38  C   UNL A   1      33.270  37.363  31.780  1.00  0.00     0.261 C 
BRANCH  38  39
ATOM     39  O   UNL A   1      34.156  36.426  32.414  1.00  0.00    -0.460 OA
BRANCH  39  40
ATOM     40  C   UNL A   1      33.727  35.153  32.617  1.00  0.00     0.338 C 
ATOM     41  O   UNL A   1      32.591  34.753  32.593  1.00  0.00    -0.246 OA
BRANCH  40  42
ATOM     42  C   UNL A   1      34.947  34.304  32.646  1.00  0.00     0.060 A 
ATOM     43  C   UNL A   1      36.152  34.791  32.136  1.00  0.00     0.016 A 
ATOM     44  C   UNL A   1      34.862  32.988  33.122  1.00  0.00     0.016 A 
ATOM     45  C   UNL A   1      37.284  33.973  32.140  1.00  0.00     0.010 A 
ATOM     46  C   UNL A   1      35.992  32.164  33.108  1.00  0.00     0.010 A 
ATOM     47  C   UNL A   1      37.218  32.663  32.649  1.00  0.00    -0.014 A 
BRANCH  47  48
ATOM     48  C   UNL A   1      38.477  31.932  32.937  1.00  0.00     0.031 A 
ATOM     49  C   UNL A   1      39.033  30.873  32.036  1.00  0.00     0.074 A 
ATOM     50  C   UNL A   1      39.116  32.255  34.078  1.00  0.00     0.049 A 
ATOM     51  N   UNL A   1      40.175  30.241  32.136  1.00  0.00    -0.248 NA
ATOM     52  C   UNL A   1      38.216  30.460  30.886  1.00  0.00     0.031 C 
ATOM     53  C   UNL A   1      38.632  33.232  35.059  1.00  0.00     0.029 A 
ATOM     54  N   UNL A   1      40.298  31.809  34.608  1.00  0.00    -0.354 N 
ATOM     55  C   UNL A   1      40.224  29.359  31.066  1.00  0.00     0.074 A 
ATOM     56  C   UNL A   1      38.982  29.521  30.336  1.00  0.00     0.031 C 
ATOM     57  C   UNL A   1      39.518  33.325  36.059  1.00  0.00     0.029 A 
ATOM     58  C   UNL A   1      40.625  32.410  35.799  1.00  0.00     0.049 A 
ATOM     59  H   UNL A   1      40.859  31.124  34.177  1.00  0.00     0.167 HD
ATOM     60  C   UNL A   1      41.223  28.512  30.718  1.00  0.00     0.034 A 
ATOM     61  C   UNL A   1      41.700  32.257  36.594  1.00  0.00     0.034 A 
ATOM     62  C   UNL A   1      42.456  28.364  31.449  1.00  0.00     0.049 A 
ATOM     63  C   UNL A   1      42.791  31.318  36.180  1.00  0.00     0.074 A 
ATOM     64  C   UNL A   1      43.548  27.571  31.134  1.00  0.00     0.029 A 
ATOM     65  N   UNL A   1      42.759  29.000  32.642  1.00  0.00    -0.354 N 
ATOM     66  N   UNL A   1      42.880  30.597  35.090  1.00  0.00    -0.248 NA
ATOM     67  C   UNL A   1      43.943  31.191  37.084  1.00  0.00     0.031 C 
ATOM     68  C   UNL A   1      44.504  27.718  32.142  1.00  0.00     0.029 A 
ATOM     69  C   UNL A   1      44.016  28.614  33.079  1.00  0.00     0.049 A 
ATOM     70  H   UNL A   1      42.169  29.634  33.110  1.00  0.00     0.167 HD
ATOM     71  C   UNL A   1      44.104  29.945  35.165  1.00  0.00     0.074 A 
ATOM     72  C   UNL A   1      44.729  30.369  36.401  1.00  0.00     0.031 C 
ATOM     73  C   UNL A   1      44.649  29.068  34.290  1.00  0.00     0.034 A 
BRANCH  60  74
ATOM     74  C   UNL A   1      41.085  27.722  29.445  1.00  0.00     0.023 A 
ATOM     75  C   UNL A   1      40.054  26.765  29.352  1.00  0.00     0.012 A 
ATOM     76  C   UNL A   1      41.855  28.026  28.305  1.00  0.00     0.148 A 
ATOM     77  C   UNL A   1      39.791  26.120  28.145  1.00  0.00     0.002 A 
ATOM     78  C   UNL A   1      41.571  27.394  27.099  1.00  0.00     0.091 A 
ATOM     79  F   UNL A   1      42.828  28.939  28.417  1.00  0.00    -0.205 F 
ATOM     80  C   UNL A   1      40.540  26.442  27.017  1.00  0.00     0.022 A 
BRANCH  78  81
ATOM     81  S   UNL A   1      42.443  27.761  25.571  1.00  0.00     0.127 S 
ATOM     82  O   UNL A   1      43.815  27.928  26.051  1.00  0.00    -0.237 OA
ATOM     83  O   UNL A   1      42.214  26.548  24.787  1.00  0.00    -0.237 OA
ATOM     84  O   UNL A   1      41.828  28.967  25.034  1.00  0.00    -0.744 OA
ENDBRANCH  78  81
ENDBRANCH  60  74
BRANCH  61  85
ATOM     85  C   UNL A   1      41.816  33.091  37.819  1.00  0.00     0.023 A 
ATOM     86  C   UNL A   1      41.374  32.568  39.048  1.00  0.00     0.012 A 
ATOM     87  C   UNL A   1      42.434  34.355  37.784  1.00  0.00     0.148 A 
ATOM     88  C   UNL A   1      41.539  33.295  40.226  1.00  0.00     0.002 A 
ATOM     89  C   UNL A   1      42.628  35.058  38.965  1.00  0.00     0.091 A 
ATOM     90  F   UNL A   1      42.850  34.823  36.598  1.00  0.00    -0.205 F 
ATOM     91  C   UNL A   1      42.174  34.535  40.186  1.00  0.00     0.022 A 
BRANCH  89  92
ATOM     92  S   UNL A   1      43.516  36.618  39.029  1.00  0.00     0.127 S 
ATOM     93  O   UNL A   1      44.893  36.184  38.807  1.00  0.00    -0.237 OA
ATOM     94  O   UNL A   1      42.912  37.349  37.915  1.00  0.00    -0.237 OA
ATOM     95  O   UNL A   1      43.242  37.178  40.345  1.00  0.00    -0.744 OA
ENDBRANCH  89  92
ENDBRANCH  61  85
BRANCH  73  96
ATOM     96  C   UNL A   1      46.001  28.495  34.615  1.00  0.00     0.023 A 
ATOM     97  C   UNL A   1      46.085  27.276  35.316  1.00  0.00     0.012 A 
ATOM     98  C   UNL A   1      47.175  29.097  34.120  1.00  0.00     0.148 A 
ATOM     99  C   UNL A   1      47.320  26.666  35.525  1.00  0.00     0.002 A 
ATOM    100  C   UNL A   1      48.399  28.466  34.304  1.00  0.00     0.091 A 
ATOM    101  F   UNL A   1      47.067  30.261  33.464  1.00  0.00    -0.205 F 
ATOM    102  C   UNL A   1      48.474  27.253  35.009  1.00  0.00     0.022 A 
BRANCH 100 103
ATOM    103  S   UNL A   1      49.932  29.104  33.619  1.00  0.00     0.127 S 
ATOM    104  O   UNL A   1      50.063  30.381  34.319  1.00  0.00    -0.237 OA
ATOM    105  O   UNL A   1      50.898  28.084  34.025  1.00  0.00    -0.237 OA
ATOM    106  O   UNL A   1      49.722  29.208  32.181  1.00  0.00    -0.744 OA
ENDBRANCH 100 103
ENDBRANCH  73  96
ENDBRANCH  47  48
ENDBRANCH  40  42
ENDBRANCH  39  40
ENDBRANCH  38  39
ENDBRANCH  37  38
ENDBRANCH  36  37
ENDBRANCH  35  36
ENDBRANCH  34  35
ENDBRANCH   1  34
TORSDOF 26
ENDMDL
