MODEL 1
REMARK VINA RESULT:     -10.0      0.000      0.000
REMARK SMILES C[C@@H](Oc1ccc(-c2ccccc2)cc1)C(=O)N1CCC[C@H](C(=O)OCCOCCOCCOCCOC(=O)c2ccc(-c3c4nc(c(-c5cccc(S(=O)(=O)[O-])c5F)c5ccc([nH]5)c(-c5cccc(S(=O)(=O)[O-])c5F)c5nc(c(-c6cccc(S(=O)(=O)[O-])c6F)c6ccc3[nH]6)C=C5)C=C4)cc2)C1
REMARK SMILES IDX 30 1 29 2 28 3 27 4 26 5 25 6 23 7 24 8 22 9 18 10 19 11
REMARK SMILES IDX 103 12 20 13 21 14 16 15 17 16 2 17 1 18 3 19 4 20 5 21
REMARK SMILES IDX 15 22 6 23 14 24 7 25 8 26 9 27 13 28 10 29 12 30 11 31
REMARK SMILES IDX 31 32 32 33 33 34 34 35 35 36 36 37 37 38 38 39 39 40 40 41
REMARK SMILES IDX 41 42 102 43 42 44 101 45 43 46 44 47 45 48 95 49 46 50
REMARK SMILES IDX 100 51 94 52 96 53 47 54 99 55 93 56 92 57 48 59 80 60 60 61
REMARK SMILES IDX 79 62 61 63 64 64 78 65 97 66 62 67 63 68 77 70 98 71 65 72
REMARK SMILES IDX 49 73 50 74 58 75 51 76 53 77 59 78 52 79 54 80 55 81 56 82
REMARK SMILES IDX 57 83 81 84 82 85 90 86 83 87 85 88 91 89 84 90 86 91 87 92
REMARK SMILES IDX 88 93 89 94 66 95 67 96 75 97 68 98 70 99 76 100 69 101
REMARK SMILES IDX 71 102 72 103 73 104 74 105
REMARK H PARENT 96 58 64 69
REMARK Flexibility Score: inf
ROOT
ATOM      1  C   UNL A   1      38.492  22.229  25.926  1.00  0.00     0.188 C 
ENDROOT
BRANCH   1   2
ATOM      2  C   UNL A   1      37.796  23.518  25.470  1.00  0.00     0.188 C 
BRANCH   2   3
ATOM      3  O   UNL A   1      36.429  23.458  25.146  1.00  0.00    -0.376 OA
BRANCH   3   4
ATOM      4  C   UNL A   1      35.472  24.262  25.814  1.00  0.00     0.202 C 
BRANCH   4   5
ATOM      5  C   UNL A   1      34.597  25.352  25.168  1.00  0.00     0.261 C 
BRANCH   5   6
ATOM      6  O   UNL A   1      33.890  26.266  26.015  1.00  0.00    -0.463 OA
BRANCH   6   7
ATOM      7  C   UNL A   1      33.476  27.423  25.452  1.00  0.00     0.310 C 
ATOM      8  O   UNL A   1      34.189  28.136  24.747  1.00  0.00    -0.252 OA
BRANCH   7   9
ATOM      9  C   UNL A   1      32.060  27.850  25.816  1.00  0.00     0.119 C 
ATOM     10  N   UNL A   1      30.974  26.606  24.028  1.00  0.00    -0.339 N 
ATOM     11  C   UNL A   1      30.354  27.775  23.418  1.00  0.00     0.119 C 
ATOM     12  C   UNL A   1      31.145  26.674  25.479  1.00  0.00     0.134 C 
ATOM     13  C   UNL A   1      31.126  29.046  23.742  1.00  0.00     0.022 C 
ATOM     14  C   UNL A   1      31.452  29.135  25.232  1.00  0.00     0.019 C 
BRANCH  10  15
ATOM     15  C   UNL A   1      31.592  25.661  23.215  1.00  0.00     0.263 C 
ATOM     16  O   UNL A   1      32.003  25.945  22.089  1.00  0.00    -0.271 OA
BRANCH  15  17
ATOM     17  C   UNL A   1      31.742  24.228  23.754  1.00  0.00     0.259 C 
ATOM     18  C   UNL A   1      30.518  23.801  24.559  1.00  0.00     0.064 C 
BRANCH  17  19
ATOM     19  O   UNL A   1      31.986  23.396  22.613  1.00  0.00    -0.481 OA
BRANCH  19  20
ATOM     20  C   UNL A   1      32.413  22.144  22.911  1.00  0.00     0.120 A 
ATOM     21  C   UNL A   1      31.874  21.064  22.221  1.00  0.00     0.047 A 
ATOM     22  C   UNL A   1      33.225  21.956  24.019  1.00  0.00     0.047 A 
ATOM     23  C   UNL A   1      32.166  19.768  22.647  1.00  0.00     0.012 A 
ATOM     24  C   UNL A   1      33.525  20.665  24.431  1.00  0.00     0.012 A 
ATOM     25  C   UNL A   1      32.985  19.550  23.769  1.00  0.00    -0.018 A 
BRANCH  25  26
ATOM     26  C   UNL A   1      33.250  18.202  24.284  1.00  0.00    -0.018 A 
ATOM     27  C   UNL A   1      34.315  17.429  23.800  1.00  0.00     0.009 A 
ATOM     28  C   UNL A   1      32.450  17.665  25.308  1.00  0.00     0.009 A 
ATOM     29  C   UNL A   1      34.584  16.169  24.339  1.00  0.00     0.001 A 
ATOM     30  C   UNL A   1      32.717  16.408  25.848  1.00  0.00     0.001 A 
ATOM     31  C   UNL A   1      33.789  15.662  25.366  1.00  0.00     0.000 A 
ENDBRANCH  25  26
ENDBRANCH  19  20
ENDBRANCH  17  19
ENDBRANCH  15  17
ENDBRANCH  10  15
ENDBRANCH   7   9
ENDBRANCH   6   7
ENDBRANCH   5   6
ENDBRANCH   4   5
ENDBRANCH   3   4
ENDBRANCH   2   3
ENDBRANCH   1   2
BRANCH   1  32
ATOM     32  O   UNL A   1      38.114  20.991  25.355  1.00  0.00    -0.377 OA
BRANCH  32  33
ATOM     33  C   UNL A   1      39.094  20.013  25.028  1.00  0.00     0.188 C 
BRANCH  33  34
ATOM     34  C   UNL A   1      40.064  19.482  26.099  1.00  0.00     0.188 C 
BRANCH  34  35
ATOM     35  O   UNL A   1      41.399  19.945  25.983  1.00  0.00    -0.376 OA
BRANCH  35  36
ATOM     36  C   UNL A   1      42.441  19.125  26.492  1.00  0.00     0.202 C 
BRANCH  36  37
ATOM     37  C   UNL A   1      43.384  18.444  25.487  1.00  0.00     0.261 C 
BRANCH  37  38
ATOM     38  O   UNL A   1      43.772  19.222  24.345  1.00  0.00    -0.460 OA
BRANCH  38  39
ATOM     39  C   UNL A   1      44.979  19.828  24.376  1.00  0.00     0.338 C 
ATOM     40  O   UNL A   1      46.025  19.408  23.925  1.00  0.00    -0.246 OA
BRANCH  39  41
ATOM     41  C   UNL A   1      44.780  21.198  24.893  1.00  0.00     0.060 A 
ATOM     42  C   UNL A   1      44.566  22.240  23.981  1.00  0.00     0.016 A 
ATOM     43  C   UNL A   1      44.829  21.452  26.265  1.00  0.00     0.016 A 
ATOM     44  C   UNL A   1      44.452  23.551  24.437  1.00  0.00     0.010 A 
ATOM     45  C   UNL A   1      44.734  22.770  26.719  1.00  0.00     0.010 A 
ATOM     46  C   UNL A   1      44.591  23.828  25.804  1.00  0.00    -0.014 A 
BRANCH  46  47
ATOM     47  C   UNL A   1      44.801  25.229  26.242  1.00  0.00     0.031 A 
ATOM     48  C   UNL A   1      46.192  25.799  26.167  1.00  0.00     0.074 A 
ATOM     49  C   UNL A   1      43.779  25.987  26.676  1.00  0.00     0.049 A 
ATOM     50  N   UNL A   1      46.623  26.985  26.506  1.00  0.00    -0.248 NA
ATOM     51  C   UNL A   1      47.240  24.908  25.640  1.00  0.00     0.031 C 
ATOM     52  C   UNL A   1      42.387  25.555  26.779  1.00  0.00     0.029 A 
ATOM     53  N   UNL A   1      43.766  27.282  27.131  1.00  0.00    -0.354 N 
ATOM     54  C   UNL A   1      47.991  26.974  26.264  1.00  0.00     0.074 A 
ATOM     55  C   UNL A   1      48.323  25.659  25.763  1.00  0.00     0.031 C 
ATOM     56  C   UNL A   1      41.657  26.560  27.293  1.00  0.00     0.029 A 
ATOM     57  C   UNL A   1      42.533  27.693  27.579  1.00  0.00     0.049 A 
ATOM     58  H   UNL A   1      44.563  27.860  27.135  1.00  0.00     0.167 HD
ATOM     59  C   UNL A   1      48.891  27.971  26.433  1.00  0.00     0.034 A 
ATOM     60  C   UNL A   1      42.164  28.846  28.173  1.00  0.00     0.034 A 
ATOM     61  C   UNL A   1      48.557  29.281  26.922  1.00  0.00     0.049 A 
ATOM     62  C   UNL A   1      43.192  29.931  28.379  1.00  0.00     0.074 A 
ATOM     63  C   UNL A   1      49.388  30.374  27.091  1.00  0.00     0.029 A 
ATOM     64  N   UNL A   1      47.293  29.672  27.337  1.00  0.00    -0.354 N 
ATOM     65  N   UNL A   1      44.461  29.943  28.049  1.00  0.00    -0.248 NA
ATOM     66  C   UNL A   1      42.725  31.177  29.006  1.00  0.00     0.031 C 
ATOM     67  C   UNL A   1      48.635  31.413  27.647  1.00  0.00     0.029 A 
ATOM     68  C   UNL A   1      47.323  30.983  27.776  1.00  0.00     0.049 A 
ATOM     69  H   UNL A   1      46.491  29.100  27.321  1.00  0.00     0.167 HD
ATOM     70  C   UNL A   1      44.933  31.208  28.389  1.00  0.00     0.074 A 
ATOM     71  C   UNL A   1      43.808  31.939  28.933  1.00  0.00     0.031 C 
ATOM     72  C   UNL A   1      46.185  31.715  28.271  1.00  0.00     0.034 A 
BRANCH  59  73
ATOM     73  C   UNL A   1      50.328  27.683  26.080  1.00  0.00     0.023 A 
ATOM     74  C   UNL A   1      51.257  27.385  27.098  1.00  0.00     0.012 A 
ATOM     75  C   UNL A   1      50.746  27.664  24.736  1.00  0.00     0.148 A 
ATOM     76  C   UNL A   1      52.587  27.109  26.785  1.00  0.00     0.002 A 
ATOM     77  C   UNL A   1      52.061  27.339  24.429  1.00  0.00     0.091 A 
ATOM     78  F   UNL A   1      49.853  27.974  23.784  1.00  0.00    -0.205 F 
ATOM     79  C   UNL A   1      52.986  27.075  25.452  1.00  0.00     0.022 A 
BRANCH  77  80
ATOM     80  S   UNL A   1      52.653  27.189  22.739  1.00  0.00     0.127 S 
ATOM     81  O   UNL A   1      51.413  26.909  22.016  1.00  0.00    -0.237 OA
ATOM     82  O   UNL A   1      53.214  28.518  22.494  1.00  0.00    -0.237 OA
ATOM     83  O   UNL A   1      53.628  26.108  22.747  1.00  0.00    -0.744 OA
ENDBRANCH  77  80
ENDBRANCH  59  73
BRANCH  60  84
ATOM     84  C   UNL A   1      40.751  29.048  28.602  1.00  0.00     0.023 A 
ATOM     85  C   UNL A   1      39.792  29.484  27.667  1.00  0.00     0.012 A 
ATOM     86  C   UNL A   1      40.355  28.815  29.933  1.00  0.00     0.148 A 
ATOM     87  C   UNL A   1      38.473  29.718  28.057  1.00  0.00     0.002 A 
ATOM     88  C   UNL A   1      39.027  28.998  30.303  1.00  0.00     0.091 A 
ATOM     89  F   UNL A   1      41.285  28.417  30.811  1.00  0.00    -0.205 F 
ATOM     90  C   UNL A   1      38.089  29.466  29.371  1.00  0.00     0.022 A 
BRANCH  88  91
ATOM     91  S   UNL A   1      38.418  28.596  31.944  1.00  0.00     0.127 S 
ATOM     92  O   UNL A   1      38.716  27.169  32.031  1.00  0.00    -0.237 OA
ATOM     93  O   UNL A   1      39.249  29.452  32.790  1.00  0.00    -0.237 OA
ATOM     94  O   UNL A   1      37.004  28.943  31.936  1.00  0.00    -0.744 OA
ENDBRANCH  88  91
ENDBRANCH  60  84
BRANCH  72  95
ATOM     95  C   UNL A   1      46.402  33.151  28.683  1.00  0.00     0.023 A 
ATOM     96  C   UNL A   1      46.767  33.463  30.007  1.00  0.00     0.012 A 
ATOM     97  C   UNL A   1      46.303  34.188  27.732  1.00  0.00     0.148 A 
ATOM     98  C   UNL A   1      46.984  34.787  30.390  1.00  0.00     0.002 A 
ATOM     99  C   UNL A   1      46.575  35.497  28.108  1.00  0.00     0.091 A 
ATOM    100  F   UNL A   1      45.940  33.874  26.480  1.00  0.00    -0.205 F 
ATOM    101  C   UNL A   1      46.899  35.801  29.439  1.00  0.00     0.022 A 
BRANCH  99 102
ATOM    102  S   UNL A   1      46.589  36.853  26.930  1.00  0.00     0.127 S 
ATOM    103  O   UNL A   1      45.162  37.048  26.681  1.00  0.00    -0.237 OA
ATOM    104  O   UNL A   1      47.226  37.924  27.697  1.00  0.00    -0.237 OA
ATOM    105  O   UNL A   1      47.364  36.386  25.788  1.00  0.00    -0.744 OA
ENDBRANCH  99 102
ENDBRANCH  72  95
ENDBRANCH  46  47
ENDBRANCH  39  41
ENDBRANCH  38  39
ENDBRANCH  37  38
ENDBRANCH  36  37
ENDBRANCH  35  36
ENDBRANCH  34  35
ENDBRANCH  33  34
ENDBRANCH  32  33
ENDBRANCH   1  32
TORSDOF 28
ENDMDL
MODEL 2
REMARK VINA RESULT:      -9.6      2.469      8.898
REMARK SMILES C[C@@H](Oc1ccc(-c2ccccc2)cc1)C(=O)N1CCC[C@H](C(=O)OCCOCCOCCOCCOC(=O)c2ccc(-c3c4nc(c(-c5cccc(S(=O)(=O)[O-])c5F)c5ccc([nH]5)c(-c5cccc(S(=O)(=O)[O-])c5F)c5nc(c(-c6cccc(S(=O)(=O)[O-])c6F)c6ccc3[nH]6)C=C5)C=C4)cc2)C1
REMARK SMILES IDX 30 1 29 2 28 3 27 4 26 5 25 6 23 7 24 8 22 9 18 10 19 11
REMARK SMILES IDX 103 12 20 13 21 14 16 15 17 16 2 17 1 18 3 19 4 20 5 21
REMARK SMILES IDX 15 22 6 23 14 24 7 25 8 26 9 27 13 28 10 29 12 30 11 31
REMARK SMILES IDX 31 32 32 33 33 34 34 35 35 36 36 37 37 38 38 39 39 40 40 41
REMARK SMILES IDX 41 42 102 43 42 44 101 45 43 46 44 47 45 48 95 49 46 50
REMARK SMILES IDX 100 51 94 52 96 53 47 54 99 55 93 56 92 57 48 59 80 60 60 61
REMARK SMILES IDX 79 62 61 63 64 64 78 65 97 66 62 67 63 68 77 70 98 71 65 72
REMARK SMILES IDX 49 73 50 74 58 75 51 76 53 77 59 78 52 79 54 80 55 81 56 82
REMARK SMILES IDX 57 83 81 84 82 85 90 86 83 87 85 88 91 89 84 90 86 91 87 92
REMARK SMILES IDX 88 93 89 94 66 95 67 96 75 97 68 98 70 99 76 100 69 101
REMARK SMILES IDX 71 102 72 103 73 104 74 105
REMARK H PARENT 96 58 64 69
REMARK Flexibility Score: inf
ROOT
ATOM      1  C   UNL A   1      41.244  21.486  26.767  1.00  0.00     0.188 C 
ENDROOT
BRANCH   1   2
ATOM      2  C   UNL A   1      40.627  22.763  27.349  1.00  0.00     0.188 C 
BRANCH   2   3
ATOM      3  O   UNL A   1      39.567  23.370  26.651  1.00  0.00    -0.376 OA
BRANCH   3   4
ATOM      4  C   UNL A   1      38.475  22.612  26.156  1.00  0.00     0.202 C 
BRANCH   4   5
ATOM      5  C   UNL A   1      37.263  23.169  25.389  1.00  0.00     0.261 C 
BRANCH   5   6
ATOM      6  O   UNL A   1      36.001  23.263  26.061  1.00  0.00    -0.463 OA
BRANCH   6   7
ATOM      7  C   UNL A   1      35.271  22.128  26.149  1.00  0.00     0.310 C 
ATOM      8  O   UNL A   1      35.017  21.556  27.208  1.00  0.00    -0.252 OA
BRANCH   7   9
ATOM      9  C   UNL A   1      34.835  21.534  24.816  1.00  0.00     0.119 C 
ATOM     10  N   UNL A   1      32.559  22.391  24.911  1.00  0.00    -0.339 N 
ATOM     11  C   UNL A   1      31.926  21.081  24.835  1.00  0.00     0.119 C 
ATOM     12  C   UNL A   1      33.834  22.513  24.204  1.00  0.00     0.134 C 
ATOM     13  C   UNL A   1      32.853  19.987  25.345  1.00  0.00     0.022 C 
ATOM     14  C   UNL A   1      34.251  20.115  24.742  1.00  0.00     0.019 C 
BRANCH  10  15
ATOM     15  C   UNL A   1      32.087  23.323  25.831  1.00  0.00     0.263 C 
ATOM     16  O   UNL A   1      31.833  23.011  26.996  1.00  0.00    -0.271 OA
BRANCH  15  17
ATOM     17  C   UNL A   1      31.876  24.770  25.354  1.00  0.00     0.259 C 
ATOM     18  C   UNL A   1      30.843  24.844  24.232  1.00  0.00     0.064 C 
BRANCH  17  19
ATOM     19  O   UNL A   1      31.504  25.522  26.515  1.00  0.00    -0.481 OA
BRANCH  19  20
ATOM     20  C   UNL A   1      32.067  26.753  26.592  1.00  0.00     0.120 A 
ATOM     21  C   UNL A   1      33.412  26.902  26.273  1.00  0.00     0.047 A 
ATOM     22  C   UNL A   1      31.346  27.788  27.169  1.00  0.00     0.047 A 
ATOM     23  C   UNL A   1      34.043  28.121  26.530  1.00  0.00     0.012 A 
ATOM     24  C   UNL A   1      31.973  29.003  27.409  1.00  0.00     0.012 A 
ATOM     25  C   UNL A   1      33.334  29.185  27.115  1.00  0.00    -0.018 A 
BRANCH  25  26
ATOM     26  C   UNL A   1      33.988  30.452  27.463  1.00  0.00    -0.018 A 
ATOM     27  C   UNL A   1      35.373  30.529  27.669  1.00  0.00     0.009 A 
ATOM     28  C   UNL A   1      33.233  31.633  27.566  1.00  0.00     0.009 A 
ATOM     29  C   UNL A   1      35.984  31.754  27.947  1.00  0.00     0.001 A 
ATOM     30  C   UNL A   1      33.841  32.856  27.843  1.00  0.00     0.001 A 
ATOM     31  C   UNL A   1      35.219  32.916  28.028  1.00  0.00     0.000 A 
ENDBRANCH  25  26
ENDBRANCH  19  20
ENDBRANCH  17  19
ENDBRANCH  15  17
ENDBRANCH  10  15
ENDBRANCH   7   9
ENDBRANCH   6   7
ENDBRANCH   5   6
ENDBRANCH   4   5
ENDBRANCH   3   4
ENDBRANCH   2   3
ENDBRANCH   1   2
BRANCH   1  32
ATOM     32  O   UNL A   1      41.482  20.377  27.612  1.00  0.00    -0.377 OA
BRANCH  32  33
ATOM     33  C   UNL A   1      42.230  19.258  27.149  1.00  0.00     0.188 C 
BRANCH  33  34
ATOM     34  C   UNL A   1      42.142  18.807  25.679  1.00  0.00     0.188 C 
BRANCH  34  35
ATOM     35  O   UNL A   1      43.375  18.421  25.095  1.00  0.00    -0.376 OA
BRANCH  35  36
ATOM     36  C   UNL A   1      44.575  18.758  25.776  1.00  0.00     0.202 C 
BRANCH  36  37
ATOM     37  C   UNL A   1      45.544  19.739  25.096  1.00  0.00     0.261 C 
BRANCH  37  38
ATOM     38  O   UNL A   1      45.608  21.062  25.651  1.00  0.00    -0.460 OA
BRANCH  38  39
ATOM     39  C   UNL A   1      44.747  21.987  25.175  1.00  0.00     0.338 C 
ATOM     40  O   UNL A   1      43.722  21.789  24.556  1.00  0.00    -0.246 OA
BRANCH  39  41
ATOM     41  C   UNL A   1      45.166  23.303  25.703  1.00  0.00     0.060 A 
ATOM     42  C   UNL A   1      45.432  23.427  27.072  1.00  0.00     0.016 A 
ATOM     43  C   UNL A   1      45.271  24.406  24.855  1.00  0.00     0.016 A 
ATOM     44  C   UNL A   1      45.753  24.673  27.608  1.00  0.00     0.010 A 
ATOM     45  C   UNL A   1      45.574  25.658  25.397  1.00  0.00     0.010 A 
ATOM     46  C   UNL A   1      45.772  25.803  26.781  1.00  0.00    -0.014 A 
BRANCH  46  47
ATOM     47  C   UNL A   1      45.784  27.152  27.397  1.00  0.00     0.031 A 
ATOM     48  C   UNL A   1      44.493  27.695  27.949  1.00  0.00     0.074 A 
ATOM     49  C   UNL A   1      46.916  27.872  27.485  1.00  0.00     0.049 A 
ATOM     50  N   UNL A   1      44.253  28.847  28.517  1.00  0.00    -0.248 NA
ATOM     51  C   UNL A   1      43.313  26.819  27.845  1.00  0.00     0.031 C 
ATOM     52  C   UNL A   1      48.229  27.448  27.001  1.00  0.00     0.029 A 
ATOM     53  N   UNL A   1      47.133  29.126  27.999  1.00  0.00    -0.354 N 
ATOM     54  C   UNL A   1      42.894  28.849  28.808  1.00  0.00     0.074 A 
ATOM     55  C   UNL A   1      42.358  27.589  28.344  1.00  0.00     0.031 C 
ATOM     56  C   UNL A   1      49.111  28.439  27.218  1.00  0.00     0.029 A 
ATOM     57  C   UNL A   1      48.421  29.573  27.829  1.00  0.00     0.049 A 
ATOM     58  H   UNL A   1      46.432  29.653  28.446  1.00  0.00     0.167 HD
ATOM     59  C   UNL A   1      42.158  29.807  29.419  1.00  0.00     0.034 A 
ATOM     60  C   UNL A   1      48.971  30.770  28.113  1.00  0.00     0.034 A 
ATOM     61  C   UNL A   1      42.695  31.055  29.889  1.00  0.00     0.049 A 
ATOM     62  C   UNL A   1      48.122  31.834  28.765  1.00  0.00     0.074 A 
ATOM     63  C   UNL A   1      42.042  32.076  30.556  1.00  0.00     0.029 A 
ATOM     64  N   UNL A   1      44.011  31.461  29.728  1.00  0.00    -0.354 N 
ATOM     65  N   UNL A   1      46.864  31.782  29.129  1.00  0.00    -0.248 NA
ATOM     66  C   UNL A   1      48.783  33.110  29.079  1.00  0.00     0.031 C 
ATOM     67  C   UNL A   1      42.953  33.117  30.761  1.00  0.00     0.029 A 
ATOM     68  C   UNL A   1      44.186  32.723  30.268  1.00  0.00     0.049 A 
ATOM     69  H   UNL A   1      44.716  30.930  29.292  1.00  0.00     0.167 HD
ATOM     70  C   UNL A   1      46.594  32.998  29.751  1.00  0.00     0.074 A 
ATOM     71  C   UNL A   1      47.827  33.758  29.730  1.00  0.00     0.031 C 
ATOM     72  C   UNL A   1      45.431  33.448  30.283  1.00  0.00     0.034 A 
BRANCH  59  73
ATOM     73  C   UNL A   1      40.688  29.540  29.616  1.00  0.00     0.023 A 
ATOM     74  C   UNL A   1      39.839  29.407  28.498  1.00  0.00     0.012 A 
ATOM     75  C   UNL A   1      40.157  29.377  30.910  1.00  0.00     0.148 A 
ATOM     76  C   UNL A   1      38.479  29.151  28.667  1.00  0.00     0.002 A 
ATOM     77  C   UNL A   1      38.811  29.073  31.068  1.00  0.00     0.091 A 
ATOM     78  F   UNL A   1      40.976  29.531  31.961  1.00  0.00    -0.205 F 
ATOM     79  C   UNL A   1      37.968  28.974  29.950  1.00  0.00     0.022 A 
BRANCH  77  80
ATOM     80  S   UNL A   1      38.074  28.745  32.674  1.00  0.00     0.127 S 
ATOM     81  O   UNL A   1      38.868  29.610  33.545  1.00  0.00    -0.237 OA
ATOM     82  O   UNL A   1      36.694  29.187  32.471  1.00  0.00    -0.237 OA
ATOM     83  O   UNL A   1      38.229  27.316  32.905  1.00  0.00    -0.744 OA
ENDBRANCH  77  80
ENDBRANCH  59  73
BRANCH  60  84
ATOM     84  C   UNL A   1      50.406  31.028  27.804  1.00  0.00     0.023 A 
ATOM     85  C   UNL A   1      51.408  30.490  28.635  1.00  0.00     0.012 A 
ATOM     86  C   UNL A   1      50.782  31.809  26.695  1.00  0.00     0.148 A 
ATOM     87  C   UNL A   1      52.756  30.753  28.386  1.00  0.00     0.002 A 
ATOM     88  C   UNL A   1      52.128  32.022  26.421  1.00  0.00     0.091 A 
ATOM     89  F   UNL A   1      49.813  32.326  25.927  1.00  0.00    -0.205 F 
ATOM     90  C   UNL A   1      53.116  31.510  27.275  1.00  0.00     0.022 A 
BRANCH  88  91
ATOM     91  S   UNL A   1      52.689  32.893  24.954  1.00  0.00     0.127 S 
ATOM     92  O   UNL A   1      51.863  32.287  23.913  1.00  0.00    -0.237 OA
ATOM     93  O   UNL A   1      52.349  34.278  25.280  1.00  0.00    -0.237 OA
ATOM     94  O   UNL A   1      54.117  32.627  24.857  1.00  0.00    -0.744 OA
ENDBRANCH  88  91
ENDBRANCH  60  84
BRANCH  72  95
ATOM     95  C   UNL A   1      45.441  34.807  30.942  1.00  0.00     0.023 A 
ATOM     96  C   UNL A   1      45.838  34.942  32.286  1.00  0.00     0.012 A 
ATOM     97  C   UNL A   1      45.112  35.960  30.199  1.00  0.00     0.148 A 
ATOM     98  C   UNL A   1      45.863  36.198  32.895  1.00  0.00     0.002 A 
ATOM     99  C   UNL A   1      45.193  37.212  30.796  1.00  0.00     0.091 A 
ATOM    100  F   UNL A   1      44.722  35.811  28.925  1.00  0.00    -0.205 F 
ATOM    101  C   UNL A   1      45.552  37.331  32.148  1.00  0.00     0.022 A 
BRANCH  99 102
ATOM    102  S   UNL A   1      44.910  38.733  29.884  1.00  0.00     0.127 S 
ATOM    103  O   UNL A   1      45.268  39.746  30.876  1.00  0.00    -0.237 OA
ATOM    104  O   UNL A   1      45.854  38.608  28.773  1.00  0.00    -0.237 OA
ATOM    105  O   UNL A   1      43.508  38.712  29.491  1.00  0.00    -0.744 OA
ENDBRANCH  99 102
ENDBRANCH  72  95
ENDBRANCH  46  47
ENDBRANCH  39  41
ENDBRANCH  38  39
ENDBRANCH  37  38
ENDBRANCH  36  37
ENDBRANCH  35  36
ENDBRANCH  34  35
ENDBRANCH  33  34
ENDBRANCH  32  33
ENDBRANCH   1  32
TORSDOF 28
ENDMDL
MODEL 3
REMARK VINA RESULT:      -9.2      1.790      4.665
REMARK SMILES C[C@@H](Oc1ccc(-c2ccccc2)cc1)C(=O)N1CCC[C@H](C(=O)OCCOCCOCCOCCOC(=O)c2ccc(-c3c4nc(c(-c5cccc(S(=O)(=O)[O-])c5F)c5ccc([nH]5)c(-c5cccc(S(=O)(=O)[O-])c5F)c5nc(c(-c6cccc(S(=O)(=O)[O-])c6F)c6ccc3[nH]6)C=C5)C=C4)cc2)C1
REMARK SMILES IDX 30 1 29 2 28 3 27 4 26 5 25 6 23 7 24 8 22 9 18 10 19 11
REMARK SMILES IDX 103 12 20 13 21 14 16 15 17 16 2 17 1 18 3 19 4 20 5 21
REMARK SMILES IDX 15 22 6 23 14 24 7 25 8 26 9 27 13 28 10 29 12 30 11 31
REMARK SMILES IDX 31 32 32 33 33 34 34 35 35 36 36 37 37 38 38 39 39 40 40 41
REMARK SMILES IDX 41 42 102 43 42 44 101 45 43 46 44 47 45 48 95 49 46 50
REMARK SMILES IDX 100 51 94 52 96 53 47 54 99 55 93 56 92 57 48 59 80 60 60 61
REMARK SMILES IDX 79 62 61 63 64 64 78 65 97 66 62 67 63 68 77 70 98 71 65 72
REMARK SMILES IDX 49 73 50 74 58 75 51 76 53 77 59 78 52 79 54 80 55 81 56 82
REMARK SMILES IDX 57 83 81 84 82 85 90 86 83 87 85 88 91 89 84 90 86 91 87 92
REMARK SMILES IDX 88 93 89 94 66 95 67 96 75 97 68 98 70 99 76 100 69 101
REMARK SMILES IDX 71 102 72 103 73 104 74 105
REMARK H PARENT 96 58 64 69
REMARK Flexibility Score: inf
ROOT
ATOM      1  C   UNL A   1      40.633  24.364  27.632  1.00  0.00     0.188 C 
ENDROOT
BRANCH   1   2
ATOM      2  C   UNL A   1      39.119  24.588  27.533  1.00  0.00     0.188 C 
BRANCH   2   3
ATOM      3  O   UNL A   1      38.469  24.231  26.337  1.00  0.00    -0.376 OA
BRANCH   3   4
ATOM      4  C   UNL A   1      37.131  23.762  26.332  1.00  0.00     0.202 C 
BRANCH   4   5
ATOM      5  C   UNL A   1      36.060  24.099  25.279  1.00  0.00     0.261 C 
BRANCH   5   6
ATOM      6  O   UNL A   1      34.678  24.045  25.655  1.00  0.00    -0.463 OA
BRANCH   6   7
ATOM      7  C   UNL A   1      34.083  22.831  25.619  1.00  0.00     0.310 C 
ATOM      8  O   UNL A   1      33.347  22.401  26.505  1.00  0.00    -0.252 OA
BRANCH   7   9
ATOM      9  C   UNL A   1      34.452  21.966  24.420  1.00  0.00     0.119 C 
ATOM     10  N   UNL A   1      32.641  22.754  22.997  1.00  0.00    -0.339 N 
ATOM     11  C   UNL A   1      32.050  21.437  22.802  1.00  0.00     0.119 C 
ATOM     12  C   UNL A   1      34.093  22.769  23.171  1.00  0.00     0.134 C 
ATOM     13  C   UNL A   1      32.396  20.498  23.949  1.00  0.00     0.022 C 
ATOM     14  C   UNL A   1      33.888  20.544  24.275  1.00  0.00     0.019 C 
BRANCH  10  15
ATOM     15  C   UNL A   1      31.813  23.838  23.274  1.00  0.00     0.263 C 
ATOM     16  O   UNL A   1      30.665  23.685  23.696  1.00  0.00    -0.271 OA
BRANCH  15  17
ATOM     17  C   UNL A   1      32.364  25.252  23.028  1.00  0.00     0.259 C 
ATOM     18  C   UNL A   1      32.610  25.508  21.544  1.00  0.00     0.064 C 
BRANCH  17  19
ATOM     19  O   UNL A   1      31.415  26.156  23.607  1.00  0.00    -0.481 OA
BRANCH  19  20
ATOM     20  C   UNL A   1      31.954  27.078  24.443  1.00  0.00     0.120 A 
ATOM     21  C   UNL A   1      32.477  28.251  23.909  1.00  0.00     0.047 A 
ATOM     22  C   UNL A   1      32.145  26.748  25.776  1.00  0.00     0.047 A 
ATOM     23  C   UNL A   1      33.198  29.114  24.735  1.00  0.00     0.012 A 
ATOM     24  C   UNL A   1      32.849  27.617  26.598  1.00  0.00     0.012 A 
ATOM     25  C   UNL A   1      33.406  28.802  26.090  1.00  0.00    -0.018 A 
BRANCH  25  26
ATOM     26  C   UNL A   1      34.221  29.654  26.964  1.00  0.00    -0.018 A 
ATOM     27  C   UNL A   1      35.540  29.313  27.296  1.00  0.00     0.009 A 
ATOM     28  C   UNL A   1      33.698  30.858  27.466  1.00  0.00     0.009 A 
ATOM     29  C   UNL A   1      36.317  30.162  28.087  1.00  0.00     0.001 A 
ATOM     30  C   UNL A   1      34.473  31.707  28.255  1.00  0.00     0.001 A 
ATOM     31  C   UNL A   1      35.785  31.360  28.561  1.00  0.00     0.000 A 
ENDBRANCH  25  26
ENDBRANCH  19  20
ENDBRANCH  17  19
ENDBRANCH  15  17
ENDBRANCH  10  15
ENDBRANCH   7   9
ENDBRANCH   6   7
ENDBRANCH   5   6
ENDBRANCH   4   5
ENDBRANCH   3   4
ENDBRANCH   2   3
ENDBRANCH   1   2
BRANCH   1  32
ATOM     32  O   UNL A   1      41.129  23.251  28.351  1.00  0.00    -0.377 OA
BRANCH  32  33
ATOM     33  C   UNL A   1      41.423  22.029  27.684  1.00  0.00     0.188 C 
BRANCH  33  34
ATOM     34  C   UNL A   1      40.495  21.491  26.580  1.00  0.00     0.188 C 
BRANCH  34  35
ATOM     35  O   UNL A   1      40.640  20.110  26.295  1.00  0.00    -0.376 OA
BRANCH  35  36
ATOM     36  C   UNL A   1      41.893  19.497  26.561  1.00  0.00     0.202 C 
BRANCH  36  37
ATOM     37  C   UNL A   1      42.801  19.155  25.368  1.00  0.00     0.261 C 
BRANCH  37  38
ATOM     38  O   UNL A   1      44.175  19.556  25.476  1.00  0.00    -0.460 OA
BRANCH  38  39
ATOM     39  C   UNL A   1      44.655  20.413  24.548  1.00  0.00     0.338 C 
ATOM     40  O   UNL A   1      44.858  20.187  23.373  1.00  0.00    -0.246 OA
BRANCH  39  41
ATOM     41  C   UNL A   1      44.720  21.753  25.166  1.00  0.00     0.060 A 
ATOM     42  C   UNL A   1      44.353  22.868  24.402  1.00  0.00     0.016 A 
ATOM     43  C   UNL A   1      45.161  21.907  26.482  1.00  0.00     0.016 A 
ATOM     44  C   UNL A   1      44.478  24.150  24.935  1.00  0.00     0.010 A 
ATOM     45  C   UNL A   1      45.304  23.194  27.008  1.00  0.00     0.010 A 
ATOM     46  C   UNL A   1      45.006  24.320  26.221  1.00  0.00    -0.014 A 
BRANCH  46  47
ATOM     47  C   UNL A   1      45.444  25.670  26.652  1.00  0.00     0.031 A 
ATOM     48  C   UNL A   1      46.843  26.108  26.313  1.00  0.00     0.074 A 
ATOM     49  C   UNL A   1      44.614  26.498  27.311  1.00  0.00     0.049 A 
ATOM     50  N   UNL A   1      47.453  27.228  26.595  1.00  0.00    -0.248 NA
ATOM     51  C   UNL A   1      47.666  25.151  25.554  1.00  0.00     0.031 C 
ATOM     52  C   UNL A   1      43.233  26.194  27.683  1.00  0.00     0.029 A 
ATOM     53  N   UNL A   1      44.826  27.762  27.800  1.00  0.00    -0.354 N 
ATOM     54  C   UNL A   1      48.737  27.100  26.078  1.00  0.00     0.074 A 
ATOM     55  C   UNL A   1      48.824  25.788  25.476  1.00  0.00     0.031 C 
ATOM     56  C   UNL A   1      42.729  27.235  28.368  1.00  0.00     0.029 A 
ATOM     57  C   UNL A   1      43.758  28.264  28.504  1.00  0.00     0.049 A 
ATOM     58  H   UNL A   1      45.663  28.261  27.660  1.00  0.00     0.167 HD
ATOM     59  C   UNL A   1      49.750  27.997  26.090  1.00  0.00     0.034 A 
ATOM     60  C   UNL A   1      43.637  29.413  29.199  1.00  0.00     0.034 A 
ATOM     61  C   UNL A   1      49.659  29.305  26.680  1.00  0.00     0.049 A 
ATOM     62  C   UNL A   1      44.792  30.384  29.225  1.00  0.00     0.074 A 
ATOM     63  C   UNL A   1      50.615  30.304  26.711  1.00  0.00     0.029 A 
ATOM     64  N   UNL A   1      48.551  29.792  27.357  1.00  0.00    -0.354 N 
ATOM     65  N   UNL A   1      45.963  30.292  28.643  1.00  0.00    -0.248 NA
ATOM     66  C   UNL A   1      44.592  31.633  29.974  1.00  0.00     0.031 C 
ATOM     67  C   UNL A   1      50.101  31.379  27.443  1.00  0.00     0.029 A 
ATOM     68  C   UNL A   1      48.805  31.069  27.823  1.00  0.00     0.049 A 
ATOM     69  H   UNL A   1      47.708  29.300  27.488  1.00  0.00     0.167 HD
ATOM     70  C   UNL A   1      46.622  31.487  28.920  1.00  0.00     0.074 A 
ATOM     71  C   UNL A   1      45.710  32.292  29.706  1.00  0.00     0.031 C 
ATOM     72  C   UNL A   1      47.870  31.879  28.564  1.00  0.00     0.034 A 
BRANCH  59  73
ATOM     73  C   UNL A   1      51.050  27.593  25.442  1.00  0.00     0.023 A 
ATOM     74  C   UNL A   1      52.101  27.079  26.229  1.00  0.00     0.012 A 
ATOM     75  C   UNL A   1      51.212  27.682  24.046  1.00  0.00     0.148 A 
ATOM     76  C   UNL A   1      53.304  26.694  25.641  1.00  0.00     0.002 A 
ATOM     77  C   UNL A   1      52.396  27.250  23.462  1.00  0.00     0.091 A 
ATOM     78  F   UNL A   1      50.210  28.196  23.318  1.00  0.00    -0.205 F 
ATOM     79  C   UNL A   1      53.448  26.769  24.259  1.00  0.00     0.022 A 
BRANCH  77  80
ATOM     80  S   UNL A   1      52.648  27.229  21.684  1.00  0.00     0.127 S 
ATOM     81  O   UNL A   1      53.755  26.281  21.554  1.00  0.00    -0.237 OA
ATOM     82  O   UNL A   1      51.360  26.732  21.199  1.00  0.00    -0.237 OA
ATOM     83  O   UNL A   1      52.955  28.600  21.303  1.00  0.00    -0.744 OA
ENDBRANCH  77  80
ENDBRANCH  59  73
BRANCH  60  84
ATOM     84  C   UNL A   1      42.366  29.726  29.914  1.00  0.00     0.023 A 
ATOM     85  C   UNL A   1      41.309  30.347  29.222  1.00  0.00     0.012 A 
ATOM     86  C   UNL A   1      42.205  29.415  31.277  1.00  0.00     0.148 A 
ATOM     87  C   UNL A   1      40.127  30.685  29.883  1.00  0.00     0.002 A 
ATOM     88  C   UNL A   1      41.005  29.704  31.917  1.00  0.00     0.091 A 
ATOM     89  F   UNL A   1      43.229  28.839  31.922  1.00  0.00    -0.205 F 
ATOM     90  C   UNL A   1      39.972  30.355  31.227  1.00  0.00     0.022 A 
BRANCH  88  91
ATOM     91  S   UNL A   1      40.674  29.221  33.615  1.00  0.00     0.127 S 
ATOM     92  O   UNL A   1      40.847  30.486  34.324  1.00  0.00    -0.237 OA
ATOM     93  O   UNL A   1      39.293  28.748  33.528  1.00  0.00    -0.237 OA
ATOM     94  O   UNL A   1      41.649  28.187  33.929  1.00  0.00    -0.744 OA
ENDBRANCH  88  91
ENDBRANCH  60  84
BRANCH  72  95
ATOM     95  C   UNL A   1      48.314  33.264  28.969  1.00  0.00     0.023 A 
ATOM     96  C   UNL A   1      48.993  33.465  30.186  1.00  0.00     0.012 A 
ATOM     97  C   UNL A   1      48.107  34.359  28.105  1.00  0.00     0.148 A 
ATOM     98  C   UNL A   1      49.418  34.741  30.559  1.00  0.00     0.002 A 
ATOM     99  C   UNL A   1      48.582  35.616  28.458  1.00  0.00     0.091 A 
ATOM    100  F   UNL A   1      47.445  34.152  26.957  1.00  0.00    -0.205 F 
ATOM    101  C   UNL A   1      49.223  35.812  29.691  1.00  0.00     0.022 A 
BRANCH  99 102
ATOM    102  S   UNL A   1      48.467  37.032  27.358  1.00  0.00     0.127 S 
ATOM    103  O   UNL A   1      47.020  37.222  27.268  1.00  0.00    -0.237 OA
ATOM    104  O   UNL A   1      49.172  38.069  28.112  1.00  0.00    -0.237 OA
ATOM    105  O   UNL A   1      49.123  36.635  26.120  1.00  0.00    -0.744 OA
ENDBRANCH  99 102
ENDBRANCH  72  95
ENDBRANCH  46  47
ENDBRANCH  39  41
ENDBRANCH  38  39
ENDBRANCH  37  38
ENDBRANCH  36  37
ENDBRANCH  35  36
ENDBRANCH  34  35
ENDBRANCH  33  34
ENDBRANCH  32  33
ENDBRANCH   1  32
TORSDOF 28
ENDMDL
