MODEL 1
REMARK VINA RESULT:      -9.3      0.000      0.000
REMARK SMILES CCn1cc(CC(=O)OCCOCCOCCOCCOC(=O)c2ccc(-c3c4nc(c(-c5cccc(S(=O)(=O)[O-])c5F)c5ccc([nH]5)c(-c5cccc(S(=O)(=O)[O-])c5F)c5nc(c(-c6cccc(S(=O)(=O)[O-])c6F)c6ccc3[nH]6)C=C5)C=C4)cc2)c2ccccc21
REMARK SMILES IDX 16 1 15 2 14 3 13 4 12 5 11 6 10 7 9 8 7 9 8 10 6 11 5 12
REMARK SMILES IDX 3 13 4 14 92 15 87 16 91 17 88 18 90 19 89 20 2 21 1 22
REMARK SMILES IDX 17 23 18 24 19 25 20 26 21 27 22 28 23 29 24 30 25 31 86 32
REMARK SMILES IDX 26 33 85 34 27 35 28 36 29 37 79 38 30 39 84 40 78 41 80 42
REMARK SMILES IDX 31 43 83 44 77 45 76 46 32 48 64 49 44 50 63 51 45 52 48 53
REMARK SMILES IDX 62 54 81 55 46 56 47 57 61 59 82 60 49 61 33 62 34 63 42 64
REMARK SMILES IDX 35 65 37 66 43 67 36 68 38 69 39 70 40 71 41 72 65 73 66 74
REMARK SMILES IDX 74 75 67 76 69 77 75 78 68 79 70 80 71 81 72 82 73 83 50 84
REMARK SMILES IDX 51 85 59 86 52 87 54 88 60 89 53 90 55 91 56 92 57 93 58 94
REMARK H PARENT 80 47 48 58
REMARK Flexibility Score: inf
ROOT
ATOM      1  C   UNL A   1      38.084  23.177  25.769  1.00  0.00     0.188 C 
ENDROOT
BRANCH   1   2
ATOM      2  O   UNL A   1      36.696  23.404  25.701  1.00  0.00    -0.377 OA
BRANCH   2   3
ATOM      3  C   UNL A   1      36.075  23.291  24.439  1.00  0.00     0.188 C 
BRANCH   3   4
ATOM      4  C   UNL A   1      34.894  22.355  24.158  1.00  0.00     0.188 C 
BRANCH   4   5
ATOM      5  O   UNL A   1      34.448  21.620  25.273  1.00  0.00    -0.376 OA
BRANCH   5   6
ATOM      6  C   UNL A   1      33.170  21.012  25.252  1.00  0.00     0.202 C 
BRANCH   6   7
ATOM      7  C   UNL A   1      31.863  21.836  25.237  1.00  0.00     0.261 C 
BRANCH   7   8
ATOM      8  O   UNL A   1      31.939  23.270  25.370  1.00  0.00    -0.463 OA
BRANCH   8   9
ATOM      9  C   UNL A   1      31.537  24.033  24.331  1.00  0.00     0.310 C 
ATOM     10  O   UNL A   1      32.033  23.953  23.208  1.00  0.00    -0.252 OA
BRANCH   9  11
ATOM     11  C   UNL A   1      30.392  25.006  24.615  1.00  0.00     0.160 C 
BRANCH  11  12
ATOM     12  C   UNL A   1      30.567  26.498  24.445  1.00  0.00    -0.011 A 
ATOM     13  N   UNL A   1      30.516  28.568  23.576  1.00  0.00    -0.347 N 
ATOM     14  C   UNL A   1      30.248  27.244  23.324  1.00  0.00     0.091 A 
ATOM     15  C   UNL A   1      31.103  28.706  24.815  1.00  0.00     0.048 A 
ATOM     16  C   UNL A   1      31.019  27.454  25.435  1.00  0.00     0.003 A 
ATOM     17  C   UNL A   1      31.687  29.821  25.445  1.00  0.00     0.027 A 
ATOM     18  C   UNL A   1      31.442  27.358  26.783  1.00  0.00     0.010 A 
ATOM     19  C   UNL A   1      32.176  29.669  26.744  1.00  0.00     0.002 A 
ATOM     20  C   UNL A   1      32.036  28.460  27.415  1.00  0.00     0.001 A 
BRANCH  13  21
ATOM     21  C   UNL A   1      30.104  29.665  22.718  1.00  0.00     0.119 C 
ATOM     22  C   UNL A   1      28.870  30.396  23.206  1.00  0.00     0.027 C 
ENDBRANCH  13  21
ENDBRANCH  11  12
ENDBRANCH   9  11
ENDBRANCH   8   9
ENDBRANCH   7   8
ENDBRANCH   6   7
ENDBRANCH   5   6
ENDBRANCH   4   5
ENDBRANCH   3   4
ENDBRANCH   2   3
ENDBRANCH   1   2
BRANCH   1  23
ATOM     23  C   UNL A   1      38.518  21.713  25.871  1.00  0.00     0.188 C 
BRANCH  23  24
ATOM     24  O   UNL A   1      39.930  21.559  25.895  1.00  0.00    -0.376 OA
BRANCH  24  25
ATOM     25  C   UNL A   1      40.594  21.465  27.148  1.00  0.00     0.202 C 
BRANCH  25  26
ATOM     26  C   UNL A   1      41.308  22.642  27.852  1.00  0.00     0.261 C 
BRANCH  26  27
ATOM     27  O   UNL A   1      42.616  22.955  27.377  1.00  0.00    -0.460 OA
BRANCH  27  28
ATOM     28  C   UNL A   1      42.813  23.651  26.237  1.00  0.00     0.338 C 
ATOM     29  O   UNL A   1      42.696  23.259  25.092  1.00  0.00    -0.246 OA
BRANCH  28  30
ATOM     30  C   UNL A   1      42.882  25.058  26.700  1.00  0.00     0.060 A 
ATOM     31  C   UNL A   1      43.727  25.407  27.761  1.00  0.00     0.016 A 
ATOM     32  C   UNL A   1      41.800  25.876  26.343  1.00  0.00     0.016 A 
ATOM     33  C   UNL A   1      43.380  26.495  28.559  1.00  0.00     0.010 A 
ATOM     34  C   UNL A   1      41.450  26.953  27.154  1.00  0.00     0.010 A 
ATOM     35  C   UNL A   1      42.208  27.234  28.291  1.00  0.00    -0.014 A 
BRANCH  35  36
ATOM     36  C   UNL A   1      42.015  28.478  29.048  1.00  0.00     0.031 A 
ATOM     37  C   UNL A   1      43.074  29.457  28.696  1.00  0.00     0.074 A 
ATOM     38  C   UNL A   1      40.972  28.865  29.813  1.00  0.00     0.049 A 
ATOM     39  N   UNL A   1      44.018  29.920  29.447  1.00  0.00    -0.248 NA
ATOM     40  C   UNL A   1      43.197  29.799  27.268  1.00  0.00     0.031 C 
ATOM     41  C   UNL A   1      39.690  28.182  29.986  1.00  0.00     0.029 A 
ATOM     42  N   UNL A   1      40.791  30.045  30.497  1.00  0.00    -0.354 N 
ATOM     43  C   UNL A   1      44.721  30.788  28.621  1.00  0.00     0.074 A 
ATOM     44  C   UNL A   1      44.319  30.515  27.265  1.00  0.00     0.031 C 
ATOM     45  C   UNL A   1      38.793  29.056  30.502  1.00  0.00     0.029 A 
ATOM     46  C   UNL A   1      39.460  30.311  30.809  1.00  0.00     0.049 A 
ATOM     47  H   UNL A   1      41.534  30.644  30.743  1.00  0.00     0.167 HD
ATOM     48  C   UNL A   1      45.346  31.890  29.106  1.00  0.00     0.034 A 
ATOM     49  C   UNL A   1      38.940  31.502  31.206  1.00  0.00     0.034 A 
ATOM     50  C   UNL A   1      45.456  31.892  30.532  1.00  0.00     0.049 A 
ATOM     51  C   UNL A   1      40.037  32.319  31.773  1.00  0.00     0.074 A 
ATOM     52  C   UNL A   1      46.254  31.312  31.490  1.00  0.00     0.029 A 
ATOM     53  N   UNL A   1      44.345  32.382  31.159  1.00  0.00    -0.354 N 
ATOM     54  N   UNL A   1      40.664  32.031  32.878  1.00  0.00    -0.248 NA
ATOM     55  C   UNL A   1      40.614  33.406  30.988  1.00  0.00     0.031 C 
ATOM     56  C   UNL A   1      45.515  31.358  32.708  1.00  0.00     0.029 A 
ATOM     57  C   UNL A   1      44.285  31.962  32.459  1.00  0.00     0.049 A 
ATOM     58  H   UNL A   1      43.675  32.962  30.731  1.00  0.00     0.167 HD
ATOM     59  C   UNL A   1      41.914  32.593  32.708  1.00  0.00     0.074 A 
ATOM     60  C   UNL A   1      41.763  33.573  31.646  1.00  0.00     0.031 C 
ATOM     61  C   UNL A   1      43.029  31.969  33.175  1.00  0.00     0.034 A 
BRANCH  48  62
ATOM     62  C   UNL A   1      45.415  33.170  28.321  1.00  0.00     0.023 A 
ATOM     63  C   UNL A   1      46.674  33.736  28.062  1.00  0.00     0.012 A 
ATOM     64  C   UNL A   1      44.273  33.955  28.046  1.00  0.00     0.148 A 
ATOM     65  C   UNL A   1      46.785  35.017  27.507  1.00  0.00     0.002 A 
ATOM     66  C   UNL A   1      44.383  35.179  27.404  1.00  0.00     0.091 A 
ATOM     67  F   UNL A   1      43.080  33.579  28.525  1.00  0.00    -0.205 F 
ATOM     68  C   UNL A   1      45.641  35.725  27.149  1.00  0.00     0.022 A 
BRANCH  66  69
ATOM     69  S   UNL A   1      42.926  36.071  26.857  1.00  0.00     0.127 S 
ATOM     70  O   UNL A   1      43.479  37.391  26.573  1.00  0.00    -0.237 OA
ATOM     71  O   UNL A   1      42.522  35.299  25.683  1.00  0.00    -0.237 OA
ATOM     72  O   UNL A   1      41.992  35.984  27.974  1.00  0.00    -0.744 OA
ENDBRANCH  66  69
ENDBRANCH  48  62
BRANCH  49  73
ATOM     73  C   UNL A   1      37.596  32.109  30.995  1.00  0.00     0.023 A 
ATOM     74  C   UNL A   1      36.867  31.772  29.830  1.00  0.00     0.012 A 
ATOM     75  C   UNL A   1      36.899  32.754  32.038  1.00  0.00     0.148 A 
ATOM     76  C   UNL A   1      35.487  31.996  29.739  1.00  0.00     0.002 A 
ATOM     77  C   UNL A   1      35.529  32.991  31.936  1.00  0.00     0.091 A 
ATOM     78  F   UNL A   1      37.548  33.045  33.171  1.00  0.00    -0.205 F 
ATOM     79  C   UNL A   1      34.815  32.594  30.799  1.00  0.00     0.022 A 
BRANCH  77  80
ATOM     80  S   UNL A   1      34.603  33.766  33.269  1.00  0.00     0.127 S 
ATOM     81  O   UNL A   1      35.202  33.157  34.457  1.00  0.00    -0.237 OA
ATOM     82  O   UNL A   1      34.920  35.177  33.079  1.00  0.00    -0.237 OA
ATOM     83  O   UNL A   1      33.213  33.386  33.046  1.00  0.00    -0.744 OA
ENDBRANCH  77  80
ENDBRANCH  49  73
BRANCH  61  84
ATOM     84  C   UNL A   1      42.881  31.068  34.359  1.00  0.00     0.023 A 
ATOM     85  C   UNL A   1      42.970  31.530  35.686  1.00  0.00     0.012 A 
ATOM     86  C   UNL A   1      42.550  29.725  34.116  1.00  0.00     0.148 A 
ATOM     87  C   UNL A   1      42.743  30.659  36.753  1.00  0.00     0.002 A 
ATOM     88  C   UNL A   1      42.285  28.873  35.177  1.00  0.00     0.091 A 
ATOM     89  F   UNL A   1      42.483  29.310  32.842  1.00  0.00    -0.205 F 
ATOM     90  C   UNL A   1      42.387  29.334  36.499  1.00  0.00     0.022 A 
BRANCH  88  91
ATOM     91  S   UNL A   1      41.728  27.188  34.917  1.00  0.00     0.127 S 
ATOM     92  O   UNL A   1      42.919  26.554  34.357  1.00  0.00    -0.237 OA
ATOM     93  O   UNL A   1      41.389  26.763  36.277  1.00  0.00    -0.237 OA
ATOM     94  O   UNL A   1      40.585  27.274  34.017  1.00  0.00    -0.744 OA
ENDBRANCH  88  91
ENDBRANCH  61  84
ENDBRANCH  35  36
ENDBRANCH  28  30
ENDBRANCH  27  28
ENDBRANCH  26  27
ENDBRANCH  25  26
ENDBRANCH  24  25
ENDBRANCH  23  24
ENDBRANCH   1  23
TORSDOF 25
ENDMDL
MODEL 2
REMARK VINA RESULT:      -9.3      2.084      2.407
REMARK SMILES CCn1cc(CC(=O)OCCOCCOCCOCCOC(=O)c2ccc(-c3c4nc(c(-c5cccc(S(=O)(=O)[O-])c5F)c5ccc([nH]5)c(-c5cccc(S(=O)(=O)[O-])c5F)c5nc(c(-c6cccc(S(=O)(=O)[O-])c6F)c6ccc3[nH]6)C=C5)C=C4)cc2)c2ccccc21
REMARK SMILES IDX 16 1 15 2 14 3 13 4 12 5 11 6 10 7 9 8 7 9 8 10 6 11 5 12
REMARK SMILES IDX 3 13 4 14 92 15 87 16 91 17 88 18 90 19 89 20 2 21 1 22
REMARK SMILES IDX 17 23 18 24 19 25 20 26 21 27 22 28 23 29 24 30 25 31 86 32
REMARK SMILES IDX 26 33 85 34 27 35 28 36 29 37 79 38 30 39 84 40 78 41 80 42
REMARK SMILES IDX 31 43 83 44 77 45 76 46 32 48 64 49 44 50 63 51 45 52 48 53
REMARK SMILES IDX 62 54 81 55 46 56 47 57 61 59 82 60 49 61 33 62 34 63 42 64
REMARK SMILES IDX 35 65 37 66 43 67 36 68 38 69 39 70 40 71 41 72 65 73 66 74
REMARK SMILES IDX 74 75 67 76 69 77 75 78 68 79 70 80 71 81 72 82 73 83 50 84
REMARK SMILES IDX 51 85 59 86 52 87 54 88 60 89 53 90 55 91 56 92 57 93 58 94
REMARK H PARENT 80 47 48 58
REMARK Flexibility Score: inf
ROOT
ATOM      1  C   UNL A   1      37.969  23.409  25.934  1.00  0.00     0.188 C 
ENDROOT
BRANCH   1   2
ATOM      2  O   UNL A   1      36.661  23.925  25.858  1.00  0.00    -0.377 OA
BRANCH   2   3
ATOM      3  C   UNL A   1      35.976  23.793  24.632  1.00  0.00     0.188 C 
BRANCH   3   4
ATOM      4  C   UNL A   1      34.670  23.008  24.473  1.00  0.00     0.188 C 
BRANCH   4   5
ATOM      5  O   UNL A   1      34.322  22.213  25.583  1.00  0.00    -0.376 OA
BRANCH   5   6
ATOM      6  C   UNL A   1      33.430  21.126  25.422  1.00  0.00     0.202 C 
BRANCH   6   7
ATOM      7  C   UNL A   1      31.930  21.328  25.115  1.00  0.00     0.261 C 
BRANCH   7   8
ATOM      8  O   UNL A   1      31.271  22.517  25.598  1.00  0.00    -0.463 OA
BRANCH   8   9
ATOM      9  C   UNL A   1      30.955  23.482  24.707  1.00  0.00     0.310 C 
ATOM     10  O   UNL A   1      31.073  23.336  23.491  1.00  0.00    -0.252 OA
BRANCH   9  11
ATOM     11  C   UNL A   1      30.409  24.784  25.292  1.00  0.00     0.160 C 
BRANCH  11  12
ATOM     12  C   UNL A   1      30.422  26.071  24.497  1.00  0.00    -0.011 A 
ATOM     13  N   UNL A   1      29.744  27.919  23.418  1.00  0.00    -0.347 N 
ATOM     14  C   UNL A   1      29.318  26.791  24.076  1.00  0.00     0.091 A 
ATOM     15  C   UNL A   1      31.118  27.915  23.307  1.00  0.00     0.048 A 
ATOM     16  C   UNL A   1      31.575  26.848  24.091  1.00  0.00     0.003 A 
ATOM     17  C   UNL A   1      31.994  28.758  22.599  1.00  0.00     0.027 A 
ATOM     18  C   UNL A   1      32.974  26.701  24.250  1.00  0.00     0.010 A 
ATOM     19  C   UNL A   1      33.368  28.530  22.707  1.00  0.00     0.002 A 
ATOM     20  C   UNL A   1      33.854  27.529  23.539  1.00  0.00     0.001 A 
BRANCH  13  21
ATOM     21  C   UNL A   1      28.878  29.019  23.030  1.00  0.00     0.119 C 
ATOM     22  C   UNL A   1      27.403  28.668  23.032  1.00  0.00     0.027 C 
ENDBRANCH  13  21
ENDBRANCH  11  12
ENDBRANCH   9  11
ENDBRANCH   8   9
ENDBRANCH   7   8
ENDBRANCH   6   7
ENDBRANCH   5   6
ENDBRANCH   4   5
ENDBRANCH   3   4
ENDBRANCH   2   3
ENDBRANCH   1   2
BRANCH   1  23
ATOM     23  C   UNL A   1      38.101  21.893  25.760  1.00  0.00     0.188 C 
BRANCH  23  24
ATOM     24  O   UNL A   1      39.446  21.477  25.573  1.00  0.00    -0.376 OA
BRANCH  24  25
ATOM     25  C   UNL A   1      40.190  21.017  26.692  1.00  0.00     0.202 C 
BRANCH  25  26
ATOM     26  C   UNL A   1      40.980  21.933  27.656  1.00  0.00     0.261 C 
BRANCH  26  27
ATOM     27  O   UNL A   1      42.313  22.256  27.261  1.00  0.00    -0.460 OA
BRANCH  27  28
ATOM     28  C   UNL A   1      42.576  22.914  26.111  1.00  0.00     0.338 C 
ATOM     29  O   UNL A   1      42.571  22.472  24.979  1.00  0.00    -0.246 OA
BRANCH  28  30
ATOM     30  C   UNL A   1      42.551  24.339  26.517  1.00  0.00     0.060 A 
ATOM     31  C   UNL A   1      43.442  24.808  27.491  1.00  0.00     0.016 A 
ATOM     32  C   UNL A   1      41.374  25.042  26.223  1.00  0.00     0.016 A 
ATOM     33  C   UNL A   1      43.061  25.894  28.277  1.00  0.00     0.010 A 
ATOM     34  C   UNL A   1      40.990  26.116  27.022  1.00  0.00     0.010 A 
ATOM     35  C   UNL A   1      41.808  26.513  28.081  1.00  0.00    -0.014 A 
BRANCH  35  36
ATOM     36  C   UNL A   1      41.561  27.765  28.808  1.00  0.00     0.031 A 
ATOM     37  C   UNL A   1      42.477  28.826  28.318  1.00  0.00     0.074 A 
ATOM     38  C   UNL A   1      40.560  28.084  29.656  1.00  0.00     0.049 A 
ATOM     39  N   UNL A   1      43.437  29.412  28.956  1.00  0.00    -0.248 NA
ATOM     40  C   UNL A   1      42.431  29.112  26.873  1.00  0.00     0.031 C 
ATOM     41  C   UNL A   1      39.376  27.288  29.978  1.00  0.00     0.029 A 
ATOM     42  N   UNL A   1      40.326  29.270  30.311  1.00  0.00    -0.354 N 
ATOM     43  C   UNL A   1      43.968  30.306  28.034  1.00  0.00     0.074 A 
ATOM     44  C   UNL A   1      43.469  29.932  26.735  1.00  0.00     0.031 C 
ATOM     45  C   UNL A   1      38.447  28.093  30.547  1.00  0.00     0.029 A 
ATOM     46  C   UNL A   1      39.009  29.420  30.742  1.00  0.00     0.049 A 
ATOM     47  H   UNL A   1      41.023  29.950  30.461  1.00  0.00     0.167 HD
ATOM     48  C   UNL A   1      44.519  31.485  28.415  1.00  0.00     0.034 A 
ATOM     49  C   UNL A   1      38.410  30.572  31.143  1.00  0.00     0.034 A 
ATOM     50  C   UNL A   1      44.761  31.563  29.822  1.00  0.00     0.049 A 
ATOM     51  C   UNL A   1      39.468  31.517  31.571  1.00  0.00     0.074 A 
ATOM     52  C   UNL A   1      45.701  31.108  30.718  1.00  0.00     0.029 A 
ATOM     53  N   UNL A   1      43.671  31.971  30.537  1.00  0.00    -0.354 N 
ATOM     54  N   UNL A   1      40.222  31.342  32.619  1.00  0.00    -0.248 NA
ATOM     55  C   UNL A   1      39.855  32.618  30.694  1.00  0.00     0.031 C 
ATOM     56  C   UNL A   1      45.078  31.138  32.001  1.00  0.00     0.029 A 
ATOM     57  C   UNL A   1      43.775  31.607  31.851  1.00  0.00     0.049 A 
ATOM     58  H   UNL A   1      42.908  32.462  30.155  1.00  0.00     0.167 HD
ATOM     59  C   UNL A   1      41.386  32.015  32.307  1.00  0.00     0.074 A 
ATOM     60  C   UNL A   1      41.038  32.926  31.230  1.00  0.00     0.031 C 
ATOM     61  C   UNL A   1      42.597  31.525  32.685  1.00  0.00     0.034 A 
BRANCH  48  62
ATOM     62  C   UNL A   1      44.385  32.727  27.582  1.00  0.00     0.023 A 
ATOM     63  C   UNL A   1      45.155  32.844  26.412  1.00  0.00     0.012 A 
ATOM     64  C   UNL A   1      43.712  33.883  28.042  1.00  0.00     0.148 A 
ATOM     65  C   UNL A   1      45.212  34.053  25.707  1.00  0.00     0.002 A 
ATOM     66  C   UNL A   1      43.690  35.046  27.288  1.00  0.00     0.091 A 
ATOM     67  F   UNL A   1      43.200  33.900  29.279  1.00  0.00    -0.205 F 
ATOM     68  C   UNL A   1      44.455  35.143  26.126  1.00  0.00     0.022 A 
BRANCH  66  69
ATOM     69  S   UNL A   1      42.657  36.434  27.762  1.00  0.00     0.127 S 
ATOM     70  O   UNL A   1      41.350  35.797  27.892  1.00  0.00    -0.237 OA
ATOM     71  O   UNL A   1      43.274  36.854  29.020  1.00  0.00    -0.237 OA
ATOM     72  O   UNL A   1      42.804  37.398  26.678  1.00  0.00    -0.744 OA
ENDBRANCH  66  69
ENDBRANCH  48  62
BRANCH  49  73
ATOM     73  C   UNL A   1      36.998  31.035  31.043  1.00  0.00     0.023 A 
ATOM     74  C   UNL A   1      36.326  31.443  32.220  1.00  0.00     0.012 A 
ATOM     75  C   UNL A   1      36.411  31.370  29.806  1.00  0.00     0.148 A 
ATOM     76  C   UNL A   1      35.162  32.220  32.166  1.00  0.00     0.002 A 
ATOM     77  C   UNL A   1      35.242  32.129  29.757  1.00  0.00     0.091 A 
ATOM     78  F   UNL A   1      37.044  31.039  28.674  1.00  0.00    -0.205 F 
ATOM     79  C   UNL A   1      34.627  32.575  30.932  1.00  0.00     0.022 A 
BRANCH  77  80
ATOM     80  S   UNL A   1      34.497  32.615  28.194  1.00  0.00     0.127 S 
ATOM     81  O   UNL A   1      33.497  33.595  28.619  1.00  0.00    -0.237 OA
ATOM     82  O   UNL A   1      35.636  33.176  27.476  1.00  0.00    -0.237 OA
ATOM     83  O   UNL A   1      33.929  31.391  27.639  1.00  0.00    -0.744 OA
ENDBRANCH  77  80
ENDBRANCH  49  73
BRANCH  61  84
ATOM     84  C   UNL A   1      42.653  30.669  33.910  1.00  0.00     0.023 A 
ATOM     85  C   UNL A   1      42.582  29.263  33.864  1.00  0.00     0.012 A 
ATOM     86  C   UNL A   1      42.877  31.309  35.140  1.00  0.00     0.148 A 
ATOM     87  C   UNL A   1      42.722  28.512  35.032  1.00  0.00     0.002 A 
ATOM     88  C   UNL A   1      43.056  30.558  36.291  1.00  0.00     0.091 A 
ATOM     89  F   UNL A   1      42.929  32.650  35.155  1.00  0.00    -0.205 F 
ATOM     90  C   UNL A   1      42.972  29.157  36.243  1.00  0.00     0.022 A 
BRANCH  88  91
ATOM     91  S   UNL A   1      43.477  31.320  37.859  1.00  0.00     0.127 S 
ATOM     92  O   UNL A   1      42.162  31.534  38.459  1.00  0.00    -0.237 OA
ATOM     93  O   UNL A   1      44.282  30.279  38.500  1.00  0.00    -0.237 OA
ATOM     94  O   UNL A   1      44.219  32.532  37.533  1.00  0.00    -0.744 OA
ENDBRANCH  88  91
ENDBRANCH  61  84
ENDBRANCH  35  36
ENDBRANCH  28  30
ENDBRANCH  27  28
ENDBRANCH  26  27
ENDBRANCH  25  26
ENDBRANCH  24  25
ENDBRANCH  23  24
ENDBRANCH   1  23
TORSDOF 25
ENDMDL
MODEL 3
REMARK VINA RESULT:      -9.1      2.119      2.416
REMARK SMILES CCn1cc(CC(=O)OCCOCCOCCOCCOC(=O)c2ccc(-c3c4nc(c(-c5cccc(S(=O)(=O)[O-])c5F)c5ccc([nH]5)c(-c5cccc(S(=O)(=O)[O-])c5F)c5nc(c(-c6cccc(S(=O)(=O)[O-])c6F)c6ccc3[nH]6)C=C5)C=C4)cc2)c2ccccc21
REMARK SMILES IDX 16 1 15 2 14 3 13 4 12 5 11 6 10 7 9 8 7 9 8 10 6 11 5 12
REMARK SMILES IDX 3 13 4 14 92 15 87 16 91 17 88 18 90 19 89 20 2 21 1 22
REMARK SMILES IDX 17 23 18 24 19 25 20 26 21 27 22 28 23 29 24 30 25 31 86 32
REMARK SMILES IDX 26 33 85 34 27 35 28 36 29 37 79 38 30 39 84 40 78 41 80 42
REMARK SMILES IDX 31 43 83 44 77 45 76 46 32 48 64 49 44 50 63 51 45 52 48 53
REMARK SMILES IDX 62 54 81 55 46 56 47 57 61 59 82 60 49 61 33 62 34 63 42 64
REMARK SMILES IDX 35 65 37 66 43 67 36 68 38 69 39 70 40 71 41 72 65 73 66 74
REMARK SMILES IDX 74 75 67 76 69 77 75 78 68 79 70 80 71 81 72 82 73 83 50 84
REMARK SMILES IDX 51 85 59 86 52 87 54 88 60 89 53 90 55 91 56 92 57 93 58 94
REMARK H PARENT 80 47 48 58
REMARK Flexibility Score: inf
ROOT
ATOM      1  C   UNL A   1      37.771  23.463  25.820  1.00  0.00     0.188 C 
ENDROOT
BRANCH   1   2
ATOM      2  O   UNL A   1      36.655  23.988  25.142  1.00  0.00    -0.377 OA
BRANCH   2   3
ATOM      3  C   UNL A   1      36.365  23.473  23.861  1.00  0.00     0.188 C 
BRANCH   3   4
ATOM      4  C   UNL A   1      35.049  22.769  23.511  1.00  0.00     0.188 C 
BRANCH   4   5
ATOM      5  O   UNL A   1      34.375  22.201  24.608  1.00  0.00    -0.376 OA
BRANCH   5   6
ATOM      6  C   UNL A   1      33.197  21.445  24.399  1.00  0.00     0.202 C 
BRANCH   6   7
ATOM      7  C   UNL A   1      31.915  22.063  23.799  1.00  0.00     0.261 C 
BRANCH   7   8
ATOM      8  O   UNL A   1      31.443  23.327  24.308  1.00  0.00    -0.463 OA
BRANCH   8   9
ATOM      9  C   UNL A   1      31.381  24.377  23.460  1.00  0.00     0.310 C 
ATOM     10  O   UNL A   1      32.239  24.601  22.607  1.00  0.00    -0.252 OA
BRANCH   9  11
ATOM     11  C   UNL A   1      30.154  25.279  23.596  1.00  0.00     0.160 C 
BRANCH  11  12
ATOM     12  C   UNL A   1      30.293  26.774  23.777  1.00  0.00    -0.011 A 
ATOM     13  N   UNL A   1      30.087  28.988  23.471  1.00  0.00    -0.347 N 
ATOM     14  C   UNL A   1      29.784  27.756  22.945  1.00  0.00     0.091 A 
ATOM     15  C   UNL A   1      30.877  28.846  24.592  1.00  0.00     0.048 A 
ATOM     16  C   UNL A   1      30.905  27.478  24.885  1.00  0.00     0.003 A 
ATOM     17  C   UNL A   1      31.557  29.798  25.374  1.00  0.00     0.027 A 
ATOM     18  C   UNL A   1      31.553  27.074  26.078  1.00  0.00     0.010 A 
ATOM     19  C   UNL A   1      32.261  29.355  26.495  1.00  0.00     0.002 A 
ATOM     20  C   UNL A   1      32.243  28.014  26.857  1.00  0.00     0.001 A 
BRANCH  13  21
ATOM     21  C   UNL A   1      29.532  30.243  22.994  1.00  0.00     0.119 C 
ATOM     22  C   UNL A   1      28.038  30.375  23.212  1.00  0.00     0.027 C 
ENDBRANCH  13  21
ENDBRANCH  11  12
ENDBRANCH   9  11
ENDBRANCH   8   9
ENDBRANCH   7   8
ENDBRANCH   6   7
ENDBRANCH   5   6
ENDBRANCH   4   5
ENDBRANCH   3   4
ENDBRANCH   2   3
ENDBRANCH   1   2
BRANCH   1  23
ATOM     23  C   UNL A   1      38.020  21.963  25.638  1.00  0.00     0.188 C 
BRANCH  23  24
ATOM     24  O   UNL A   1      39.395  21.620  25.719  1.00  0.00    -0.376 OA
BRANCH  24  25
ATOM     25  C   UNL A   1      40.035  21.617  26.988  1.00  0.00     0.202 C 
BRANCH  25  26
ATOM     26  C   UNL A   1      40.638  22.868  27.669  1.00  0.00     0.261 C 
BRANCH  26  27
ATOM     27  O   UNL A   1      42.017  23.120  27.406  1.00  0.00    -0.460 OA
BRANCH  27  28
ATOM     28  C   UNL A   1      42.431  23.693  26.256  1.00  0.00     0.338 C 
ATOM     29  O   UNL A   1      42.460  23.204  25.144  1.00  0.00    -0.246 OA
BRANCH  28  30
ATOM     30  C   UNL A   1      42.530  25.131  26.605  1.00  0.00     0.060 A 
ATOM     31  C   UNL A   1      43.249  25.531  27.739  1.00  0.00     0.016 A 
ATOM     32  C   UNL A   1      41.560  25.969  26.036  1.00  0.00     0.016 A 
ATOM     33  C   UNL A   1      42.871  26.705  28.388  1.00  0.00     0.010 A 
ATOM     34  C   UNL A   1      41.176  27.133  26.698  1.00  0.00     0.010 A 
ATOM     35  C   UNL A   1      41.795  27.477  27.901  1.00  0.00    -0.014 A 
BRANCH  35  36
ATOM     36  C   UNL A   1      41.585  28.793  28.517  1.00  0.00     0.031 A 
ATOM     37  C   UNL A   1      42.722  29.692  28.196  1.00  0.00     0.074 A 
ATOM     38  C   UNL A   1      40.488  29.292  29.125  1.00  0.00     0.049 A 
ATOM     39  N   UNL A   1      43.604  30.186  29.002  1.00  0.00    -0.248 NA
ATOM     40  C   UNL A   1      43.012  29.892  26.766  1.00  0.00     0.031 C 
ATOM     41  C   UNL A   1      39.163  28.680  29.217  1.00  0.00     0.029 A 
ATOM     42  N   UNL A   1      40.295  30.537  29.677  1.00  0.00    -0.354 N 
ATOM     43  C   UNL A   1      44.433  30.943  28.184  1.00  0.00     0.074 A 
ATOM     44  C   UNL A   1      44.162  30.560  26.822  1.00  0.00     0.031 C 
ATOM     45  C   UNL A   1      38.260  29.633  29.551  1.00  0.00     0.029 A 
ATOM     46  C   UNL A   1      38.952  30.885  29.816  1.00  0.00     0.049 A 
ATOM     47  H   UNL A   1      41.036  31.127  29.948  1.00  0.00     0.167 HD
ATOM     48  C   UNL A   1      45.056  32.061  28.633  1.00  0.00     0.034 A 
ATOM     49  C   UNL A   1      38.453  32.128  30.045  1.00  0.00     0.034 A 
ATOM     50  C   UNL A   1      45.015  32.194  30.057  1.00  0.00     0.049 A 
ATOM     51  C   UNL A   1      39.524  32.950  30.654  1.00  0.00     0.074 A 
ATOM     52  C   UNL A   1      45.679  31.675  31.145  1.00  0.00     0.029 A 
ATOM     53  N   UNL A   1      43.870  32.784  30.512  1.00  0.00    -0.354 N 
ATOM     54  N   UNL A   1      40.016  32.743  31.842  1.00  0.00    -0.248 NA
ATOM     55  C   UNL A   1      40.233  33.935  29.842  1.00  0.00     0.031 C 
ATOM     56  C   UNL A   1      44.818  31.865  32.266  1.00  0.00     0.029 A 
ATOM     57  C   UNL A   1      43.652  32.491  31.830  1.00  0.00     0.049 A 
ATOM     58  H   UNL A   1      43.278  33.347  29.963  1.00  0.00     0.167 HD
ATOM     59  C   UNL A   1      41.302  33.237  31.760  1.00  0.00     0.074 A 
ATOM     60  C   UNL A   1      41.314  34.117  30.604  1.00  0.00     0.031 C 
ATOM     61  C   UNL A   1      42.330  32.616  32.400  1.00  0.00     0.034 A 
BRANCH  48  62
ATOM     62  C   UNL A   1      45.272  33.257  27.750  1.00  0.00     0.023 A 
ATOM     63  C   UNL A   1      44.199  33.726  26.973  1.00  0.00     0.012 A 
ATOM     64  C   UNL A   1      46.557  33.779  27.477  1.00  0.00     0.148 A 
ATOM     65  C   UNL A   1      44.396  34.709  25.996  1.00  0.00     0.002 A 
ATOM     66  C   UNL A   1      46.730  34.822  26.581  1.00  0.00     0.091 A 
ATOM     67  F   UNL A   1      47.638  33.175  27.988  1.00  0.00    -0.205 F 
ATOM     68  C   UNL A   1      45.654  35.280  25.822  1.00  0.00     0.022 A 
BRANCH  66  69
ATOM     69  S   UNL A   1      48.321  35.631  26.401  1.00  0.00     0.127 S 
ATOM     70  O   UNL A   1      48.624  35.375  24.996  1.00  0.00    -0.237 OA
ATOM     71  O   UNL A   1      47.994  37.019  26.725  1.00  0.00    -0.237 OA
ATOM     72  O   UNL A   1      49.185  34.981  27.379  1.00  0.00    -0.744 OA
ENDBRANCH  66  69
ENDBRANCH  48  62
BRANCH  49  73
ATOM     73  C   UNL A   1      37.171  32.765  29.634  1.00  0.00     0.023 A 
ATOM     74  C   UNL A   1      36.603  32.420  28.384  1.00  0.00     0.012 A 
ATOM     75  C   UNL A   1      36.353  33.452  30.556  1.00  0.00     0.148 A 
ATOM     76  C   UNL A   1      35.258  32.678  28.096  1.00  0.00     0.002 A 
ATOM     77  C   UNL A   1      35.019  33.723  30.256  1.00  0.00     0.091 A 
ATOM     78  F   UNL A   1      36.845  33.753  31.763  1.00  0.00    -0.205 F 
ATOM     79  C   UNL A   1      34.461  33.318  29.038  1.00  0.00     0.022 A 
BRANCH  77  80
ATOM     80  S   UNL A   1      33.938  34.553  31.429  1.00  0.00     0.127 S 
ATOM     81  O   UNL A   1      34.776  35.659  31.894  1.00  0.00    -0.237 OA
ATOM     82  O   UNL A   1      32.817  34.948  30.584  1.00  0.00    -0.237 OA
ATOM     83  O   UNL A   1      33.647  33.559  32.457  1.00  0.00    -0.744 OA
ENDBRANCH  77  80
ENDBRANCH  49  73
BRANCH  61  84
ATOM     84  C   UNL A   1      42.013  31.837  33.637  1.00  0.00     0.023 A 
ATOM     85  C   UNL A   1      41.796  30.446  33.629  1.00  0.00     0.012 A 
ATOM     86  C   UNL A   1      42.028  32.527  34.860  1.00  0.00     0.148 A 
ATOM     87  C   UNL A   1      41.586  29.758  34.826  1.00  0.00     0.002 A 
ATOM     88  C   UNL A   1      41.859  31.835  36.049  1.00  0.00     0.091 A 
ATOM     89  F   UNL A   1      42.226  33.854  34.835  1.00  0.00    -0.205 F 
ATOM     90  C   UNL A   1      41.630  30.449  36.037  1.00  0.00     0.022 A 
BRANCH  88  91
ATOM     91  S   UNL A   1      42.002  32.647  37.642  1.00  0.00     0.127 S 
ATOM     92  O   UNL A   1      43.329  33.252  37.560  1.00  0.00    -0.237 OA
ATOM     93  O   UNL A   1      40.890  33.600  37.602  1.00  0.00    -0.237 OA
ATOM     94  O   UNL A   1      41.854  31.600  38.645  1.00  0.00    -0.744 OA
ENDBRANCH  88  91
ENDBRANCH  61  84
ENDBRANCH  35  36
ENDBRANCH  28  30
ENDBRANCH  27  28
ENDBRANCH  26  27
ENDBRANCH  25  26
ENDBRANCH  24  25
ENDBRANCH  23  24
ENDBRANCH   1  23
TORSDOF 25
ENDMDL
