MODEL 1
REMARK VINA RESULT:     -10.3      0.000      0.000
REMARK SMILES C/C=C/c1cncc(-c2ccc([C@@H](C)C(=O)OCCOCCOCCOCCOC(=O)c3ccc(-c4c5nc(c(-c6cccc(S(=O)(=O)[O-])c6F)c6ccc([nH]6)c(-c6cccc(S(=O)(=O)[O-])c6F)c6nc(c(-c7cccc(S(=O)(=O)[O-])c7F)c7ccc4[nH]7)C=C6)C=C5)cc3)cc2)c1
REMARK SMILES IDX 23 1 22 2 21 3 20 4 19 5 18 6 17 7 15 8 16 9 13 10 14 11
REMARK SMILES IDX 12 12 9 13 10 14 96 15 11 16 95 17 8 18 4 19 5 20 97 21 6 22
REMARK SMILES IDX 7 23 3 24 1 25 2 26 24 27 25 28 26 29 27 30 28 31 29 32
REMARK SMILES IDX 30 33 31 34 32 35 33 36 94 37 34 38 93 39 35 40 36 41 37 42
REMARK SMILES IDX 87 43 38 44 92 45 86 46 88 47 39 48 91 49 85 50 84 51 40 53
REMARK SMILES IDX 72 54 52 55 71 56 53 57 56 58 70 59 89 60 54 61 55 62 69 64
REMARK SMILES IDX 90 65 57 66 41 67 42 68 50 69 43 70 45 71 51 72 44 73 46 74
REMARK SMILES IDX 47 75 48 76 49 77 73 78 74 79 82 80 75 81 77 82 83 83 76 84
REMARK SMILES IDX 78 85 79 86 80 87 81 88 58 89 59 90 67 91 60 92 62 93 68 94
REMARK SMILES IDX 61 95 63 96 64 97 65 98 66 99
REMARK H PARENT 88 52 56 63
REMARK Flexibility Score: inf
ROOT
ATOM      1  O   UNL A   1      34.737  24.059  23.043  1.00  0.00    -0.377 OA
ENDROOT
BRANCH   1   2
ATOM      2  C   UNL A   1      33.487  24.099  22.391  1.00  0.00     0.188 C 
BRANCH   2   3
ATOM      3  C   UNL A   1      33.204  25.388  21.606  1.00  0.00     0.188 C 
BRANCH   3   4
ATOM      4  O   UNL A   1      32.600  26.514  22.228  1.00  0.00    -0.376 OA
BRANCH   4   5
ATOM      5  C   UNL A   1      33.292  27.753  22.314  1.00  0.00     0.202 C 
BRANCH   5   6
ATOM      6  C   UNL A   1      32.559  29.054  22.695  1.00  0.00     0.261 C 
BRANCH   6   7
ATOM      7  O   UNL A   1      31.167  28.942  23.054  1.00  0.00    -0.463 OA
BRANCH   7   8
ATOM      8  C   UNL A   1      30.781  29.575  24.184  1.00  0.00     0.313 C 
ATOM      9  O   UNL A   1      30.035  30.556  24.189  1.00  0.00    -0.252 OA
BRANCH   8  10
ATOM     10  C   UNL A   1      31.338  29.016  25.494  1.00  0.00     0.126 C 
ATOM     11  C   UNL A   1      32.395  29.984  26.014  1.00  0.00     0.025 C 
BRANCH  10  12
ATOM     12  C   UNL A   1      31.809  27.565  25.609  1.00  0.00    -0.034 A 
ATOM     13  C   UNL A   1      32.572  24.804  25.834  1.00  0.00    -0.017 A 
ATOM     14  C   UNL A   1      33.494  25.849  26.030  1.00  0.00     0.009 A 
ATOM     15  C   UNL A   1      31.262  25.166  25.500  1.00  0.00     0.009 A 
ATOM     16  C   UNL A   1      33.123  27.203  25.926  1.00  0.00     0.005 A 
ATOM     17  C   UNL A   1      30.885  26.518  25.404  1.00  0.00     0.005 A 
BRANCH  13  18
ATOM     18  C   UNL A   1      32.946  23.395  26.077  1.00  0.00     0.001 A 
ATOM     19  C   UNL A   1      32.929  21.003  25.568  1.00  0.00    -0.007 A 
ATOM     20  C   UNL A   1      33.656  20.811  26.740  1.00  0.00     0.119 A 
ATOM     21  C   UNL A   1      32.567  22.323  25.246  1.00  0.00     0.020 A 
ATOM     22  N   UNL A   1      34.036  21.801  27.576  1.00  0.00    -0.263 NA
ATOM     23  C   UNL A   1      33.680  23.056  27.218  1.00  0.00     0.119 A 
BRANCH  19  24
ATOM     24  C   UNL A   1      32.535  19.815  24.797  1.00  0.00     0.005 C 
ATOM     25  C   UNL A   1      32.912  17.687  23.550  1.00  0.00     0.035 C 
ATOM     26  C   UNL A   1      33.379  18.922  24.257  1.00  0.00    -0.030 C 
ENDBRANCH  19  24
ENDBRANCH  13  18
ENDBRANCH  10  12
ENDBRANCH   8  10
ENDBRANCH   7   8
ENDBRANCH   6   7
ENDBRANCH   5   6
ENDBRANCH   4   5
ENDBRANCH   3   4
ENDBRANCH   2   3
ENDBRANCH   1   2
BRANCH   1  27
ATOM     27  C   UNL A   1      35.327  22.784  23.224  1.00  0.00     0.188 C 
BRANCH  27  28
ATOM     28  C   UNL A   1      36.541  22.706  24.168  1.00  0.00     0.188 C 
BRANCH  28  29
ATOM     29  O   UNL A   1      37.174  21.431  24.194  1.00  0.00    -0.376 OA
BRANCH  29  30
ATOM     30  C   UNL A   1      37.972  21.087  25.319  1.00  0.00     0.202 C 
BRANCH  30  31
ATOM     31  C   UNL A   1      38.840  19.817  25.253  1.00  0.00     0.261 C 
BRANCH  31  32
ATOM     32  O   UNL A   1      39.684  19.536  26.381  1.00  0.00    -0.460 OA
BRANCH  32  33
ATOM     33  C   UNL A   1      41.012  19.733  26.256  1.00  0.00     0.338 C 
ATOM     34  O   UNL A   1      41.835  18.924  25.859  1.00  0.00    -0.246 OA
BRANCH  33  35
ATOM     35  C   UNL A   1      41.284  21.170  26.482  1.00  0.00     0.060 A 
ATOM     36  C   UNL A   1      41.949  21.897  25.483  1.00  0.00     0.016 A 
ATOM     37  C   UNL A   1      40.887  21.799  27.664  1.00  0.00     0.016 A 
ATOM     38  C   UNL A   1      42.257  23.243  25.682  1.00  0.00     0.010 A 
ATOM     39  C   UNL A   1      41.221  23.141  27.873  1.00  0.00     0.010 A 
ATOM     40  C   UNL A   1      41.942  23.858  26.900  1.00  0.00    -0.014 A 
BRANCH  40  41
ATOM     41  C   UNL A   1      42.547  25.170  27.237  1.00  0.00     0.031 A 
ATOM     42  C   UNL A   1      41.687  26.190  27.936  1.00  0.00     0.074 A 
ATOM     43  C   UNL A   1      43.827  25.456  26.941  1.00  0.00     0.049 A 
ATOM     44  N   UNL A   1      41.971  27.415  28.288  1.00  0.00    -0.248 NA
ATOM     45  C   UNL A   1      40.318  25.767  28.282  1.00  0.00     0.031 C 
ATOM     46  C   UNL A   1      44.769  24.549  26.288  1.00  0.00     0.029 A 
ATOM     47  N   UNL A   1      44.547  26.611  27.130  1.00  0.00    -0.354 N 
ATOM     48  C   UNL A   1      40.812  27.923  28.861  1.00  0.00     0.074 A 
ATOM     49  C   UNL A   1      39.817  26.875  28.809  1.00  0.00     0.031 C 
ATOM     50  C   UNL A   1      45.935  25.193  26.101  1.00  0.00     0.029 A 
ATOM     51  C   UNL A   1      45.812  26.565  26.591  1.00  0.00     0.049 A 
ATOM     52  H   UNL A   1      44.192  27.395  27.606  1.00  0.00     0.167 HD
ATOM     53  C   UNL A   1      40.594  29.149  29.393  1.00  0.00     0.034 A 
ATOM     54  C   UNL A   1      46.747  27.531  26.479  1.00  0.00     0.034 A 
ATOM     55  C   UNL A   1      41.587  30.186  29.458  1.00  0.00     0.049 A 
ATOM     56  C   UNL A   1      46.464  28.902  27.042  1.00  0.00     0.074 A 
ATOM     57  C   UNL A   1      41.477  31.445  30.018  1.00  0.00     0.029 A 
ATOM     58  N   UNL A   1      42.864  30.092  28.929  1.00  0.00    -0.354 N 
ATOM     59  N   UNL A   1      45.401  29.333  27.680  1.00  0.00    -0.248 NA
ATOM     60  C   UNL A   1      47.523  29.913  26.900  1.00  0.00     0.031 C 
ATOM     61  C   UNL A   1      42.674  32.131  29.788  1.00  0.00     0.029 A 
ATOM     62  C   UNL A   1      43.547  31.278  29.132  1.00  0.00     0.049 A 
ATOM     63  H   UNL A   1      43.232  29.299  28.474  1.00  0.00     0.167 HD
ATOM     64  C   UNL A   1      45.683  30.644  28.050  1.00  0.00     0.074 A 
ATOM     65  C   UNL A   1      47.022  30.933  27.582  1.00  0.00     0.031 C 
ATOM     66  C   UNL A   1      44.900  31.534  28.712  1.00  0.00     0.034 A 
BRANCH  53  67
ATOM     67  C   UNL A   1      39.228  29.440  29.953  1.00  0.00     0.023 A 
ATOM     68  C   UNL A   1      38.926  29.105  31.288  1.00  0.00     0.012 A 
ATOM     69  C   UNL A   1      38.262  30.107  29.171  1.00  0.00     0.148 A 
ATOM     70  C   UNL A   1      37.676  29.404  31.830  1.00  0.00     0.002 A 
ATOM     71  C   UNL A   1      37.037  30.445  29.733  1.00  0.00     0.091 A 
ATOM     72  F   UNL A   1      38.562  30.396  27.898  1.00  0.00    -0.205 F 
ATOM     73  C   UNL A   1      36.738  30.083  31.057  1.00  0.00     0.022 A 
BRANCH  71  74
ATOM     74  S   UNL A   1      35.794  31.391  28.848  1.00  0.00     0.127 S 
ATOM     75  O   UNL A   1      34.850  31.710  29.919  1.00  0.00    -0.237 OA
ATOM     76  O   UNL A   1      36.569  32.531  28.359  1.00  0.00    -0.237 OA
ATOM     77  O   UNL A   1      35.279  30.510  27.809  1.00  0.00    -0.744 OA
ENDBRANCH  71  74
ENDBRANCH  53  67
BRANCH  54  78
ATOM     78  C   UNL A   1      48.051  27.244  25.815  1.00  0.00     0.023 A 
ATOM     79  C   UNL A   1      49.131  26.754  26.576  1.00  0.00     0.012 A 
ATOM     80  C   UNL A   1      48.233  27.475  24.437  1.00  0.00     0.148 A 
ATOM     81  C   UNL A   1      50.379  26.540  25.987  1.00  0.00     0.002 A 
ATOM     82  C   UNL A   1      49.461  27.202  23.845  1.00  0.00     0.091 A 
ATOM     83  F   UNL A   1      47.201  27.958  23.733  1.00  0.00    -0.205 F 
ATOM     84  C   UNL A   1      50.541  26.755  24.622  1.00  0.00     0.022 A 
BRANCH  82  85
ATOM     85  S   UNL A   1      49.728  27.331  22.074  1.00  0.00     0.127 S 
ATOM     86  O   UNL A   1      51.102  26.855  21.942  1.00  0.00    -0.237 OA
ATOM     87  O   UNL A   1      48.707  26.422  21.552  1.00  0.00    -0.237 OA
ATOM     88  O   UNL A   1      49.509  28.733  21.742  1.00  0.00    -0.744 OA
ENDBRANCH  82  85
ENDBRANCH  54  78
BRANCH  66  89
ATOM     89  C   UNL A   1      45.483  32.888  29.031  1.00  0.00     0.023 A 
ATOM     90  C   UNL A   1      46.168  33.099  30.244  1.00  0.00     0.012 A 
ATOM     91  C   UNL A   1      45.417  33.931  28.085  1.00  0.00     0.148 A 
ATOM     92  C   UNL A   1      46.744  34.338  30.526  1.00  0.00     0.002 A 
ATOM     93  C   UNL A   1      46.041  35.144  28.349  1.00  0.00     0.091 A 
ATOM     94  F   UNL A   1      44.749  33.715  26.942  1.00  0.00    -0.205 F 
ATOM     95  C   UNL A   1      46.692  35.355  29.574  1.00  0.00     0.022 A 
BRANCH  93  96
ATOM     96  S   UNL A   1      46.113  36.474  27.144  1.00  0.00     0.127 S 
ATOM     97  O   UNL A   1      44.793  37.086  27.297  1.00  0.00    -0.237 OA
ATOM     98  O   UNL A   1      47.223  37.285  27.645  1.00  0.00    -0.237 OA
ATOM     99  O   UNL A   1      46.359  35.840  25.856  1.00  0.00    -0.744 OA
ENDBRANCH  93  96
ENDBRANCH  66  89
ENDBRANCH  40  41
ENDBRANCH  33  35
ENDBRANCH  32  33
ENDBRANCH  31  32
ENDBRANCH  30  31
ENDBRANCH  29  30
ENDBRANCH  28  29
ENDBRANCH  27  28
ENDBRANCH   1  27
TORSDOF 26
ENDMDL
MODEL 2
REMARK VINA RESULT:     -10.2      0.637      7.240
REMARK SMILES C/C=C/c1cncc(-c2ccc([C@@H](C)C(=O)OCCOCCOCCOCCOC(=O)c3ccc(-c4c5nc(c(-c6cccc(S(=O)(=O)[O-])c6F)c6ccc([nH]6)c(-c6cccc(S(=O)(=O)[O-])c6F)c6nc(c(-c7cccc(S(=O)(=O)[O-])c7F)c7ccc4[nH]7)C=C6)C=C5)cc3)cc2)c1
REMARK SMILES IDX 23 1 22 2 21 3 20 4 19 5 18 6 17 7 15 8 16 9 13 10 14 11
REMARK SMILES IDX 12 12 9 13 10 14 96 15 11 16 95 17 8 18 4 19 5 20 97 21 6 22
REMARK SMILES IDX 7 23 3 24 1 25 2 26 24 27 25 28 26 29 27 30 28 31 29 32
REMARK SMILES IDX 30 33 31 34 32 35 33 36 94 37 34 38 93 39 35 40 36 41 37 42
REMARK SMILES IDX 87 43 38 44 92 45 86 46 88 47 39 48 91 49 85 50 84 51 40 53
REMARK SMILES IDX 72 54 52 55 71 56 53 57 56 58 70 59 89 60 54 61 55 62 69 64
REMARK SMILES IDX 90 65 57 66 41 67 42 68 50 69 43 70 45 71 51 72 44 73 46 74
REMARK SMILES IDX 47 75 48 76 49 77 73 78 74 79 82 80 75 81 77 82 83 83 76 84
REMARK SMILES IDX 78 85 79 86 80 87 81 88 58 89 59 90 67 91 60 92 62 93 68 94
REMARK SMILES IDX 61 95 63 96 64 97 65 98 66 99
REMARK H PARENT 88 52 56 63
REMARK Flexibility Score: inf
ROOT
ATOM      1  O   UNL A   1      34.708  24.119  23.012  1.00  0.00    -0.377 OA
ENDROOT
BRANCH   1   2
ATOM      2  C   UNL A   1      33.453  24.004  22.377  1.00  0.00     0.188 C 
BRANCH   2   3
ATOM      3  C   UNL A   1      32.891  25.313  21.806  1.00  0.00     0.188 C 
BRANCH   3   4
ATOM      4  O   UNL A   1      32.610  26.425  22.644  1.00  0.00    -0.376 OA
BRANCH   4   5
ATOM      5  C   UNL A   1      33.005  27.737  22.267  1.00  0.00     0.202 C 
BRANCH   5   6
ATOM      6  C   UNL A   1      32.642  28.962  23.129  1.00  0.00     0.261 C 
BRANCH   6   7
ATOM      7  O   UNL A   1      31.299  29.021  23.652  1.00  0.00    -0.463 OA
BRANCH   7   8
ATOM      8  C   UNL A   1      31.132  29.692  24.813  1.00  0.00     0.313 C 
ATOM      9  O   UNL A   1      30.746  30.861  24.870  1.00  0.00    -0.252 OA
BRANCH   8  10
ATOM     10  C   UNL A   1      31.465  28.921  26.091  1.00  0.00     0.126 C 
ATOM     11  C   UNL A   1      32.416  29.772  26.927  1.00  0.00     0.025 C 
BRANCH  10  12
ATOM     12  C   UNL A   1      31.918  27.460  26.051  1.00  0.00    -0.034 A 
ATOM     13  C   UNL A   1      32.652  24.682  26.012  1.00  0.00    -0.017 A 
ATOM     14  C   UNL A   1      33.616  25.707  25.987  1.00  0.00     0.009 A 
ATOM     15  C   UNL A   1      31.308  25.074  26.034  1.00  0.00     0.009 A 
ATOM     16  C   UNL A   1      33.261  27.069  26.012  1.00  0.00     0.005 A 
ATOM     17  C   UNL A   1      30.949  26.434  26.066  1.00  0.00     0.005 A 
BRANCH  13  18
ATOM     18  C   UNL A   1      33.044  23.261  26.120  1.00  0.00     0.001 A 
ATOM     19  C   UNL A   1      32.922  20.900  25.497  1.00  0.00    -0.007 A 
ATOM     20  C   UNL A   1      33.822  20.645  26.529  1.00  0.00     0.119 A 
ATOM     21  C   UNL A   1      32.528  22.236  25.305  1.00  0.00     0.020 A 
ATOM     22  N   UNL A   1      34.339  21.588  27.344  1.00  0.00    -0.263 NA
ATOM     23  C   UNL A   1      33.945  22.862  27.113  1.00  0.00     0.119 A 
BRANCH  19  24
ATOM     24  C   UNL A   1      32.399  19.755  24.738  1.00  0.00     0.005 C 
ATOM     25  C   UNL A   1      32.509  17.863  23.114  1.00  0.00     0.035 C 
ATOM     26  C   UNL A   1      33.070  19.074  23.797  1.00  0.00    -0.030 C 
ENDBRANCH  19  24
ENDBRANCH  13  18
ENDBRANCH  10  12
ENDBRANCH   8  10
ENDBRANCH   7   8
ENDBRANCH   6   7
ENDBRANCH   5   6
ENDBRANCH   4   5
ENDBRANCH   3   4
ENDBRANCH   2   3
ENDBRANCH   1   2
BRANCH   1  27
ATOM     27  C   UNL A   1      35.463  22.930  23.164  1.00  0.00     0.188 C 
BRANCH  27  28
ATOM     28  C   UNL A   1      36.478  22.892  24.321  1.00  0.00     0.188 C 
BRANCH  28  29
ATOM     29  O   UNL A   1      37.417  21.826  24.233  1.00  0.00    -0.376 OA
BRANCH  29  30
ATOM     30  C   UNL A   1      38.115  21.432  25.407  1.00  0.00     0.202 C 
BRANCH  30  31
ATOM     31  C   UNL A   1      38.862  20.085  25.410  1.00  0.00     0.261 C 
BRANCH  31  32
ATOM     32  O   UNL A   1      39.756  19.830  26.504  1.00  0.00    -0.460 OA
BRANCH  32  33
ATOM     33  C   UNL A   1      41.072  19.694  26.243  1.00  0.00     0.338 C 
ATOM     34  O   UNL A   1      41.617  18.731  25.727  1.00  0.00    -0.246 OA
BRANCH  33  35
ATOM     35  C   UNL A   1      41.725  20.998  26.493  1.00  0.00     0.060 A 
ATOM     36  C   UNL A   1      41.900  21.422  27.818  1.00  0.00     0.016 A 
ATOM     37  C   UNL A   1      42.165  21.795  25.435  1.00  0.00     0.016 A 
ATOM     38  C   UNL A   1      42.476  22.664  28.087  1.00  0.00     0.010 A 
ATOM     39  C   UNL A   1      42.717  23.052  25.706  1.00  0.00     0.010 A 
ATOM     40  C   UNL A   1      42.838  23.508  27.031  1.00  0.00    -0.014 A 
BRANCH  40  41
ATOM     41  C   UNL A   1      43.141  24.935  27.304  1.00  0.00     0.031 A 
ATOM     42  C   UNL A   1      44.512  25.450  26.950  1.00  0.00     0.074 A 
ATOM     43  C   UNL A   1      42.229  25.762  27.844  1.00  0.00     0.049 A 
ATOM     44  N   UNL A   1      45.028  26.636  27.135  1.00  0.00    -0.248 NA
ATOM     45  C   UNL A   1      45.425  24.492  26.300  1.00  0.00     0.031 C 
ATOM     46  C   UNL A   1      40.862  25.394  28.209  1.00  0.00     0.029 A 
ATOM     47  N   UNL A   1      42.330  27.083  28.205  1.00  0.00    -0.354 N 
ATOM     48  C   UNL A   1      46.332  26.560  26.662  1.00  0.00     0.074 A 
ATOM     49  C   UNL A   1      46.533  25.210  26.182  1.00  0.00     0.031 C 
ATOM     50  C   UNL A   1      40.261  26.456  28.774  1.00  0.00     0.029 A 
ATOM     51  C   UNL A   1      41.208  27.568  28.838  1.00  0.00     0.049 A 
ATOM     52  H   UNL A   1      43.128  27.631  28.027  1.00  0.00     0.167 HD
ATOM     53  C   UNL A   1      47.277  27.527  26.620  1.00  0.00     0.034 A 
ATOM     54  C   UNL A   1      40.987  28.761  29.429  1.00  0.00     0.034 A 
ATOM     55  C   UNL A   1      47.073  28.872  27.084  1.00  0.00     0.049 A 
ATOM     56  C   UNL A   1      42.074  29.808  29.406  1.00  0.00     0.074 A 
ATOM     57  C   UNL A   1      47.955  29.937  27.042  1.00  0.00     0.029 A 
ATOM     58  N   UNL A   1      45.916  29.333  27.691  1.00  0.00    -0.354 N 
ATOM     59  N   UNL A   1      43.264  29.756  28.856  1.00  0.00    -0.248 NA
ATOM     60  C   UNL A   1      41.774  31.093  30.057  1.00  0.00     0.031 C 
ATOM     61  C   UNL A   1      47.347  31.031  27.665  1.00  0.00     0.029 A 
ATOM     62  C   UNL A   1      46.067  30.661  28.046  1.00  0.00     0.049 A 
ATOM     63  H   UNL A   1      45.106  28.794  27.847  1.00  0.00     0.167 HD
ATOM     64  C   UNL A   1      43.833  31.010  29.058  1.00  0.00     0.074 A 
ATOM     65  C   UNL A   1      42.852  31.806  29.763  1.00  0.00     0.031 C 
ATOM     66  C   UNL A   1      45.062  31.461  28.698  1.00  0.00     0.034 A 
BRANCH  53  67
ATOM     67  C   UNL A   1      48.624  27.170  26.050  1.00  0.00     0.023 A 
ATOM     68  C   UNL A   1      49.556  26.460  26.832  1.00  0.00     0.012 A 
ATOM     69  C   UNL A   1      48.939  27.484  24.712  1.00  0.00     0.148 A 
ATOM     70  C   UNL A   1      50.792  26.091  26.302  1.00  0.00     0.002 A 
ATOM     71  C   UNL A   1      50.151  27.071  24.176  1.00  0.00     0.091 A 
ATOM     72  F   UNL A   1      48.047  28.180  23.993  1.00  0.00    -0.205 F 
ATOM     73  C   UNL A   1      51.084  26.386  24.972  1.00  0.00     0.022 A 
BRANCH  71  74
ATOM     74  S   UNL A   1      50.588  27.328  22.453  1.00  0.00     0.127 S 
ATOM     75  O   UNL A   1      51.969  26.845  22.425  1.00  0.00    -0.237 OA
ATOM     76  O   UNL A   1      49.627  26.468  21.763  1.00  0.00    -0.237 OA
ATOM     77  O   UNL A   1      50.424  28.753  22.204  1.00  0.00    -0.744 OA
ENDBRANCH  71  74
ENDBRANCH  53  67
BRANCH  54  78
ATOM     78  C   UNL A   1      39.681  29.045  30.088  1.00  0.00     0.023 A 
ATOM     79  C   UNL A   1      39.461  28.625  31.415  1.00  0.00     0.012 A 
ATOM     80  C   UNL A   1      38.646  29.709  29.400  1.00  0.00     0.148 A 
ATOM     81  C   UNL A   1      38.224  28.823  32.030  1.00  0.00     0.002 A 
ATOM     82  C   UNL A   1      37.436  29.957  30.039  1.00  0.00     0.091 A 
ATOM     83  F   UNL A   1      38.866  30.086  28.134  1.00  0.00    -0.205 F 
ATOM     84  C   UNL A   1      37.216  29.496  31.347  1.00  0.00     0.022 A 
BRANCH  82  85
ATOM     85  S   UNL A   1      36.127  30.924  29.282  1.00  0.00     0.127 S 
ATOM     86  O   UNL A   1      35.431  31.454  30.452  1.00  0.00    -0.237 OA
ATOM     87  O   UNL A   1      36.888  31.912  28.518  1.00  0.00    -0.237 OA
ATOM     88  O   UNL A   1      35.366  29.988  28.465  1.00  0.00    -0.744 OA
ENDBRANCH  82  85
ENDBRANCH  54  78
BRANCH  66  89
ATOM     89  C   UNL A   1      45.404  32.898  29.000  1.00  0.00     0.023 A 
ATOM     90  C   UNL A   1      46.183  33.221  30.129  1.00  0.00     0.012 A 
ATOM     91  C   UNL A   1      45.015  33.922  28.113  1.00  0.00     0.148 A 
ATOM     92  C   UNL A   1      46.537  34.545  30.390  1.00  0.00     0.002 A 
ATOM     93  C   UNL A   1      45.418  35.231  28.349  1.00  0.00     0.091 A 
ATOM     94  F   UNL A   1      44.263  33.597  27.052  1.00  0.00    -0.205 F 
ATOM     95  C   UNL A   1      46.166  35.547  29.494  1.00  0.00     0.022 A 
BRANCH  93  96
ATOM     96  S   UNL A   1      45.074  36.568  27.200  1.00  0.00     0.127 S 
ATOM     97  O   UNL A   1      46.151  36.405  26.223  1.00  0.00    -0.237 OA
ATOM     98  O   UNL A   1      43.744  36.216  26.705  1.00  0.00    -0.237 OA
ATOM     99  O   UNL A   1      45.125  37.796  27.982  1.00  0.00    -0.744 OA
ENDBRANCH  93  96
ENDBRANCH  66  89
ENDBRANCH  40  41
ENDBRANCH  33  35
ENDBRANCH  32  33
ENDBRANCH  31  32
ENDBRANCH  30  31
ENDBRANCH  29  30
ENDBRANCH  28  29
ENDBRANCH  27  28
ENDBRANCH   1  27
TORSDOF 26
ENDMDL
MODEL 3
REMARK VINA RESULT:     -10.0      1.818      2.285
REMARK SMILES C/C=C/c1cncc(-c2ccc([C@@H](C)C(=O)OCCOCCOCCOCCOC(=O)c3ccc(-c4c5nc(c(-c6cccc(S(=O)(=O)[O-])c6F)c6ccc([nH]6)c(-c6cccc(S(=O)(=O)[O-])c6F)c6nc(c(-c7cccc(S(=O)(=O)[O-])c7F)c7ccc4[nH]7)C=C6)C=C5)cc3)cc2)c1
REMARK SMILES IDX 23 1 22 2 21 3 20 4 19 5 18 6 17 7 15 8 16 9 13 10 14 11
REMARK SMILES IDX 12 12 9 13 10 14 96 15 11 16 95 17 8 18 4 19 5 20 97 21 6 22
REMARK SMILES IDX 7 23 3 24 1 25 2 26 24 27 25 28 26 29 27 30 28 31 29 32
REMARK SMILES IDX 30 33 31 34 32 35 33 36 94 37 34 38 93 39 35 40 36 41 37 42
REMARK SMILES IDX 87 43 38 44 92 45 86 46 88 47 39 48 91 49 85 50 84 51 40 53
REMARK SMILES IDX 72 54 52 55 71 56 53 57 56 58 70 59 89 60 54 61 55 62 69 64
REMARK SMILES IDX 90 65 57 66 41 67 42 68 50 69 43 70 45 71 51 72 44 73 46 74
REMARK SMILES IDX 47 75 48 76 49 77 73 78 74 79 82 80 75 81 77 82 83 83 76 84
REMARK SMILES IDX 78 85 79 86 80 87 81 88 58 89 59 90 67 91 60 92 62 93 68 94
REMARK SMILES IDX 61 95 63 96 64 97 65 98 66 99
REMARK H PARENT 88 52 56 63
REMARK Flexibility Score: inf
ROOT
ATOM      1  O   UNL A   1      35.493  24.418  24.980  1.00  0.00    -0.377 OA
ENDROOT
BRANCH   1   2
ATOM      2  C   UNL A   1      34.717  24.434  23.803  1.00  0.00     0.188 C 
BRANCH   2   3
ATOM      3  C   UNL A   1      34.422  25.830  23.237  1.00  0.00     0.188 C 
BRANCH   3   4
ATOM      4  O   UNL A   1      33.106  26.211  22.861  1.00  0.00    -0.376 OA
BRANCH   4   5
ATOM      5  C   UNL A   1      32.847  27.509  22.342  1.00  0.00     0.202 C 
BRANCH   5   6
ATOM      6  C   UNL A   1      32.562  28.702  23.275  1.00  0.00     0.261 C 
BRANCH   6   7
ATOM      7  O   UNL A   1      31.307  28.694  23.985  1.00  0.00    -0.463 OA
BRANCH   7   8
ATOM      8  C   UNL A   1      31.361  28.949  25.311  1.00  0.00     0.313 C 
ATOM      9  O   UNL A   1      31.651  30.052  25.777  1.00  0.00    -0.252 OA
BRANCH   8  10
ATOM     10  C   UNL A   1      31.052  27.772  26.237  1.00  0.00     0.126 C 
ATOM     11  C   UNL A   1      31.799  27.988  27.549  1.00  0.00     0.025 C 
BRANCH  10  12
ATOM     12  C   UNL A   1      31.175  26.324  25.760  1.00  0.00    -0.034 A 
ATOM     13  C   UNL A   1      31.518  23.595  24.926  1.00  0.00    -0.017 A 
ATOM     14  C   UNL A   1      30.576  24.446  24.319  1.00  0.00     0.009 A 
ATOM     15  C   UNL A   1      32.274  24.129  25.977  1.00  0.00     0.009 A 
ATOM     16  C   UNL A   1      30.409  25.785  24.722  1.00  0.00     0.005 A 
ATOM     17  C   UNL A   1      32.115  25.469  26.376  1.00  0.00     0.005 A 
BRANCH  13  18
ATOM     18  C   UNL A   1      31.774  22.236  24.404  1.00  0.00     0.001 A 
ATOM     19  C   UNL A   1      32.340  19.869  24.638  1.00  0.00    -0.007 A 
ATOM     20  C   UNL A   1      32.318  19.790  23.248  1.00  0.00     0.119 A 
ATOM     21  C   UNL A   1      32.069  21.123  25.214  1.00  0.00     0.020 A 
ATOM     22  N   UNL A   1      32.050  20.827  22.426  1.00  0.00    -0.263 NA
ATOM     23  C   UNL A   1      31.779  22.010  23.024  1.00  0.00     0.119 A 
BRANCH  19  24
ATOM     24  C   UNL A   1      32.713  18.664  25.393  1.00  0.00     0.005 C 
ATOM     25  C   UNL A   1      33.463  16.300  25.675  1.00  0.00     0.035 C 
ATOM     26  C   UNL A   1      33.012  17.471  24.856  1.00  0.00    -0.030 C 
ENDBRANCH  19  24
ENDBRANCH  13  18
ENDBRANCH  10  12
ENDBRANCH   8  10
ENDBRANCH   7   8
ENDBRANCH   6   7
ENDBRANCH   5   6
ENDBRANCH   4   5
ENDBRANCH   3   4
ENDBRANCH   2   3
ENDBRANCH   1   2
BRANCH   1  27
ATOM     27  C   UNL A   1      36.566  23.494  25.032  1.00  0.00     0.188 C 
BRANCH  27  28
ATOM     28  C   UNL A   1      36.752  22.573  23.812  1.00  0.00     0.188 C 
BRANCH  28  29
ATOM     29  O   UNL A   1      37.111  21.236  24.144  1.00  0.00    -0.376 OA
BRANCH  29  30
ATOM     30  C   UNL A   1      37.805  20.997  25.361  1.00  0.00     0.202 C 
BRANCH  30  31
ATOM     31  C   UNL A   1      39.017  20.047  25.349  1.00  0.00     0.261 C 
BRANCH  31  32
ATOM     32  O   UNL A   1      39.964  20.174  26.421  1.00  0.00    -0.460 OA
BRANCH  32  33
ATOM     33  C   UNL A   1      41.244  19.817  26.196  1.00  0.00     0.338 C 
ATOM     34  O   UNL A   1      41.634  18.762  25.722  1.00  0.00    -0.246 OA
BRANCH  33  35
ATOM     35  C   UNL A   1      42.097  21.005  26.423  1.00  0.00     0.060 A 
ATOM     36  C   UNL A   1      42.429  21.356  27.739  1.00  0.00     0.016 A 
ATOM     37  C   UNL A   1      42.570  21.765  25.351  1.00  0.00     0.016 A 
ATOM     38  C   UNL A   1      43.197  22.493  27.989  1.00  0.00     0.010 A 
ATOM     39  C   UNL A   1      43.317  22.920  25.605  1.00  0.00     0.010 A 
ATOM     40  C   UNL A   1      43.600  23.311  26.927  1.00  0.00    -0.014 A 
BRANCH  40  41
ATOM     41  C   UNL A   1      44.127  24.670  27.205  1.00  0.00     0.031 A 
ATOM     42  C   UNL A   1      43.168  25.712  27.717  1.00  0.00     0.074 A 
ATOM     43  C   UNL A   1      45.422  24.978  27.018  1.00  0.00     0.049 A 
ATOM     44  N   UNL A   1      43.377  26.973  27.986  1.00  0.00    -0.248 NA
ATOM     45  C   UNL A   1      41.783  25.269  27.957  1.00  0.00     0.031 C 
ATOM     46  C   UNL A   1      46.454  24.055  26.550  1.00  0.00     0.029 A 
ATOM     47  N   UNL A   1      46.084  26.172  27.176  1.00  0.00    -0.354 N 
ATOM     48  C   UNL A   1      42.150  27.484  28.389  1.00  0.00     0.074 A 
ATOM     49  C   UNL A   1      41.197  26.397  28.328  1.00  0.00     0.031 C 
ATOM     50  C   UNL A   1      47.614  24.725  26.426  1.00  0.00     0.029 A 
ATOM     51  C   UNL A   1      47.400  26.128  26.776  1.00  0.00     0.049 A 
ATOM     52  H   UNL A   1      45.657  26.980  27.541  1.00  0.00     0.167 HD
ATOM     53  C   UNL A   1      41.841  28.741  28.783  1.00  0.00     0.034 A 
ATOM     54  C   UNL A   1      48.313  27.116  26.676  1.00  0.00     0.034 A 
ATOM     55  C   UNL A   1      42.791  29.817  28.857  1.00  0.00     0.049 A 
ATOM     56  C   UNL A   1      47.932  28.519  27.082  1.00  0.00     0.074 A 
ATOM     57  C   UNL A   1      42.586  31.115  29.288  1.00  0.00     0.029 A 
ATOM     58  N   UNL A   1      44.119  29.728  28.473  1.00  0.00    -0.354 N 
ATOM     59  N   UNL A   1      46.795  28.962  27.565  1.00  0.00    -0.248 NA
ATOM     60  C   UNL A   1      48.970  29.554  26.959  1.00  0.00     0.031 C 
ATOM     61  C   UNL A   1      43.779  31.824  29.123  1.00  0.00     0.029 A 
ATOM     62  C   UNL A   1      44.742  30.952  28.639  1.00  0.00     0.049 A 
ATOM     63  H   UNL A   1      44.556  28.913  28.131  1.00  0.00     0.167 HD
ATOM     64  C   UNL A   1      46.997  30.310  27.843  1.00  0.00     0.074 A 
ATOM     65  C   UNL A   1      48.370  30.608  27.492  1.00  0.00     0.031 C 
ATOM     66  C   UNL A   1      46.124  31.223  28.339  1.00  0.00     0.034 A 
BRANCH  53  67
ATOM     67  C   UNL A   1      40.415  29.026  29.171  1.00  0.00     0.023 A 
ATOM     68  C   UNL A   1      39.465  29.346  28.182  1.00  0.00     0.012 A 
ATOM     69  C   UNL A   1      40.004  28.913  30.515  1.00  0.00     0.148 A 
ATOM     70  C   UNL A   1      38.132  29.575  28.525  1.00  0.00     0.002 A 
ATOM     71  C   UNL A   1      38.666  29.094  30.843  1.00  0.00     0.091 A 
ATOM     72  F   UNL A   1      40.929  28.630  31.443  1.00  0.00    -0.205 F 
ATOM     73  C   UNL A   1      37.732  29.438  29.852  1.00  0.00     0.022 A 
BRANCH  71  74
ATOM     74  S   UNL A   1      38.036  28.859  32.507  1.00  0.00     0.127 S 
ATOM     75  O   UNL A   1      38.870  29.787  33.271  1.00  0.00    -0.237 OA
ATOM     76  O   UNL A   1      36.640  29.271  32.366  1.00  0.00    -0.237 OA
ATOM     77  O   UNL A   1      38.230  27.450  32.818  1.00  0.00    -0.744 OA
ENDBRANCH  71  74
ENDBRANCH  53  67
BRANCH  54  78
ATOM     78  C   UNL A   1      49.688  26.824  26.178  1.00  0.00     0.023 A 
ATOM     79  C   UNL A   1      50.635  26.239  27.042  1.00  0.00     0.012 A 
ATOM     80  C   UNL A   1      50.068  27.142  24.859  1.00  0.00     0.148 A 
ATOM     81  C   UNL A   1      51.946  26.016  26.616  1.00  0.00     0.002 A 
ATOM     82  C   UNL A   1      51.358  26.861  24.423  1.00  0.00     0.091 A 
ATOM     83  F   UNL A   1      49.160  27.713  24.057  1.00  0.00    -0.205 F 
ATOM     84  C   UNL A   1      52.304  26.318  25.305  1.00  0.00     0.022 A 
BRANCH  82  85
ATOM     85  S   UNL A   1      51.873  27.101  22.719  1.00  0.00     0.127 S 
ATOM     86  O   UNL A   1      52.898  26.071  22.569  1.00  0.00    -0.237 OA
ATOM     87  O   UNL A   1      50.630  26.846  21.992  1.00  0.00    -0.237 OA
ATOM     88  O   UNL A   1      52.344  28.477  22.639  1.00  0.00    -0.744 OA
ENDBRANCH  82  85
ENDBRANCH  54  78
BRANCH  66  89
ATOM     89  C   UNL A   1      46.630  32.620  28.594  1.00  0.00     0.023 A 
ATOM     90  C   UNL A   1      47.110  32.981  29.869  1.00  0.00     0.012 A 
ATOM     91  C   UNL A   1      46.700  33.554  27.540  1.00  0.00     0.148 A 
ATOM     92  C   UNL A   1      47.616  34.260  30.099  1.00  0.00     0.002 A 
ATOM     93  C   UNL A   1      47.258  34.807  27.763  1.00  0.00     0.091 A 
ATOM     94  F   UNL A   1      46.226  33.196  26.337  1.00  0.00    -0.205 F 
ATOM     95  C   UNL A   1      47.702  35.167  29.044  1.00  0.00     0.022 A 
BRANCH  93  96
ATOM     96  S   UNL A   1      47.502  36.002  26.444  1.00  0.00     0.127 S 
ATOM     97  O   UNL A   1      46.140  36.487  26.226  1.00  0.00    -0.237 OA
ATOM     98  O   UNL A   1      48.401  36.972  27.070  1.00  0.00    -0.237 OA
ATOM     99  O   UNL A   1      48.086  35.264  25.332  1.00  0.00    -0.744 OA
ENDBRANCH  93  96
ENDBRANCH  66  89
ENDBRANCH  40  41
ENDBRANCH  33  35
ENDBRANCH  32  33
ENDBRANCH  31  32
ENDBRANCH  30  31
ENDBRANCH  29  30
ENDBRANCH  28  29
ENDBRANCH  27  28
ENDBRANCH   1  27
TORSDOF 26
ENDMDL
