MODEL 1
REMARK VINA RESULT:     -10.6      0.000      0.000
REMARK SMILES CCC(CC)(NC(=O)Nc1cc(Cl)cc(Cl)c1)C(=O)OCCOCCOCCOCCOC(=O)c1ccc(-c2c3nc(c(-c4cccc(S(=O)(=O)[O-])c4F)c4ccc([nH]4)c(-c4cccc(S(=O)(=O)[O-])c4F)c4nc(c(-c5cccc(S(=O)(=O)[O-])c5F)c5ccc2[nH]5)C=C4)C=C3)cc1
REMARK SMILES IDX 27 1 26 2 25 3 24 4 23 5 22 6 21 7 20 8 18 9 19 10 3 11 2 12
REMARK SMILES IDX 1 13 4 14 5 15 6 16 7 17 8 19 9 20 10 22 11 23 17 24 12 25
REMARK SMILES IDX 15 26 13 27 14 28 16 29 28 30 29 31 30 32 31 33 32 34 33 35
REMARK SMILES IDX 34 36 35 37 36 38 97 39 37 40 96 41 38 42 39 43 40 44 90 45
REMARK SMILES IDX 41 46 95 47 89 48 91 49 42 50 94 51 88 52 87 53 43 55 75 56
REMARK SMILES IDX 55 57 74 58 56 59 59 60 73 61 92 62 57 63 58 64 72 66 93 67
REMARK SMILES IDX 60 68 44 69 45 70 53 71 46 72 48 73 54 74 47 75 49 76 50 77
REMARK SMILES IDX 51 78 52 79 76 80 77 81 85 82 78 83 80 84 86 85 79 86 81 87
REMARK SMILES IDX 82 88 83 89 84 90 61 91 62 92 70 93 63 94 65 95 71 96 64 97
REMARK SMILES IDX 66 98 67 99 68 100 69 101
REMARK H PARENT 6 18 9 21 91 54 59 65
REMARK Flexibility Score: inf
ROOT
ATOM      1  C   UNL A   1      29.452  30.257  22.251  1.00  0.00     0.188 C 
ENDROOT
BRANCH   1   2
ATOM      2  O   UNL A   1      29.673  28.868  22.049  1.00  0.00    -0.377 OA
BRANCH   2   3
ATOM      3  C   UNL A   1      30.944  28.351  22.427  1.00  0.00     0.188 C 
BRANCH   3   4
ATOM      4  C   UNL A   1      32.168  29.323  22.349  1.00  0.00     0.188 C 
BRANCH   4   5
ATOM      5  O   UNL A   1      33.251  28.784  23.168  1.00  0.00    -0.376 OA
BRANCH   5   6
ATOM      6  C   UNL A   1      33.835  27.494  23.494  1.00  0.00     0.202 C 
BRANCH   6   7
ATOM      7  C   UNL A   1      33.570  26.110  22.516  1.00  0.00     0.261 C 
BRANCH   7   8
ATOM      8  O   UNL A   1      32.861  24.768  22.882  1.00  0.00    -0.461 OA
BRANCH   8   9
ATOM      9  C   UNL A   1      33.110  23.400  23.143  1.00  0.00     0.331 C 
ATOM     10  O   UNL A   1      32.451  22.483  22.657  1.00  0.00    -0.249 OA
BRANCH   9  11
ATOM     11  C   UNL A   1      34.365  23.115  24.227  1.00  0.00     0.139 C 
BRANCH  11  12
ATOM     12  C   UNL A   1      34.673  23.608  25.710  1.00  0.00     0.037 C 
ATOM     13  C   UNL A   1      36.009  24.125  26.163  1.00  0.00     0.007 C 
ENDBRANCH  11  12
BRANCH  11  14
ATOM     14  C   UNL A   1      35.646  23.260  23.374  1.00  0.00     0.037 C 
ATOM     15  C   UNL A   1      36.708  22.169  23.476  1.00  0.00     0.007 C 
ENDBRANCH  11  14
BRANCH  11  16
ATOM     16  N   UNL A   1      33.994  21.782  24.514  1.00  0.00    -0.322 N 
ATOM     17  C   UNL A   1      32.879  21.611  25.241  1.00  0.00     0.320 C 
ATOM     18  H   UNL A   1      34.527  21.018  24.196  1.00  0.00     0.166 HD
ATOM     19  O   UNL A   1      32.428  20.467  25.205  1.00  0.00    -0.248 OA
ATOM     20  N   UNL A   1      32.219  22.644  25.904  1.00  0.00    -0.308 N 
ATOM     21  H   UNL A   1      31.843  22.211  26.704  1.00  0.00     0.171 HD
BRANCH  20  22
ATOM     22  C   UNL A   1      31.792  24.048  26.028  1.00  0.00     0.045 A 
ATOM     23  C   UNL A   1      32.539  25.167  26.433  1.00  0.00     0.046 A 
ATOM     24  C   UNL A   1      30.607  24.417  25.361  1.00  0.00     0.046 A 
ATOM     25  C   UNL A   1      32.084  26.498  26.374  1.00  0.00     0.044 A 
ATOM     26  C   UNL A   1      30.216  25.757  25.154  1.00  0.00     0.044 A 
ATOM     27  Cl  UNL A   1      33.046  27.765  27.038  1.00  0.00    -0.084 Cl
ATOM     28  C   UNL A   1      30.920  26.805  25.713  1.00  0.00     0.041 A 
ATOM     29  Cl  UNL A   1      28.876  26.102  24.129  1.00  0.00    -0.084 Cl
ENDBRANCH  20  22
ENDBRANCH  11  16
ENDBRANCH   9  11
ENDBRANCH   8   9
ENDBRANCH   7   8
ENDBRANCH   6   7
ENDBRANCH   5   6
ENDBRANCH   4   5
ENDBRANCH   3   4
ENDBRANCH   2   3
ENDBRANCH   1   2
BRANCH   1  30
ATOM     30  C   UNL A   1      29.148  30.622  23.715  1.00  0.00     0.188 C 
BRANCH  30  31
ATOM     31  O   UNL A   1      30.010  31.493  24.442  1.00  0.00    -0.376 OA
BRANCH  31  32
ATOM     32  C   UNL A   1      30.908  30.979  25.409  1.00  0.00     0.202 C 
BRANCH  32  33
ATOM     33  C   UNL A   1      31.355  31.905  26.560  1.00  0.00     0.261 C 
BRANCH  33  34
ATOM     34  O   UNL A   1      32.563  31.569  27.257  1.00  0.00    -0.460 OA
BRANCH  34  35
ATOM     35  C   UNL A   1      33.324  32.606  27.699  1.00  0.00     0.338 C 
ATOM     36  O   UNL A   1      32.940  33.700  28.024  1.00  0.00    -0.246 OA
BRANCH  35  37
ATOM     37  C   UNL A   1      34.724  32.120  27.896  1.00  0.00     0.060 A 
ATOM     38  C   UNL A   1      34.936  30.736  28.014  1.00  0.00     0.016 A 
ATOM     39  C   UNL A   1      35.806  32.999  27.985  1.00  0.00     0.016 A 
ATOM     40  C   UNL A   1      36.198  30.234  28.309  1.00  0.00     0.010 A 
ATOM     41  C   UNL A   1      37.065  32.502  28.346  1.00  0.00     0.010 A 
ATOM     42  C   UNL A   1      37.234  31.127  28.589  1.00  0.00    -0.014 A 
BRANCH  42  43
ATOM     43  C   UNL A   1      38.291  30.657  29.519  1.00  0.00     0.031 A 
ATOM     44  C   UNL A   1      39.275  29.648  28.979  1.00  0.00     0.074 A 
ATOM     45  C   UNL A   1      38.442  31.160  30.756  1.00  0.00     0.049 A 
ATOM     46  N   UNL A   1      40.301  29.088  29.561  1.00  0.00    -0.248 NA
ATOM     47  C   UNL A   1      39.073  29.216  27.584  1.00  0.00     0.031 C 
ATOM     48  C   UNL A   1      37.596  32.181  31.367  1.00  0.00     0.029 A 
ATOM     49  N   UNL A   1      39.370  30.862  31.721  1.00  0.00    -0.354 N 
ATOM     50  C   UNL A   1      40.831  28.207  28.624  1.00  0.00     0.074 A 
ATOM     51  C   UNL A   1      40.013  28.300  27.437  1.00  0.00     0.031 C 
ATOM     52  C   UNL A   1      38.034  32.412  32.618  1.00  0.00     0.029 A 
ATOM     53  C   UNL A   1      39.170  31.536  32.901  1.00  0.00     0.049 A 
ATOM     54  H   UNL A   1      40.109  30.227  31.581  1.00  0.00     0.167 HD
ATOM     55  C   UNL A   1      41.908  27.396  28.731  1.00  0.00     0.034 A 
ATOM     56  C   UNL A   1      39.823  31.437  34.076  1.00  0.00     0.034 A 
ATOM     57  C   UNL A   1      42.732  27.321  29.904  1.00  0.00     0.049 A 
ATOM     58  C   UNL A   1      40.996  30.495  34.189  1.00  0.00     0.074 A 
ATOM     59  C   UNL A   1      43.868  26.560  30.109  1.00  0.00     0.029 A 
ATOM     60  N   UNL A   1      42.497  28.020  31.077  1.00  0.00    -0.354 N 
ATOM     61  N   UNL A   1      41.532  29.725  33.273  1.00  0.00    -0.248 NA
ATOM     62  C   UNL A   1      41.675  30.436  35.491  1.00  0.00     0.031 C 
ATOM     63  C   UNL A   1      44.292  26.764  31.426  1.00  0.00     0.029 A 
ATOM     64  C   UNL A   1      43.457  27.697  32.018  1.00  0.00     0.049 A 
ATOM     65  H   UNL A   1      41.757  28.653  31.219  1.00  0.00     0.167 HD
ATOM     66  C   UNL A   1      42.642  29.133  33.870  1.00  0.00     0.074 A 
ATOM     67  C   UNL A   1      42.701  29.640  35.226  1.00  0.00     0.031 C 
ATOM     68  C   UNL A   1      43.530  28.251  33.346  1.00  0.00     0.034 A 
BRANCH  55  69
ATOM     69  C   UNL A   1      42.230  26.509  27.557  1.00  0.00     0.023 A 
ATOM     70  C   UNL A   1      42.914  27.026  26.436  1.00  0.00     0.012 A 
ATOM     71  C   UNL A   1      41.857  25.151  27.571  1.00  0.00     0.148 A 
ATOM     72  C   UNL A   1      43.178  26.216  25.331  1.00  0.00     0.002 A 
ATOM     73  C   UNL A   1      42.174  24.338  26.490  1.00  0.00     0.091 A 
ATOM     74  F   UNL A   1      41.182  24.684  28.631  1.00  0.00    -0.205 F 
ATOM     75  C   UNL A   1      42.819  24.872  25.363  1.00  0.00     0.022 A 
BRANCH  73  76
ATOM     76  S   UNL A   1      41.831  22.576  26.477  1.00  0.00     0.127 S 
ATOM     77  O   UNL A   1      42.495  22.136  27.703  1.00  0.00    -0.237 OA
ATOM     78  O   UNL A   1      40.369  22.548  26.532  1.00  0.00    -0.237 OA
ATOM     79  O   UNL A   1      42.402  22.063  25.239  1.00  0.00    -0.744 OA
ENDBRANCH  73  76
ENDBRANCH  55  69
BRANCH  56  80
ATOM     80  C   UNL A   1      39.408  32.278  35.234  1.00  0.00     0.023 A 
ATOM     81  C   UNL A   1      39.772  33.638  35.275  1.00  0.00     0.012 A 
ATOM     82  C   UNL A   1      38.647  31.739  36.290  1.00  0.00     0.148 A 
ATOM     83  C   UNL A   1      39.413  34.439  36.359  1.00  0.00     0.002 A 
ATOM     84  C   UNL A   1      38.245  32.555  37.340  1.00  0.00     0.091 A 
ATOM     85  F   UNL A   1      38.322  30.440  36.238  1.00  0.00    -0.205 F 
ATOM     86  C   UNL A   1      38.642  33.901  37.386  1.00  0.00     0.022 A 
BRANCH  84  87
ATOM     87  S   UNL A   1      37.154  31.984  38.647  1.00  0.00     0.127 S 
ATOM     88  O   UNL A   1      35.928  32.722  38.357  1.00  0.00    -0.237 OA
ATOM     89  O   UNL A   1      37.091  30.549  38.374  1.00  0.00    -0.237 OA
ATOM     90  O   UNL A   1      37.815  32.334  39.897  1.00  0.00    -0.744 OA
ENDBRANCH  84  87
ENDBRANCH  56  80
BRANCH  68  91
ATOM     91  C   UNL A   1      44.694  27.830  34.208  1.00  0.00     0.023 A 
ATOM     92  C   UNL A   1      45.883  28.585  34.224  1.00  0.00     0.012 A 
ATOM     93  C   UNL A   1      44.575  26.710  35.056  1.00  0.00     0.148 A 
ATOM     94  C   UNL A   1      46.951  28.205  35.037  1.00  0.00     0.002 A 
ATOM     95  C   UNL A   1      45.620  26.373  35.906  1.00  0.00     0.091 A 
ATOM     96  F   UNL A   1      43.442  25.994  35.016  1.00  0.00    -0.205 F 
ATOM     97  C   UNL A   1      46.816  27.108  35.885  1.00  0.00     0.022 A 
BRANCH  95  98
ATOM     98  S   UNL A   1      45.490  25.043  37.106  1.00  0.00     0.127 S 
ATOM     99  O   UNL A   1      46.311  24.003  36.488  1.00  0.00    -0.237 OA
ATOM    100  O   UNL A   1      46.073  25.648  38.304  1.00  0.00    -0.237 OA
ATOM    101  O   UNL A   1      44.071  24.736  37.215  1.00  0.00    -0.744 OA
ENDBRANCH  95  98
ENDBRANCH  68  91
ENDBRANCH  42  43
ENDBRANCH  35  37
ENDBRANCH  34  35
ENDBRANCH  33  34
ENDBRANCH  32  33
ENDBRANCH  31  32
ENDBRANCH  30  31
ENDBRANCH   1  30
TORSDOF 27
ENDMDL
MODEL 2
REMARK VINA RESULT:      -9.4      1.756      2.617
REMARK SMILES CCC(CC)(NC(=O)Nc1cc(Cl)cc(Cl)c1)C(=O)OCCOCCOCCOCCOC(=O)c1ccc(-c2c3nc(c(-c4cccc(S(=O)(=O)[O-])c4F)c4ccc([nH]4)c(-c4cccc(S(=O)(=O)[O-])c4F)c4nc(c(-c5cccc(S(=O)(=O)[O-])c5F)c5ccc2[nH]5)C=C4)C=C3)cc1
REMARK SMILES IDX 27 1 26 2 25 3 24 4 23 5 22 6 21 7 20 8 18 9 19 10 3 11 2 12
REMARK SMILES IDX 1 13 4 14 5 15 6 16 7 17 8 19 9 20 10 22 11 23 17 24 12 25
REMARK SMILES IDX 15 26 13 27 14 28 16 29 28 30 29 31 30 32 31 33 32 34 33 35
REMARK SMILES IDX 34 36 35 37 36 38 97 39 37 40 96 41 38 42 39 43 40 44 90 45
REMARK SMILES IDX 41 46 95 47 89 48 91 49 42 50 94 51 88 52 87 53 43 55 75 56
REMARK SMILES IDX 55 57 74 58 56 59 59 60 73 61 92 62 57 63 58 64 72 66 93 67
REMARK SMILES IDX 60 68 44 69 45 70 53 71 46 72 48 73 54 74 47 75 49 76 50 77
REMARK SMILES IDX 51 78 52 79 76 80 77 81 85 82 78 83 80 84 86 85 79 86 81 87
REMARK SMILES IDX 82 88 83 89 84 90 61 91 62 92 70 93 63 94 65 95 71 96 64 97
REMARK SMILES IDX 66 98 67 99 68 100 69 101
REMARK H PARENT 6 18 9 21 91 54 59 65
REMARK Flexibility Score: inf
ROOT
ATOM      1  C   UNL A   1      29.548  30.141  22.674  1.00  0.00     0.188 C 
ENDROOT
BRANCH   1   2
ATOM      2  O   UNL A   1      29.867  28.951  21.965  1.00  0.00    -0.377 OA
BRANCH   2   3
ATOM      3  C   UNL A   1      31.128  28.350  22.238  1.00  0.00     0.188 C 
BRANCH   3   4
ATOM      4  C   UNL A   1      32.382  29.286  22.252  1.00  0.00     0.188 C 
BRANCH   4   5
ATOM      5  O   UNL A   1      33.233  28.918  23.382  1.00  0.00    -0.376 OA
BRANCH   5   6
ATOM      6  C   UNL A   1      33.917  27.744  23.896  1.00  0.00     0.202 C 
BRANCH   6   7
ATOM      7  C   UNL A   1      34.227  26.376  22.910  1.00  0.00     0.261 C 
BRANCH   7   8
ATOM      8  O   UNL A   1      33.362  25.091  22.709  1.00  0.00    -0.461 OA
BRANCH   8   9
ATOM      9  C   UNL A   1      33.192  23.767  23.175  1.00  0.00     0.331 C 
ATOM     10  O   UNL A   1      33.929  22.835  22.862  1.00  0.00    -0.249 OA
BRANCH   9  11
ATOM     11  C   UNL A   1      31.853  23.545  24.170  1.00  0.00     0.139 C 
BRANCH  11  12
ATOM     12  C   UNL A   1      31.446  22.440  25.242  1.00  0.00     0.037 C 
ATOM     13  C   UNL A   1      30.404  22.642  26.304  1.00  0.00     0.007 C 
ENDBRANCH  11  12
BRANCH  11  14
ATOM     14  C   UNL A   1      30.643  23.817  23.247  1.00  0.00     0.037 C 
ATOM     15  C   UNL A   1      29.872  25.121  23.433  1.00  0.00     0.007 C 
ENDBRANCH  11  14
BRANCH  11  16
ATOM     16  N   UNL A   1      32.168  24.600  25.055  1.00  0.00    -0.322 N 
ATOM     17  C   UNL A   1      33.243  24.426  25.840  1.00  0.00     0.320 C 
ATOM     18  H   UNL A   1      31.627  25.422  25.094  1.00  0.00     0.166 HD
ATOM     19  O   UNL A   1      33.660  25.461  26.357  1.00  0.00    -0.248 OA
ATOM     20  N   UNL A   1      33.905  23.208  25.992  1.00  0.00    -0.308 N 
ATOM     21  H   UNL A   1      34.229  23.228  26.920  1.00  0.00     0.171 HD
BRANCH  20  22
ATOM     22  C   UNL A   1      34.369  21.907  25.481  1.00  0.00     0.045 A 
ATOM     23  C   UNL A   1      35.683  21.448  25.295  1.00  0.00     0.046 A 
ATOM     24  C   UNL A   1      33.435  20.852  25.479  1.00  0.00     0.046 A 
ATOM     25  C   UNL A   1      36.029  20.129  24.944  1.00  0.00     0.044 A 
ATOM     26  C   UNL A   1      33.789  19.500  25.286  1.00  0.00     0.044 A 
ATOM     27  Cl  UNL A   1      37.672  19.733  24.605  1.00  0.00    -0.084 Cl
ATOM     28  C   UNL A   1      35.080  19.136  24.955  1.00  0.00     0.041 A 
ATOM     29  Cl  UNL A   1      32.611  18.269  25.532  1.00  0.00    -0.084 Cl
ENDBRANCH  20  22
ENDBRANCH  11  16
ENDBRANCH   9  11
ENDBRANCH   8   9
ENDBRANCH   7   8
ENDBRANCH   6   7
ENDBRANCH   5   6
ENDBRANCH   4   5
ENDBRANCH   3   4
ENDBRANCH   2   3
ENDBRANCH   1   2
BRANCH   1  30
ATOM     30  C   UNL A   1      29.721  30.011  24.198  1.00  0.00     0.188 C 
BRANCH  30  31
ATOM     31  O   UNL A   1      30.753  30.721  24.877  1.00  0.00    -0.376 OA
BRANCH  31  32
ATOM     32  C   UNL A   1      31.431  30.136  25.975  1.00  0.00     0.202 C 
BRANCH  32  33
ATOM     33  C   UNL A   1      32.103  31.069  27.004  1.00  0.00     0.261 C 
BRANCH  33  34
ATOM     34  O   UNL A   1      33.498  31.356  26.835  1.00  0.00    -0.460 OA
BRANCH  34  35
ATOM     35  C   UNL A   1      34.057  32.222  27.722  1.00  0.00     0.338 C 
ATOM     36  O   UNL A   1      33.496  33.090  28.339  1.00  0.00    -0.246 OA
BRANCH  35  37
ATOM     37  C   UNL A   1      35.476  31.813  27.958  1.00  0.00     0.060 A 
ATOM     38  C   UNL A   1      35.802  30.452  27.842  1.00  0.00     0.016 A 
ATOM     39  C   UNL A   1      36.464  32.738  28.304  1.00  0.00     0.016 A 
ATOM     40  C   UNL A   1      37.078  29.998  28.158  1.00  0.00     0.010 A 
ATOM     41  C   UNL A   1      37.730  32.277  28.686  1.00  0.00     0.010 A 
ATOM     42  C   UNL A   1      38.004  30.897  28.691  1.00  0.00    -0.014 A 
BRANCH  42  43
ATOM     43  C   UNL A   1      39.022  30.341  29.615  1.00  0.00     0.031 A 
ATOM     44  C   UNL A   1      39.919  29.256  29.068  1.00  0.00     0.074 A 
ATOM     45  C   UNL A   1      39.219  30.826  30.852  1.00  0.00     0.049 A 
ATOM     46  N   UNL A   1      40.899  28.613  29.645  1.00  0.00    -0.248 NA
ATOM     47  C   UNL A   1      39.676  28.845  27.673  1.00  0.00     0.031 C 
ATOM     48  C   UNL A   1      38.463  31.912  31.469  1.00  0.00     0.029 A 
ATOM     49  N   UNL A   1      40.124  30.452  31.812  1.00  0.00    -0.354 N 
ATOM     50  C   UNL A   1      41.351  27.694  28.703  1.00  0.00     0.074 A 
ATOM     51  C   UNL A   1      40.538  27.855  27.521  1.00  0.00     0.031 C 
ATOM     52  C   UNL A   1      38.923  32.103  32.718  1.00  0.00     0.029 A 
ATOM     53  C   UNL A   1      39.985  31.137  32.994  1.00  0.00     0.049 A 
ATOM     54  H   UNL A   1      40.808  29.759  31.668  1.00  0.00     0.167 HD
ATOM     55  C   UNL A   1      42.358  26.797  28.805  1.00  0.00     0.034 A 
ATOM     56  C   UNL A   1      40.633  30.983  34.166  1.00  0.00     0.034 A 
ATOM     57  C   UNL A   1      43.178  26.653  29.973  1.00  0.00     0.049 A 
ATOM     58  C   UNL A   1      41.726  29.948  34.273  1.00  0.00     0.074 A 
ATOM     59  C   UNL A   1      44.250  25.802  30.172  1.00  0.00     0.029 A 
ATOM     60  N   UNL A   1      43.006  27.366  31.149  1.00  0.00    -0.354 N 
ATOM     61  N   UNL A   1      42.194  29.139  33.352  1.00  0.00    -0.248 NA
ATOM     62  C   UNL A   1      42.404  29.832  35.571  1.00  0.00     0.031 C 
ATOM     63  C   UNL A   1      44.695  25.967  31.487  1.00  0.00     0.029 A 
ATOM     64  C   UNL A   1      43.941  26.964  32.085  1.00  0.00     0.049 A 
ATOM     65  H   UNL A   1      42.321  28.057  31.295  1.00  0.00     0.167 HD
ATOM     66  C   UNL A   1      43.254  28.457  33.943  1.00  0.00     0.074 A 
ATOM     67  C   UNL A   1      43.360  28.955  35.299  1.00  0.00     0.031 C 
ATOM     68  C   UNL A   1      44.065  27.507  33.414  1.00  0.00     0.034 A 
BRANCH  55  69
ATOM     69  C   UNL A   1      42.602  25.890  27.627  1.00  0.00     0.023 A 
ATOM     70  C   UNL A   1      43.356  26.338  26.522  1.00  0.00     0.012 A 
ATOM     71  C   UNL A   1      42.084  24.580  27.623  1.00  0.00     0.148 A 
ATOM     72  C   UNL A   1      43.550  25.513  25.414  1.00  0.00     0.002 A 
ATOM     73  C   UNL A   1      42.330  23.746  26.539  1.00  0.00     0.091 A 
ATOM     74  F   UNL A   1      41.346  24.181  28.667  1.00  0.00    -0.205 F 
ATOM     75  C   UNL A   1      43.047  24.215  25.428  1.00  0.00     0.022 A 
BRANCH  73  76
ATOM     76  S   UNL A   1      41.798  22.031  26.504  1.00  0.00     0.127 S 
ATOM     77  O   UNL A   1      42.338  21.528  27.766  1.00  0.00    -0.237 OA
ATOM     78  O   UNL A   1      40.341  22.162  26.474  1.00  0.00    -0.237 OA
ATOM     79  O   UNL A   1      42.380  21.453  25.301  1.00  0.00    -0.744 OA
ENDBRANCH  73  76
ENDBRANCH  55  69
BRANCH  56  80
ATOM     80  C   UNL A   1      40.293  31.852  35.327  1.00  0.00     0.023 A 
ATOM     81  C   UNL A   1      41.080  32.987  35.604  1.00  0.00     0.012 A 
ATOM     82  C   UNL A   1      39.188  31.565  36.153  1.00  0.00     0.148 A 
ATOM     83  C   UNL A   1      40.794  33.804  36.698  1.00  0.00     0.002 A 
ATOM     84  C   UNL A   1      38.875  32.413  37.209  1.00  0.00     0.091 A 
ATOM     85  F   UNL A   1      38.460  30.474  35.881  1.00  0.00    -0.205 F 
ATOM     86  C   UNL A   1      39.686  33.523  37.494  1.00  0.00     0.022 A 
BRANCH  84  87
ATOM     87  S   UNL A   1      37.404  32.201  38.217  1.00  0.00     0.127 S 
ATOM     88  O   UNL A   1      36.413  32.966  37.464  1.00  0.00    -0.237 OA
ATOM     89  O   UNL A   1      37.224  30.750  38.177  1.00  0.00    -0.237 OA
ATOM     90  O   UNL A   1      37.742  32.734  39.529  1.00  0.00    -0.744 OA
ENDBRANCH  84  87
ENDBRANCH  56  80
BRANCH  68  91
ATOM     91  C   UNL A   1      45.195  26.991  34.269  1.00  0.00     0.023 A 
ATOM     92  C   UNL A   1      46.452  27.625  34.255  1.00  0.00     0.012 A 
ATOM     93  C   UNL A   1      44.979  25.905  35.143  1.00  0.00     0.148 A 
ATOM     94  C   UNL A   1      47.490  27.158  35.062  1.00  0.00     0.002 A 
ATOM     95  C   UNL A   1      45.998  25.483  35.987  1.00  0.00     0.091 A 
ATOM     96  F   UNL A   1      43.780  25.304  35.132  1.00  0.00    -0.205 F 
ATOM     97  C   UNL A   1      47.260  26.097  35.934  1.00  0.00     0.022 A 
BRANCH  95  98
ATOM     98  S   UNL A   1      45.756  24.197  37.216  1.00  0.00     0.127 S 
ATOM     99  O   UNL A   1      47.023  24.238  37.943  1.00  0.00    -0.237 OA
ATOM    100  O   UNL A   1      44.605  24.699  37.967  1.00  0.00    -0.237 OA
ATOM    101  O   UNL A   1      45.502  22.971  36.471  1.00  0.00    -0.744 OA
ENDBRANCH  95  98
ENDBRANCH  68  91
ENDBRANCH  42  43
ENDBRANCH  35  37
ENDBRANCH  34  35
ENDBRANCH  33  34
ENDBRANCH  32  33
ENDBRANCH  31  32
ENDBRANCH  30  31
ENDBRANCH   1  30
TORSDOF 27
ENDMDL
MODEL 3
REMARK VINA RESULT:      -8.9      6.006     10.771
REMARK SMILES CCC(CC)(NC(=O)Nc1cc(Cl)cc(Cl)c1)C(=O)OCCOCCOCCOCCOC(=O)c1ccc(-c2c3nc(c(-c4cccc(S(=O)(=O)[O-])c4F)c4ccc([nH]4)c(-c4cccc(S(=O)(=O)[O-])c4F)c4nc(c(-c5cccc(S(=O)(=O)[O-])c5F)c5ccc2[nH]5)C=C4)C=C3)cc1
REMARK SMILES IDX 27 1 26 2 25 3 24 4 23 5 22 6 21 7 20 8 18 9 19 10 3 11 2 12
REMARK SMILES IDX 1 13 4 14 5 15 6 16 7 17 8 19 9 20 10 22 11 23 17 24 12 25
REMARK SMILES IDX 15 26 13 27 14 28 16 29 28 30 29 31 30 32 31 33 32 34 33 35
REMARK SMILES IDX 34 36 35 37 36 38 97 39 37 40 96 41 38 42 39 43 40 44 90 45
REMARK SMILES IDX 41 46 95 47 89 48 91 49 42 50 94 51 88 52 87 53 43 55 75 56
REMARK SMILES IDX 55 57 74 58 56 59 59 60 73 61 92 62 57 63 58 64 72 66 93 67
REMARK SMILES IDX 60 68 44 69 45 70 53 71 46 72 48 73 54 74 47 75 49 76 50 77
REMARK SMILES IDX 51 78 52 79 76 80 77 81 85 82 78 83 80 84 86 85 79 86 81 87
REMARK SMILES IDX 82 88 83 89 84 90 61 91 62 92 70 93 63 94 65 95 71 96 64 97
REMARK SMILES IDX 66 98 67 99 68 100 69 101
REMARK H PARENT 6 18 9 21 91 54 59 65
REMARK Flexibility Score: inf
ROOT
ATOM      1  C   UNL A   1      42.587  20.781  26.005  1.00  0.00     0.188 C 
ENDROOT
BRANCH   1   2
ATOM      2  O   UNL A   1      42.048  21.074  27.287  1.00  0.00    -0.377 OA
BRANCH   2   3
ATOM      3  C   UNL A   1      40.635  20.997  27.430  1.00  0.00     0.188 C 
BRANCH   3   4
ATOM      4  C   UNL A   1      39.778  22.087  26.705  1.00  0.00     0.188 C 
BRANCH   4   5
ATOM      5  O   UNL A   1      39.099  21.472  25.566  1.00  0.00    -0.376 OA
BRANCH   5   6
ATOM      6  C   UNL A   1      37.775  20.984  25.218  1.00  0.00     0.202 C 
BRANCH   6   7
ATOM      7  C   UNL A   1      36.459  22.053  24.959  1.00  0.00     0.261 C 
BRANCH   7   8
ATOM      8  O   UNL A   1      35.313  22.459  25.939  1.00  0.00    -0.461 OA
BRANCH   8   9
ATOM      9  C   UNL A   1      34.015  22.091  26.365  1.00  0.00     0.331 C 
ATOM     10  O   UNL A   1      33.771  21.066  26.996  1.00  0.00    -0.249 OA
BRANCH   9  11
ATOM     11  C   UNL A   1      32.800  23.155  25.893  1.00  0.00     0.139 C 
BRANCH  11  12
ATOM     12  C   UNL A   1      31.975  23.357  24.546  1.00  0.00     0.037 C 
ATOM     13  C   UNL A   1      32.565  23.229  23.171  1.00  0.00     0.007 C 
ENDBRANCH  11  12
BRANCH  11  14
ATOM     14  C   UNL A   1      33.284  24.535  26.396  1.00  0.00     0.037 C 
ATOM     15  C   UNL A   1      34.246  25.327  25.514  1.00  0.00     0.007 C 
ENDBRANCH  11  14
BRANCH  11  16
ATOM     16  N   UNL A   1      31.789  22.561  26.681  1.00  0.00    -0.322 N 
ATOM     17  C   UNL A   1      30.707  23.313  26.937  1.00  0.00     0.320 C 
ATOM     18  H   UNL A   1      31.874  21.643  27.023  1.00  0.00     0.166 HD
ATOM     19  O   UNL A   1      29.739  22.675  27.347  1.00  0.00    -0.248 OA
ATOM     20  N   UNL A   1      30.631  24.680  26.676  1.00  0.00    -0.308 N 
ATOM     21  H   UNL A   1      30.048  25.026  27.389  1.00  0.00     0.171 HD
BRANCH  20  22
ATOM     22  C   UNL A   1      30.973  25.875  25.886  1.00  0.00     0.045 A 
ATOM     23  C   UNL A   1      30.626  26.188  24.561  1.00  0.00     0.046 A 
ATOM     24  C   UNL A   1      31.415  27.007  26.599  1.00  0.00     0.046 A 
ATOM     25  C   UNL A   1      30.873  27.427  23.939  1.00  0.00     0.044 A 
ATOM     26  C   UNL A   1      31.515  28.294  26.029  1.00  0.00     0.044 A 
ATOM     27  Cl  UNL A   1      30.527  27.632  22.264  1.00  0.00    -0.084 Cl
ATOM     28  C   UNL A   1      31.305  28.501  24.680  1.00  0.00     0.041 A 
ATOM     29  Cl  UNL A   1      31.841  29.649  27.041  1.00  0.00    -0.084 Cl
ENDBRANCH  20  22
ENDBRANCH  11  16
ENDBRANCH   9  11
ENDBRANCH   8   9
ENDBRANCH   7   8
ENDBRANCH   6   7
ENDBRANCH   5   6
ENDBRANCH   4   5
ENDBRANCH   3   4
ENDBRANCH   2   3
ENDBRANCH   1   2
BRANCH   1  30
ATOM     30  C   UNL A   1      43.763  21.692  25.612  1.00  0.00     0.188 C 
BRANCH  30  31
ATOM     31  O   UNL A   1      43.529  22.980  25.047  1.00  0.00    -0.376 OA
BRANCH  31  32
ATOM     32  C   UNL A   1      42.688  23.914  25.701  1.00  0.00     0.202 C 
BRANCH  32  33
ATOM     33  C   UNL A   1      43.299  25.253  26.164  1.00  0.00     0.261 C 
BRANCH  33  34
ATOM     34  O   UNL A   1      42.666  25.935  27.254  1.00  0.00    -0.460 OA
BRANCH  34  35
ATOM     35  C   UNL A   1      41.820  26.951  26.934  1.00  0.00     0.338 C 
ATOM     36  O   UNL A   1      41.111  27.024  25.964  1.00  0.00    -0.246 OA
BRANCH  35  37
ATOM     37  C   UNL A   1      41.767  27.908  28.081  1.00  0.00     0.060 A 
ATOM     38  C   UNL A   1      40.888  28.999  27.995  1.00  0.00     0.016 A 
ATOM     39  C   UNL A   1      42.574  27.752  29.211  1.00  0.00     0.016 A 
ATOM     40  C   UNL A   1      40.875  29.980  28.980  1.00  0.00     0.010 A 
ATOM     41  C   UNL A   1      42.612  28.771  30.172  1.00  0.00     0.010 A 
ATOM     42  C   UNL A   1      41.821  29.922  30.006  1.00  0.00    -0.014 A 
BRANCH  42  43
ATOM     43  C   UNL A   1      42.250  31.214  30.597  1.00  0.00     0.031 A 
ATOM     44  C   UNL A   1      41.375  31.791  31.684  1.00  0.00     0.074 A 
ATOM     45  C   UNL A   1      43.405  31.814  30.264  1.00  0.00     0.049 A 
ATOM     46  N   UNL A   1      41.520  32.886  32.380  1.00  0.00    -0.248 NA
ATOM     47  C   UNL A   1      40.168  31.019  32.034  1.00  0.00     0.031 C 
ATOM     48  C   UNL A   1      44.363  31.324  29.278  1.00  0.00     0.029 A 
ATOM     49  N   UNL A   1      43.958  32.980  30.728  1.00  0.00    -0.354 N 
ATOM     50  C   UNL A   1      40.405  32.956  33.209  1.00  0.00     0.074 A 
ATOM     51  C   UNL A   1      39.588  31.799  32.928  1.00  0.00     0.031 C 
ATOM     52  C   UNL A   1      45.382  32.199  29.194  1.00  0.00     0.029 A 
ATOM     53  C   UNL A   1      45.132  33.318  30.101  1.00  0.00     0.049 A 
ATOM     54  H   UNL A   1      43.553  33.523  31.443  1.00  0.00     0.167 HD
ATOM     55  C   UNL A   1      40.087  33.892  34.131  1.00  0.00     0.034 A 
ATOM     56  C   UNL A   1      45.900  34.418  30.235  1.00  0.00     0.034 A 
ATOM     57  C   UNL A   1      40.912  35.030  34.425  1.00  0.00     0.049 A 
ATOM     58  C   UNL A   1      45.507  35.473  31.240  1.00  0.00     0.074 A 
ATOM     59  C   UNL A   1      40.705  36.022  35.365  1.00  0.00     0.029 A 
ATOM     60  N   UNL A   1      42.094  35.336  33.768  1.00  0.00    -0.354 N 
ATOM     61  N   UNL A   1      44.491  35.488  32.070  1.00  0.00    -0.248 NA
ATOM     62  C   UNL A   1      46.388  36.644  31.350  1.00  0.00     0.031 C 
ATOM     63  C   UNL A   1      41.738  36.956  35.243  1.00  0.00     0.029 A 
ATOM     64  C   UNL A   1      42.620  36.512  34.270  1.00  0.00     0.049 A 
ATOM     65  H   UNL A   1      42.498  34.796  33.052  1.00  0.00     0.167 HD
ATOM     66  C   UNL A   1      44.640  36.641  32.836  1.00  0.00     0.074 A 
ATOM     67  C   UNL A   1      45.848  37.292  32.373  1.00  0.00     0.031 C 
ATOM     68  C   UNL A   1      43.852  37.118  33.832  1.00  0.00     0.034 A 
BRANCH  55  69
ATOM     69  C   UNL A   1      38.780  33.732  34.863  1.00  0.00     0.023 A 
ATOM     70  C   UNL A   1      37.577  34.189  34.287  1.00  0.00     0.012 A 
ATOM     71  C   UNL A   1      38.748  33.117  36.130  1.00  0.00     0.148 A 
ATOM     72  C   UNL A   1      36.371  34.078  34.980  1.00  0.00     0.002 A 
ATOM     73  C   UNL A   1      37.535  32.960  36.789  1.00  0.00     0.091 A 
ATOM     74  F   UNL A   1      39.905  32.716  36.675  1.00  0.00    -0.205 F 
ATOM     75  C   UNL A   1      36.349  33.453  36.224  1.00  0.00     0.022 A 
BRANCH  73  76
ATOM     76  S   UNL A   1      37.396  32.091  38.354  1.00  0.00     0.127 S 
ATOM     77  O   UNL A   1      36.126  32.605  38.865  1.00  0.00    -0.237 OA
ATOM     78  O   UNL A   1      37.359  30.692  37.927  1.00  0.00    -0.237 OA
ATOM     79  O   UNL A   1      38.575  32.459  39.125  1.00  0.00    -0.744 OA
ENDBRANCH  73  76
ENDBRANCH  55  69
BRANCH  56  80
ATOM     80  C   UNL A   1      47.141  34.565  29.424  1.00  0.00     0.023 A 
ATOM     81  C   UNL A   1      48.356  34.042  29.906  1.00  0.00     0.012 A 
ATOM     82  C   UNL A   1      47.121  35.214  28.173  1.00  0.00     0.148 A 
ATOM     83  C   UNL A   1      49.535  34.186  29.173  1.00  0.00     0.002 A 
ATOM     84  C   UNL A   1      48.286  35.307  27.423  1.00  0.00     0.091 A 
ATOM     85  F   UNL A   1      45.957  35.716  27.738  1.00  0.00    -0.205 F 
ATOM     86  C   UNL A   1      49.499  34.809  27.928  1.00  0.00     0.022 A 
BRANCH  84  87
ATOM     87  S   UNL A   1      48.317  35.985  25.761  1.00  0.00     0.127 S 
ATOM     88  O   UNL A   1      47.075  36.753  25.728  1.00  0.00    -0.237 OA
ATOM     89  O   UNL A   1      49.539  36.788  25.791  1.00  0.00    -0.237 OA
ATOM     90  O   UNL A   1      48.369  34.838  24.865  1.00  0.00    -0.744 OA
ENDBRANCH  84  87
ENDBRANCH  56  80
BRANCH  68  91
ATOM     91  C   UNL A   1      44.302  38.366  34.550  1.00  0.00     0.023 A 
ATOM     92  C   UNL A   1      45.230  38.289  35.606  1.00  0.00     0.012 A 
ATOM     93  C   UNL A   1      43.844  39.629  34.123  1.00  0.00     0.148 A 
ATOM     94  C   UNL A   1      45.661  39.446  36.255  1.00  0.00     0.002 A 
ATOM     95  C   UNL A   1      44.322  40.781  34.734  1.00  0.00     0.091 A 
ATOM     96  F   UNL A   1      42.948  39.682  33.126  1.00  0.00    -0.205 F 
ATOM     97  C   UNL A   1      45.217  40.690  35.813  1.00  0.00     0.022 A 
BRANCH  95  98
ATOM     98  S   UNL A   1      43.887  42.425  34.159  1.00  0.00     0.127 S 
ATOM     99  O   UNL A   1      42.627  42.662  34.862  1.00  0.00    -0.237 OA
ATOM    100  O   UNL A   1      45.013  43.229  34.636  1.00  0.00    -0.237 OA
ATOM    101  O   UNL A   1      43.785  42.330  32.709  1.00  0.00    -0.744 OA
ENDBRANCH  95  98
ENDBRANCH  68  91
ENDBRANCH  42  43
ENDBRANCH  35  37
ENDBRANCH  34  35
ENDBRANCH  33  34
ENDBRANCH  32  33
ENDBRANCH  31  32
ENDBRANCH  30  31
ENDBRANCH   1  30
TORSDOF 27
ENDMDL
