MODEL 1
REMARK VINA RESULT:      -9.9      0.000      0.000
REMARK SMILES COc1ccc(-c2[nH]nc3nc(-c4ccc(C(F)(F)F)cc4)cc(C(=O)OCCOCCOCCOCCOC(=O)c4ccc(-c5c6nc(c(-c7cccc(S(=O)(=O)[O-])c7F)c7ccc([nH]7)c(-c7cccc(S(=O)(=O)[O-])c7F)c7nc(c(-c8cccc(S(=O)(=O)[O-])c8F)c8ccc5[nH]8)C=C7)C=C6)cc4)c23)cc1
REMARK SMILES IDX 34 1 33 2 32 3 31 4 30 5 29 6 28 7 27 8 25 9 26 10 24 11
REMARK SMILES IDX 7 12 8 13 105 14 9 15 10 17 11 18 23 19 12 20 6 21 3 22 4 23
REMARK SMILES IDX 107 24 5 25 106 26 2 27 1 28 13 29 14 30 22 31 15 32 21 33
REMARK SMILES IDX 16 34 17 35 18 36 19 37 20 38 35 39 36 40 37 41 38 42 39 43
REMARK SMILES IDX 40 44 41 45 42 46 43 47 104 48 44 49 103 50 45 51 46 52
REMARK SMILES IDX 47 53 97 54 48 55 102 56 96 57 98 58 49 59 101 60 95 61
REMARK SMILES IDX 94 62 50 64 82 65 62 66 81 67 63 68 66 69 80 70 99 71 64 72
REMARK SMILES IDX 65 73 79 75 100 76 67 77 51 78 52 79 60 80 53 81 55 82 61 83
REMARK SMILES IDX 54 84 56 85 57 86 58 87 59 88 83 89 84 90 92 91 85 92 87 93
REMARK SMILES IDX 93 94 86 95 88 96 89 97 90 98 91 99 68 100 69 101 77 102
REMARK SMILES IDX 70 103 72 104 78 105 71 106 73 107 74 108 75 109 76 110
REMARK H PARENT 8 16 98 63 66 74
REMARK Flexibility Score: inf
ROOT
ATOM      1  C   UNL A   1      40.614  21.355  26.574  1.00  0.00     0.188 C 
ENDROOT
BRANCH   1   2
ATOM      2  O   UNL A   1      39.750  20.522  25.804  1.00  0.00    -0.377 OA
BRANCH   2   3
ATOM      3  C   UNL A   1      38.482  21.071  25.461  1.00  0.00     0.188 C 
BRANCH   3   4
ATOM      4  C   UNL A   1      37.382  20.056  25.184  1.00  0.00     0.188 C 
BRANCH   4   5
ATOM      5  O   UNL A   1      36.326  20.487  24.348  1.00  0.00    -0.376 OA
BRANCH   5   6
ATOM      6  C   UNL A   1      35.570  21.640  24.682  1.00  0.00     0.202 C 
BRANCH   6   7
ATOM      7  C   UNL A   1      35.741  22.920  23.847  1.00  0.00     0.261 C 
BRANCH   7   8
ATOM      8  O   UNL A   1      35.675  24.160  24.580  1.00  0.00    -0.460 OA
BRANCH   8   9
ATOM      9  C   UNL A   1      34.745  24.293  25.550  1.00  0.00     0.339 C 
ATOM     10  O   UNL A   1      34.719  23.643  26.587  1.00  0.00    -0.246 OA
BRANCH   9  11
ATOM     11  C   UNL A   1      33.840  25.409  25.181  1.00  0.00     0.075 A 
ATOM     12  C   UNL A   1      32.184  24.306  23.604  1.00  0.00     0.075 A 
ATOM     13  N   UNL A   1      31.251  24.892  22.775  1.00  0.00    -0.275 N 
ATOM     14  C   UNL A   1      32.800  25.378  24.238  1.00  0.00     0.061 A 
ATOM     15  N   UNL A   1      31.087  26.207  22.952  1.00  0.00    -0.154 NA
ATOM     16  H   UNL A   1      30.743  24.380  22.104  1.00  0.00     0.190 HD
ATOM     17  C   UNL A   1      31.974  26.507  23.900  1.00  0.00     0.182 A 
ATOM     18  N   UNL A   1      32.080  27.707  24.515  1.00  0.00    -0.226 NA
ATOM     19  C   UNL A   1      33.875  26.665  25.838  1.00  0.00     0.045 A 
ATOM     20  C   UNL A   1      33.014  27.747  25.503  1.00  0.00     0.074 A 
BRANCH  12  21
ATOM     21  C   UNL A   1      32.169  22.857  23.780  1.00  0.00     0.001 A 
ATOM     22  C   UNL A   1      32.145  20.068  24.218  1.00  0.00     0.118 A 
ATOM     23  C   UNL A   1      32.357  20.595  22.941  1.00  0.00     0.047 A 
ATOM     24  C   UNL A   1      31.901  20.942  25.275  1.00  0.00     0.047 A 
ATOM     25  C   UNL A   1      32.358  21.978  22.718  1.00  0.00     0.014 A 
ATOM     26  C   UNL A   1      31.907  22.325  25.054  1.00  0.00     0.014 A 
BRANCH  22  27
ATOM     27  O   UNL A   1      32.210  18.705  24.299  1.00  0.00    -0.497 OA
ATOM     28  C   UNL A   1      32.630  18.007  23.130  1.00  0.00     0.278 C 
ENDBRANCH  22  27
ENDBRANCH  12  21
BRANCH  20  29
ATOM     29  C   UNL A   1      33.111  29.057  26.201  1.00  0.00     0.000 A 
ATOM     30  C   UNL A   1      32.183  30.092  25.971  1.00  0.00     0.011 A 
ATOM     31  C   UNL A   1      34.168  29.334  27.085  1.00  0.00     0.011 A 
ATOM     32  C   UNL A   1      32.321  31.351  26.578  1.00  0.00     0.014 A 
ATOM     33  C   UNL A   1      34.313  30.588  27.689  1.00  0.00     0.014 A 
ATOM     34  C   UNL A   1      33.398  31.617  27.432  1.00  0.00     0.056 A 
BRANCH  34  35
ATOM     35  C   UNL A   1      33.589  32.989  28.037  1.00  0.00     0.416 C 
ATOM     36  F   UNL A   1      34.625  33.669  27.468  1.00  0.00    -0.166 F 
ATOM     37  F   UNL A   1      32.497  33.788  27.910  1.00  0.00    -0.166 F 
ATOM     38  F   UNL A   1      33.872  32.952  29.372  1.00  0.00    -0.166 F 
ENDBRANCH  34  35
ENDBRANCH  20  29
ENDBRANCH   9  11
ENDBRANCH   8   9
ENDBRANCH   7   8
ENDBRANCH   6   7
ENDBRANCH   5   6
ENDBRANCH   4   5
ENDBRANCH   3   4
ENDBRANCH   2   3
ENDBRANCH   1   2
BRANCH   1  39
ATOM     39  C   UNL A   1      42.151  21.232  26.365  1.00  0.00     0.188 C 
BRANCH  39  40
ATOM     40  O   UNL A   1      42.572  20.262  25.412  1.00  0.00    -0.376 OA
BRANCH  40  41
ATOM     41  C   UNL A   1      43.927  19.869  25.252  1.00  0.00     0.202 C 
BRANCH  41  42
ATOM     42  C   UNL A   1      44.816  20.375  24.114  1.00  0.00     0.261 C 
BRANCH  42  43
ATOM     43  O   UNL A   1      44.544  21.686  23.694  1.00  0.00    -0.460 OA
BRANCH  43  44
ATOM     44  C   UNL A   1      45.330  22.621  24.246  1.00  0.00     0.338 C 
ATOM     45  O   UNL A   1      46.495  22.859  23.971  1.00  0.00    -0.246 OA
BRANCH  44  46
ATOM     46  C   UNL A   1      44.575  23.261  25.321  1.00  0.00     0.060 A 
ATOM     47  C   UNL A   1      43.625  24.193  24.907  1.00  0.00     0.016 A 
ATOM     48  C   UNL A   1      45.136  23.257  26.606  1.00  0.00     0.016 A 
ATOM     49  C   UNL A   1      43.497  25.325  25.664  1.00  0.00     0.010 A 
ATOM     50  C   UNL A   1      45.036  24.403  27.341  1.00  0.00     0.010 A 
ATOM     51  C   UNL A   1      44.303  25.454  26.800  1.00  0.00    -0.014 A 
BRANCH  51  52
ATOM     52  C   UNL A   1      44.246  26.698  27.525  1.00  0.00     0.031 A 
ATOM     53  C   UNL A   1      45.488  27.457  27.301  1.00  0.00     0.074 A 
ATOM     54  C   UNL A   1      43.154  27.073  28.217  1.00  0.00     0.049 A 
ATOM     55  N   UNL A   1      46.500  27.535  28.100  1.00  0.00    -0.248 NA
ATOM     56  C   UNL A   1      45.772  27.914  25.930  1.00  0.00     0.031 C 
ATOM     57  C   UNL A   1      41.830  26.435  28.209  1.00  0.00     0.029 A 
ATOM     58  N   UNL A   1      42.953  28.183  28.974  1.00  0.00    -0.354 N 
ATOM     59  C   UNL A   1      47.395  28.358  27.426  1.00  0.00     0.074 A 
ATOM     60  C   UNL A   1      47.055  28.262  26.037  1.00  0.00     0.031 C 
ATOM     61  C   UNL A   1      40.918  27.304  28.704  1.00  0.00     0.029 A 
ATOM     62  C   UNL A   1      41.610  28.489  29.183  1.00  0.00     0.049 A 
ATOM     63  H   UNL A   1      43.689  28.724  29.340  1.00  0.00     0.167 HD
ATOM     64  C   UNL A   1      48.003  29.371  28.101  1.00  0.00     0.034 A 
ATOM     65  C   UNL A   1      41.120  29.663  29.651  1.00  0.00     0.034 A 
ATOM     66  C   UNL A   1      47.873  29.168  29.524  1.00  0.00     0.049 A 
ATOM     67  C   UNL A   1      42.229  30.357  30.339  1.00  0.00     0.074 A 
ATOM     68  C   UNL A   1      48.366  28.287  30.460  1.00  0.00     0.029 A 
ATOM     69  N   UNL A   1      46.745  29.747  30.049  1.00  0.00    -0.354 N 
ATOM     70  N   UNL A   1      42.758  29.921  31.448  1.00  0.00    -0.248 NA
ATOM     71  C   UNL A   1      43.025  31.334  29.606  1.00  0.00     0.031 C 
ATOM     72  C   UNL A   1      47.395  28.241  31.503  1.00  0.00     0.029 A 
ATOM     73  C   UNL A   1      46.365  29.133  31.207  1.00  0.00     0.049 A 
ATOM     74  H   UNL A   1      46.271  30.507  29.642  1.00  0.00     0.167 HD
ATOM     75  C   UNL A   1      44.107  30.189  31.294  1.00  0.00     0.074 A 
ATOM     76  C   UNL A   1      44.183  31.214  30.261  1.00  0.00     0.031 C 
ATOM     77  C   UNL A   1      45.042  29.315  31.764  1.00  0.00     0.034 A 
BRANCH  64  78
ATOM     78  C   UNL A   1      48.209  30.776  27.556  1.00  0.00     0.023 A 
ATOM     79  C   UNL A   1      49.510  31.312  27.688  1.00  0.00     0.012 A 
ATOM     80  C   UNL A   1      47.183  31.691  27.215  1.00  0.00     0.148 A 
ATOM     81  C   UNL A   1      49.761  32.682  27.553  1.00  0.00     0.002 A 
ATOM     82  C   UNL A   1      47.446  33.040  27.017  1.00  0.00     0.091 A 
ATOM     83  F   UNL A   1      45.907  31.308  27.195  1.00  0.00    -0.205 F 
ATOM     84  C   UNL A   1      48.729  33.547  27.215  1.00  0.00     0.022 A 
BRANCH  82  85
ATOM     85  S   UNL A   1      46.146  34.198  26.561  1.00  0.00     0.127 S 
ATOM     86  O   UNL A   1      45.331  34.212  27.772  1.00  0.00    -0.237 OA
ATOM     87  O   UNL A   1      46.913  35.417  26.312  1.00  0.00    -0.237 OA
ATOM     88  O   UNL A   1      45.508  33.639  25.375  1.00  0.00    -0.744 OA
ENDBRANCH  82  85
ENDBRANCH  64  78
BRANCH  65  89
ATOM     89  C   UNL A   1      39.834  30.351  29.391  1.00  0.00     0.023 A 
ATOM     90  C   UNL A   1      38.812  29.683  28.687  1.00  0.00     0.012 A 
ATOM     91  C   UNL A   1      39.502  31.533  30.087  1.00  0.00     0.148 A 
ATOM     92  C   UNL A   1      37.494  30.152  28.707  1.00  0.00     0.002 A 
ATOM     93  C   UNL A   1      38.188  31.996  30.106  1.00  0.00     0.091 A 
ATOM     94  F   UNL A   1      40.457  32.147  30.798  1.00  0.00    -0.205 F 
ATOM     95  C   UNL A   1      37.179  31.301  29.427  1.00  0.00     0.022 A 
BRANCH  93  96
ATOM     96  S   UNL A   1      37.689  33.445  31.047  1.00  0.00     0.127 S 
ATOM     97  O   UNL A   1      38.977  34.093  31.300  1.00  0.00    -0.237 OA
ATOM     98  O   UNL A   1      36.830  34.143  30.094  1.00  0.00    -0.237 OA
ATOM     99  O   UNL A   1      37.023  32.939  32.239  1.00  0.00    -0.744 OA
ENDBRANCH  93  96
ENDBRANCH  65  89
BRANCH  77 100
ATOM    100  C   UNL A   1      44.623  28.375  32.853  1.00  0.00     0.023 A 
ATOM    101  C   UNL A   1      44.282  27.026  32.631  1.00  0.00     0.012 A 
ATOM    102  C   UNL A   1      44.701  28.858  34.168  1.00  0.00     0.148 A 
ATOM    103  C   UNL A   1      44.013  26.181  33.712  1.00  0.00     0.002 A 
ATOM    104  C   UNL A   1      44.486  28.005  35.237  1.00  0.00     0.091 A 
ATOM    105  F   UNL A   1      45.014  30.151  34.347  1.00  0.00    -0.205 F 
ATOM    106  C   UNL A   1      44.131  26.666  35.015  1.00  0.00     0.022 A 
BRANCH 104 107
ATOM    107  S   UNL A   1      44.755  28.551  36.923  1.00  0.00     0.127 S 
ATOM    108  O   UNL A   1      43.737  29.588  37.073  1.00  0.00    -0.237 OA
ATOM    109  O   UNL A   1      44.507  27.331  37.690  1.00  0.00    -0.237 OA
ATOM    110  O   UNL A   1      46.136  29.016  36.977  1.00  0.00    -0.744 OA
ENDBRANCH 104 107
ENDBRANCH  77 100
ENDBRANCH  51  52
ENDBRANCH  44  46
ENDBRANCH  43  44
ENDBRANCH  42  43
ENDBRANCH  41  42
ENDBRANCH  40  41
ENDBRANCH  39  40
ENDBRANCH   1  39
TORSDOF 27
ENDMDL
MODEL 2
REMARK VINA RESULT:      -9.7      2.537      5.994
REMARK SMILES COc1ccc(-c2[nH]nc3nc(-c4ccc(C(F)(F)F)cc4)cc(C(=O)OCCOCCOCCOCCOC(=O)c4ccc(-c5c6nc(c(-c7cccc(S(=O)(=O)[O-])c7F)c7ccc([nH]7)c(-c7cccc(S(=O)(=O)[O-])c7F)c7nc(c(-c8cccc(S(=O)(=O)[O-])c8F)c8ccc5[nH]8)C=C7)C=C6)cc4)c23)cc1
REMARK SMILES IDX 34 1 33 2 32 3 31 4 30 5 29 6 28 7 27 8 25 9 26 10 24 11
REMARK SMILES IDX 7 12 8 13 105 14 9 15 10 17 11 18 23 19 12 20 6 21 3 22 4 23
REMARK SMILES IDX 107 24 5 25 106 26 2 27 1 28 13 29 14 30 22 31 15 32 21 33
REMARK SMILES IDX 16 34 17 35 18 36 19 37 20 38 35 39 36 40 37 41 38 42 39 43
REMARK SMILES IDX 40 44 41 45 42 46 43 47 104 48 44 49 103 50 45 51 46 52
REMARK SMILES IDX 47 53 97 54 48 55 102 56 96 57 98 58 49 59 101 60 95 61
REMARK SMILES IDX 94 62 50 64 82 65 62 66 81 67 63 68 66 69 80 70 99 71 64 72
REMARK SMILES IDX 65 73 79 75 100 76 67 77 51 78 52 79 60 80 53 81 55 82 61 83
REMARK SMILES IDX 54 84 56 85 57 86 58 87 59 88 83 89 84 90 92 91 85 92 87 93
REMARK SMILES IDX 93 94 86 95 88 96 89 97 90 98 91 99 68 100 69 101 77 102
REMARK SMILES IDX 70 103 72 104 78 105 71 106 73 107 74 108 75 109 76 110
REMARK H PARENT 8 16 98 63 66 74
REMARK Flexibility Score: inf
ROOT
ATOM      1  C   UNL A   1      40.025  22.505  26.768  1.00  0.00     0.188 C 
ENDROOT
BRANCH   1   2
ATOM      2  O   UNL A   1      39.479  21.447  25.984  1.00  0.00    -0.377 OA
BRANCH   2   3
ATOM      3  C   UNL A   1      38.140  21.619  25.532  1.00  0.00     0.188 C 
BRANCH   3   4
ATOM      4  C   UNL A   1      37.466  20.368  24.988  1.00  0.00     0.188 C 
BRANCH   4   5
ATOM      5  O   UNL A   1      36.129  20.515  24.551  1.00  0.00    -0.376 OA
BRANCH   5   6
ATOM      6  C   UNL A   1      35.479  21.772  24.636  1.00  0.00     0.202 C 
BRANCH   6   7
ATOM      7  C   UNL A   1      35.637  22.781  23.486  1.00  0.00     0.261 C 
BRANCH   7   8
ATOM      8  O   UNL A   1      35.121  24.104  23.737  1.00  0.00    -0.460 OA
BRANCH   8   9
ATOM      9  C   UNL A   1      34.852  24.466  25.009  1.00  0.00     0.339 C 
ATOM     10  O   UNL A   1      35.438  24.039  25.996  1.00  0.00    -0.246 OA
BRANCH   9  11
ATOM     11  C   UNL A   1      33.810  25.521  24.985  1.00  0.00     0.075 A 
ATOM     12  C   UNL A   1      31.841  24.355  23.882  1.00  0.00     0.075 A 
ATOM     13  N   UNL A   1      30.673  24.899  23.393  1.00  0.00    -0.275 N 
ATOM     14  C   UNL A   1      32.544  25.446  24.379  1.00  0.00     0.061 A 
ATOM     15  N   UNL A   1      30.483  26.189  23.692  1.00  0.00    -0.154 NA
ATOM     16  H   UNL A   1      30.026  24.376  22.865  1.00  0.00     0.190 HD
ATOM     17  C   UNL A   1      31.585  26.519  24.363  1.00  0.00     0.182 A 
ATOM     18  N   UNL A   1      31.788  27.697  24.995  1.00  0.00    -0.226 NA
ATOM     19  C   UNL A   1      33.953  26.747  25.682  1.00  0.00     0.045 A 
ATOM     20  C   UNL A   1      32.964  27.770  25.675  1.00  0.00     0.074 A 
BRANCH  12  21
ATOM     21  C   UNL A   1      31.971  22.904  23.965  1.00  0.00     0.001 A 
ATOM     22  C   UNL A   1      32.241  20.105  24.220  1.00  0.00     0.118 A 
ATOM     23  C   UNL A   1      32.227  20.716  22.963  1.00  0.00     0.047 A 
ATOM     24  C   UNL A   1      32.075  20.896  25.354  1.00  0.00     0.047 A 
ATOM     25  C   UNL A   1      32.083  22.103  22.832  1.00  0.00     0.014 A 
ATOM     26  C   UNL A   1      31.936  22.284  25.225  1.00  0.00     0.014 A 
BRANCH  22  27
ATOM     27  O   UNL A   1      32.429  18.751  24.202  1.00  0.00    -0.497 OA
ATOM     28  C   UNL A   1      32.766  18.128  25.438  1.00  0.00     0.278 C 
ENDBRANCH  22  27
ENDBRANCH  12  21
BRANCH  20  29
ATOM     29  C   UNL A   1      33.174  29.054  26.397  1.00  0.00     0.000 A 
ATOM     30  C   UNL A   1      32.292  30.142  26.251  1.00  0.00     0.011 A 
ATOM     31  C   UNL A   1      34.298  29.250  27.218  1.00  0.00     0.011 A 
ATOM     32  C   UNL A   1      32.536  31.376  26.877  1.00  0.00     0.014 A 
ATOM     33  C   UNL A   1      34.547  30.479  27.842  1.00  0.00     0.014 A 
ATOM     34  C   UNL A   1      33.676  31.561  27.668  1.00  0.00     0.056 A 
BRANCH  34  35
ATOM     35  C   UNL A   1      33.978  32.904  28.292  1.00  0.00     0.416 C 
ATOM     36  F   UNL A   1      34.966  33.574  27.632  1.00  0.00    -0.166 F 
ATOM     37  F   UNL A   1      32.906  33.738  28.316  1.00  0.00    -0.166 F 
ATOM     38  F   UNL A   1      34.408  32.810  29.585  1.00  0.00    -0.166 F 
ENDBRANCH  34  35
ENDBRANCH  20  29
ENDBRANCH   9  11
ENDBRANCH   8   9
ENDBRANCH   7   8
ENDBRANCH   6   7
ENDBRANCH   5   6
ENDBRANCH   4   5
ENDBRANCH   3   4
ENDBRANCH   2   3
ENDBRANCH   1   2
BRANCH   1  39
ATOM     39  C   UNL A   1      41.527  22.440  27.167  1.00  0.00     0.188 C 
BRANCH  39  40
ATOM     40  O   UNL A   1      42.098  21.139  27.230  1.00  0.00    -0.376 OA
BRANCH  40  41
ATOM     41  C   UNL A   1      42.955  20.616  26.227  1.00  0.00     0.202 C 
BRANCH  41  42
ATOM     42  C   UNL A   1      43.998  21.462  25.494  1.00  0.00     0.261 C 
BRANCH  42  43
ATOM     43  O   UNL A   1      45.022  21.969  26.309  1.00  0.00    -0.460 OA
BRANCH  43  44
ATOM     44  C   UNL A   1      45.094  23.308  26.341  1.00  0.00     0.338 C 
ATOM     45  O   UNL A   1      45.034  24.071  25.391  1.00  0.00    -0.246 OA
BRANCH  44  46
ATOM     46  C   UNL A   1      45.355  23.707  27.723  1.00  0.00     0.060 A 
ATOM     47  C   UNL A   1      44.283  23.553  28.599  1.00  0.00     0.016 A 
ATOM     48  C   UNL A   1      46.416  24.595  27.957  1.00  0.00     0.016 A 
ATOM     49  C   UNL A   1      44.101  24.535  29.533  1.00  0.00     0.010 A 
ATOM     50  C   UNL A   1      46.213  25.594  28.864  1.00  0.00     0.010 A 
ATOM     51  C   UNL A   1      45.007  25.601  29.557  1.00  0.00    -0.014 A 
BRANCH  51  52
ATOM     52  C   UNL A   1      44.741  26.688  30.465  1.00  0.00     0.031 A 
ATOM     53  C   UNL A   1      45.133  26.297  31.829  1.00  0.00     0.074 A 
ATOM     54  C   UNL A   1      44.279  27.877  30.040  1.00  0.00     0.049 A 
ATOM     55  N   UNL A   1      44.348  25.888  32.771  1.00  0.00    -0.248 NA
ATOM     56  C   UNL A   1      46.559  26.028  32.081  1.00  0.00     0.031 C 
ATOM     57  C   UNL A   1      44.151  28.341  28.651  1.00  0.00     0.029 A 
ATOM     58  N   UNL A   1      43.948  28.981  30.760  1.00  0.00    -0.354 N 
ATOM     59  C   UNL A   1      45.204  25.650  33.840  1.00  0.00     0.074 A 
ATOM     60  C   UNL A   1      46.499  25.423  33.269  1.00  0.00     0.031 C 
ATOM     61  C   UNL A   1      44.028  29.689  28.644  1.00  0.00     0.029 A 
ATOM     62  C   UNL A   1      43.930  30.158  30.016  1.00  0.00     0.049 A 
ATOM     63  H   UNL A   1      43.740  28.952  31.722  1.00  0.00     0.167 HD
ATOM     64  C   UNL A   1      44.870  26.114  35.074  1.00  0.00     0.034 A 
ATOM     65  C   UNL A   1      43.909  31.419  30.513  1.00  0.00     0.034 A 
ATOM     66  C   UNL A   1      43.471  26.465  35.111  1.00  0.00     0.049 A 
ATOM     67  C   UNL A   1      43.427  31.331  31.908  1.00  0.00     0.074 A 
ATOM     68  C   UNL A   1      42.268  25.798  35.070  1.00  0.00     0.029 A 
ATOM     69  N   UNL A   1      43.235  27.772  34.763  1.00  0.00    -0.354 N 
ATOM     70  N   UNL A   1      42.208  30.989  32.217  1.00  0.00    -0.248 NA
ATOM     71  C   UNL A   1      44.396  31.248  32.995  1.00  0.00     0.031 C 
ATOM     72  C   UNL A   1      41.327  26.719  34.523  1.00  0.00     0.029 A 
ATOM     73  C   UNL A   1      41.963  27.939  34.298  1.00  0.00     0.049 A 
ATOM     74  H   UNL A   1      43.898  28.495  34.836  1.00  0.00     0.167 HD
ATOM     75  C   UNL A   1      42.364  30.212  33.352  1.00  0.00     0.074 A 
ATOM     76  C   UNL A   1      43.672  30.565  33.886  1.00  0.00     0.031 C 
ATOM     77  C   UNL A   1      41.576  29.118  33.552  1.00  0.00     0.034 A 
BRANCH  64  78
ATOM     78  C   UNL A   1      45.839  26.774  36.043  1.00  0.00     0.023 A 
ATOM     79  C   UNL A   1      46.570  27.875  35.543  1.00  0.00     0.012 A 
ATOM     80  C   UNL A   1      46.293  26.222  37.266  1.00  0.00     0.148 A 
ATOM     81  C   UNL A   1      47.716  28.354  36.185  1.00  0.00     0.002 A 
ATOM     82  C   UNL A   1      47.394  26.741  37.936  1.00  0.00     0.091 A 
ATOM     83  F   UNL A   1      45.753  25.105  37.752  1.00  0.00    -0.205 F 
ATOM     84  C   UNL A   1      48.129  27.788  37.384  1.00  0.00     0.022 A 
BRANCH  82  85
ATOM     85  S   UNL A   1      47.956  26.052  39.501  1.00  0.00     0.127 S 
ATOM     86  O   UNL A   1      46.733  26.097  40.296  1.00  0.00    -0.237 OA
ATOM     87  O   UNL A   1      48.387  24.716  39.094  1.00  0.00    -0.237 OA
ATOM     88  O   UNL A   1      49.039  26.918  39.954  1.00  0.00    -0.744 OA
ENDBRANCH  82  85
ENDBRANCH  64  78
BRANCH  65  89
ATOM     89  C   UNL A   1      44.458  32.685  29.974  1.00  0.00     0.023 A 
ATOM     90  C   UNL A   1      45.852  32.888  29.948  1.00  0.00     0.012 A 
ATOM     91  C   UNL A   1      43.643  33.553  29.216  1.00  0.00     0.148 A 
ATOM     92  C   UNL A   1      46.422  33.897  29.162  1.00  0.00     0.002 A 
ATOM     93  C   UNL A   1      44.213  34.555  28.434  1.00  0.00     0.091 A 
ATOM     94  F   UNL A   1      42.321  33.337  29.197  1.00  0.00    -0.205 F 
ATOM     95  C   UNL A   1      45.604  34.721  28.395  1.00  0.00     0.022 A 
BRANCH  93  96
ATOM     96  S   UNL A   1      43.232  35.633  27.381  1.00  0.00     0.127 S 
ATOM     97  O   UNL A   1      43.152  34.850  26.147  1.00  0.00    -0.237 OA
ATOM     98  O   UNL A   1      41.980  35.728  28.127  1.00  0.00    -0.237 OA
ATOM     99  O   UNL A   1      43.988  36.872  27.263  1.00  0.00    -0.744 OA
ENDBRANCH  93  96
ENDBRANCH  65  89
BRANCH  77 100
ATOM    100  C   UNL A   1      40.263  29.071  32.832  1.00  0.00     0.023 A 
ATOM    101  C   UNL A   1      39.097  29.715  33.291  1.00  0.00     0.012 A 
ATOM    102  C   UNL A   1      40.254  28.446  31.576  1.00  0.00     0.148 A 
ATOM    103  C   UNL A   1      37.940  29.722  32.506  1.00  0.00     0.002 A 
ATOM    104  C   UNL A   1      39.123  28.500  30.779  1.00  0.00     0.091 A 
ATOM    105  F   UNL A   1      41.375  27.828  31.172  1.00  0.00    -0.205 F 
ATOM    106  C   UNL A   1      37.959  29.129  31.243  1.00  0.00     0.022 A 
BRANCH 104 107
ATOM    107  S   UNL A   1      39.144  27.868  29.102  1.00  0.00     0.127 S 
ATOM    108  O   UNL A   1      38.999  26.430  29.317  1.00  0.00    -0.237 OA
ATOM    109  O   UNL A   1      37.979  28.522  28.507  1.00  0.00    -0.237 OA
ATOM    110  O   UNL A   1      40.417  28.291  28.531  1.00  0.00    -0.744 OA
ENDBRANCH 104 107
ENDBRANCH  77 100
ENDBRANCH  51  52
ENDBRANCH  44  46
ENDBRANCH  43  44
ENDBRANCH  42  43
ENDBRANCH  41  42
ENDBRANCH  40  41
ENDBRANCH  39  40
ENDBRANCH   1  39
TORSDOF 27
ENDMDL
MODEL 3
REMARK VINA RESULT:      -9.6      2.725      6.952
REMARK SMILES COc1ccc(-c2[nH]nc3nc(-c4ccc(C(F)(F)F)cc4)cc(C(=O)OCCOCCOCCOCCOC(=O)c4ccc(-c5c6nc(c(-c7cccc(S(=O)(=O)[O-])c7F)c7ccc([nH]7)c(-c7cccc(S(=O)(=O)[O-])c7F)c7nc(c(-c8cccc(S(=O)(=O)[O-])c8F)c8ccc5[nH]8)C=C7)C=C6)cc4)c23)cc1
REMARK SMILES IDX 34 1 33 2 32 3 31 4 30 5 29 6 28 7 27 8 25 9 26 10 24 11
REMARK SMILES IDX 7 12 8 13 105 14 9 15 10 17 11 18 23 19 12 20 6 21 3 22 4 23
REMARK SMILES IDX 107 24 5 25 106 26 2 27 1 28 13 29 14 30 22 31 15 32 21 33
REMARK SMILES IDX 16 34 17 35 18 36 19 37 20 38 35 39 36 40 37 41 38 42 39 43
REMARK SMILES IDX 40 44 41 45 42 46 43 47 104 48 44 49 103 50 45 51 46 52
REMARK SMILES IDX 47 53 97 54 48 55 102 56 96 57 98 58 49 59 101 60 95 61
REMARK SMILES IDX 94 62 50 64 82 65 62 66 81 67 63 68 66 69 80 70 99 71 64 72
REMARK SMILES IDX 65 73 79 75 100 76 67 77 51 78 52 79 60 80 53 81 55 82 61 83
REMARK SMILES IDX 54 84 56 85 57 86 58 87 59 88 83 89 84 90 92 91 85 92 87 93
REMARK SMILES IDX 93 94 86 95 88 96 89 97 90 98 91 99 68 100 69 101 77 102
REMARK SMILES IDX 70 103 72 104 78 105 71 106 73 107 74 108 75 109 76 110
REMARK H PARENT 8 16 98 63 66 74
REMARK Flexibility Score: inf
ROOT
ATOM      1  C   UNL A   1      40.005  22.507  26.805  1.00  0.00     0.188 C 
ENDROOT
BRANCH   1   2
ATOM      2  O   UNL A   1      39.360  21.419  26.146  1.00  0.00    -0.377 OA
BRANCH   2   3
ATOM      3  C   UNL A   1      38.093  21.695  25.561  1.00  0.00     0.188 C 
BRANCH   3   4
ATOM      4  C   UNL A   1      37.361  20.491  24.986  1.00  0.00     0.188 C 
BRANCH   4   5
ATOM      5  O   UNL A   1      36.145  20.757  24.315  1.00  0.00    -0.376 OA
BRANCH   5   6
ATOM      6  C   UNL A   1      35.479  21.996  24.499  1.00  0.00     0.202 C 
BRANCH   6   7
ATOM      7  C   UNL A   1      35.466  23.021  23.354  1.00  0.00     0.261 C 
BRANCH   7   8
ATOM      8  O   UNL A   1      34.930  24.320  23.681  1.00  0.00    -0.460 OA
BRANCH   8   9
ATOM      9  C   UNL A   1      34.730  24.633  24.979  1.00  0.00     0.339 C 
ATOM     10  O   UNL A   1      35.393  24.199  25.912  1.00  0.00    -0.246 OA
BRANCH   9  11
ATOM     11  C   UNL A   1      33.649  25.646  25.055  1.00  0.00     0.075 A 
ATOM     12  C   UNL A   1      31.619  24.383  24.199  1.00  0.00     0.075 A 
ATOM     13  N   UNL A   1      30.382  24.871  23.835  1.00  0.00    -0.275 N 
ATOM     14  C   UNL A   1      32.328  25.510  24.596  1.00  0.00     0.061 A 
ATOM     15  N   UNL A   1      30.175  26.158  24.132  1.00  0.00    -0.154 NA
ATOM     16  H   UNL A   1      29.702  24.313  23.391  1.00  0.00     0.190 HD
ATOM     17  C   UNL A   1      31.330  26.544  24.670  1.00  0.00     0.182 A 
ATOM     18  N   UNL A   1      31.554  27.742  25.257  1.00  0.00    -0.226 NA
ATOM     19  C   UNL A   1      33.819  26.890  25.711  1.00  0.00     0.045 A 
ATOM     20  C   UNL A   1      32.795  27.874  25.799  1.00  0.00     0.074 A 
BRANCH  12  21
ATOM     21  C   UNL A   1      31.816  22.939  24.290  1.00  0.00     0.001 A 
ATOM     22  C   UNL A   1      32.178  20.141  24.371  1.00  0.00     0.118 A 
ATOM     23  C   UNL A   1      32.075  20.889  25.548  1.00  0.00     0.047 A 
ATOM     24  C   UNL A   1      32.142  20.803  23.147  1.00  0.00     0.047 A 
ATOM     25  C   UNL A   1      31.907  22.279  25.511  1.00  0.00     0.014 A 
ATOM     26  C   UNL A   1      31.968  22.193  23.109  1.00  0.00     0.014 A 
BRANCH  22  27
ATOM     27  O   UNL A   1      32.299  18.791  24.553  1.00  0.00    -0.497 OA
ATOM     28  C   UNL A   1      32.758  18.349  25.827  1.00  0.00     0.278 C 
ENDBRANCH  22  27
ENDBRANCH  12  21
BRANCH  20  29
ATOM     29  C   UNL A   1      33.032  29.180  26.472  1.00  0.00     0.000 A 
ATOM     30  C   UNL A   1      32.005  30.129  26.635  1.00  0.00     0.011 A 
ATOM     31  C   UNL A   1      34.312  29.541  26.927  1.00  0.00     0.011 A 
ATOM     32  C   UNL A   1      32.252  31.389  27.205  1.00  0.00     0.014 A 
ATOM     33  C   UNL A   1      34.564  30.797  27.492  1.00  0.00     0.014 A 
ATOM     34  C   UNL A   1      33.540  31.742  27.626  1.00  0.00     0.056 A 
BRANCH  34  35
ATOM     35  C   UNL A   1      33.826  33.118  28.181  1.00  0.00     0.416 C 
ATOM     36  F   UNL A   1      34.019  33.104  29.531  1.00  0.00    -0.166 F 
ATOM     37  F   UNL A   1      34.935  33.693  27.646  1.00  0.00    -0.166 F 
ATOM     38  F   UNL A   1      32.808  34.003  27.972  1.00  0.00    -0.166 F 
ENDBRANCH  34  35
ENDBRANCH  20  29
ENDBRANCH   9  11
ENDBRANCH   8   9
ENDBRANCH   7   8
ENDBRANCH   6   7
ENDBRANCH   5   6
ENDBRANCH   4   5
ENDBRANCH   3   4
ENDBRANCH   2   3
ENDBRANCH   1   2
BRANCH   1  39
ATOM     39  C   UNL A   1      41.479  22.331  27.270  1.00  0.00     0.188 C 
BRANCH  39  40
ATOM     40  O   UNL A   1      41.852  21.017  27.669  1.00  0.00    -0.376 OA
BRANCH  40  41
ATOM     41  C   UNL A   1      42.416  20.065  26.779  1.00  0.00     0.202 C 
BRANCH  41  42
ATOM     42  C   UNL A   1      43.036  20.443  25.432  1.00  0.00     0.261 C 
BRANCH  42  43
ATOM     43  O   UNL A   1      44.307  21.032  25.515  1.00  0.00    -0.460 OA
BRANCH  43  44
ATOM     44  C   UNL A   1      44.399  22.238  24.935  1.00  0.00     0.338 C 
ATOM     45  O   UNL A   1      43.877  22.593  23.891  1.00  0.00    -0.246 OA
BRANCH  44  46
ATOM     46  C   UNL A   1      45.323  23.045  25.729  1.00  0.00     0.060 A 
ATOM     47  C   UNL A   1      45.424  22.687  27.071  1.00  0.00     0.016 A 
ATOM     48  C   UNL A   1      45.654  24.321  25.249  1.00  0.00     0.016 A 
ATOM     49  C   UNL A   1      45.523  23.705  27.978  1.00  0.00     0.010 A 
ATOM     50  C   UNL A   1      45.716  25.339  26.156  1.00  0.00     0.010 A 
ATOM     51  C   UNL A   1      45.541  25.019  27.498  1.00  0.00    -0.014 A 
BRANCH  51  52
ATOM     52  C   UNL A   1      45.528  26.087  28.464  1.00  0.00     0.031 A 
ATOM     53  C   UNL A   1      44.197  26.717  28.485  1.00  0.00     0.074 A 
ATOM     54  C   UNL A   1      46.589  26.356  29.247  1.00  0.00     0.049 A 
ATOM     55  N   UNL A   1      43.855  27.818  27.903  1.00  0.00    -0.248 NA
ATOM     56  C   UNL A   1      43.058  25.893  28.924  1.00  0.00     0.031 C 
ATOM     57  C   UNL A   1      47.808  25.551  29.405  1.00  0.00     0.029 A 
ATOM     58  N   UNL A   1      46.751  27.338  30.172  1.00  0.00    -0.354 N 
ATOM     59  C   UNL A   1      42.510  27.963  28.227  1.00  0.00     0.074 A 
ATOM     60  C   UNL A   1      42.030  26.647  28.529  1.00  0.00     0.031 C 
ATOM     61  C   UNL A   1      48.445  25.930  30.538  1.00  0.00     0.029 A 
ATOM     62  C   UNL A   1      47.758  27.081  31.099  1.00  0.00     0.049 A 
ATOM     63  H   UNL A   1      46.205  28.157  30.187  1.00  0.00     0.167 HD
ATOM     64  C   UNL A   1      42.058  29.172  28.659  1.00  0.00     0.034 A 
ATOM     65  C   UNL A   1      47.953  27.733  32.272  1.00  0.00     0.034 A 
ATOM     66  C   UNL A   1      43.017  30.203  28.345  1.00  0.00     0.049 A 
ATOM     67  C   UNL A   1      47.250  29.030  32.172  1.00  0.00     0.074 A 
ATOM     68  C   UNL A   1      43.491  30.820  27.209  1.00  0.00     0.029 A 
ATOM     69  N   UNL A   1      43.938  30.402  29.343  1.00  0.00    -0.354 N 
ATOM     70  N   UNL A   1      47.629  29.981  31.365  1.00  0.00    -0.248 NA
ATOM     71  C   UNL A   1      45.890  29.148  32.686  1.00  0.00     0.031 C 
ATOM     72  C   UNL A   1      44.811  31.257  27.523  1.00  0.00     0.029 A 
ATOM     73  C   UNL A   1      45.089  30.949  28.855  1.00  0.00     0.049 A 
ATOM     74  H   UNL A   1      43.789  30.178  30.289  1.00  0.00     0.167 HD
ATOM     75  C   UNL A   1      46.437  30.516  30.908  1.00  0.00     0.074 A 
ATOM     76  C   UNL A   1      45.432  30.111  31.882  1.00  0.00     0.031 C 
ATOM     77  C   UNL A   1      46.320  30.935  29.616  1.00  0.00     0.034 A 
BRANCH  64  78
ATOM     78  C   UNL A   1      41.086  29.372  29.812  1.00  0.00     0.023 A 
ATOM     79  C   UNL A   1      41.507  28.892  31.073  1.00  0.00     0.012 A 
ATOM     80  C   UNL A   1      39.715  29.705  29.692  1.00  0.00     0.148 A 
ATOM     81  C   UNL A   1      40.607  28.697  32.126  1.00  0.00     0.002 A 
ATOM     82  C   UNL A   1      38.836  29.572  30.759  1.00  0.00     0.091 A 
ATOM     83  F   UNL A   1      39.195  30.040  28.512  1.00  0.00    -0.205 F 
ATOM     84  C   UNL A   1      39.270  29.038  31.971  1.00  0.00     0.022 A 
BRANCH  82  85
ATOM     85  S   UNL A   1      37.098  30.016  30.611  1.00  0.00     0.127 S 
ATOM     86  O   UNL A   1      36.651  29.102  29.565  1.00  0.00    -0.237 OA
ATOM     87  O   UNL A   1      36.604  29.716  31.954  1.00  0.00    -0.237 OA
ATOM     88  O   UNL A   1      37.074  31.434  30.267  1.00  0.00    -0.744 OA
ENDBRANCH  82  85
ENDBRANCH  64  78
BRANCH  65  89
ATOM     89  C   UNL A   1      48.516  27.268  33.560  1.00  0.00     0.023 A 
ATOM     90  C   UNL A   1      47.651  26.879  34.603  1.00  0.00     0.012 A 
ATOM     91  C   UNL A   1      49.880  26.920  33.661  1.00  0.00     0.148 A 
ATOM     92  C   UNL A   1      48.119  26.134  35.691  1.00  0.00     0.002 A 
ATOM     93  C   UNL A   1      50.342  26.177  34.744  1.00  0.00     0.091 A 
ATOM     94  F   UNL A   1      50.699  27.243  32.651  1.00  0.00    -0.205 F 
ATOM     95  C   UNL A   1      49.461  25.771  35.756  1.00  0.00     0.022 A 
BRANCH  93  96
ATOM     96  S   UNL A   1      52.049  25.629  34.882  1.00  0.00     0.127 S 
ATOM     97  O   UNL A   1      52.708  26.835  35.387  1.00  0.00    -0.237 OA
ATOM     98  O   UNL A   1      51.940  24.541  35.851  1.00  0.00    -0.237 OA
ATOM     99  O   UNL A   1      52.454  25.237  33.540  1.00  0.00    -0.744 OA
ENDBRANCH  93  96
ENDBRANCH  65  89
BRANCH  77 100
ATOM    100  C   UNL A   1      47.581  31.279  28.884  1.00  0.00     0.023 A 
ATOM    101  C   UNL A   1      48.264  32.501  29.038  1.00  0.00     0.012 A 
ATOM    102  C   UNL A   1      48.153  30.263  28.103  1.00  0.00     0.148 A 
ATOM    103  C   UNL A   1      49.497  32.703  28.409  1.00  0.00     0.002 A 
ATOM    104  C   UNL A   1      49.398  30.448  27.525  1.00  0.00     0.091 A 
ATOM    105  F   UNL A   1      47.471  29.116  27.963  1.00  0.00    -0.205 F 
ATOM    106  C   UNL A   1      50.071  31.670  27.666  1.00  0.00     0.022 A 
BRANCH 104 107
ATOM    107  S   UNL A   1      50.229  29.106  26.675  1.00  0.00     0.127 S 
ATOM    108  O   UNL A   1      50.728  29.770  25.474  1.00  0.00    -0.237 OA
ATOM    109  O   UNL A   1      51.260  28.718  27.638  1.00  0.00    -0.237 OA
ATOM    110  O   UNL A   1      49.213  28.084  26.451  1.00  0.00    -0.744 OA
ENDBRANCH 104 107
ENDBRANCH  77 100
ENDBRANCH  51  52
ENDBRANCH  44  46
ENDBRANCH  43  44
ENDBRANCH  42  43
ENDBRANCH  41  42
ENDBRANCH  40  41
ENDBRANCH  39  40
ENDBRANCH   1  39
TORSDOF 27
ENDMDL
