MODEL 1
REMARK VINA RESULT:     -11.3      0.000      0.000
REMARK SMILES O=C(Cc1c(C(=O)c2cc3c(cn2)CCCC3)[nH]c2cc(Cl)ccc12)OCCOCCOCCOCCOC(=O)c1ccc(-c2c3nc(c(-c4cccc(S(=O)(=O)[O-])c4F)c4ccc([nH]4)c(-c4cccc(S(=O)(=O)[O-])c4F)c4nc(c(-c5cccc(S(=O)(=O)[O-])c5F)c5ccc2[nH]5)C=C4)C=C3)cc1
REMARK SMILES IDX 32 1 31 2 30 3 29 4 28 5 27 6 26 7 2 8 1 9 3 10 4 11 5 12
REMARK SMILES IDX 25 13 18 14 19 15 24 16 20 18 23 19 21 20 22 21 6 22 7 23
REMARK SMILES IDX 8 24 9 25 13 26 10 27 12 28 11 29 17 30 14 31 16 32 15 33
REMARK SMILES IDX 33 34 34 35 35 36 36 37 37 38 38 39 39 40 40 41 41 42 42 43
REMARK SMILES IDX 103 44 43 45 102 46 44 47 45 48 46 49 96 50 47 51 101 52
REMARK SMILES IDX 95 53 97 54 48 55 100 56 94 57 93 58 49 60 81 61 61 62 80 63
REMARK SMILES IDX 62 64 65 65 79 66 98 67 63 68 64 69 78 71 99 72 66 73 50 74
REMARK SMILES IDX 51 75 59 76 52 77 54 78 60 79 53 80 55 81 56 82 57 83 58 84
REMARK SMILES IDX 82 85 83 86 91 87 84 88 86 89 92 90 85 91 87 92 88 93 89 94
REMARK SMILES IDX 90 95 67 96 68 97 76 98 69 99 71 100 77 101 70 102 72 103
REMARK SMILES IDX 73 104 74 105 75 106
REMARK H PARENT 18 17 97 59 65 70
REMARK Flexibility Score: inf
ROOT
ATOM      1  O   UNL A   1      33.189  34.435  29.946  1.00  0.00    -0.377 OA
ENDROOT
BRANCH   1   2
ATOM      2  C   UNL A   1      34.061  34.077  28.877  1.00  0.00     0.188 C 
BRANCH   2   3
ATOM      3  C   UNL A   1      33.591  32.849  28.085  1.00  0.00     0.188 C 
BRANCH   3   4
ATOM      4  O   UNL A   1      34.642  31.978  27.705  1.00  0.00    -0.376 OA
BRANCH   4   5
ATOM      5  C   UNL A   1      34.534  30.575  27.833  1.00  0.00     0.202 C 
BRANCH   5   6
ATOM      6  C   UNL A   1      33.793  29.772  26.766  1.00  0.00     0.261 C 
BRANCH   6   7
ATOM      7  O   UNL A   1      33.471  28.394  27.059  1.00  0.00    -0.463 OA
BRANCH   7   8
ATOM      8  C   UNL A   1      32.294  27.757  27.187  1.00  0.00     0.310 C 
ATOM      9  O   UNL A   1      31.519  28.126  28.075  1.00  0.00    -0.252 OA
BRANCH   8  10
ATOM     10  C   UNL A   1      31.959  26.523  26.387  1.00  0.00     0.161 C 
BRANCH  10  11
ATOM     11  C   UNL A   1      33.006  25.902  25.522  1.00  0.00     0.000 A 
ATOM     12  C   UNL A   1      33.572  26.428  24.372  1.00  0.00     0.093 A 
ATOM     13  C   UNL A   1      33.547  24.590  25.707  1.00  0.00     0.004 A 
ATOM     14  N   UNL A   1      34.526  25.531  23.944  1.00  0.00    -0.351 N 
ATOM     15  C   UNL A   1      34.447  24.364  24.670  1.00  0.00     0.048 A 
ATOM     16  C   UNL A   1      33.329  23.569  26.657  1.00  0.00     0.012 A 
ATOM     17  H   UNL A   1      35.171  25.700  23.220  1.00  0.00     0.167 HD
ATOM     18  C   UNL A   1      35.095  23.135  24.493  1.00  0.00     0.047 A 
ATOM     19  C   UNL A   1      33.965  22.334  26.497  1.00  0.00     0.021 A 
ATOM     20  C   UNL A   1      34.815  22.121  25.417  1.00  0.00     0.043 A 
ATOM     21  Cl  UNL A   1      35.528  20.567  25.203  1.00  0.00    -0.084 Cl
BRANCH  12  22
ATOM     22  C   UNL A   1      33.208  27.671  23.720  1.00  0.00     0.227 C 
ATOM     23  O   UNL A   1      34.021  28.556  23.461  1.00  0.00    -0.285 OA
BRANCH  22  24
ATOM     24  C   UNL A   1      31.794  27.978  23.508  1.00  0.00     0.113 A 
ATOM     25  C   UNL A   1      31.421  29.262  23.843  1.00  0.00     0.036 A 
ATOM     26  N   UNL A   1      30.978  27.019  23.012  1.00  0.00    -0.252 NA
ATOM     27  C   UNL A   1      30.104  29.626  23.630  1.00  0.00    -0.041 A 
ATOM     28  C   UNL A   1      29.708  27.418  22.764  1.00  0.00     0.115 A 
ATOM     29  C   UNL A   1      29.221  28.692  23.066  1.00  0.00    -0.026 A 
ATOM     30  C   UNL A   1      29.674  30.996  24.064  1.00  0.00     0.036 C 
ATOM     31  C   UNL A   1      27.807  29.077  22.721  1.00  0.00     0.037 C 
ATOM     32  C   UNL A   1      28.363  31.427  23.430  1.00  0.00     0.005 C 
ATOM     33  C   UNL A   1      27.336  30.301  23.511  1.00  0.00     0.005 C 
ENDBRANCH  22  24
ENDBRANCH  12  22
ENDBRANCH  10  11
ENDBRANCH   8  10
ENDBRANCH   7   8
ENDBRANCH   6   7
ENDBRANCH   5   6
ENDBRANCH   4   5
ENDBRANCH   3   4
ENDBRANCH   2   3
ENDBRANCH   1   2
BRANCH   1  34
ATOM     34  C   UNL A   1      33.361  35.763  30.420  1.00  0.00     0.188 C 
BRANCH  34  35
ATOM     35  C   UNL A   1      33.142  35.979  31.936  1.00  0.00     0.188 C 
BRANCH  35  36
ATOM     36  O   UNL A   1      34.152  35.736  32.910  1.00  0.00    -0.376 OA
BRANCH  36  37
ATOM     37  C   UNL A   1      35.370  35.097  32.570  1.00  0.00     0.202 C 
BRANCH  37  38
ATOM     38  C   UNL A   1      36.275  34.534  33.668  1.00  0.00     0.261 C 
BRANCH  38  39
ATOM     39  O   UNL A   1      36.118  33.138  33.928  1.00  0.00    -0.460 OA
BRANCH  39  40
ATOM     40  C   UNL A   1      35.512  32.428  32.947  1.00  0.00     0.338 C 
ATOM     41  O   UNL A   1      34.328  32.444  32.651  1.00  0.00    -0.246 OA
BRANCH  40  42
ATOM     42  C   UNL A   1      36.559  31.761  32.142  1.00  0.00     0.060 A 
ATOM     43  C   UNL A   1      36.502  31.761  30.746  1.00  0.00     0.016 A 
ATOM     44  C   UNL A   1      37.583  31.076  32.811  1.00  0.00     0.016 A 
ATOM     45  C   UNL A   1      37.501  31.118  30.020  1.00  0.00     0.010 A 
ATOM     46  C   UNL A   1      38.573  30.416  32.085  1.00  0.00     0.010 A 
ATOM     47  C   UNL A   1      38.558  30.470  30.685  1.00  0.00    -0.014 A 
BRANCH  47  48
ATOM     48  C   UNL A   1      39.770  30.106  29.921  1.00  0.00     0.031 A 
ATOM     49  C   UNL A   1      40.968  30.994  29.827  1.00  0.00     0.074 A 
ATOM     50  C   UNL A   1      39.746  28.919  29.285  1.00  0.00     0.049 A 
ATOM     51  N   UNL A   1      42.139  30.721  29.315  1.00  0.00    -0.248 NA
ATOM     52  C   UNL A   1      40.843  32.358  30.359  1.00  0.00     0.031 C 
ATOM     53  C   UNL A   1      38.591  28.016  29.251  1.00  0.00     0.029 A 
ATOM     54  N   UNL A   1      40.704  28.265  28.559  1.00  0.00    -0.354 N 
ATOM     55  C   UNL A   1      42.896  31.874  29.457  1.00  0.00     0.074 A 
ATOM     56  C   UNL A   1      42.044  32.860  30.088  1.00  0.00     0.031 C 
ATOM     57  C   UNL A   1      38.919  26.912  28.567  1.00  0.00     0.029 A 
ATOM     58  C   UNL A   1      40.300  27.031  28.112  1.00  0.00     0.049 A 
ATOM     59  H   UNL A   1      41.595  28.642  28.376  1.00  0.00     0.167 HD
ATOM     60  C   UNL A   1      44.190  32.072  29.109  1.00  0.00     0.034 A 
ATOM     61  C   UNL A   1      40.972  26.084  27.435  1.00  0.00     0.034 A 
ATOM     62  C   UNL A   1      45.024  31.072  28.495  1.00  0.00     0.049 A 
ATOM     63  C   UNL A   1      42.414  26.312  27.101  1.00  0.00     0.074 A 
ATOM     64  C   UNL A   1      46.372  31.150  28.188  1.00  0.00     0.029 A 
ATOM     65  N   UNL A   1      44.592  29.822  28.080  1.00  0.00    -0.354 N 
ATOM     66  N   UNL A   1      43.166  27.345  27.392  1.00  0.00    -0.248 NA
ATOM     67  C   UNL A   1      43.110  25.241  26.377  1.00  0.00     0.031 C 
ATOM     68  C   UNL A   1      46.749  29.954  27.569  1.00  0.00     0.029 A 
ATOM     69  C   UNL A   1      45.641  29.125  27.504  1.00  0.00     0.049 A 
ATOM     70  H   UNL A   1      43.674  29.479  28.179  1.00  0.00     0.167 HD
ATOM     71  C   UNL A   1      44.430  27.044  26.906  1.00  0.00     0.074 A 
ATOM     72  C   UNL A   1      44.345  25.725  26.309  1.00  0.00     0.031 C 
ATOM     73  C   UNL A   1      45.552  27.799  26.945  1.00  0.00     0.034 A 
BRANCH  60  74
ATOM     74  C   UNL A   1      44.820  33.397  29.441  1.00  0.00     0.023 A 
ATOM     75  C   UNL A   1      45.489  33.544  30.673  1.00  0.00     0.012 A 
ATOM     76  C   UNL A   1      44.853  34.448  28.504  1.00  0.00     0.148 A 
ATOM     77  C   UNL A   1      46.174  34.721  30.973  1.00  0.00     0.002 A 
ATOM     78  C   UNL A   1      45.557  35.610  28.801  1.00  0.00     0.091 A 
ATOM     79  F   UNL A   1      44.203  34.288  27.343  1.00  0.00    -0.205 F 
ATOM     80  C   UNL A   1      46.217  35.748  30.034  1.00  0.00     0.022 A 
BRANCH  78  81
ATOM     81  S   UNL A   1      45.704  36.985  27.654  1.00  0.00     0.127 S 
ATOM     82  O   UNL A   1      44.299  37.320  27.420  1.00  0.00    -0.237 OA
ATOM     83  O   UNL A   1      46.440  37.970  28.446  1.00  0.00    -0.237 OA
ATOM     84  O   UNL A   1      46.420  36.471  26.495  1.00  0.00    -0.744 OA
ENDBRANCH  78  81
ENDBRANCH  60  74
BRANCH  61  85
ATOM     85  C   UNL A   1      40.287  24.799  27.142  1.00  0.00     0.023 A 
ATOM     86  C   UNL A   1      39.059  24.819  26.455  1.00  0.00     0.012 A 
ATOM     87  C   UNL A   1      40.907  23.567  27.421  1.00  0.00     0.148 A 
ATOM     88  C   UNL A   1      38.457  23.629  26.050  1.00  0.00     0.002 A 
ATOM     89  C   UNL A   1      40.320  22.386  26.983  1.00  0.00     0.091 A 
ATOM     90  F   UNL A   1      42.084  23.582  28.063  1.00  0.00    -0.205 F 
ATOM     91  C   UNL A   1      39.091  22.415  26.304  1.00  0.00     0.022 A 
BRANCH  89  92
ATOM     92  S   UNL A   1      41.106  20.783  27.169  1.00  0.00     0.127 S 
ATOM     93  O   UNL A   1      40.782  20.451  28.555  1.00  0.00    -0.237 OA
ATOM     94  O   UNL A   1      40.401  19.988  26.164  1.00  0.00    -0.237 OA
ATOM     95  O   UNL A   1      42.521  20.998  26.895  1.00  0.00    -0.744 OA
ENDBRANCH  89  92
ENDBRANCH  61  85
BRANCH  73  96
ATOM     96  C   UNL A   1      46.802  27.238  26.324  1.00  0.00     0.023 A 
ATOM     97  C   UNL A   1      47.068  27.489  24.965  1.00  0.00     0.012 A 
ATOM     98  C   UNL A   1      47.768  26.590  27.118  1.00  0.00     0.148 A 
ATOM     99  C   UNL A   1      48.283  27.100  24.401  1.00  0.00     0.002 A 
ATOM    100  C   UNL A   1      48.990  26.238  26.558  1.00  0.00     0.091 A 
ATOM    101  F   UNL A   1      47.483  26.359  28.407  1.00  0.00    -0.205 F 
ATOM    102  C   UNL A   1      49.248  26.488  25.200  1.00  0.00     0.022 A 
BRANCH 100 103
ATOM    103  S   UNL A   1      50.326  25.517  27.519  1.00  0.00     0.127 S 
ATOM    104  O   UNL A   1      49.814  24.172  27.777  1.00  0.00    -0.237 OA
ATOM    105  O   UNL A   1      51.445  25.574  26.579  1.00  0.00    -0.237 OA
ATOM    106  O   UNL A   1      50.476  26.356  28.700  1.00  0.00    -0.744 OA
ENDBRANCH 100 103
ENDBRANCH  73  96
ENDBRANCH  47  48
ENDBRANCH  40  42
ENDBRANCH  39  40
ENDBRANCH  38  39
ENDBRANCH  37  38
ENDBRANCH  36  37
ENDBRANCH  35  36
ENDBRANCH  34  35
ENDBRANCH   1  34
TORSDOF 26
ENDMDL
MODEL 2
REMARK VINA RESULT:     -10.2      1.915      2.628
REMARK SMILES O=C(Cc1c(C(=O)c2cc3c(cn2)CCCC3)[nH]c2cc(Cl)ccc12)OCCOCCOCCOCCOC(=O)c1ccc(-c2c3nc(c(-c4cccc(S(=O)(=O)[O-])c4F)c4ccc([nH]4)c(-c4cccc(S(=O)(=O)[O-])c4F)c4nc(c(-c5cccc(S(=O)(=O)[O-])c5F)c5ccc2[nH]5)C=C4)C=C3)cc1
REMARK SMILES IDX 32 1 31 2 30 3 29 4 28 5 27 6 26 7 2 8 1 9 3 10 4 11 5 12
REMARK SMILES IDX 25 13 18 14 19 15 24 16 20 18 23 19 21 20 22 21 6 22 7 23
REMARK SMILES IDX 8 24 9 25 13 26 10 27 12 28 11 29 17 30 14 31 16 32 15 33
REMARK SMILES IDX 33 34 34 35 35 36 36 37 37 38 38 39 39 40 40 41 41 42 42 43
REMARK SMILES IDX 103 44 43 45 102 46 44 47 45 48 46 49 96 50 47 51 101 52
REMARK SMILES IDX 95 53 97 54 48 55 100 56 94 57 93 58 49 60 81 61 61 62 80 63
REMARK SMILES IDX 62 64 65 65 79 66 98 67 63 68 64 69 78 71 99 72 66 73 50 74
REMARK SMILES IDX 51 75 59 76 52 77 54 78 60 79 53 80 55 81 56 82 57 83 58 84
REMARK SMILES IDX 82 85 83 86 91 87 84 88 86 89 92 90 85 91 87 92 88 93 89 94
REMARK SMILES IDX 90 95 67 96 68 97 76 98 69 99 71 100 77 101 70 102 72 103
REMARK SMILES IDX 73 104 74 105 75 106
REMARK H PARENT 18 17 97 59 65 70
REMARK Flexibility Score: inf
ROOT
ATOM      1  O   UNL A   1      33.094  34.382  29.739  1.00  0.00    -0.377 OA
ENDROOT
BRANCH   1   2
ATOM      2  C   UNL A   1      34.071  33.988  28.778  1.00  0.00     0.188 C 
BRANCH   2   3
ATOM      3  C   UNL A   1      33.643  32.789  27.922  1.00  0.00     0.188 C 
BRANCH   3   4
ATOM      4  O   UNL A   1      34.695  31.882  27.642  1.00  0.00    -0.376 OA
BRANCH   4   5
ATOM      5  C   UNL A   1      34.550  30.489  27.830  1.00  0.00     0.202 C 
BRANCH   5   6
ATOM      6  C   UNL A   1      33.864  29.648  26.757  1.00  0.00     0.261 C 
BRANCH   6   7
ATOM      7  O   UNL A   1      33.433  28.315  27.115  1.00  0.00    -0.463 OA
BRANCH   7   8
ATOM      8  C   UNL A   1      32.213  27.752  27.168  1.00  0.00     0.310 C 
ATOM      9  O   UNL A   1      31.403  28.182  27.996  1.00  0.00    -0.252 OA
BRANCH   8  10
ATOM     10  C   UNL A   1      31.859  26.528  26.361  1.00  0.00     0.161 C 
BRANCH  10  11
ATOM     11  C   UNL A   1      32.888  25.910  25.473  1.00  0.00     0.000 A 
ATOM     12  C   UNL A   1      33.456  26.456  24.333  1.00  0.00     0.093 A 
ATOM     13  C   UNL A   1      33.407  24.585  25.621  1.00  0.00     0.004 A 
ATOM     14  N   UNL A   1      34.391  25.553  23.875  1.00  0.00    -0.351 N 
ATOM     15  C   UNL A   1      34.296  24.370  24.573  1.00  0.00     0.048 A 
ATOM     16  C   UNL A   1      33.178  23.545  26.547  1.00  0.00     0.012 A 
ATOM     17  H   UNL A   1      35.034  25.729  23.151  1.00  0.00     0.167 HD
ATOM     18  C   UNL A   1      34.921  23.134  24.359  1.00  0.00     0.047 A 
ATOM     19  C   UNL A   1      33.791  22.303  26.351  1.00  0.00     0.021 A 
ATOM     20  C   UNL A   1      34.630  22.103  25.259  1.00  0.00     0.043 A 
ATOM     21  Cl  UNL A   1      35.312  20.541  25.001  1.00  0.00    -0.084 Cl
BRANCH  12  22
ATOM     22  C   UNL A   1      33.110  27.721  23.715  1.00  0.00     0.227 C 
ATOM     23  O   UNL A   1      33.934  28.605  23.488  1.00  0.00    -0.285 OA
BRANCH  22  24
ATOM     24  C   UNL A   1      31.701  28.049  23.502  1.00  0.00     0.113 A 
ATOM     25  C   UNL A   1      31.346  29.338  23.836  1.00  0.00     0.036 A 
ATOM     26  N   UNL A   1      30.871  27.102  23.005  1.00  0.00    -0.252 NA
ATOM     27  C   UNL A   1      30.035  29.722  23.622  1.00  0.00    -0.041 A 
ATOM     28  C   UNL A   1      29.607  27.520  22.756  1.00  0.00     0.115 A 
ATOM     29  C   UNL A   1      29.138  28.801  23.058  1.00  0.00    -0.026 A 
ATOM     30  C   UNL A   1      29.625  31.098  24.056  1.00  0.00     0.036 C 
ATOM     31  C   UNL A   1      27.731  29.206  22.711  1.00  0.00     0.037 C 
ATOM     32  C   UNL A   1      28.320  31.548  23.422  1.00  0.00     0.005 C 
ATOM     33  C   UNL A   1      27.277  30.437  23.502  1.00  0.00     0.005 C 
ENDBRANCH  22  24
ENDBRANCH  12  22
ENDBRANCH  10  11
ENDBRANCH   8  10
ENDBRANCH   7   8
ENDBRANCH   6   7
ENDBRANCH   5   6
ENDBRANCH   4   5
ENDBRANCH   3   4
ENDBRANCH   2   3
ENDBRANCH   1   2
BRANCH   1  34
ATOM     34  C   UNL A   1      33.160  35.751  30.111  1.00  0.00     0.188 C 
BRANCH  34  35
ATOM     35  C   UNL A   1      32.521  36.120  31.471  1.00  0.00     0.188 C 
BRANCH  35  36
ATOM     36  O   UNL A   1      33.214  36.010  32.710  1.00  0.00    -0.376 OA
BRANCH  36  37
ATOM     37  C   UNL A   1      34.541  35.519  32.775  1.00  0.00     0.202 C 
BRANCH  37  38
ATOM     38  C   UNL A   1      35.083  34.940  34.084  1.00  0.00     0.261 C 
BRANCH  38  39
ATOM     39  O   UNL A   1      35.040  33.515  34.181  1.00  0.00    -0.460 OA
BRANCH  39  40
ATOM     40  C   UNL A   1      34.768  32.861  33.028  1.00  0.00     0.338 C 
ATOM     41  O   UNL A   1      33.675  32.717  32.503  1.00  0.00    -0.246 OA
BRANCH  40  42
ATOM     42  C   UNL A   1      36.051  32.506  32.382  1.00  0.00     0.060 A 
ATOM     43  C   UNL A   1      36.263  32.749  31.022  1.00  0.00     0.016 A 
ATOM     44  C   UNL A   1      37.033  31.866  33.151  1.00  0.00     0.016 A 
ATOM     45  C   UNL A   1      37.481  32.396  30.445  1.00  0.00     0.010 A 
ATOM     46  C   UNL A   1      38.245  31.496  32.569  1.00  0.00     0.010 A 
ATOM     47  C   UNL A   1      38.488  31.797  31.222  1.00  0.00    -0.014 A 
BRANCH  47  48
ATOM     48  C   UNL A   1      39.869  31.753  30.696  1.00  0.00     0.031 A 
ATOM     49  C   UNL A   1      40.869  32.833  30.950  1.00  0.00     0.074 A 
ATOM     50  C   UNL A   1      40.193  30.682  29.948  1.00  0.00     0.049 A 
ATOM     51  N   UNL A   1      42.146  32.836  30.670  1.00  0.00    -0.248 NA
ATOM     52  C   UNL A   1      40.387  34.068  31.585  1.00  0.00     0.031 C 
ATOM     53  C   UNL A   1      39.261  29.612  29.576  1.00  0.00     0.029 A 
ATOM     54  N   UNL A   1      41.378  30.307  29.374  1.00  0.00    -0.354 N 
ATOM     55  C   UNL A   1      42.627  34.067  31.089  1.00  0.00     0.074 A 
ATOM     56  C   UNL A   1      41.498  34.797  31.627  1.00  0.00     0.031 C 
ATOM     57  C   UNL A   1      39.918  28.687  28.865  1.00  0.00     0.029 A 
ATOM     58  C   UNL A   1      41.310  29.099  28.725  1.00  0.00     0.049 A 
ATOM     59  H   UNL A   1      42.198  30.850  29.423  1.00  0.00     0.167 HD
ATOM     60  C   UNL A   1      43.900  34.526  31.043  1.00  0.00     0.034 A 
ATOM     61  C   UNL A   1      42.266  28.383  28.108  1.00  0.00     0.034 A 
ATOM     62  C   UNL A   1      45.011  33.777  30.516  1.00  0.00     0.049 A 
ATOM     63  C   UNL A   1      43.674  28.895  28.110  1.00  0.00     0.074 A 
ATOM     64  C   UNL A   1      46.352  34.123  30.509  1.00  0.00     0.029 A 
ATOM     65  N   UNL A   1      44.913  32.544  29.889  1.00  0.00    -0.354 N 
ATOM     66  N   UNL A   1      44.145  29.987  28.660  1.00  0.00    -0.248 NA
ATOM     67  C   UNL A   1      44.686  28.070  27.439  1.00  0.00     0.031 C 
ATOM     68  C   UNL A   1      47.062  33.107  29.860  1.00  0.00     0.029 A 
ATOM     69  C   UNL A   1      46.166  32.122  29.477  1.00  0.00     0.049 A 
ATOM     70  H   UNL A   1      44.076  32.042  29.757  1.00  0.00     0.167 HD
ATOM     71  C   UNL A   1      45.511  29.974  28.421  1.00  0.00     0.074 A 
ATOM     72  C   UNL A   1      45.795  28.757  27.684  1.00  0.00     0.031 C 
ATOM     73  C   UNL A   1      46.440  30.893  28.774  1.00  0.00     0.034 A 
BRANCH  60  74
ATOM     74  C   UNL A   1      44.190  35.877  31.638  1.00  0.00     0.023 A 
ATOM     75  C   UNL A   1      44.617  35.954  32.979  1.00  0.00     0.012 A 
ATOM     76  C   UNL A   1      44.154  37.046  30.853  1.00  0.00     0.148 A 
ATOM     77  C   UNL A   1      44.995  37.175  33.535  1.00  0.00     0.002 A 
ATOM     78  C   UNL A   1      44.554  38.257  31.408  1.00  0.00     0.091 A 
ATOM     79  F   UNL A   1      43.738  36.950  29.582  1.00  0.00    -0.205 F 
ATOM     80  C   UNL A   1      44.973  38.323  32.747  1.00  0.00     0.022 A 
BRANCH  78  81
ATOM     81  S   UNL A   1      44.596  39.793  30.477  1.00  0.00     0.127 S 
ATOM     82  O   UNL A   1      43.177  39.990  30.176  1.00  0.00    -0.237 OA
ATOM     83  O   UNL A   1      45.145  40.732  31.455  1.00  0.00    -0.237 OA
ATOM     84  O   UNL A   1      45.446  39.544  29.322  1.00  0.00    -0.744 OA
ENDBRANCH  78  81
ENDBRANCH  60  74
BRANCH  61  85
ATOM     85  C   UNL A   1      41.908  27.057  27.544  1.00  0.00     0.023 A 
ATOM     86  C   UNL A   1      41.405  26.985  26.232  1.00  0.00     0.012 A 
ATOM     87  C   UNL A   1      42.188  25.870  28.248  1.00  0.00     0.148 A 
ATOM     88  C   UNL A   1      41.184  25.748  25.628  1.00  0.00     0.002 A 
ATOM     89  C   UNL A   1      42.000  24.642  27.627  1.00  0.00     0.091 A 
ATOM     90  F   UNL A   1      42.681  25.973  29.490  1.00  0.00    -0.205 F 
ATOM     91  C   UNL A   1      41.491  24.579  26.320  1.00  0.00     0.022 A 
BRANCH  89  92
ATOM     92  S   UNL A   1      42.461  23.085  28.395  1.00  0.00     0.127 S 
ATOM     93  O   UNL A   1      41.182  22.380  28.431  1.00  0.00    -0.237 OA
ATOM     94  O   UNL A   1      43.430  22.556  27.434  1.00  0.00    -0.237 OA
ATOM     95  O   UNL A   1      43.018  23.431  29.695  1.00  0.00    -0.744 OA
ENDBRANCH  89  92
ENDBRANCH  61  85
BRANCH  73  96
ATOM     96  C   UNL A   1      47.868  30.643  28.374  1.00  0.00     0.023 A 
ATOM     97  C   UNL A   1      48.421  31.370  27.305  1.00  0.00     0.012 A 
ATOM     98  C   UNL A   1      48.691  29.797  29.144  1.00  0.00     0.148 A 
ATOM     99  C   UNL A   1      49.778  31.260  27.003  1.00  0.00     0.002 A 
ATOM    100  C   UNL A   1      50.049  29.719  28.860  1.00  0.00     0.091 A 
ATOM    101  F   UNL A   1      48.134  29.111  30.152  1.00  0.00    -0.205 F 
ATOM    102  C   UNL A   1      50.593  30.446  27.788  1.00  0.00     0.022 A 
BRANCH 100 103
ATOM    103  S   UNL A   1      51.195  28.762  29.858  1.00  0.00     0.127 S 
ATOM    104  O   UNL A   1      52.280  28.514  28.910  1.00  0.00    -0.237 OA
ATOM    105  O   UNL A   1      51.524  29.699  30.931  1.00  0.00    -0.237 OA
ATOM    106  O   UNL A   1      50.468  27.574  30.286  1.00  0.00    -0.744 OA
ENDBRANCH 100 103
ENDBRANCH  73  96
ENDBRANCH  47  48
ENDBRANCH  40  42
ENDBRANCH  39  40
ENDBRANCH  38  39
ENDBRANCH  37  38
ENDBRANCH  36  37
ENDBRANCH  35  36
ENDBRANCH  34  35
ENDBRANCH   1  34
TORSDOF 26
ENDMDL
MODEL 3
REMARK VINA RESULT:     -10.1      1.852      2.468
REMARK SMILES O=C(Cc1c(C(=O)c2cc3c(cn2)CCCC3)[nH]c2cc(Cl)ccc12)OCCOCCOCCOCCOC(=O)c1ccc(-c2c3nc(c(-c4cccc(S(=O)(=O)[O-])c4F)c4ccc([nH]4)c(-c4cccc(S(=O)(=O)[O-])c4F)c4nc(c(-c5cccc(S(=O)(=O)[O-])c5F)c5ccc2[nH]5)C=C4)C=C3)cc1
REMARK SMILES IDX 32 1 31 2 30 3 29 4 28 5 27 6 26 7 2 8 1 9 3 10 4 11 5 12
REMARK SMILES IDX 25 13 18 14 19 15 24 16 20 18 23 19 21 20 22 21 6 22 7 23
REMARK SMILES IDX 8 24 9 25 13 26 10 27 12 28 11 29 17 30 14 31 16 32 15 33
REMARK SMILES IDX 33 34 34 35 35 36 36 37 37 38 38 39 39 40 40 41 41 42 42 43
REMARK SMILES IDX 103 44 43 45 102 46 44 47 45 48 46 49 96 50 47 51 101 52
REMARK SMILES IDX 95 53 97 54 48 55 100 56 94 57 93 58 49 60 81 61 61 62 80 63
REMARK SMILES IDX 62 64 65 65 79 66 98 67 63 68 64 69 78 71 99 72 66 73 50 74
REMARK SMILES IDX 51 75 59 76 52 77 54 78 60 79 53 80 55 81 56 82 57 83 58 84
REMARK SMILES IDX 82 85 83 86 91 87 84 88 86 89 92 90 85 91 87 92 88 93 89 94
REMARK SMILES IDX 90 95 67 96 68 97 76 98 69 99 71 100 77 101 70 102 72 103
REMARK SMILES IDX 73 104 74 105 75 106
REMARK H PARENT 18 17 97 59 65 70
REMARK Flexibility Score: inf
ROOT
ATOM      1  O   UNL A   1      33.779  34.043  30.344  1.00  0.00    -0.377 OA
ENDROOT
BRANCH   1   2
ATOM      2  C   UNL A   1      34.532  33.823  29.154  1.00  0.00     0.188 C 
BRANCH   2   3
ATOM      3  C   UNL A   1      34.199  32.500  28.451  1.00  0.00     0.188 C 
BRANCH   3   4
ATOM      4  O   UNL A   1      35.338  31.721  28.131  1.00  0.00    -0.376 OA
BRANCH   4   5
ATOM      5  C   UNL A   1      35.313  30.308  28.172  1.00  0.00     0.202 C 
BRANCH   5   6
ATOM      6  C   UNL A   1      34.666  29.530  27.029  1.00  0.00     0.261 C 
BRANCH   6   7
ATOM      7  O   UNL A   1      33.863  28.376  27.366  1.00  0.00    -0.463 OA
BRANCH   7   8
ATOM      8  C   UNL A   1      32.564  28.098  27.163  1.00  0.00     0.310 C 
ATOM      9  O   UNL A   1      31.721  28.917  27.548  1.00  0.00    -0.252 OA
BRANCH   8  10
ATOM     10  C   UNL A   1      32.102  26.768  26.624  1.00  0.00     0.161 C 
BRANCH  10  11
ATOM     11  C   UNL A   1      32.948  26.046  25.627  1.00  0.00     0.000 A 
ATOM     12  C   UNL A   1      33.420  26.525  24.416  1.00  0.00     0.093 A 
ATOM     13  C   UNL A   1      33.349  24.676  25.734  1.00  0.00     0.004 A 
ATOM     14  N   UNL A   1      34.198  25.531  23.863  1.00  0.00    -0.351 N 
ATOM     15  C   UNL A   1      34.075  24.368  24.589  1.00  0.00     0.048 A 
ATOM     16  C   UNL A   1      33.136  23.670  26.701  1.00  0.00     0.012 A 
ATOM     17  H   UNL A   1      34.760  25.638  23.063  1.00  0.00     0.167 HD
ATOM     18  C   UNL A   1      34.545  23.075  24.323  1.00  0.00     0.047 A 
ATOM     19  C   UNL A   1      33.596  22.372  26.454  1.00  0.00     0.021 A 
ATOM     20  C   UNL A   1      34.269  22.083  25.271  1.00  0.00     0.043 A 
ATOM     21  Cl  UNL A   1      34.758  20.460  24.960  1.00  0.00    -0.084 Cl
BRANCH  12  22
ATOM     22  C   UNL A   1      33.126  27.815  23.823  1.00  0.00     0.227 C 
ATOM     23  O   UNL A   1      33.974  28.690  23.663  1.00  0.00    -0.285 OA
BRANCH  22  24
ATOM     24  C   UNL A   1      31.734  28.175  23.552  1.00  0.00     0.113 A 
ATOM     25  C   UNL A   1      31.372  29.443  23.955  1.00  0.00     0.036 A 
ATOM     26  N   UNL A   1      30.925  27.275  22.945  1.00  0.00    -0.252 NA
ATOM     27  C   UNL A   1      30.079  29.856  23.693  1.00  0.00    -0.041 A 
ATOM     28  C   UNL A   1      29.682  27.724  22.654  1.00  0.00     0.115 A 
ATOM     29  C   UNL A   1      29.208  28.988  23.017  1.00  0.00    -0.026 A 
ATOM     30  C   UNL A   1      29.657  31.205  24.198  1.00  0.00     0.036 C 
ATOM     31  C   UNL A   1      27.826  29.434  22.619  1.00  0.00     0.037 C 
ATOM     32  C   UNL A   1      28.395  31.714  23.522  1.00  0.00     0.005 C 
ATOM     33  C   UNL A   1      27.339  30.614  23.466  1.00  0.00     0.005 C 
ENDBRANCH  22  24
ENDBRANCH  12  22
ENDBRANCH  10  11
ENDBRANCH   8  10
ENDBRANCH   7   8
ENDBRANCH   6   7
ENDBRANCH   5   6
ENDBRANCH   4   5
ENDBRANCH   3   4
ENDBRANCH   2   3
ENDBRANCH   1   2
BRANCH   1  34
ATOM     34  C   UNL A   1      33.928  35.344  30.897  1.00  0.00     0.188 C 
BRANCH  34  35
ATOM     35  C   UNL A   1      34.181  35.411  32.422  1.00  0.00     0.188 C 
BRANCH  35  36
ATOM     36  O   UNL A   1      35.478  35.570  32.988  1.00  0.00    -0.376 OA
BRANCH  36  37
ATOM     37  C   UNL A   1      36.580  34.802  32.539  1.00  0.00     0.202 C 
BRANCH  37  38
ATOM     38  C   UNL A   1      37.373  33.945  33.529  1.00  0.00     0.261 C 
BRANCH  38  39
ATOM     39  O   UNL A   1      36.881  32.616  33.711  1.00  0.00    -0.460 OA
BRANCH  39  40
ATOM     40  C   UNL A   1      36.555  31.955  32.575  1.00  0.00     0.338 C 
ATOM     41  O   UNL A   1      35.451  31.875  32.061  1.00  0.00    -0.246 OA
BRANCH  40  42
ATOM     42  C   UNL A   1      37.805  31.497  31.930  1.00  0.00     0.060 A 
ATOM     43  C   UNL A   1      37.974  31.584  30.546  1.00  0.00     0.016 A 
ATOM     44  C   UNL A   1      38.799  30.918  32.732  1.00  0.00     0.016 A 
ATOM     45  C   UNL A   1      39.162  31.137  29.971  1.00  0.00     0.010 A 
ATOM     46  C   UNL A   1      39.980  30.454  32.155  1.00  0.00     0.010 A 
ATOM     47  C   UNL A   1      40.182  30.599  30.776  1.00  0.00    -0.014 A 
BRANCH  47  48
ATOM     48  C   UNL A   1      41.542  30.461  30.213  1.00  0.00     0.031 A 
ATOM     49  C   UNL A   1      42.470  31.618  30.038  1.00  0.00     0.074 A 
ATOM     50  C   UNL A   1      41.915  29.222  29.840  1.00  0.00     0.049 A 
ATOM     51  N   UNL A   1      43.732  31.599  29.698  1.00  0.00    -0.248 NA
ATOM     52  C   UNL A   1      41.924  32.965  30.260  1.00  0.00     0.031 C 
ATOM     53  C   UNL A   1      41.049  28.040  29.896  1.00  0.00     0.029 A 
ATOM     54  N   UNL A   1      43.101  28.745  29.352  1.00  0.00    -0.354 N 
ATOM     55  C   UNL A   1      44.138  32.924  29.660  1.00  0.00     0.074 A 
ATOM     56  C   UNL A   1      42.980  33.727  29.995  1.00  0.00     0.031 C 
ATOM     57  C   UNL A   1      41.743  26.969  29.490  1.00  0.00     0.029 A 
ATOM     58  C   UNL A   1      43.096  27.388  29.140  1.00  0.00     0.049 A 
ATOM     59  H   UNL A   1      43.881  29.319  29.171  1.00  0.00     0.167 HD
ATOM     60  C   UNL A   1      45.372  33.413  29.391  1.00  0.00     0.034 A 
ATOM     61  C   UNL A   1      44.078  26.563  28.737  1.00  0.00     0.034 A 
ATOM     62  C   UNL A   1      46.514  32.595  29.074  1.00  0.00     0.049 A 
ATOM     63  C   UNL A   1      45.444  27.124  28.488  1.00  0.00     0.074 A 
ATOM     64  C   UNL A   1      47.825  32.992  28.875  1.00  0.00     0.029 A 
ATOM     65  N   UNL A   1      46.482  31.220  28.894  1.00  0.00    -0.354 N 
ATOM     66  N   UNL A   1      45.855  28.361  28.620  1.00  0.00    -0.248 NA
ATOM     67  C   UNL A   1      46.487  26.181  28.067  1.00  0.00     0.031 C 
ATOM     68  C   UNL A   1      48.582  31.861  28.554  1.00  0.00     0.029 A 
ATOM     69  C   UNL A   1      47.746  30.756  28.570  1.00  0.00     0.049 A 
ATOM     70  H   UNL A   1      45.679  30.657  28.984  1.00  0.00     0.167 HD
ATOM     71  C   UNL A   1      47.209  28.346  28.318  1.00  0.00     0.074 A 
ATOM     72  C   UNL A   1      47.552  26.972  28.006  1.00  0.00     0.031 C 
ATOM     73  C   UNL A   1      48.082  29.381  28.295  1.00  0.00     0.034 A 
BRANCH  60  74
ATOM     74  C   UNL A   1      45.586  34.898  29.491  1.00  0.00     0.023 A 
ATOM     75  C   UNL A   1      46.100  35.434  30.689  1.00  0.00     0.012 A 
ATOM     76  C   UNL A   1      45.392  35.743  28.380  1.00  0.00     0.148 A 
ATOM     77  C   UNL A   1      46.410  36.790  30.785  1.00  0.00     0.002 A 
ATOM     78  C   UNL A   1      45.724  37.090  28.477  1.00  0.00     0.091 A 
ATOM     79  F   UNL A   1      44.894  35.213  27.254  1.00  0.00    -0.205 F 
ATOM     80  C   UNL A   1      46.231  37.614  29.677  1.00  0.00     0.022 A 
BRANCH  78  81
ATOM     81  S   UNL A   1      45.564  38.238  27.104  1.00  0.00     0.127 S 
ATOM     82  O   UNL A   1      46.490  37.659  26.131  1.00  0.00    -0.237 OA
ATOM     83  O   UNL A   1      44.150  38.102  26.752  1.00  0.00    -0.237 OA
ATOM     84  O   UNL A   1      45.944  39.544  27.622  1.00  0.00    -0.744 OA
ENDBRANCH  78  81
ENDBRANCH  60  74
BRANCH  61  85
ATOM     85  C   UNL A   1      43.796  25.107  28.662  1.00  0.00     0.023 A 
ATOM     86  C   UNL A   1      44.016  24.308  29.798  1.00  0.00     0.012 A 
ATOM     87  C   UNL A   1      43.191  24.544  27.522  1.00  0.00     0.148 A 
ATOM     88  C   UNL A   1      43.639  22.966  29.802  1.00  0.00     0.002 A 
ATOM     89  C   UNL A   1      42.784  23.216  27.546  1.00  0.00     0.091 A 
ATOM     90  F   UNL A   1      42.980  25.336  26.461  1.00  0.00    -0.205 F 
ATOM     91  C   UNL A   1      43.013  22.423  28.682  1.00  0.00     0.022 A 
BRANCH  89  92
ATOM     92  S   UNL A   1      41.880  22.453  26.194  1.00  0.00     0.127 S 
ATOM     93  O   UNL A   1      41.745  21.077  26.664  1.00  0.00    -0.237 OA
ATOM     94  O   UNL A   1      40.639  23.229  26.192  1.00  0.00    -0.237 OA
ATOM     95  O   UNL A   1      42.710  22.628  25.010  1.00  0.00    -0.744 OA
ENDBRANCH  89  92
ENDBRANCH  61  85
BRANCH  73  96
ATOM     96  C   UNL A   1      49.508  29.092  27.915  1.00  0.00     0.023 A 
ATOM     97  C   UNL A   1      49.913  29.265  26.579  1.00  0.00     0.012 A 
ATOM     98  C   UNL A   1      50.466  28.790  28.903  1.00  0.00     0.148 A 
ATOM     99  C   UNL A   1      51.257  29.139  26.228  1.00  0.00     0.002 A 
ATOM    100  C   UNL A   1      51.807  28.702  28.552  1.00  0.00     0.091 A 
ATOM    101  F   UNL A   1      50.048  28.624  30.166  1.00  0.00    -0.205 F 
ATOM    102  C   UNL A   1      52.204  28.872  27.215  1.00  0.00     0.022 A 
BRANCH 100 103
ATOM    103  S   UNL A   1      53.111  28.439  29.760  1.00  0.00     0.127 S 
ATOM    104  O   UNL A   1      54.298  28.381  28.908  1.00  0.00    -0.237 OA
ATOM    105  O   UNL A   1      53.010  29.641  30.586  1.00  0.00    -0.237 OA
ATOM    106  O   UNL A   1      52.785  27.196  30.445  1.00  0.00    -0.744 OA
ENDBRANCH 100 103
ENDBRANCH  73  96
ENDBRANCH  47  48
ENDBRANCH  40  42
ENDBRANCH  39  40
ENDBRANCH  38  39
ENDBRANCH  37  38
ENDBRANCH  36  37
ENDBRANCH  35  36
ENDBRANCH  34  35
ENDBRANCH   1  34
TORSDOF 26
ENDMDL
