MODEL 1
REMARK VINA RESULT:      -9.5      0.000      0.000
REMARK SMILES Cc1c(Br)c(C)c2c(c1Br)O[C@H](C(F)(F)F)C(C(=O)OCCOCCOCCOCCOC(=O)c1ccc(-c3c4nc(c(-c5cccc(S(=O)(=O)[O-])c5F)c5ccc([nH]5)c(-c5cccc(S(=O)(=O)[O-])c5F)c5nc(c(-c6cccc(S(=O)(=O)[O-])c6F)c6ccc3[nH]6)C=C5)C=C4)cc1)=C2
REMARK SMILES IDX 27 1 26 2 25 3 24 4 23 5 22 6 21 7 20 8 18 9 19 10 17 11
REMARK SMILES IDX 1 12 2 13 3 14 9 15 4 16 5 17 8 18 10 19 6 20 7 21 11 22
REMARK SMILES IDX 98 23 12 24 13 25 14 26 15 27 16 28 28 29 29 30 30 31 31 32
REMARK SMILES IDX 32 33 33 34 34 35 35 36 36 37 97 38 37 39 96 40 38 41 39 42
REMARK SMILES IDX 40 43 90 44 41 45 95 46 89 47 91 48 42 49 94 50 88 51 87 52
REMARK SMILES IDX 43 54 75 55 55 56 74 57 56 58 59 59 73 60 92 61 57 62 58 63
REMARK SMILES IDX 72 65 93 66 60 67 44 68 45 69 53 70 46 71 48 72 54 73 47 74
REMARK SMILES IDX 49 75 50 76 51 77 52 78 76 79 77 80 85 81 78 82 80 83 86 84
REMARK SMILES IDX 79 85 81 86 82 87 83 88 84 89 61 90 62 91 70 92 63 93 65 94
REMARK SMILES IDX 71 95 64 96 66 97 67 98 68 99 69 100
REMARK H PARENT 91 53 59 64
REMARK Flexibility Score: inf
ROOT
ATOM      1  C   UNL A   1      34.289  22.880  24.065  1.00  0.00     0.188 C 
ENDROOT
BRANCH   1   2
ATOM      2  O   UNL A   1      33.791  23.307  25.334  1.00  0.00    -0.377 OA
BRANCH   2   3
ATOM      3  C   UNL A   1      32.547  22.786  25.769  1.00  0.00     0.188 C 
BRANCH   3   4
ATOM      4  C   UNL A   1      31.842  23.696  26.793  1.00  0.00     0.188 C 
BRANCH   4   5
ATOM      5  O   UNL A   1      30.800  24.477  26.236  1.00  0.00    -0.376 OA
BRANCH   5   6
ATOM      6  C   UNL A   1      30.653  24.621  24.832  1.00  0.00     0.202 C 
BRANCH   6   7
ATOM      7  C   UNL A   1      29.857  25.746  24.139  1.00  0.00     0.261 C 
BRANCH   7   8
ATOM      8  O   UNL A   1      30.024  27.074  24.633  1.00  0.00    -0.460 OA
BRANCH   8   9
ATOM      9  C   UNL A   1      30.848  27.897  23.965  1.00  0.00     0.338 C 
ATOM     10  O   UNL A   1      30.738  28.269  22.810  1.00  0.00    -0.246 OA
BRANCH   9  11
ATOM     11  C   UNL A   1      31.811  28.447  24.945  1.00  0.00     0.087 C 
ATOM     12  C   UNL A   1      35.798  32.206  28.436  1.00  0.00     0.047 C 
ATOM     13  C   UNL A   1      34.620  31.530  27.777  1.00  0.00    -0.019 A 
ATOM     14  C   UNL A   1      33.423  32.235  27.501  1.00  0.00     0.025 A 
ATOM     15  C   UNL A   1      34.673  30.161  27.449  1.00  0.00     0.064 A 
ATOM     16  Br  UNL A   1      33.246  34.041  28.128  1.00  0.00    -0.050 Br
ATOM     17  C   UNL A   1      32.363  31.632  26.781  1.00  0.00    -0.026 A 
ATOM     18  C   UNL A   1      33.644  29.555  26.709  1.00  0.00     0.142 A 
ATOM     19  Br  UNL A   1      36.157  29.078  27.995  1.00  0.00    -0.046 Br
ATOM     20  C   UNL A   1      31.054  32.343  26.508  1.00  0.00     0.046 C 
ATOM     21  C   UNL A   1      32.530  30.305  26.313  1.00  0.00     0.022 A 
ATOM     22  O   UNL A   1      33.790  28.226  26.417  1.00  0.00    -0.474 OA
ATOM     23  C   UNL A   1      31.593  29.698  25.370  1.00  0.00     0.027 C 
ATOM     24  C   UNL A   1      32.917  27.573  25.463  1.00  0.00     0.316 C 
BRANCH  24  25
ATOM     25  C   UNL A   1      33.780  27.001  24.330  1.00  0.00     0.430 C 
ATOM     26  F   UNL A   1      33.061  26.190  23.523  1.00  0.00    -0.167 F 
ATOM     27  F   UNL A   1      34.309  27.976  23.558  1.00  0.00    -0.167 F 
ATOM     28  F   UNL A   1      34.812  26.274  24.824  1.00  0.00    -0.167 F 
ENDBRANCH  24  25
ENDBRANCH   9  11
ENDBRANCH   8   9
ENDBRANCH   7   8
ENDBRANCH   6   7
ENDBRANCH   5   6
ENDBRANCH   4   5
ENDBRANCH   3   4
ENDBRANCH   2   3
ENDBRANCH   1   2
BRANCH   1  29
ATOM     29  C   UNL A   1      35.716  23.243  23.589  1.00  0.00     0.188 C 
BRANCH  29  30
ATOM     30  O   UNL A   1      36.643  22.163  23.630  1.00  0.00    -0.376 OA
BRANCH  30  31
ATOM     31  C   UNL A   1      36.720  21.401  24.825  1.00  0.00     0.202 C 
BRANCH  31  32
ATOM     32  C   UNL A   1      38.137  21.084  25.320  1.00  0.00     0.261 C 
BRANCH  32  33
ATOM     33  O   UNL A   1      38.689  22.016  26.261  1.00  0.00    -0.460 OA
BRANCH  33  34
ATOM     34  C   UNL A   1      39.979  21.850  26.624  1.00  0.00     0.338 C 
ATOM     35  O   UNL A   1      40.660  20.848  26.485  1.00  0.00    -0.246 OA
BRANCH  34  36
ATOM     36  C   UNL A   1      40.488  23.170  27.047  1.00  0.00     0.060 A 
ATOM     37  C   UNL A   1      40.049  24.318  26.376  1.00  0.00     0.016 A 
ATOM     38  C   UNL A   1      41.372  23.269  28.123  1.00  0.00     0.016 A 
ATOM     39  C   UNL A   1      40.517  25.572  26.768  1.00  0.00     0.010 A 
ATOM     40  C   UNL A   1      41.855  24.524  28.500  1.00  0.00     0.010 A 
ATOM     41  C   UNL A   1      41.453  25.677  27.805  1.00  0.00    -0.014 A 
BRANCH  41  42
ATOM     42  C   UNL A   1      42.150  26.963  28.046  1.00  0.00     0.031 A 
ATOM     43  C   UNL A   1      43.582  27.088  27.603  1.00  0.00     0.074 A 
ATOM     44  C   UNL A   1      41.527  27.997  28.638  1.00  0.00     0.049 A 
ATOM     45  N   UNL A   1      44.398  28.101  27.720  1.00  0.00    -0.248 NA
ATOM     46  C   UNL A   1      44.172  25.913  26.935  1.00  0.00     0.031 C 
ATOM     47  C   UNL A   1      40.140  27.999  29.096  1.00  0.00     0.029 A 
ATOM     48  N   UNL A   1      41.993  29.245  28.969  1.00  0.00    -0.354 N 
ATOM     49  C   UNL A   1      45.598  27.685  27.154  1.00  0.00     0.074 A 
ATOM     50  C   UNL A   1      45.413  26.321  26.715  1.00  0.00     0.031 C 
ATOM     51  C   UNL A   1      39.870  29.189  29.662  1.00  0.00     0.029 A 
ATOM     52  C   UNL A   1      41.071  30.023  29.630  1.00  0.00     0.049 A 
ATOM     53  H   UNL A   1      42.903  29.556  28.754  1.00  0.00     0.167 HD
ATOM     54  C   UNL A   1      46.743  28.387  26.992  1.00  0.00     0.034 A 
ATOM     55  C   UNL A   1      41.189  31.259  30.156  1.00  0.00     0.034 A 
ATOM     56  C   UNL A   1      46.919  29.747  27.420  1.00  0.00     0.049 A 
ATOM     57  C   UNL A   1      42.498  31.998  30.012  1.00  0.00     0.074 A 
ATOM     58  C   UNL A   1      48.038  30.548  27.282  1.00  0.00     0.029 A 
ATOM     59  N   UNL A   1      45.959  30.503  28.073  1.00  0.00    -0.354 N 
ATOM     60  N   UNL A   1      43.590  31.631  29.386  1.00  0.00    -0.248 NA
ATOM     61  C   UNL A   1      42.582  33.336  30.620  1.00  0.00     0.031 C 
ATOM     62  C   UNL A   1      47.764  31.781  27.878  1.00  0.00     0.029 A 
ATOM     63  C   UNL A   1      46.463  31.761  28.353  1.00  0.00     0.049 A 
ATOM     64  H   UNL A   1      45.054  30.191  28.303  1.00  0.00     0.167 HD
ATOM     65  C   UNL A   1      44.472  32.702  29.490  1.00  0.00     0.074 A 
ATOM     66  C   UNL A   1      43.782  33.741  30.226  1.00  0.00     0.031 C 
ATOM     67  C   UNL A   1      45.744  32.809  29.030  1.00  0.00     0.034 A 
BRANCH  54  68
ATOM     68  C   UNL A   1      47.887  27.717  26.281  1.00  0.00     0.023 A 
ATOM     69  C   UNL A   1      48.772  26.900  27.014  1.00  0.00     0.012 A 
ATOM     70  C   UNL A   1      48.027  27.809  24.883  1.00  0.00     0.148 A 
ATOM     71  C   UNL A   1      49.789  26.196  26.368  1.00  0.00     0.002 A 
ATOM     72  C   UNL A   1      49.012  27.070  24.240  1.00  0.00     0.091 A 
ATOM     73  F   UNL A   1      47.188  28.609  24.208  1.00  0.00    -0.205 F 
ATOM     74  C   UNL A   1      49.899  26.270  24.982  1.00  0.00     0.022 A 
BRANCH  72  75
ATOM     75  S   UNL A   1      49.186  27.025  22.453  1.00  0.00     0.127 S 
ATOM     76  O   UNL A   1      48.323  25.899  22.101  1.00  0.00    -0.237 OA
ATOM     77  O   UNL A   1      48.669  28.336  22.063  1.00  0.00    -0.237 OA
ATOM     78  O   UNL A   1      50.604  26.823  22.190  1.00  0.00    -0.744 OA
ENDBRANCH  72  75
ENDBRANCH  54  68
BRANCH  55  79
ATOM     79  C   UNL A   1      40.021  31.905  30.823  1.00  0.00     0.023 A 
ATOM     80  C   UNL A   1      39.227  32.816  30.098  1.00  0.00     0.012 A 
ATOM     81  C   UNL A   1      39.679  31.612  32.158  1.00  0.00     0.148 A 
ATOM     82  C   UNL A   1      38.132  33.442  30.696  1.00  0.00     0.002 A 
ATOM     83  C   UNL A   1      38.553  32.194  32.729  1.00  0.00     0.091 A 
ATOM     84  F   UNL A   1      40.457  30.759  32.840  1.00  0.00    -0.205 F 
ATOM     85  C   UNL A   1      37.788  33.123  32.007  1.00  0.00     0.022 A 
BRANCH  83  86
ATOM     86  S   UNL A   1      37.957  31.748  34.364  1.00  0.00     0.127 S 
ATOM     87  O   UNL A   1      38.707  32.664  35.218  1.00  0.00    -0.237 OA
ATOM     88  O   UNL A   1      36.527  32.040  34.250  1.00  0.00    -0.237 OA
ATOM     89  O   UNL A   1      38.272  30.334  34.525  1.00  0.00    -0.744 OA
ENDBRANCH  83  86
ENDBRANCH  55  79
BRANCH  67  90
ATOM     90  C   UNL A   1      46.485  34.102  29.263  1.00  0.00     0.023 A 
ATOM     91  C   UNL A   1      47.329  34.232  30.383  1.00  0.00     0.012 A 
ATOM     92  C   UNL A   1      46.455  35.129  28.296  1.00  0.00     0.148 A 
ATOM     93  C   UNL A   1      48.117  35.371  30.548  1.00  0.00     0.002 A 
ATOM     94  C   UNL A   1      47.283  36.235  28.439  1.00  0.00     0.091 A 
ATOM     95  F   UNL A   1      45.637  34.989  27.243  1.00  0.00    -0.205 F 
ATOM     96  C   UNL A   1      48.106  36.362  29.570  1.00  0.00     0.022 A 
BRANCH  94  97
ATOM     97  S   UNL A   1      47.425  37.509  27.180  1.00  0.00     0.127 S 
ATOM     98  O   UNL A   1      48.563  38.284  27.668  1.00  0.00    -0.237 OA
ATOM     99  O   UNL A   1      47.694  36.723  25.975  1.00  0.00    -0.237 OA
ATOM    100  O   UNL A   1      46.151  38.214  27.172  1.00  0.00    -0.744 OA
ENDBRANCH  94  97
ENDBRANCH  67  90
ENDBRANCH  41  42
ENDBRANCH  34  36
ENDBRANCH  33  34
ENDBRANCH  32  33
ENDBRANCH  31  32
ENDBRANCH  30  31
ENDBRANCH  29  30
ENDBRANCH   1  29
TORSDOF 24
ENDMDL
MODEL 2
REMARK VINA RESULT:      -9.3      2.799      4.966
REMARK SMILES Cc1c(Br)c(C)c2c(c1Br)O[C@H](C(F)(F)F)C(C(=O)OCCOCCOCCOCCOC(=O)c1ccc(-c3c4nc(c(-c5cccc(S(=O)(=O)[O-])c5F)c5ccc([nH]5)c(-c5cccc(S(=O)(=O)[O-])c5F)c5nc(c(-c6cccc(S(=O)(=O)[O-])c6F)c6ccc3[nH]6)C=C5)C=C4)cc1)=C2
REMARK SMILES IDX 27 1 26 2 25 3 24 4 23 5 22 6 21 7 20 8 18 9 19 10 17 11
REMARK SMILES IDX 1 12 2 13 3 14 9 15 4 16 5 17 8 18 10 19 6 20 7 21 11 22
REMARK SMILES IDX 98 23 12 24 13 25 14 26 15 27 16 28 28 29 29 30 30 31 31 32
REMARK SMILES IDX 32 33 33 34 34 35 35 36 36 37 97 38 37 39 96 40 38 41 39 42
REMARK SMILES IDX 40 43 90 44 41 45 95 46 89 47 91 48 42 49 94 50 88 51 87 52
REMARK SMILES IDX 43 54 75 55 55 56 74 57 56 58 59 59 73 60 92 61 57 62 58 63
REMARK SMILES IDX 72 65 93 66 60 67 44 68 45 69 53 70 46 71 48 72 54 73 47 74
REMARK SMILES IDX 49 75 50 76 51 77 52 78 76 79 77 80 85 81 78 82 80 83 86 84
REMARK SMILES IDX 79 85 81 86 82 87 83 88 84 89 61 90 62 91 70 92 63 93 65 94
REMARK SMILES IDX 71 95 64 96 66 97 67 98 68 99 69 100
REMARK H PARENT 91 53 59 64
REMARK Flexibility Score: inf
ROOT
ATOM      1  C   UNL A   1      33.866  26.746  24.168  1.00  0.00     0.188 C 
ENDROOT
BRANCH   1   2
ATOM      2  O   UNL A   1      33.524  28.075  24.566  1.00  0.00    -0.377 OA
BRANCH   2   3
ATOM      3  C   UNL A   1      33.887  28.492  25.871  1.00  0.00     0.188 C 
BRANCH   3   4
ATOM      4  C   UNL A   1      32.702  29.077  26.664  1.00  0.00     0.188 C 
BRANCH   4   5
ATOM      5  O   UNL A   1      33.084  30.050  27.620  1.00  0.00    -0.376 OA
BRANCH   5   6
ATOM      6  C   UNL A   1      34.309  30.758  27.506  1.00  0.00     0.202 C 
BRANCH   6   7
ATOM      7  C   UNL A   1      34.550  32.192  28.020  1.00  0.00     0.261 C 
BRANCH   7   8
ATOM      8  O   UNL A   1      34.858  32.355  29.404  1.00  0.00    -0.460 OA
BRANCH   8   9
ATOM      9  C   UNL A   1      34.603  33.544  29.971  1.00  0.00     0.338 C 
ATOM     10  O   UNL A   1      33.547  34.152  29.964  1.00  0.00    -0.246 OA
BRANCH   9  11
ATOM     11  C   UNL A   1      35.782  33.902  30.793  1.00  0.00     0.087 C 
ATOM     12  C   UNL A   1      41.700  34.476  33.410  1.00  0.00     0.047 C 
ATOM     13  C   UNL A   1      40.473  34.518  32.531  1.00  0.00    -0.019 A 
ATOM     14  C   UNL A   1      40.575  34.530  31.119  1.00  0.00     0.025 A 
ATOM     15  C   UNL A   1      39.187  34.581  33.103  1.00  0.00     0.064 A 
ATOM     16  Br  UNL A   1      42.314  34.660  30.316  1.00  0.00    -0.050 Br
ATOM     17  C   UNL A   1      39.424  34.453  30.297  1.00  0.00    -0.026 A 
ATOM     18  C   UNL A   1      38.036  34.476  32.305  1.00  0.00     0.142 A 
ATOM     19  Br  UNL A   1      38.963  34.804  34.994  1.00  0.00    -0.046 Br
ATOM     20  C   UNL A   1      39.496  34.508  28.785  1.00  0.00     0.046 C 
ATOM     21  C   UNL A   1      38.155  34.338  30.917  1.00  0.00     0.022 A 
ATOM     22  O   UNL A   1      36.828  34.525  32.948  1.00  0.00    -0.474 OA
ATOM     23  C   UNL A   1      36.951  34.019  30.152  1.00  0.00     0.027 C 
ATOM     24  C   UNL A   1      35.602  34.184  32.257  1.00  0.00     0.316 C 
BRANCH  24  25
ATOM     25  C   UNL A   1      34.939  33.013  32.994  1.00  0.00     0.430 C 
ATOM     26  F   UNL A   1      35.058  31.860  32.300  1.00  0.00    -0.167 F 
ATOM     27  F   UNL A   1      35.486  32.811  34.213  1.00  0.00    -0.167 F 
ATOM     28  F   UNL A   1      33.616  33.242  33.180  1.00  0.00    -0.167 F 
ENDBRANCH  24  25
ENDBRANCH   9  11
ENDBRANCH   8   9
ENDBRANCH   7   8
ENDBRANCH   6   7
ENDBRANCH   5   6
ENDBRANCH   4   5
ENDBRANCH   3   4
ENDBRANCH   2   3
ENDBRANCH   1   2
BRANCH   1  29
ATOM     29  C   UNL A   1      33.904  25.579  25.184  1.00  0.00     0.188 C 
BRANCH  29  30
ATOM     30  O   UNL A   1      35.060  24.753  25.090  1.00  0.00    -0.376 OA
BRANCH  30  31
ATOM     31  C   UNL A   1      34.897  23.360  25.305  1.00  0.00     0.202 C 
BRANCH  31  32
ATOM     32  C   UNL A   1      36.180  22.522  25.226  1.00  0.00     0.261 C 
BRANCH  32  33
ATOM     33  O   UNL A   1      37.116  22.716  26.296  1.00  0.00    -0.460 OA
BRANCH  33  34
ATOM     34  C   UNL A   1      38.348  22.181  26.155  1.00  0.00     0.338 C 
ATOM     35  O   UNL A   1      38.629  21.095  25.677  1.00  0.00    -0.246 OA
BRANCH  34  36
ATOM     36  C   UNL A   1      39.324  23.232  26.505  1.00  0.00     0.060 A 
ATOM     37  C   UNL A   1      40.324  22.951  27.444  1.00  0.00     0.016 A 
ATOM     38  C   UNL A   1      39.264  24.480  25.882  1.00  0.00     0.016 A 
ATOM     39  C   UNL A   1      41.256  23.932  27.781  1.00  0.00     0.010 A 
ATOM     40  C   UNL A   1      40.186  25.468  26.236  1.00  0.00     0.010 A 
ATOM     41  C   UNL A   1      41.167  25.208  27.208  1.00  0.00    -0.014 A 
BRANCH  41  42
ATOM     42  C   UNL A   1      41.977  26.323  27.754  1.00  0.00     0.031 A 
ATOM     43  C   UNL A   1      43.369  26.518  27.218  1.00  0.00     0.074 A 
ATOM     44  C   UNL A   1      41.489  27.145  28.700  1.00  0.00     0.049 A 
ATOM     45  N   UNL A   1      44.265  27.408  27.551  1.00  0.00    -0.248 NA
ATOM     46  C   UNL A   1      43.806  25.587  26.162  1.00  0.00     0.031 C 
ATOM     47  C   UNL A   1      40.152  27.063  29.284  1.00  0.00     0.029 A 
ATOM     48  N   UNL A   1      42.075  28.206  29.345  1.00  0.00    -0.354 N 
ATOM     49  C   UNL A   1      45.375  27.139  26.758  1.00  0.00     0.074 A 
ATOM     50  C   UNL A   1      45.050  25.990  25.943  1.00  0.00     0.031 C 
ATOM     51  C   UNL A   1      40.024  28.026  30.214  1.00  0.00     0.029 A 
ATOM     52  C   UNL A   1      41.276  28.776  30.309  1.00  0.00     0.049 A 
ATOM     53  H   UNL A   1      42.982  28.529  29.138  1.00  0.00     0.167 HD
ATOM     54  C   UNL A   1      46.550  27.807  26.695  1.00  0.00     0.034 A 
ATOM     55  C   UNL A   1      41.534  29.779  31.173  1.00  0.00     0.034 A 
ATOM     56  C   UNL A   1      46.865  28.955  27.498  1.00  0.00     0.049 A 
ATOM     57  C   UNL A   1      42.875  30.470  31.121  1.00  0.00     0.074 A 
ATOM     58  C   UNL A   1      48.023  29.711  27.492  1.00  0.00     0.029 A 
ATOM     59  N   UNL A   1      46.026  29.510  28.452  1.00  0.00    -0.354 N 
ATOM     60  N   UNL A   1      43.876  30.270  30.298  1.00  0.00    -0.248 NA
ATOM     61  C   UNL A   1      43.113  31.545  32.097  1.00  0.00     0.031 C 
ATOM     62  C   UNL A   1      47.897  30.706  28.463  1.00  0.00     0.029 A 
ATOM     63  C   UNL A   1      46.646  30.593  29.048  1.00  0.00     0.049 A 
ATOM     64  H   UNL A   1      45.125  29.181  28.672  1.00  0.00     0.167 HD
ATOM     65  C   UNL A   1      44.841  31.216  30.629  1.00  0.00     0.074 A 
ATOM     66  C   UNL A   1      44.300  32.001  31.718  1.00  0.00     0.031 C 
ATOM     67  C   UNL A   1      46.071  31.407  30.088  1.00  0.00     0.034 A 
BRANCH  54  68
ATOM     68  C   UNL A   1      47.572  27.345  25.692  1.00  0.00     0.023 A 
ATOM     69  C   UNL A   1      48.472  26.319  26.047  1.00  0.00     0.012 A 
ATOM     70  C   UNL A   1      47.577  27.846  24.377  1.00  0.00     0.148 A 
ATOM     71  C   UNL A   1      49.372  25.809  25.111  1.00  0.00     0.002 A 
ATOM     72  C   UNL A   1      48.443  27.302  23.437  1.00  0.00     0.091 A 
ATOM     73  F   UNL A   1      46.726  28.836  24.067  1.00  0.00    -0.205 F 
ATOM     74  C   UNL A   1      49.348  26.290  23.805  1.00  0.00     0.022 A 
BRANCH  72  75
ATOM     75  S   UNL A   1      48.434  27.787  21.707  1.00  0.00     0.127 S 
ATOM     76  O   UNL A   1      48.796  26.534  21.048  1.00  0.00    -0.237 OA
ATOM     77  O   UNL A   1      47.044  28.199  21.514  1.00  0.00    -0.237 OA
ATOM     78  O   UNL A   1      49.414  28.857  21.583  1.00  0.00    -0.744 OA
ENDBRANCH  72  75
ENDBRANCH  54  68
BRANCH  55  79
ATOM     79  C   UNL A   1      40.481  30.233  32.129  1.00  0.00     0.023 A 
ATOM     80  C   UNL A   1      39.283  30.781  31.630  1.00  0.00     0.012 A 
ATOM     81  C   UNL A   1      40.648  30.110  33.523  1.00  0.00     0.148 A 
ATOM     82  C   UNL A   1      38.283  31.222  32.499  1.00  0.00     0.002 A 
ATOM     83  C   UNL A   1      39.625  30.496  34.380  1.00  0.00     0.091 A 
ATOM     84  F   UNL A   1      41.803  29.606  33.981  1.00  0.00    -0.205 F 
ATOM     85  C   UNL A   1      38.448  31.069  33.873  1.00  0.00     0.022 A 
BRANCH  83  86
ATOM     86  S   UNL A   1      39.692  30.219  36.154  1.00  0.00     0.127 S 
ATOM     87  O   UNL A   1      40.391  28.939  36.231  1.00  0.00    -0.237 OA
ATOM     88  O   UNL A   1      40.468  31.374  36.608  1.00  0.00    -0.237 OA
ATOM     89  O   UNL A   1      38.306  30.209  36.604  1.00  0.00    -0.744 OA
ENDBRANCH  83  86
ENDBRANCH  55  79
BRANCH  67  90
ATOM     90  C   UNL A   1      46.924  32.529  30.625  1.00  0.00     0.023 A 
ATOM     91  C   UNL A   1      47.838  32.276  31.666  1.00  0.00     0.012 A 
ATOM     92  C   UNL A   1      46.920  33.794  29.999  1.00  0.00     0.148 A 
ATOM     93  C   UNL A   1      48.722  33.268  32.089  1.00  0.00     0.002 A 
ATOM     94  C   UNL A   1      47.841  34.759  30.390  1.00  0.00     0.091 A 
ATOM     95  F   UNL A   1      46.035  34.017  29.018  1.00  0.00    -0.205 F 
ATOM     96  C   UNL A   1      48.734  34.501  31.441  1.00  0.00     0.022 A 
BRANCH  94  97
ATOM     97  S   UNL A   1      48.011  36.334  29.543  1.00  0.00     0.127 S 
ATOM     98  O   UNL A   1      46.790  37.026  29.952  1.00  0.00    -0.237 OA
ATOM     99  O   UNL A   1      49.241  36.869  30.129  1.00  0.00    -0.237 OA
ATOM    100  O   UNL A   1      48.101  36.022  28.123  1.00  0.00    -0.744 OA
ENDBRANCH  94  97
ENDBRANCH  67  90
ENDBRANCH  41  42
ENDBRANCH  34  36
ENDBRANCH  33  34
ENDBRANCH  32  33
ENDBRANCH  31  32
ENDBRANCH  30  31
ENDBRANCH  29  30
ENDBRANCH   1  29
TORSDOF 24
ENDMDL
MODEL 3
REMARK VINA RESULT:      -8.8      4.906     10.535
REMARK SMILES Cc1c(Br)c(C)c2c(c1Br)O[C@H](C(F)(F)F)C(C(=O)OCCOCCOCCOCCOC(=O)c1ccc(-c3c4nc(c(-c5cccc(S(=O)(=O)[O-])c5F)c5ccc([nH]5)c(-c5cccc(S(=O)(=O)[O-])c5F)c5nc(c(-c6cccc(S(=O)(=O)[O-])c6F)c6ccc3[nH]6)C=C5)C=C4)cc1)=C2
REMARK SMILES IDX 27 1 26 2 25 3 24 4 23 5 22 6 21 7 20 8 18 9 19 10 17 11
REMARK SMILES IDX 1 12 2 13 3 14 9 15 4 16 5 17 8 18 10 19 6 20 7 21 11 22
REMARK SMILES IDX 98 23 12 24 13 25 14 26 15 27 16 28 28 29 29 30 30 31 31 32
REMARK SMILES IDX 32 33 33 34 34 35 35 36 36 37 97 38 37 39 96 40 38 41 39 42
REMARK SMILES IDX 40 43 90 44 41 45 95 46 89 47 91 48 42 49 94 50 88 51 87 52
REMARK SMILES IDX 43 54 75 55 55 56 74 57 56 58 59 59 73 60 92 61 57 62 58 63
REMARK SMILES IDX 72 65 93 66 60 67 44 68 45 69 53 70 46 71 48 72 54 73 47 74
REMARK SMILES IDX 49 75 50 76 51 77 52 78 76 79 77 80 85 81 78 82 80 83 86 84
REMARK SMILES IDX 79 85 81 86 82 87 83 88 84 89 61 90 62 91 70 92 63 93 65 94
REMARK SMILES IDX 71 95 64 96 66 97 67 98 68 99 69 100
REMARK H PARENT 91 53 59 64
REMARK Flexibility Score: inf
ROOT
ATOM      1  C   UNL A   1      35.436  31.960  29.651  1.00  0.00     0.188 C 
ENDROOT
BRANCH   1   2
ATOM      2  O   UNL A   1      35.391  31.382  28.346  1.00  0.00    -0.377 OA
BRANCH   2   3
ATOM      3  C   UNL A   1      35.875  30.059  28.188  1.00  0.00     0.188 C 
BRANCH   3   4
ATOM      4  C   UNL A   1      37.168  29.795  28.984  1.00  0.00     0.188 C 
BRANCH   4   5
ATOM      5  O   UNL A   1      38.350  30.085  28.259  1.00  0.00    -0.376 OA
BRANCH   5   6
ATOM      6  C   UNL A   1      39.480  29.229  28.313  1.00  0.00     0.202 C 
BRANCH   6   7
ATOM      7  C   UNL A   1      39.446  27.706  28.070  1.00  0.00     0.261 C 
BRANCH   7   8
ATOM      8  O   UNL A   1      40.545  27.124  27.370  1.00  0.00    -0.460 OA
BRANCH   8   9
ATOM      9  C   UNL A   1      41.581  26.667  28.091  1.00  0.00     0.338 C 
ATOM     10  O   UNL A   1      41.835  26.920  29.256  1.00  0.00    -0.246 OA
BRANCH   9  11
ATOM     11  C   UNL A   1      42.258  25.629  27.282  1.00  0.00     0.087 C 
ATOM     12  C   UNL A   1      44.891  20.154  24.981  1.00  0.00     0.047 C 
ATOM     13  C   UNL A   1      43.975  21.251  25.467  1.00  0.00    -0.019 A 
ATOM     14  C   UNL A   1      42.735  20.958  26.085  1.00  0.00     0.025 A 
ATOM     15  C   UNL A   1      44.321  22.605  25.285  1.00  0.00     0.064 A 
ATOM     16  Br  UNL A   1      42.142  19.133  26.155  1.00  0.00    -0.050 Br
ATOM     17  C   UNL A   1      41.931  21.982  26.644  1.00  0.00    -0.026 A 
ATOM     18  C   UNL A   1      43.551  23.630  25.858  1.00  0.00     0.142 A 
ATOM     19  Br  UNL A   1      45.862  23.093  24.255  1.00  0.00    -0.046 Br
ATOM     20  C   UNL A   1      40.581  21.708  27.272  1.00  0.00     0.046 C 
ATOM     21  C   UNL A   1      42.403  23.317  26.596  1.00  0.00     0.022 A 
ATOM     22  O   UNL A   1      43.975  24.915  25.647  1.00  0.00    -0.474 OA
ATOM     23  C   UNL A   1      41.756  24.390  27.348  1.00  0.00     0.027 C 
ATOM     24  C   UNL A   1      43.400  26.019  26.387  1.00  0.00     0.316 C 
BRANCH  24  25
ATOM     25  C   UNL A   1      44.524  26.723  27.159  1.00  0.00     0.430 C 
ATOM     26  F   UNL A   1      44.728  26.151  28.366  1.00  0.00    -0.167 F 
ATOM     27  F   UNL A   1      45.696  26.684  26.488  1.00  0.00    -0.167 F 
ATOM     28  F   UNL A   1      44.225  28.028  27.371  1.00  0.00    -0.167 F 
ENDBRANCH  24  25
ENDBRANCH   9  11
ENDBRANCH   8   9
ENDBRANCH   7   8
ENDBRANCH   6   7
ENDBRANCH   5   6
ENDBRANCH   4   5
ENDBRANCH   3   4
ENDBRANCH   2   3
ENDBRANCH   1   2
BRANCH   1  29
ATOM     29  C   UNL A   1      36.159  33.303  29.919  1.00  0.00     0.188 C 
BRANCH  29  30
ATOM     30  O   UNL A   1      35.796  33.932  31.143  1.00  0.00    -0.376 OA
BRANCH  30  31
ATOM     31  C   UNL A   1      34.792  33.315  31.933  1.00  0.00     0.202 C 
BRANCH  31  32
ATOM     32  C   UNL A   1      35.153  33.088  33.407  1.00  0.00     0.261 C 
BRANCH  32  33
ATOM     33  O   UNL A   1      36.107  32.048  33.661  1.00  0.00    -0.460 OA
BRANCH  33  34
ATOM     34  C   UNL A   1      37.144  32.333  34.478  1.00  0.00     0.338 C 
ATOM     35  O   UNL A   1      37.088  32.660  35.652  1.00  0.00    -0.246 OA
BRANCH  34  36
ATOM     36  C   UNL A   1      38.382  31.989  33.752  1.00  0.00     0.060 A 
ATOM     37  C   UNL A   1      38.291  31.318  32.525  1.00  0.00     0.016 A 
ATOM     38  C   UNL A   1      39.625  32.357  34.270  1.00  0.00     0.016 A 
ATOM     39  C   UNL A   1      39.452  30.990  31.825  1.00  0.00     0.010 A 
ATOM     40  C   UNL A   1      40.787  32.011  33.577  1.00  0.00     0.010 A 
ATOM     41  C   UNL A   1      40.706  31.300  32.367  1.00  0.00    -0.014 A 
BRANCH  41  42
ATOM     42  C   UNL A   1      41.934  30.724  31.768  1.00  0.00     0.031 A 
ATOM     43  C   UNL A   1      42.487  29.458  32.362  1.00  0.00     0.074 A 
ATOM     44  C   UNL A   1      42.541  31.307  30.719  1.00  0.00     0.049 A 
ATOM     45  N   UNL A   1      43.551  28.781  32.021  1.00  0.00    -0.248 NA
ATOM     46  C   UNL A   1      41.737  28.874  33.489  1.00  0.00     0.031 C 
ATOM     47  C   UNL A   1      42.090  32.526  30.051  1.00  0.00     0.029 A 
ATOM     48  N   UNL A   1      43.682  30.954  30.042  1.00  0.00    -0.354 N 
ATOM     49  C   UNL A   1      43.607  27.702  32.895  1.00  0.00     0.074 A 
ATOM     50  C   UNL A   1      42.485  27.824  33.798  1.00  0.00     0.031 C 
ATOM     51  C   UNL A   1      42.955  32.827  29.066  1.00  0.00     0.029 A 
ATOM     52  C   UNL A   1      44.032  31.839  29.049  1.00  0.00     0.049 A 
ATOM     53  H   UNL A   1      44.201  30.143  30.247  1.00  0.00     0.167 HD
ATOM     54  C   UNL A   1      44.499  26.686  32.927  1.00  0.00     0.034 A 
ATOM     55  C   UNL A   1      45.106  31.853  28.232  1.00  0.00     0.034 A 
ATOM     56  C   UNL A   1      45.607  26.561  32.021  1.00  0.00     0.049 A 
ATOM     57  C   UNL A   1      46.118  30.737  28.328  1.00  0.00     0.074 A 
ATOM     58  C   UNL A   1      46.555  25.556  31.963  1.00  0.00     0.029 A 
ATOM     59  N   UNL A   1      45.921  27.470  31.023  1.00  0.00    -0.354 N 
ATOM     60  N   UNL A   1      46.103  29.671  29.091  1.00  0.00    -0.248 NA
ATOM     61  C   UNL A   1      47.280  30.809  27.427  1.00  0.00     0.031 C 
ATOM     62  C   UNL A   1      47.460  25.871  30.947  1.00  0.00     0.029 A 
ATOM     63  C   UNL A   1      47.055  27.053  30.349  1.00  0.00     0.049 A 
ATOM     64  H   UNL A   1      45.413  28.289  30.825  1.00  0.00     0.167 HD
ATOM     65  C   UNL A   1      47.226  28.929  28.738  1.00  0.00     0.074 A 
ATOM     66  C   UNL A   1      47.892  29.658  27.679  1.00  0.00     0.031 C 
ATOM     67  C   UNL A   1      47.672  27.756  29.253  1.00  0.00     0.034 A 
BRANCH  54  68
ATOM     68  C   UNL A   1      44.294  25.596  33.944  1.00  0.00     0.023 A 
ATOM     69  C   UNL A   1      43.541  24.457  33.594  1.00  0.00     0.012 A 
ATOM     70  C   UNL A   1      44.926  25.649  35.202  1.00  0.00     0.148 A 
ATOM     71  C   UNL A   1      43.407  23.393  34.485  1.00  0.00     0.002 A 
ATOM     72  C   UNL A   1      44.828  24.566  36.066  1.00  0.00     0.091 A 
ATOM     73  F   UNL A   1      45.619  26.751  35.522  1.00  0.00    -0.205 F 
ATOM     74  C   UNL A   1      44.061  23.441  35.713  1.00  0.00     0.022 A 
BRANCH  72  75
ATOM     75  S   UNL A   1      45.701  24.488  37.634  1.00  0.00     0.127 S 
ATOM     76  O   UNL A   1      45.145  25.643  38.338  1.00  0.00    -0.237 OA
ATOM     77  O   UNL A   1      45.273  23.191  38.157  1.00  0.00    -0.237 OA
ATOM     78  O   UNL A   1      47.117  24.583  37.312  1.00  0.00    -0.744 OA
ENDBRANCH  72  75
ENDBRANCH  54  68
BRANCH  55  79
ATOM     79  C   UNL A   1      45.257  32.931  27.211  1.00  0.00     0.023 A 
ATOM     80  C   UNL A   1      44.477  32.888  26.039  1.00  0.00     0.012 A 
ATOM     81  C   UNL A   1      46.149  34.005  27.400  1.00  0.00     0.148 A 
ATOM     82  C   UNL A   1      44.600  33.877  25.062  1.00  0.00     0.002 A 
ATOM     83  C   UNL A   1      46.224  35.018  26.451  1.00  0.00     0.091 A 
ATOM     84  F   UNL A   1      46.898  34.021  28.511  1.00  0.00    -0.205 F 
ATOM     85  C   UNL A   1      45.464  34.948  25.273  1.00  0.00     0.022 A 
BRANCH  83  86
ATOM     86  S   UNL A   1      47.210  36.500  26.693  1.00  0.00     0.127 S 
ATOM     87  O   UNL A   1      48.566  35.959  26.712  1.00  0.00    -0.237 OA
ATOM     88  O   UNL A   1      46.873  37.281  25.502  1.00  0.00    -0.237 OA
ATOM     89  O   UNL A   1      46.745  37.081  27.946  1.00  0.00    -0.744 OA
ENDBRANCH  83  86
ENDBRANCH  55  79
BRANCH  67  90
ATOM     90  C   UNL A   1      48.922  27.145  28.671  1.00  0.00     0.023 A 
ATOM     91  C   UNL A   1      48.834  26.316  27.537  1.00  0.00     0.012 A 
ATOM     92  C   UNL A   1      50.193  27.512  29.163  1.00  0.00     0.148 A 
ATOM     93  C   UNL A   1      49.988  25.844  26.912  1.00  0.00     0.002 A 
ATOM     94  C   UNL A   1      51.338  27.084  28.503  1.00  0.00     0.091 A 
ATOM     95  F   UNL A   1      50.255  28.294  30.250  1.00  0.00    -0.205 F 
ATOM     96  C   UNL A   1      51.237  26.241  27.384  1.00  0.00     0.022 A 
BRANCH  94  97
ATOM     97  S   UNL A   1      52.986  27.632  28.965  1.00  0.00     0.127 S 
ATOM     98  O   UNL A   1      52.882  29.078  28.777  1.00  0.00    -0.237 OA
ATOM     99  O   UNL A   1      53.074  27.203  30.361  1.00  0.00    -0.237 OA
ATOM    100  O   UNL A   1      53.906  26.953  28.062  1.00  0.00    -0.744 OA
ENDBRANCH  94  97
ENDBRANCH  67  90
ENDBRANCH  41  42
ENDBRANCH  34  36
ENDBRANCH  33  34
ENDBRANCH  32  33
ENDBRANCH  31  32
ENDBRANCH  30  31
ENDBRANCH  29  30
ENDBRANCH   1  29
TORSDOF 24
ENDMDL
