MODEL 1
REMARK VINA RESULT:      -6.6      0.000      0.000
REMARK SMILES NS(=O)(=O)c1ccc(-n2nc(NC(=O)NCCCCCCCCCCC(=O)OCCOCCOCCOCCOC(=O)c3ccc(-c4c5nc(c(-c6cccc(S(=O)(=O)[O-])c6F)c6ccc([nH]6)c(-c6cccc(S(=O)(=O)[O-])c6F)c6nc(c(-c7cccc(S(=O)(=O)[O-])c7F)c7ccc4[nH]7)C=C6)C=C5)cc3)cc2-c2ccccc2)cc1
REMARK SMILES IDX 29 1 28 2 26 3 27 4 25 5 24 6 23 7 22 8 21 9 20 10 19 11
REMARK SMILES IDX 18 12 17 13 16 14 15 15 12 16 13 17 14 19 11 21 9 22 10 23
REMARK SMILES IDX 107 24 106 25 8 26 5 27 6 28 115 29 7 30 114 31 2 32 3 33
REMARK SMILES IDX 4 34 1 35 108 38 109 39 113 40 110 41 112 42 111 43 30 44
REMARK SMILES IDX 31 45 32 46 33 47 34 48 35 49 36 50 37 51 38 52 39 53 40 54
REMARK SMILES IDX 41 55 42 56 43 57 44 58 105 59 45 60 104 61 46 62 47 63
REMARK SMILES IDX 48 64 98 65 49 66 103 67 97 68 99 69 50 70 102 71 96 72
REMARK SMILES IDX 95 73 51 75 83 76 63 77 82 78 64 79 67 80 81 81 100 82 65 83
REMARK SMILES IDX 66 84 80 86 101 87 68 88 52 89 53 90 61 91 54 92 56 93 62 94
REMARK SMILES IDX 55 95 57 96 58 97 59 98 60 99 84 100 85 101 93 102 86 103
REMARK SMILES IDX 88 104 94 105 87 106 89 107 90 108 91 109 92 110 69 111
REMARK SMILES IDX 70 112 78 113 71 114 73 115 79 116 72 117 74 118 75 119
REMARK SMILES IDX 76 120 77 121
REMARK H PARENT 12 18 15 20 1 36 1 37 99 74 67 85
REMARK Flexibility Score: inf
ROOT
ATOM      1  C   UNL A   1      44.497  43.931  23.455  1.00  0.00     0.261 C 
ENDROOT
BRANCH   1   2
ATOM      2  O   UNL A   1      44.488  42.865  22.488  1.00  0.00    -0.463 OA
BRANCH   2   3
ATOM      3  C   UNL A   1      45.042  43.122  21.284  1.00  0.00     0.305 C 
ATOM      4  O   UNL A   1      45.930  42.448  20.769  1.00  0.00    -0.252 OA
BRANCH   3   5
ATOM      5  C   UNL A   1      44.436  44.305  20.549  1.00  0.00     0.123 C 
BRANCH   5   6
ATOM      6  C   UNL A   1      43.645  44.157  19.249  1.00  0.00     0.012 C 
BRANCH   6   7
ATOM      7  C   UNL A   1      42.823  45.356  18.772  1.00  0.00     0.001 C 
BRANCH   7   8
ATOM      8  C   UNL A   1      43.120  45.763  17.334  1.00  0.00     0.000 C 
BRANCH   8   9
ATOM      9  C   UNL A   1      44.601  45.675  16.972  1.00  0.00     0.000 C 
BRANCH   9  10
ATOM     10  C   UNL A   1      45.417  46.923  17.320  1.00  0.00     0.000 C 
BRANCH  10  11
ATOM     11  C   UNL A   1      46.917  46.839  17.007  1.00  0.00     0.000 C 
BRANCH  11  12
ATOM     12  C   UNL A   1      47.598  45.506  17.342  1.00  0.00     0.002 C 
BRANCH  12  13
ATOM     13  C   UNL A   1      48.491  45.503  18.585  1.00  0.00     0.021 C 
BRANCH  13  14
ATOM     14  C   UNL A   1      48.335  44.285  19.484  1.00  0.00     0.117 C 
BRANCH  14  15
ATOM     15  N   UNL A   1      48.174  44.607  20.883  1.00  0.00    -0.338 N 
ATOM     16  N   UNL A   1      50.253  43.871  21.769  1.00  0.00    -0.291 N 
ATOM     17  C   UNL A   1      49.002  44.356  21.919  1.00  0.00     0.320 C 
ATOM     18  H   UNL A   1      50.599  43.393  22.557  1.00  0.00     0.173 HD
ATOM     19  O   UNL A   1      48.542  44.451  23.062  1.00  0.00    -0.248 OA
ATOM     20  H   UNL A   1      47.340  45.077  21.114  1.00  0.00     0.165 HD
BRANCH  16  21
ATOM     21  C   UNL A   1      51.133  43.926  20.712  1.00  0.00     0.157 A 
ATOM     22  N   UNL A   1      52.499  43.330  19.190  1.00  0.00    -0.231 N 
ATOM     23  N   UNL A   1      51.407  42.930  19.874  1.00  0.00    -0.149 NA
ATOM     24  C   UNL A   1      52.739  44.690  19.367  1.00  0.00     0.076 A 
ATOM     25  C   UNL A   1      51.853  45.084  20.353  1.00  0.00     0.078 A 
BRANCH  22  26
ATOM     26  C   UNL A   1      53.291  42.363  18.512  1.00  0.00     0.065 A 
ATOM     27  C   UNL A   1      54.744  40.389  17.183  1.00  0.00     0.082 A 
ATOM     28  C   UNL A   1      54.106  41.391  16.446  1.00  0.00     0.024 A 
ATOM     29  C   UNL A   1      54.708  40.398  18.582  1.00  0.00     0.024 A 
ATOM     30  C   UNL A   1      53.373  42.372  17.112  1.00  0.00     0.030 A 
ATOM     31  C   UNL A   1      54.001  41.405  19.250  1.00  0.00     0.030 A 
BRANCH  27  32
ATOM     32  S   UNL A   1      55.542  39.064  16.329  1.00  0.00     0.238 S 
ATOM     33  O   UNL A   1      54.554  38.073  15.964  1.00  0.00    -0.207 OA
ATOM     34  O   UNL A   1      56.756  38.722  17.023  1.00  0.00    -0.207 OA
BRANCH  32  35
ATOM     35  N   UNL A   1      56.006  39.761  14.876  1.00  0.00    -0.225 NA
ATOM     36  H   UNL A   1      56.977  39.516  14.677  1.00  0.00     0.137 HD
ATOM     37  H   UNL A   1      55.918  40.774  14.941  1.00  0.00     0.137 HD
ENDBRANCH  32  35
ENDBRANCH  27  32
ENDBRANCH  22  26
BRANCH  24  38
ATOM     38  C   UNL A   1      53.713  45.483  18.618  1.00  0.00     0.000 A 
ATOM     39  C   UNL A   1      53.375  46.048  17.381  1.00  0.00     0.010 A 
ATOM     40  C   UNL A   1      55.008  45.669  19.118  1.00  0.00     0.010 A 
ATOM     41  C   UNL A   1      54.323  46.752  16.638  1.00  0.00     0.001 A 
ATOM     42  C   UNL A   1      55.955  46.379  18.377  1.00  0.00     0.001 A 
ATOM     43  C   UNL A   1      55.614  46.915  17.135  1.00  0.00     0.000 A 
ENDBRANCH  24  38
ENDBRANCH  16  21
ENDBRANCH  14  15
ENDBRANCH  13  14
ENDBRANCH  12  13
ENDBRANCH  11  12
ENDBRANCH  10  11
ENDBRANCH   9  10
ENDBRANCH   8   9
ENDBRANCH   7   8
ENDBRANCH   6   7
ENDBRANCH   5   6
ENDBRANCH   3   5
ENDBRANCH   2   3
ENDBRANCH   1   2
BRANCH   1  44
ATOM     44  C   UNL A   1      45.289  43.609  24.727  1.00  0.00     0.202 C 
BRANCH  44  45
ATOM     45  O   UNL A   1      45.636  42.251  24.960  1.00  0.00    -0.376 OA
BRANCH  45  46
ATOM     46  C   UNL A   1      44.865  41.485  25.884  1.00  0.00     0.188 C 
BRANCH  46  47
ATOM     47  C   UNL A   1      45.163  41.538  27.397  1.00  0.00     0.188 C 
BRANCH  47  48
ATOM     48  O   UNL A   1      44.718  42.696  28.079  1.00  0.00    -0.377 OA
BRANCH  48  49
ATOM     49  C   UNL A   1      45.273  42.873  29.375  1.00  0.00     0.188 C 
BRANCH  49  50
ATOM     50  C   UNL A   1      45.031  41.710  30.352  1.00  0.00     0.188 C 
BRANCH  50  51
ATOM     51  O   UNL A   1      43.690  41.211  30.344  1.00  0.00    -0.376 OA
BRANCH  51  52
ATOM     52  C   UNL A   1      43.499  39.818  30.558  1.00  0.00     0.202 C 
BRANCH  52  53
ATOM     53  C   UNL A   1      43.482  38.983  29.273  1.00  0.00     0.261 C 
BRANCH  53  54
ATOM     54  O   UNL A   1      44.396  37.891  29.255  1.00  0.00    -0.460 OA
BRANCH  54  55
ATOM     55  C   UNL A   1      44.648  37.360  28.043  1.00  0.00     0.338 C 
ATOM     56  O   UNL A   1      44.804  37.965  26.996  1.00  0.00    -0.246 OA
BRANCH  55  57
ATOM     57  C   UNL A   1      44.649  35.898  28.131  1.00  0.00     0.060 A 
ATOM     58  C   UNL A   1      43.563  35.256  27.534  1.00  0.00     0.016 A 
ATOM     59  C   UNL A   1      45.524  35.232  29.004  1.00  0.00     0.016 A 
ATOM     60  C   UNL A   1      43.200  34.022  28.013  1.00  0.00     0.010 A 
ATOM     61  C   UNL A   1      45.159  33.992  29.482  1.00  0.00     0.010 A 
ATOM     62  C   UNL A   1      43.944  33.463  29.058  1.00  0.00    -0.014 A 
BRANCH  62  63
ATOM     63  C   UNL A   1      43.310  32.381  29.774  1.00  0.00     0.031 A 
ATOM     64  C   UNL A   1      43.728  31.026  29.391  1.00  0.00     0.074 A 
ATOM     65  C   UNL A   1      42.362  32.604  30.702  1.00  0.00     0.049 A 
ATOM     66  N   UNL A   1      43.038  30.152  28.738  1.00  0.00    -0.248 NA
ATOM     67  C   UNL A   1      45.111  30.638  29.679  1.00  0.00     0.031 C 
ATOM     68  C   UNL A   1      42.047  33.863  31.383  1.00  0.00     0.029 A 
ATOM     69  N   UNL A   1      41.562  31.696  31.322  1.00  0.00    -0.354 N 
ATOM     70  C   UNL A   1      43.829  29.012  28.715  1.00  0.00     0.074 A 
ATOM     71  C   UNL A   1      45.142  29.409  29.163  1.00  0.00     0.031 C 
ATOM     72  C   UNL A   1      41.315  33.586  32.484  1.00  0.00     0.029 A 
ATOM     73  C   UNL A   1      41.007  32.165  32.500  1.00  0.00     0.049 A 
ATOM     74  H   UNL A   1      41.394  30.792  30.969  1.00  0.00     0.167 HD
ATOM     75  C   UNL A   1      43.296  27.775  28.538  1.00  0.00     0.034 A 
ATOM     76  C   UNL A   1      40.426  31.412  33.460  1.00  0.00     0.034 A 
ATOM     77  C   UNL A   1      41.942  27.813  28.061  1.00  0.00     0.049 A 
ATOM     78  C   UNL A   1      40.025  30.122  32.850  1.00  0.00     0.074 A 
ATOM     79  C   UNL A   1      41.307  28.322  26.947  1.00  0.00     0.029 A 
ATOM     80  N   UNL A   1      40.951  27.518  28.964  1.00  0.00    -0.354 N 
ATOM     81  N   UNL A   1      39.056  29.990  31.987  1.00  0.00    -0.248 NA
ATOM     82  C   UNL A   1      40.943  28.997  32.930  1.00  0.00     0.031 C 
ATOM     83  C   UNL A   1      40.009  28.703  27.395  1.00  0.00     0.029 A 
ATOM     84  C   UNL A   1      39.927  28.404  28.756  1.00  0.00     0.049 A 
ATOM     85  H   UNL A   1      40.972  26.800  29.637  1.00  0.00     0.167 HD
ATOM     86  C   UNL A   1      39.480  28.982  31.131  1.00  0.00     0.074 A 
ATOM     87  C   UNL A   1      40.570  28.321  31.841  1.00  0.00     0.031 C 
ATOM     88  C   UNL A   1      39.110  28.963  29.815  1.00  0.00     0.034 A 
BRANCH  75  89
ATOM     89  C   UNL A   1      43.902  26.520  29.093  1.00  0.00     0.023 A 
ATOM     90  C   UNL A   1      44.156  25.458  28.202  1.00  0.00     0.012 A 
ATOM     91  C   UNL A   1      44.012  26.250  30.475  1.00  0.00     0.148 A 
ATOM     92  C   UNL A   1      44.495  24.184  28.668  1.00  0.00     0.002 A 
ATOM     93  C   UNL A   1      44.442  25.011  30.928  1.00  0.00     0.091 A 
ATOM     94  F   UNL A   1      43.574  27.146  31.369  1.00  0.00    -0.205 F 
ATOM     95  C   UNL A   1      44.659  23.964  30.030  1.00  0.00     0.022 A 
BRANCH  93  96
ATOM     96  S   UNL A   1      44.753  24.741  32.673  1.00  0.00     0.127 S 
ATOM     97  O   UNL A   1      44.681  23.287  32.767  1.00  0.00    -0.237 OA
ATOM     98  O   UNL A   1      46.091  25.309  32.841  1.00  0.00    -0.237 OA
ATOM     99  O   UNL A   1      43.702  25.494  33.349  1.00  0.00    -0.744 OA
ENDBRANCH  93  96
ENDBRANCH  75  89
BRANCH  76 100
ATOM    100  C   UNL A   1      40.384  31.651  34.919  1.00  0.00     0.023 A 
ATOM    101  C   UNL A   1      41.577  31.928  35.612  1.00  0.00     0.012 A 
ATOM    102  C   UNL A   1      39.159  31.844  35.597  1.00  0.00     0.148 A 
ATOM    103  C   UNL A   1      41.551  32.398  36.929  1.00  0.00     0.002 A 
ATOM    104  C   UNL A   1      39.137  32.290  36.914  1.00  0.00     0.091 A 
ATOM    105  F   UNL A   1      38.010  31.684  34.925  1.00  0.00    -0.205 F 
ATOM    106  C   UNL A   1      40.334  32.580  37.580  1.00  0.00     0.022 A 
BRANCH 104 107
ATOM    107  S   UNL A   1      37.595  32.529  37.805  1.00  0.00     0.127 S 
ATOM    108  O   UNL A   1      36.743  33.149  36.789  1.00  0.00    -0.237 OA
ATOM    109  O   UNL A   1      37.231  31.159  38.156  1.00  0.00    -0.237 OA
ATOM    110  O   UNL A   1      37.922  33.410  38.921  1.00  0.00    -0.744 OA
ENDBRANCH 104 107
ENDBRANCH  76 100
BRANCH  88 111
ATOM    111  C   UNL A   1      37.976  29.859  29.374  1.00  0.00     0.023 A 
ATOM    112  C   UNL A   1      36.698  29.341  29.079  1.00  0.00     0.012 A 
ATOM    113  C   UNL A   1      38.142  31.255  29.435  1.00  0.00     0.148 A 
ATOM    114  C   UNL A   1      35.621  30.190  28.817  1.00  0.00     0.002 A 
ATOM    115  C   UNL A   1      37.053  32.098  29.223  1.00  0.00     0.091 A 
ATOM    116  F   UNL A   1      39.357  31.743  29.727  1.00  0.00    -0.205 F 
ATOM    117  C   UNL A   1      35.794  31.569  28.902  1.00  0.00     0.022 A 
BRANCH 115 118
ATOM    118  S   UNL A   1      37.188  33.873  29.465  1.00  0.00     0.127 S 
ATOM    119  O   UNL A   1      38.334  34.213  28.626  1.00  0.00    -0.237 OA
ATOM    120  O   UNL A   1      35.901  34.365  28.967  1.00  0.00    -0.237 OA
ATOM    121  O   UNL A   1      37.373  34.057  30.899  1.00  0.00    -0.744 OA
ENDBRANCH 115 118
ENDBRANCH  88 111
ENDBRANCH  62  63
ENDBRANCH  55  57
ENDBRANCH  54  55
ENDBRANCH  53  54
ENDBRANCH  52  53
ENDBRANCH  51  52
ENDBRANCH  50  51
ENDBRANCH  49  50
ENDBRANCH  48  49
ENDBRANCH  47  48
ENDBRANCH  46  47
ENDBRANCH  45  46
ENDBRANCH  44  45
ENDBRANCH   1  44
TORSDOF 38
ENDMDL
MODEL 2
REMARK VINA RESULT:      -5.9      9.671     19.483
REMARK SMILES NS(=O)(=O)c1ccc(-n2nc(NC(=O)NCCCCCCCCCCC(=O)OCCOCCOCCOCCOC(=O)c3ccc(-c4c5nc(c(-c6cccc(S(=O)(=O)[O-])c6F)c6ccc([nH]6)c(-c6cccc(S(=O)(=O)[O-])c6F)c6nc(c(-c7cccc(S(=O)(=O)[O-])c7F)c7ccc4[nH]7)C=C6)C=C5)cc3)cc2-c2ccccc2)cc1
REMARK SMILES IDX 29 1 28 2 26 3 27 4 25 5 24 6 23 7 22 8 21 9 20 10 19 11
REMARK SMILES IDX 18 12 17 13 16 14 15 15 12 16 13 17 14 19 11 21 9 22 10 23
REMARK SMILES IDX 107 24 106 25 8 26 5 27 6 28 115 29 7 30 114 31 2 32 3 33
REMARK SMILES IDX 4 34 1 35 108 38 109 39 113 40 110 41 112 42 111 43 30 44
REMARK SMILES IDX 31 45 32 46 33 47 34 48 35 49 36 50 37 51 38 52 39 53 40 54
REMARK SMILES IDX 41 55 42 56 43 57 44 58 105 59 45 60 104 61 46 62 47 63
REMARK SMILES IDX 48 64 98 65 49 66 103 67 97 68 99 69 50 70 102 71 96 72
REMARK SMILES IDX 95 73 51 75 83 76 63 77 82 78 64 79 67 80 81 81 100 82 65 83
REMARK SMILES IDX 66 84 80 86 101 87 68 88 52 89 53 90 61 91 54 92 56 93 62 94
REMARK SMILES IDX 55 95 57 96 58 97 59 98 60 99 84 100 85 101 93 102 86 103
REMARK SMILES IDX 88 104 94 105 87 106 89 107 90 108 91 109 92 110 69 111
REMARK SMILES IDX 70 112 78 113 71 114 73 115 79 116 72 117 74 118 75 119
REMARK SMILES IDX 76 120 77 121
REMARK H PARENT 12 18 15 20 1 36 1 37 99 74 67 85
REMARK Flexibility Score: inf
ROOT
ATOM      1  C   UNL A   1      39.165  31.442  30.062  1.00  0.00     0.261 C 
ENDROOT
BRANCH   1   2
ATOM      2  O   UNL A   1      40.070  30.376  30.400  1.00  0.00    -0.463 OA
BRANCH   2   3
ATOM      3  C   UNL A   1      39.572  29.120  30.392  1.00  0.00     0.305 C 
ATOM      4  O   UNL A   1      39.247  28.496  31.397  1.00  0.00    -0.252 OA
BRANCH   3   5
ATOM      5  C   UNL A   1      39.376  28.527  29.008  1.00  0.00     0.123 C 
BRANCH   5   6
ATOM      6  C   UNL A   1      40.408  27.612  28.345  1.00  0.00     0.012 C 
BRANCH   6   7
ATOM      7  C   UNL A   1      40.229  26.101  28.502  1.00  0.00     0.001 C 
BRANCH   7   8
ATOM      8  C   UNL A   1      39.721  25.415  27.240  1.00  0.00     0.000 C 
BRANCH   8   9
ATOM      9  C   UNL A   1      38.618  24.393  27.506  1.00  0.00     0.000 C 
BRANCH   9  10
ATOM     10  C   UNL A   1      38.446  23.340  26.407  1.00  0.00     0.000 C 
BRANCH  10  11
ATOM     11  C   UNL A   1      37.501  23.730  25.263  1.00  0.00     0.000 C 
BRANCH  11  12
ATOM     12  C   UNL A   1      36.098  23.111  25.310  1.00  0.00     0.002 C 
BRANCH  12  13
ATOM     13  C   UNL A   1      35.260  23.446  26.546  1.00  0.00     0.021 C 
BRANCH  13  14
ATOM     14  C   UNL A   1      33.767  23.590  26.288  1.00  0.00     0.117 C 
BRANCH  14  15
ATOM     15  N   UNL A   1      33.123  22.364  25.876  1.00  0.00    -0.338 N 
ATOM     16  N   UNL A   1      30.979  23.162  25.233  1.00  0.00    -0.291 N 
ATOM     17  C   UNL A   1      31.851  22.160  25.472  1.00  0.00     0.320 C 
ATOM     18  H   UNL A   1      30.033  22.903  25.316  1.00  0.00     0.173 HD
ATOM     19  O   UNL A   1      31.432  20.998  25.450  1.00  0.00    -0.248 OA
ATOM     20  H   UNL A   1      33.694  21.562  25.892  1.00  0.00     0.165 HD
BRANCH  16  21
ATOM     21  C   UNL A   1      31.174  24.481  24.893  1.00  0.00     0.157 A 
ATOM     22  N   UNL A   1      31.817  26.510  24.965  1.00  0.00    -0.231 N 
ATOM     23  N   UNL A   1      32.170  25.256  25.314  1.00  0.00    -0.149 NA
ATOM     24  C   UNL A   1      30.760  26.508  24.059  1.00  0.00     0.076 A 
ATOM     25  C   UNL A   1      30.339  25.192  24.005  1.00  0.00     0.078 A 
BRANCH  22  26
ATOM     26  C   UNL A   1      32.443  27.615  25.606  1.00  0.00     0.065 A 
ATOM     27  C   UNL A   1      33.638  29.730  26.975  1.00  0.00     0.082 A 
ATOM     28  C   UNL A   1      34.418  28.648  26.560  1.00  0.00     0.024 A 
ATOM     29  C   UNL A   1      32.275  29.790  26.662  1.00  0.00     0.024 A 
ATOM     30  C   UNL A   1      33.817  27.587  25.883  1.00  0.00     0.030 A 
ATOM     31  C   UNL A   1      31.681  28.740  25.951  1.00  0.00     0.030 A 
BRANCH  27  32
ATOM     32  S   UNL A   1      34.374  30.996  27.964  1.00  0.00     0.238 S 
ATOM     33  O   UNL A   1      34.823  30.420  29.213  1.00  0.00    -0.207 OA
ATOM     34  O   UNL A   1      33.545  32.173  27.912  1.00  0.00    -0.207 OA
BRANCH  32  35
ATOM     35  N   UNL A   1      35.782  31.370  27.134  1.00  0.00    -0.225 NA
ATOM     36  H   UNL A   1      36.053  30.576  26.552  1.00  0.00     0.137 HD
ATOM     37  H   UNL A   1      36.526  31.572  27.801  1.00  0.00     0.137 HD
ENDBRANCH  32  35
ENDBRANCH  27  32
ENDBRANCH  22  26
BRANCH  24  38
ATOM     38  C   UNL A   1      30.267  27.675  23.329  1.00  0.00     0.000 A 
ATOM     39  C   UNL A   1      31.145  28.477  22.586  1.00  0.00     0.010 A 
ATOM     40  C   UNL A   1      28.911  28.022  23.382  1.00  0.00     0.010 A 
ATOM     41  C   UNL A   1      30.685  29.624  21.941  1.00  0.00     0.001 A 
ATOM     42  C   UNL A   1      28.450  29.167  22.730  1.00  0.00     0.001 A 
ATOM     43  C   UNL A   1      29.338  29.972  22.016  1.00  0.00     0.000 A 
ENDBRANCH  24  38
ENDBRANCH  16  21
ENDBRANCH  14  15
ENDBRANCH  13  14
ENDBRANCH  12  13
ENDBRANCH  11  12
ENDBRANCH  10  11
ENDBRANCH   9  10
ENDBRANCH   8   9
ENDBRANCH   7   8
ENDBRANCH   6   7
ENDBRANCH   5   6
ENDBRANCH   3   5
ENDBRANCH   2   3
ENDBRANCH   1   2
BRANCH   1  44
ATOM     44  C   UNL A   1      39.135  32.579  31.089  1.00  0.00     0.202 C 
BRANCH  44  45
ATOM     45  O   UNL A   1      38.501  32.324  32.335  1.00  0.00    -0.376 OA
BRANCH  45  46
ATOM     46  C   UNL A   1      39.229  32.544  33.542  1.00  0.00     0.188 C 
BRANCH  46  47
ATOM     47  C   UNL A   1      40.566  31.820  33.804  1.00  0.00     0.188 C 
BRANCH  47  48
ATOM     48  O   UNL A   1      40.560  30.416  33.622  1.00  0.00    -0.377 OA
BRANCH  48  49
ATOM     49  C   UNL A   1      41.255  29.684  34.621  1.00  0.00     0.188 C 
BRANCH  49  50
ATOM     50  C   UNL A   1      42.613  29.111  34.183  1.00  0.00     0.188 C 
BRANCH  50  51
ATOM     51  O   UNL A   1      42.651  28.679  32.819  1.00  0.00    -0.376 OA
BRANCH  51  52
ATOM     52  C   UNL A   1      43.652  29.235  31.975  1.00  0.00     0.202 C 
BRANCH  52  53
ATOM     53  C   UNL A   1      45.084  28.870  32.377  1.00  0.00     0.261 C 
BRANCH  53  54
ATOM     54  O   UNL A   1      45.792  28.083  31.424  1.00  0.00    -0.460 OA
BRANCH  54  55
ATOM     55  C   UNL A   1      46.962  27.565  31.847  1.00  0.00     0.338 C 
ATOM     56  O   UNL A   1      47.116  26.579  32.547  1.00  0.00    -0.246 OA
BRANCH  55  57
ATOM     57  C   UNL A   1      48.072  28.407  31.394  1.00  0.00     0.060 A 
ATOM     58  C   UNL A   1      47.963  28.900  30.094  1.00  0.00     0.016 A 
ATOM     59  C   UNL A   1      49.275  28.458  32.116  1.00  0.00     0.016 A 
ATOM     60  C   UNL A   1      49.120  29.206  29.421  1.00  0.00     0.010 A 
ATOM     61  C   UNL A   1      50.435  28.766  31.439  1.00  0.00     0.010 A 
ATOM     62  C   UNL A   1      50.344  29.026  30.076  1.00  0.00    -0.014 A 
BRANCH  62  63
ATOM     63  C   UNL A   1      51.511  28.983  29.226  1.00  0.00     0.031 A 
ATOM     64  C   UNL A   1      52.243  30.248  29.077  1.00  0.00     0.074 A 
ATOM     65  C   UNL A   1      51.877  27.862  28.580  1.00  0.00     0.049 A 
ATOM     66  N   UNL A   1      52.294  31.001  28.029  1.00  0.00    -0.248 NA
ATOM     67  C   UNL A   1      52.911  30.788  30.264  1.00  0.00     0.031 C 
ATOM     68  C   UNL A   1      51.436  26.488  28.839  1.00  0.00     0.029 A 
ATOM     69  N   UNL A   1      52.833  27.716  27.623  1.00  0.00    -0.354 N 
ATOM     70  C   UNL A   1      53.182  32.015  28.357  1.00  0.00     0.074 A 
ATOM     71  C   UNL A   1      53.406  31.926  29.779  1.00  0.00     0.031 C 
ATOM     72  C   UNL A   1      52.302  25.638  28.243  1.00  0.00     0.029 A 
ATOM     73  C   UNL A   1      53.258  26.408  27.465  1.00  0.00     0.049 A 
ATOM     74  H   UNL A   1      53.189  28.468  27.095  1.00  0.00     0.167 HD
ATOM     75  C   UNL A   1      53.843  32.723  27.405  1.00  0.00     0.034 A 
ATOM     76  C   UNL A   1      54.377  26.010  26.819  1.00  0.00     0.034 A 
ATOM     77  C   UNL A   1      53.290  32.544  26.091  1.00  0.00     0.049 A 
ATOM     78  C   UNL A   1      54.787  27.097  25.900  1.00  0.00     0.074 A 
ATOM     79  C   UNL A   1      52.061  32.766  25.504  1.00  0.00     0.029 A 
ATOM     80  N   UNL A   1      53.992  31.749  25.219  1.00  0.00    -0.354 N 
ATOM     81  N   UNL A   1      54.135  27.429  24.820  1.00  0.00    -0.248 NA
ATOM     82  C   UNL A   1      55.755  28.077  26.367  1.00  0.00     0.031 C 
ATOM     83  C   UNL A   1      51.929  31.753  24.511  1.00  0.00     0.029 A 
ATOM     84  C   UNL A   1      53.085  30.970  24.550  1.00  0.00     0.049 A 
ATOM     85  H   UNL A   1      54.968  31.742  25.095  1.00  0.00     0.167 HD
ATOM     86  C   UNL A   1      54.293  28.806  24.721  1.00  0.00     0.074 A 
ATOM     87  C   UNL A   1      55.406  29.120  25.611  1.00  0.00     0.031 C 
ATOM     88  C   UNL A   1      53.326  29.595  24.161  1.00  0.00     0.034 A 
BRANCH  75  89
ATOM     89  C   UNL A   1      55.192  33.344  27.614  1.00  0.00     0.023 A 
ATOM     90  C   UNL A   1      56.305  32.486  27.720  1.00  0.00     0.012 A 
ATOM     91  C   UNL A   1      55.384  34.702  27.948  1.00  0.00     0.148 A 
ATOM     92  C   UNL A   1      57.550  32.960  28.146  1.00  0.00     0.002 A 
ATOM     93  C   UNL A   1      56.643  35.185  28.277  1.00  0.00     0.091 A 
ATOM     94  F   UNL A   1      54.327  35.515  28.079  1.00  0.00    -0.205 F 
ATOM     95  C   UNL A   1      57.725  34.314  28.405  1.00  0.00     0.022 A 
BRANCH  93  96
ATOM     96  S   UNL A   1      56.905  36.943  28.517  1.00  0.00     0.127 S 
ATOM     97  O   UNL A   1      56.477  37.486  27.232  1.00  0.00    -0.237 OA
ATOM     98  O   UNL A   1      56.017  37.238  29.642  1.00  0.00    -0.237 OA
ATOM     99  O   UNL A   1      58.323  37.058  28.836  1.00  0.00    -0.744 OA
ENDBRANCH  93  96
ENDBRANCH  75  89
BRANCH  76 100
ATOM    100  C   UNL A   1      55.232  24.837  27.099  1.00  0.00     0.023 A 
ATOM    101  C   UNL A   1      55.435  23.870  26.098  1.00  0.00     0.012 A 
ATOM    102  C   UNL A   1      56.041  24.777  28.258  1.00  0.00     0.148 A 
ATOM    103  C   UNL A   1      56.421  22.887  26.236  1.00  0.00     0.002 A 
ATOM    104  C   UNL A   1      57.004  23.785  28.402  1.00  0.00     0.091 A 
ATOM    105  F   UNL A   1      55.934  25.746  29.177  1.00  0.00    -0.205 F 
ATOM    106  C   UNL A   1      57.205  22.844  27.385  1.00  0.00     0.022 A 
BRANCH 104 107
ATOM    107  S   UNL A   1      58.035  23.676  29.870  1.00  0.00     0.127 S 
ATOM    108  O   UNL A   1      57.041  23.611  30.942  1.00  0.00    -0.237 OA
ATOM    109  O   UNL A   1      58.767  22.434  29.637  1.00  0.00    -0.237 OA
ATOM    110  O   UNL A   1      58.833  24.897  29.877  1.00  0.00    -0.744 OA
ENDBRANCH 104 107
ENDBRANCH  76 100
BRANCH  88 111
ATOM    111  C   UNL A   1      52.233  28.931  23.358  1.00  0.00     0.023 A 
ATOM    112  C   UNL A   1      52.409  28.611  21.995  1.00  0.00     0.012 A 
ATOM    113  C   UNL A   1      51.087  28.454  24.021  1.00  0.00     0.148 A 
ATOM    114  C   UNL A   1      51.453  27.867  21.302  1.00  0.00     0.002 A 
ATOM    115  C   UNL A   1      50.161  27.670  23.339  1.00  0.00     0.091 A 
ATOM    116  F   UNL A   1      50.929  28.751  25.320  1.00  0.00    -0.205 F 
ATOM    117  C   UNL A   1      50.334  27.385  21.976  1.00  0.00     0.022 A 
BRANCH 115 118
ATOM    118  S   UNL A   1      48.781  26.901  24.194  1.00  0.00     0.127 S 
ATOM    119  O   UNL A   1      49.401  26.450  25.438  1.00  0.00    -0.237 OA
ATOM    120  O   UNL A   1      47.839  28.011  24.351  1.00  0.00    -0.237 OA
ATOM    121  O   UNL A   1      48.306  25.850  23.302  1.00  0.00    -0.744 OA
ENDBRANCH 115 118
ENDBRANCH  88 111
ENDBRANCH  62  63
ENDBRANCH  55  57
ENDBRANCH  54  55
ENDBRANCH  53  54
ENDBRANCH  52  53
ENDBRANCH  51  52
ENDBRANCH  50  51
ENDBRANCH  49  50
ENDBRANCH  48  49
ENDBRANCH  47  48
ENDBRANCH  46  47
ENDBRANCH  45  46
ENDBRANCH  44  45
ENDBRANCH   1  44
TORSDOF 38
ENDMDL
MODEL 3
REMARK VINA RESULT:      -5.8      8.579     14.542
REMARK SMILES NS(=O)(=O)c1ccc(-n2nc(NC(=O)NCCCCCCCCCCC(=O)OCCOCCOCCOCCOC(=O)c3ccc(-c4c5nc(c(-c6cccc(S(=O)(=O)[O-])c6F)c6ccc([nH]6)c(-c6cccc(S(=O)(=O)[O-])c6F)c6nc(c(-c7cccc(S(=O)(=O)[O-])c7F)c7ccc4[nH]7)C=C6)C=C5)cc3)cc2-c2ccccc2)cc1
REMARK SMILES IDX 29 1 28 2 26 3 27 4 25 5 24 6 23 7 22 8 21 9 20 10 19 11
REMARK SMILES IDX 18 12 17 13 16 14 15 15 12 16 13 17 14 19 11 21 9 22 10 23
REMARK SMILES IDX 107 24 106 25 8 26 5 27 6 28 115 29 7 30 114 31 2 32 3 33
REMARK SMILES IDX 4 34 1 35 108 38 109 39 113 40 110 41 112 42 111 43 30 44
REMARK SMILES IDX 31 45 32 46 33 47 34 48 35 49 36 50 37 51 38 52 39 53 40 54
REMARK SMILES IDX 41 55 42 56 43 57 44 58 105 59 45 60 104 61 46 62 47 63
REMARK SMILES IDX 48 64 98 65 49 66 103 67 97 68 99 69 50 70 102 71 96 72
REMARK SMILES IDX 95 73 51 75 83 76 63 77 82 78 64 79 67 80 81 81 100 82 65 83
REMARK SMILES IDX 66 84 80 86 101 87 68 88 52 89 53 90 61 91 54 92 56 93 62 94
REMARK SMILES IDX 55 95 57 96 58 97 59 98 60 99 84 100 85 101 93 102 86 103
REMARK SMILES IDX 88 104 94 105 87 106 89 107 90 108 91 109 92 110 69 111
REMARK SMILES IDX 70 112 78 113 71 114 73 115 79 116 72 117 74 118 75 119
REMARK SMILES IDX 76 120 77 121
REMARK H PARENT 12 18 15 20 1 36 1 37 99 74 67 85
REMARK Flexibility Score: inf
ROOT
ATOM      1  C   UNL A   1      43.282  35.075  25.840  1.00  0.00     0.261 C 
ENDROOT
BRANCH   1   2
ATOM      2  O   UNL A   1      44.707  35.008  26.029  1.00  0.00    -0.463 OA
BRANCH   2   3
ATOM      3  C   UNL A   1      45.228  33.806  26.356  1.00  0.00     0.305 C 
ATOM      4  O   UNL A   1      45.658  32.991  25.545  1.00  0.00    -0.252 OA
BRANCH   3   5
ATOM      5  C   UNL A   1      45.306  33.536  27.849  1.00  0.00     0.123 C 
BRANCH   5   6
ATOM      6  C   UNL A   1      44.386  32.543  28.561  1.00  0.00     0.012 C 
BRANCH   6   7
ATOM      7  C   UNL A   1      44.565  32.358  30.069  1.00  0.00     0.001 C 
BRANCH   7   8
ATOM      8  C   UNL A   1      45.646  31.347  30.433  1.00  0.00     0.000 C 
BRANCH   8   9
ATOM      9  C   UNL A   1      45.659  30.979  31.915  1.00  0.00     0.000 C 
BRANCH   9  10
ATOM     10  C   UNL A   1      46.869  30.150  32.355  1.00  0.00     0.000 C 
BRANCH  10  11
ATOM     11  C   UNL A   1      46.794  29.578  33.776  1.00  0.00     0.000 C 
BRANCH  11  12
ATOM     12  C   UNL A   1      48.018  28.777  34.242  1.00  0.00     0.002 C 
BRANCH  12  13
ATOM     13  C   UNL A   1      48.998  28.354  33.146  1.00  0.00     0.021 C 
BRANCH  13  14
ATOM     14  C   UNL A   1      50.445  28.218  33.598  1.00  0.00     0.117 C 
BRANCH  14  15
ATOM     15  N   UNL A   1      50.967  29.397  34.252  1.00  0.00    -0.338 N 
ATOM     16  N   UNL A   1      52.885  28.509  35.340  1.00  0.00    -0.291 N 
ATOM     17  C   UNL A   1      52.017  29.514  35.091  1.00  0.00     0.320 C 
ATOM     18  H   UNL A   1      53.349  28.582  36.205  1.00  0.00     0.173 HD
ATOM     19  O   UNL A   1      52.109  30.548  35.760  1.00  0.00    -0.248 OA
ATOM     20  H   UNL A   1      50.487  30.234  34.056  1.00  0.00     0.165 HD
BRANCH  16  21
ATOM     21  C   UNL A   1      53.237  27.402  34.602  1.00  0.00     0.157 A 
ATOM     22  N   UNL A   1      53.551  25.375  34.030  1.00  0.00    -0.231 N 
ATOM     23  N   UNL A   1      52.740  26.177  34.750  1.00  0.00    -0.149 NA
ATOM     24  C   UNL A   1      54.371  26.113  33.180  1.00  0.00     0.076 A 
ATOM     25  C   UNL A   1      54.170  27.431  33.546  1.00  0.00     0.078 A 
BRANCH  22  26
ATOM     26  C   UNL A   1      53.557  23.976  34.287  1.00  0.00     0.065 A 
ATOM     27  C   UNL A   1      53.614  21.216  34.674  1.00  0.00     0.082 A 
ATOM     28  C   UNL A   1      54.694  21.995  35.098  1.00  0.00     0.024 A 
ATOM     29  C   UNL A   1      52.481  21.812  34.108  1.00  0.00     0.024 A 
ATOM     30  C   UNL A   1      54.667  23.374  34.896  1.00  0.00     0.030 A 
ATOM     31  C   UNL A   1      52.442  23.201  33.939  1.00  0.00     0.030 A 
BRANCH  27  32
ATOM     32  S   UNL A   1      53.719  19.456  34.794  1.00  0.00     0.238 S 
ATOM     33  O   UNL A   1      52.488  18.946  35.361  1.00  0.00    -0.207 OA
ATOM     34  O   UNL A   1      55.012  19.097  35.315  1.00  0.00    -0.207 OA
BRANCH  32  35
ATOM     35  N   UNL A   1      53.694  18.954  33.195  1.00  0.00    -0.225 NA
ATOM     36  H   UNL A   1      54.378  18.208  33.063  1.00  0.00     0.137 HD
ATOM     37  H   UNL A   1      53.926  19.739  32.588  1.00  0.00     0.137 HD
ENDBRANCH  32  35
ENDBRANCH  27  32
ENDBRANCH  22  26
BRANCH  24  38
ATOM     38  C   UNL A   1      55.219  25.556  32.127  1.00  0.00     0.000 A 
ATOM     39  C   UNL A   1      54.848  25.665  30.779  1.00  0.00     0.010 A 
ATOM     40  C   UNL A   1      56.404  24.885  32.453  1.00  0.00     0.010 A 
ATOM     41  C   UNL A   1      55.625  25.080  29.780  1.00  0.00     0.001 A 
ATOM     42  C   UNL A   1      57.185  24.305  31.450  1.00  0.00     0.001 A 
ATOM     43  C   UNL A   1      56.792  24.398  30.115  1.00  0.00     0.000 A 
ENDBRANCH  24  38
ENDBRANCH  16  21
ENDBRANCH  14  15
ENDBRANCH  13  14
ENDBRANCH  12  13
ENDBRANCH  11  12
ENDBRANCH  10  11
ENDBRANCH   9  10
ENDBRANCH   8   9
ENDBRANCH   7   8
ENDBRANCH   6   7
ENDBRANCH   5   6
ENDBRANCH   3   5
ENDBRANCH   2   3
ENDBRANCH   1   2
BRANCH   1  44
ATOM     44  C   UNL A   1      42.620  36.271  26.535  1.00  0.00     0.202 C 
BRANCH  44  45
ATOM     45  O   UNL A   1      43.178  36.708  27.767  1.00  0.00    -0.376 OA
BRANCH  45  46
ATOM     46  C   UNL A   1      42.560  37.787  28.465  1.00  0.00     0.188 C 
BRANCH  46  47
ATOM     47  C   UNL A   1      43.333  39.093  28.747  1.00  0.00     0.188 C 
BRANCH  47  48
ATOM     48  O   UNL A   1      44.244  39.506  27.746  1.00  0.00    -0.377 OA
BRANCH  48  49
ATOM     49  C   UNL A   1      45.606  39.212  28.023  1.00  0.00     0.188 C 
BRANCH  49  50
ATOM     50  C   UNL A   1      45.907  38.836  29.484  1.00  0.00     0.188 C 
BRANCH  50  51
ATOM     51  O   UNL A   1      46.418  39.917  30.270  1.00  0.00    -0.376 OA
BRANCH  51  52
ATOM     52  C   UNL A   1      45.593  40.427  31.311  1.00  0.00     0.202 C 
BRANCH  52  53
ATOM     53  C   UNL A   1      46.177  40.252  32.716  1.00  0.00     0.261 C 
BRANCH  53  54
ATOM     54  O   UNL A   1      45.391  39.457  33.598  1.00  0.00    -0.460 OA
BRANCH  54  55
ATOM     55  C   UNL A   1      45.788  38.178  33.743  1.00  0.00     0.338 C 
ATOM     56  O   UNL A   1      46.796  37.782  34.304  1.00  0.00    -0.246 OA
BRANCH  55  57
ATOM     57  C   UNL A   1      44.850  37.285  33.059  1.00  0.00     0.060 A 
ATOM     58  C   UNL A   1      43.505  37.454  33.390  1.00  0.00     0.016 A 
ATOM     59  C   UNL A   1      45.312  36.161  32.355  1.00  0.00     0.016 A 
ATOM     60  C   UNL A   1      42.666  36.377  33.248  1.00  0.00     0.010 A 
ATOM     61  C   UNL A   1      44.467  35.082  32.212  1.00  0.00     0.010 A 
ATOM     62  C   UNL A   1      43.194  35.175  32.763  1.00  0.00    -0.014 A 
BRANCH  62  63
ATOM     63  C   UNL A   1      42.392  33.996  32.996  1.00  0.00     0.031 A 
ATOM     64  C   UNL A   1      41.105  33.945  32.291  1.00  0.00     0.074 A 
ATOM     65  C   UNL A   1      42.786  33.028  33.843  1.00  0.00     0.049 A 
ATOM     66  N   UNL A   1      39.928  34.070  32.806  1.00  0.00    -0.248 NA
ATOM     67  C   UNL A   1      41.137  33.847  30.830  1.00  0.00     0.031 C 
ATOM     68  C   UNL A   1      44.127  32.796  34.387  1.00  0.00     0.029 A 
ATOM     69  N   UNL A   1      42.070  31.962  34.293  1.00  0.00    -0.354 N 
ATOM     70  C   UNL A   1      39.049  33.852  31.755  1.00  0.00     0.074 A 
ATOM     71  C   UNL A   1      39.836  33.877  30.545  1.00  0.00     0.031 C 
ATOM     72  C   UNL A   1      44.183  31.537  34.875  1.00  0.00     0.029 A 
ATOM     73  C   UNL A   1      42.859  30.942  34.796  1.00  0.00     0.049 A 
ATOM     74  H   UNL A   1      41.086  31.919  34.262  1.00  0.00     0.167 HD
ATOM     75  C   UNL A   1      37.769  33.449  31.964  1.00  0.00     0.034 A 
ATOM     76  C   UNL A   1      42.460  29.672  35.033  1.00  0.00     0.034 A 
ATOM     77  C   UNL A   1      37.352  33.598  33.330  1.00  0.00     0.049 A 
ATOM     78  C   UNL A   1      40.983  29.672  35.158  1.00  0.00     0.074 A 
ATOM     79  C   UNL A   1      37.238  34.653  34.213  1.00  0.00     0.029 A 
ATOM     80  N   UNL A   1      37.264  32.456  34.086  1.00  0.00    -0.354 N 
ATOM     81  N   UNL A   1      40.333  30.193  36.161  1.00  0.00    -0.248 NA
ATOM     82  C   UNL A   1      40.184  29.394  33.975  1.00  0.00     0.031 C 
ATOM     83  C   UNL A   1      37.512  34.099  35.497  1.00  0.00     0.029 A 
ATOM     84  C   UNL A   1      37.778  32.740  35.324  1.00  0.00     0.049 A 
ATOM     85  H   UNL A   1      36.896  31.591  33.793  1.00  0.00     0.167 HD
ATOM     86  C   UNL A   1      39.166  30.698  35.600  1.00  0.00     0.074 A 
ATOM     87  C   UNL A   1      39.069  30.055  34.294  1.00  0.00     0.031 C 
ATOM     88  C   UNL A   1      38.548  31.803  36.118  1.00  0.00     0.034 A 
BRANCH  75  89
ATOM     89  C   UNL A   1      36.985  32.625  30.985  1.00  0.00     0.023 A 
ATOM     90  C   UNL A   1      37.356  31.277  30.810  1.00  0.00     0.012 A 
ATOM     91  C   UNL A   1      36.065  33.172  30.065  1.00  0.00     0.148 A 
ATOM     92  C   UNL A   1      36.838  30.512  29.760  1.00  0.00     0.002 A 
ATOM     93  C   UNL A   1      35.481  32.381  29.084  1.00  0.00     0.091 A 
ATOM     94  F   UNL A   1      35.842  34.493  30.044  1.00  0.00    -0.205 F 
ATOM     95  C   UNL A   1      35.885  31.057  28.908  1.00  0.00     0.022 A 
BRANCH  93  96
ATOM     96  S   UNL A   1      34.179  33.042  28.043  1.00  0.00     0.127 S 
ATOM     97  O   UNL A   1      33.142  33.349  29.023  1.00  0.00    -0.237 OA
ATOM     98  O   UNL A   1      34.826  34.207  27.439  1.00  0.00    -0.237 OA
ATOM     99  O   UNL A   1      33.890  31.968  27.099  1.00  0.00    -0.744 OA
ENDBRANCH  93  96
ENDBRANCH  75  89
BRANCH  76 100
ATOM    100  C   UNL A   1      43.254  28.428  34.950  1.00  0.00     0.023 A 
ATOM    101  C   UNL A   1      43.569  27.888  33.689  1.00  0.00     0.012 A 
ATOM    102  C   UNL A   1      43.907  27.896  36.085  1.00  0.00     0.148 A 
ATOM    103  C   UNL A   1      44.513  26.864  33.561  1.00  0.00     0.002 A 
ATOM    104  C   UNL A   1      44.829  26.862  35.957  1.00  0.00     0.091 A 
ATOM    105  F   UNL A   1      43.699  28.462  37.282  1.00  0.00    -0.205 F 
ATOM    106  C   UNL A   1      45.144  26.352  34.692  1.00  0.00     0.022 A 
BRANCH 104 107
ATOM    107  S   UNL A   1      45.661  26.156  37.384  1.00  0.00     0.127 S 
ATOM    108  O   UNL A   1      46.309  27.328  37.976  1.00  0.00    -0.237 OA
ATOM    109  O   UNL A   1      44.543  25.619  38.155  1.00  0.00    -0.237 OA
ATOM    110  O   UNL A   1      46.596  25.174  36.844  1.00  0.00    -0.744 OA
ENDBRANCH 104 107
ENDBRANCH  76 100
BRANCH  88 111
ATOM    111  C   UNL A   1      38.957  32.278  37.492  1.00  0.00     0.023 A 
ATOM    112  C   UNL A   1      40.085  33.102  37.683  1.00  0.00     0.012 A 
ATOM    113  C   UNL A   1      38.095  32.049  38.581  1.00  0.00     0.148 A 
ATOM    114  C   UNL A   1      40.368  33.656  38.933  1.00  0.00     0.002 A 
ATOM    115  C   UNL A   1      38.354  32.644  39.813  1.00  0.00     0.091 A 
ATOM    116  F   UNL A   1      37.017  31.273  38.392  1.00  0.00    -0.205 F 
ATOM    117  C   UNL A   1      39.496  33.438  39.996  1.00  0.00     0.022 A 
BRANCH 115 118
ATOM    118  S   UNL A   1      37.187  32.517  41.173  1.00  0.00     0.127 S 
ATOM    119  O   UNL A   1      38.051  32.677  42.339  1.00  0.00    -0.237 OA
ATOM    120  O   UNL A   1      36.281  33.641  40.927  1.00  0.00    -0.237 OA
ATOM    121  O   UNL A   1      36.556  31.210  41.023  1.00  0.00    -0.744 OA
ENDBRANCH 115 118
ENDBRANCH  88 111
ENDBRANCH  62  63
ENDBRANCH  55  57
ENDBRANCH  54  55
ENDBRANCH  53  54
ENDBRANCH  52  53
ENDBRANCH  51  52
ENDBRANCH  50  51
ENDBRANCH  49  50
ENDBRANCH  48  49
ENDBRANCH  47  48
ENDBRANCH  46  47
ENDBRANCH  45  46
ENDBRANCH  44  45
ENDBRANCH   1  44
TORSDOF 38
ENDMDL
