MODEL 1
REMARK VINA RESULT:      -7.9      0.000      0.000
REMARK SMILES CC#CC[C@H](C(=O)OCCOCCOCCOCCOC(=O)c1ccc(-c2c3nc(c(-c4cccc(S(=O)(=O)[O-])c4F)c4ccc([nH]4)c(-c4cccc(S(=O)(=O)[O-])c4F)c4nc(c(-c5cccc(S(=O)(=O)[O-])c5F)c5ccc2[nH]5)C=C4)C=C3)cc1)c1cccc(Br)c1
REMARK SMILES IDX 15 1 14 2 13 3 12 4 11 5 10 6 9 7 8 8 6 9 7 10 5 11 4 12
REMARK SMILES IDX 3 13 1 14 2 15 86 16 87 17 92 18 88 19 90 20 89 21 91 22
REMARK SMILES IDX 16 23 17 24 18 25 19 26 20 27 21 28 22 29 23 30 24 31 85 32
REMARK SMILES IDX 25 33 84 34 26 35 27 36 28 37 78 38 29 39 83 40 77 41 79 42
REMARK SMILES IDX 30 43 82 44 76 45 75 46 31 48 63 49 43 50 62 51 44 52 47 53
REMARK SMILES IDX 61 54 80 55 45 56 46 57 60 59 81 60 48 61 32 62 33 63 41 64
REMARK SMILES IDX 34 65 36 66 42 67 35 68 37 69 38 70 39 71 40 72 64 73 65 74
REMARK SMILES IDX 73 75 66 76 68 77 74 78 67 79 69 80 70 81 71 82 72 83 49 84
REMARK SMILES IDX 50 85 58 86 51 87 53 88 59 89 52 90 54 91 55 92 56 93 57 94
REMARK H PARENT 79 47 47 58
REMARK Flexibility Score: inf
ROOT
ATOM      1  C   UNL A   1      37.394  23.604  26.224  1.00  0.00     0.188 C 
ENDROOT
BRANCH   1   2
ATOM      2  O   UNL A   1      37.025  23.465  24.867  1.00  0.00    -0.377 OA
BRANCH   2   3
ATOM      3  C   UNL A   1      36.050  22.496  24.508  1.00  0.00     0.188 C 
BRANCH   3   4
ATOM      4  C   UNL A   1      34.852  22.070  25.413  1.00  0.00     0.188 C 
BRANCH   4   5
ATOM      5  O   UNL A   1      34.048  23.124  25.907  1.00  0.00    -0.376 OA
BRANCH   5   6
ATOM      6  C   UNL A   1      33.213  22.962  27.038  1.00  0.00     0.202 C 
BRANCH   6   7
ATOM      7  C   UNL A   1      31.756  23.416  26.956  1.00  0.00     0.261 C 
BRANCH   7   8
ATOM      8  O   UNL A   1      31.612  24.632  26.234  1.00  0.00    -0.463 OA
BRANCH   8   9
ATOM      9  C   UNL A   1      30.372  25.077  25.922  1.00  0.00     0.314 C 
ATOM     10  O   UNL A   1      29.446  25.127  26.720  1.00  0.00    -0.252 OA
BRANCH   9  11
ATOM     11  C   UNL A   1      30.391  25.676  24.504  1.00  0.00     0.141 C 
BRANCH  11  12
ATOM     12  C   UNL A   1      30.518  27.212  24.439  1.00  0.00     0.109 C 
BRANCH  12  13
ATOM     13  C   UNL A   1      31.313  27.837  25.530  1.00  0.00    -0.102 C 
ATOM     14  C   UNL A   1      33.377  28.537  27.326  1.00  0.00     0.107 C 
ATOM     15  C   UNL A   1      32.266  28.160  26.359  1.00  0.00    -0.107 C 
ENDBRANCH  12  13
ENDBRANCH  11  12
BRANCH  11  16
ATOM     16  C   UNL A   1      31.353  24.913  23.595  1.00  0.00    -0.032 A 
ATOM     17  C   UNL A   1      32.443  25.554  22.990  1.00  0.00     0.005 A 
ATOM     18  C   UNL A   1      31.231  23.516  23.466  1.00  0.00     0.020 A 
ATOM     19  C   UNL A   1      33.415  24.812  22.318  1.00  0.00     0.001 A 
ATOM     20  C   UNL A   1      32.204  22.784  22.786  1.00  0.00     0.018 A 
ATOM     21  C   UNL A   1      33.302  23.425  22.221  1.00  0.00     0.016 A 
ATOM     22  Br  UNL A   1      32.054  20.901  22.677  1.00  0.00    -0.051 Br
ENDBRANCH  11  16
ENDBRANCH   9  11
ENDBRANCH   8   9
ENDBRANCH   7   8
ENDBRANCH   6   7
ENDBRANCH   5   6
ENDBRANCH   4   5
ENDBRANCH   3   4
ENDBRANCH   2   3
ENDBRANCH   1   2
BRANCH   1  23
ATOM     23  C   UNL A   1      38.905  23.773  26.479  1.00  0.00     0.188 C 
BRANCH  23  24
ATOM     24  O   UNL A   1      39.198  24.698  27.519  1.00  0.00    -0.376 OA
BRANCH  24  25
ATOM     25  C   UNL A   1      39.929  25.862  27.169  1.00  0.00     0.202 C 
BRANCH  25  26
ATOM     26  C   UNL A   1      41.465  25.813  27.088  1.00  0.00     0.261 C 
BRANCH  26  27
ATOM     27  O   UNL A   1      42.054  24.768  26.301  1.00  0.00    -0.460 OA
BRANCH  27  28
ATOM     28  C   UNL A   1      43.201  24.205  26.729  1.00  0.00     0.338 C 
ATOM     29  O   UNL A   1      43.405  23.024  26.954  1.00  0.00    -0.246 OA
BRANCH  28  30
ATOM     30  C   UNL A   1      44.238  25.261  26.682  1.00  0.00     0.060 A 
ATOM     31  C   UNL A   1      44.827  25.705  27.874  1.00  0.00     0.016 A 
ATOM     32  C   UNL A   1      44.663  25.768  25.453  1.00  0.00     0.016 A 
ATOM     33  C   UNL A   1      45.848  26.659  27.838  1.00  0.00     0.010 A 
ATOM     34  C   UNL A   1      45.658  26.746  25.422  1.00  0.00     0.010 A 
ATOM     35  C   UNL A   1      46.244  27.210  26.614  1.00  0.00    -0.014 A 
BRANCH  35  36
ATOM     36  C   UNL A   1      47.143  28.387  26.569  1.00  0.00     0.031 A 
ATOM     37  C   UNL A   1      46.520  29.754  26.577  1.00  0.00     0.074 A 
ATOM     38  C   UNL A   1      48.478  28.248  26.480  1.00  0.00     0.049 A 
ATOM     39  N   UNL A   1      47.082  30.920  26.403  1.00  0.00    -0.248 NA
ATOM     40  C   UNL A   1      45.067  29.811  26.814  1.00  0.00     0.031 C 
ATOM     41  C   UNL A   1      49.197  26.978  26.493  1.00  0.00     0.029 A 
ATOM     42  N   UNL A   1      49.465  29.191  26.317  1.00  0.00    -0.354 N 
ATOM     43  C   UNL A   1      46.052  31.848  26.487  1.00  0.00     0.074 A 
ATOM     44  C   UNL A   1      44.829  31.111  26.716  1.00  0.00     0.031 C 
ATOM     45  C   UNL A   1      50.506  27.213  26.286  1.00  0.00     0.029 A 
ATOM     46  C   UNL A   1      50.709  28.648  26.093  1.00  0.00     0.049 A 
ATOM     47  H   UNL A   1      49.298  30.161  26.356  1.00  0.00     0.167 HD
ATOM     48  C   UNL A   1      46.120  33.196  26.397  1.00  0.00     0.034 A 
ATOM     49  C   UNL A   1      51.865  29.239  25.727  1.00  0.00     0.034 A 
ATOM     50  C   UNL A   1      47.336  33.925  26.167  1.00  0.00     0.049 A 
ATOM     51  C   UNL A   1      51.897  30.738  25.550  1.00  0.00     0.074 A 
ATOM     52  C   UNL A   1      47.512  35.293  26.073  1.00  0.00     0.029 A 
ATOM     53  N   UNL A   1      48.582  33.346  25.981  1.00  0.00    -0.354 N 
ATOM     54  N   UNL A   1      50.938  31.614  25.732  1.00  0.00    -0.248 NA
ATOM     55  C   UNL A   1      53.178  31.335  25.136  1.00  0.00     0.031 C 
ATOM     56  C   UNL A   1      48.861  35.541  25.802  1.00  0.00     0.029 A 
ATOM     57  C   UNL A   1      49.530  34.328  25.760  1.00  0.00     0.049 A 
ATOM     58  H   UNL A   1      48.764  32.379  26.003  1.00  0.00     0.167 HD
ATOM     59  C   UNL A   1      51.507  32.861  25.491  1.00  0.00     0.074 A 
ATOM     60  C   UNL A   1      52.901  32.631  25.176  1.00  0.00     0.031 C 
ATOM     61  C   UNL A   1      50.926  34.085  25.510  1.00  0.00     0.034 A 
BRANCH  48  62
ATOM     62  C   UNL A   1      44.848  33.975  26.578  1.00  0.00     0.023 A 
ATOM     63  C   UNL A   1      44.115  34.377  25.442  1.00  0.00     0.012 A 
ATOM     64  C   UNL A   1      44.339  34.246  27.863  1.00  0.00     0.148 A 
ATOM     65  C   UNL A   1      42.907  35.055  25.581  1.00  0.00     0.002 A 
ATOM     66  C   UNL A   1      43.111  34.884  27.994  1.00  0.00     0.091 A 
ATOM     67  F   UNL A   1      45.061  33.872  28.928  1.00  0.00    -0.205 F 
ATOM     68  C   UNL A   1      42.399  35.298  26.855  1.00  0.00     0.022 A 
BRANCH  66  69
ATOM     69  S   UNL A   1      42.333  35.178  29.585  1.00  0.00     0.127 S 
ATOM     70  O   UNL A   1      41.036  35.722  29.182  1.00  0.00    -0.237 OA
ATOM     71  O   UNL A   1      42.278  33.830  30.151  1.00  0.00    -0.237 OA
ATOM     72  O   UNL A   1      43.200  36.106  30.295  1.00  0.00    -0.744 OA
ENDBRANCH  66  69
ENDBRANCH  48  62
BRANCH  49  73
ATOM     73  C   UNL A   1      53.092  28.427  25.481  1.00  0.00     0.023 A 
ATOM     74  C   UNL A   1      53.398  28.000  24.174  1.00  0.00     0.012 A 
ATOM     75  C   UNL A   1      53.937  28.041  26.540  1.00  0.00     0.148 A 
ATOM     76  C   UNL A   1      54.491  27.164  23.933  1.00  0.00     0.002 A 
ATOM     77  C   UNL A   1      55.059  27.258  26.285  1.00  0.00     0.091 A 
ATOM     78  F   UNL A   1      53.623  28.437  27.782  1.00  0.00    -0.205 F 
ATOM     79  C   UNL A   1      55.325  26.800  24.986  1.00  0.00     0.022 A 
BRANCH  77  80
ATOM     80  S   UNL A   1      56.254  26.850  27.561  1.00  0.00     0.127 S 
ATOM     81  O   UNL A   1      55.465  26.004  28.452  1.00  0.00    -0.237 OA
ATOM     82  O   UNL A   1      57.285  26.148  26.795  1.00  0.00    -0.237 OA
ATOM     83  O   UNL A   1      56.685  28.127  28.112  1.00  0.00    -0.744 OA
ENDBRANCH  77  80
ENDBRANCH  49  73
BRANCH  61  84
ATOM     84  C   UNL A   1      51.795  35.285  25.225  1.00  0.00     0.023 A 
ATOM     85  C   UNL A   1      52.122  35.611  23.894  1.00  0.00     0.012 A 
ATOM     86  C   UNL A   1      52.200  36.140  26.268  1.00  0.00     0.148 A 
ATOM     87  C   UNL A   1      52.862  36.758  23.609  1.00  0.00     0.002 A 
ATOM     88  C   UNL A   1      52.894  37.307  25.973  1.00  0.00     0.091 A 
ATOM     89  F   UNL A   1      51.885  35.804  27.528  1.00  0.00    -0.205 F 
ATOM     90  C   UNL A   1      53.235  37.612  24.644  1.00  0.00     0.022 A 
BRANCH  88  91
ATOM     91  S   UNL A   1      53.336  38.517  27.225  1.00  0.00     0.127 S 
ATOM     92  O   UNL A   1      52.041  38.787  27.848  1.00  0.00    -0.237 OA
ATOM     93  O   UNL A   1      54.271  37.767  28.061  1.00  0.00    -0.237 OA
ATOM     94  O   UNL A   1      53.925  39.642  26.510  1.00  0.00    -0.744 OA
ENDBRANCH  88  91
ENDBRANCH  61  84
ENDBRANCH  35  36
ENDBRANCH  28  30
ENDBRANCH  27  28
ENDBRANCH  26  27
ENDBRANCH  25  26
ENDBRANCH  24  25
ENDBRANCH  23  24
ENDBRANCH   1  23
TORSDOF 26
ENDMDL
MODEL 2
REMARK VINA RESULT:      -7.9      7.281     15.446
REMARK SMILES CC#CC[C@H](C(=O)OCCOCCOCCOCCOC(=O)c1ccc(-c2c3nc(c(-c4cccc(S(=O)(=O)[O-])c4F)c4ccc([nH]4)c(-c4cccc(S(=O)(=O)[O-])c4F)c4nc(c(-c5cccc(S(=O)(=O)[O-])c5F)c5ccc2[nH]5)C=C4)C=C3)cc1)c1cccc(Br)c1
REMARK SMILES IDX 15 1 14 2 13 3 12 4 11 5 10 6 9 7 8 8 6 9 7 10 5 11 4 12
REMARK SMILES IDX 3 13 1 14 2 15 86 16 87 17 92 18 88 19 90 20 89 21 91 22
REMARK SMILES IDX 16 23 17 24 18 25 19 26 20 27 21 28 22 29 23 30 24 31 85 32
REMARK SMILES IDX 25 33 84 34 26 35 27 36 28 37 78 38 29 39 83 40 77 41 79 42
REMARK SMILES IDX 30 43 82 44 76 45 75 46 31 48 63 49 43 50 62 51 44 52 47 53
REMARK SMILES IDX 61 54 80 55 45 56 46 57 60 59 81 60 48 61 32 62 33 63 41 64
REMARK SMILES IDX 34 65 36 66 42 67 35 68 37 69 38 70 39 71 40 72 64 73 65 74
REMARK SMILES IDX 73 75 66 76 68 77 74 78 67 79 69 80 70 81 71 82 72 83 49 84
REMARK SMILES IDX 50 85 58 86 51 87 53 88 59 89 52 90 54 91 55 92 56 93 57 94
REMARK H PARENT 79 47 47 58
REMARK Flexibility Score: inf
ROOT
ATOM      1  C   UNL A   1      43.146  41.501  30.299  1.00  0.00     0.188 C 
ENDROOT
BRANCH   1   2
ATOM      2  O   UNL A   1      44.520  41.699  30.038  1.00  0.00    -0.377 OA
BRANCH   2   3
ATOM      3  C   UNL A   1      44.912  42.675  29.082  1.00  0.00     0.188 C 
BRANCH   3   4
ATOM      4  C   UNL A   1      45.235  42.368  27.587  1.00  0.00     0.188 C 
BRANCH   4   5
ATOM      5  O   UNL A   1      44.119  42.123  26.753  1.00  0.00    -0.376 OA
BRANCH   5   6
ATOM      6  C   UNL A   1      43.761  40.816  26.346  1.00  0.00     0.202 C 
BRANCH   6   7
ATOM      7  C   UNL A   1      44.478  39.621  26.975  1.00  0.00     0.261 C 
BRANCH   7   8
ATOM      8  O   UNL A   1      43.785  38.400  26.749  1.00  0.00    -0.463 OA
BRANCH   8   9
ATOM      9  C   UNL A   1      43.064  37.850  27.754  1.00  0.00     0.314 C 
ATOM     10  O   UNL A   1      41.930  38.203  28.051  1.00  0.00    -0.252 OA
BRANCH   9  11
ATOM     11  C   UNL A   1      43.810  36.618  28.296  1.00  0.00     0.141 C 
BRANCH  11  12
ATOM     12  C   UNL A   1      43.427  36.193  29.729  1.00  0.00     0.109 C 
BRANCH  12  13
ATOM     13  C   UNL A   1      42.265  35.270  29.836  1.00  0.00    -0.102 C 
ATOM     14  C   UNL A   1      39.747  34.031  29.530  1.00  0.00     0.107 C 
ATOM     15  C   UNL A   1      41.102  34.698  29.695  1.00  0.00    -0.107 C 
ENDBRANCH  12  13
ENDBRANCH  11  12
BRANCH  11  16
ATOM     16  C   UNL A   1      43.821  35.484  27.273  1.00  0.00    -0.032 A 
ATOM     17  C   UNL A   1      42.948  35.487  26.177  1.00  0.00     0.005 A 
ATOM     18  C   UNL A   1      44.813  34.487  27.347  1.00  0.00     0.020 A 
ATOM     19  C   UNL A   1      43.096  34.548  25.154  1.00  0.00     0.001 A 
ATOM     20  C   UNL A   1      44.949  33.550  26.324  1.00  0.00     0.018 A 
ATOM     21  C   UNL A   1      44.100  33.583  25.221  1.00  0.00     0.016 A 
ATOM     22  Br  UNL A   1      46.327  32.257  26.412  1.00  0.00    -0.051 Br
ENDBRANCH  11  16
ENDBRANCH   9  11
ENDBRANCH   8   9
ENDBRANCH   7   8
ENDBRANCH   6   7
ENDBRANCH   5   6
ENDBRANCH   4   5
ENDBRANCH   3   4
ENDBRANCH   2   3
ENDBRANCH   1   2
BRANCH   1  23
ATOM     23  C   UNL A   1      42.380  42.754  30.765  1.00  0.00     0.188 C 
BRANCH  23  24
ATOM     24  O   UNL A   1      42.958  43.371  31.910  1.00  0.00    -0.376 OA
BRANCH  24  25
ATOM     25  C   UNL A   1      42.183  43.399  33.097  1.00  0.00     0.202 C 
BRANCH  25  26
ATOM     26  C   UNL A   1      42.794  43.930  34.406  1.00  0.00     0.261 C 
BRANCH  26  27
ATOM     27  O   UNL A   1      43.006  42.989  35.468  1.00  0.00    -0.460 OA
BRANCH  27  28
ATOM     28  C   UNL A   1      44.250  42.508  35.666  1.00  0.00     0.338 C 
ATOM     29  O   UNL A   1      45.160  43.044  36.275  1.00  0.00    -0.246 OA
BRANCH  28  30
ATOM     30  C   UNL A   1      44.250  41.111  35.178  1.00  0.00     0.060 A 
ATOM     31  C   UNL A   1      44.047  40.853  33.815  1.00  0.00     0.016 A 
ATOM     32  C   UNL A   1      44.508  40.063  36.064  1.00  0.00     0.016 A 
ATOM     33  C   UNL A   1      44.104  39.542  33.334  1.00  0.00     0.010 A 
ATOM     34  C   UNL A   1      44.529  38.750  35.587  1.00  0.00     0.010 A 
ATOM     35  C   UNL A   1      44.310  38.481  34.224  1.00  0.00    -0.014 A 
BRANCH  35  36
ATOM     36  C   UNL A   1      44.134  37.078  33.782  1.00  0.00     0.031 A 
ATOM     37  C   UNL A   1      45.222  36.455  32.954  1.00  0.00     0.074 A 
ATOM     38  C   UNL A   1      43.017  36.385  34.069  1.00  0.00     0.049 A 
ATOM     39  N   UNL A   1      45.235  35.305  32.335  1.00  0.00    -0.248 NA
ATOM     40  C   UNL A   1      46.462  37.238  32.805  1.00  0.00     0.031 C 
ATOM     41  C   UNL A   1      41.909  36.872  34.886  1.00  0.00     0.029 A 
ATOM     42  N   UNL A   1      42.614  35.135  33.667  1.00  0.00    -0.354 N 
ATOM     43  C   UNL A   1      46.472  35.232  31.706  1.00  0.00     0.074 A 
ATOM     44  C   UNL A   1      47.178  36.458  32.007  1.00  0.00     0.031 C 
ATOM     45  C   UNL A   1      40.924  35.956  34.879  1.00  0.00     0.029 A 
ATOM     46  C   UNL A   1      41.321  34.834  34.030  1.00  0.00     0.049 A 
ATOM     47  H   UNL A   1      43.193  34.515  33.167  1.00  0.00     0.167 HD
ATOM     48  C   UNL A   1      46.980  34.227  30.958  1.00  0.00     0.034 A 
ATOM     49  C   UNL A   1      40.535  33.795  33.675  1.00  0.00     0.034 A 
ATOM     50  C   UNL A   1      46.276  33.012  30.659  1.00  0.00     0.049 A 
ATOM     51  C   UNL A   1      41.098  32.727  32.768  1.00  0.00     0.074 A 
ATOM     52  C   UNL A   1      46.710  31.927  29.920  1.00  0.00     0.029 A 
ATOM     53  N   UNL A   1      44.984  32.725  31.071  1.00  0.00    -0.354 N 
ATOM     54  N   UNL A   1      42.303  32.621  32.263  1.00  0.00    -0.248 NA
ATOM     55  C   UNL A   1      40.197  31.623  32.399  1.00  0.00     0.031 C 
ATOM     56  C   UNL A   1      45.670  30.995  29.862  1.00  0.00     0.029 A 
ATOM     57  C   UNL A   1      44.599  31.486  30.592  1.00  0.00     0.049 A 
ATOM     58  H   UNL A   1      44.423  33.317  31.624  1.00  0.00     0.167 HD
ATOM     59  C   UNL A   1      42.316  31.426  31.550  1.00  0.00     0.074 A 
ATOM     60  C   UNL A   1      41.007  30.830  31.709  1.00  0.00     0.031 C 
ATOM     61  C   UNL A   1      43.314  30.879  30.813  1.00  0.00     0.034 A 
BRANCH  48  62
ATOM     62  C   UNL A   1      48.380  34.385  30.432  1.00  0.00     0.023 A 
ATOM     63  C   UNL A   1      49.461  33.873  31.178  1.00  0.00     0.012 A 
ATOM     64  C   UNL A   1      48.620  34.969  29.173  1.00  0.00     0.148 A 
ATOM     65  C   UNL A   1      50.763  33.960  30.690  1.00  0.00     0.002 A 
ATOM     66  C   UNL A   1      49.916  35.012  28.673  1.00  0.00     0.091 A 
ATOM     67  F   UNL A   1      47.580  35.465  28.490  1.00  0.00    -0.205 F 
ATOM     68  C   UNL A   1      50.989  34.517  29.434  1.00  0.00     0.022 A 
BRANCH  66  69
ATOM     69  S   UNL A   1      50.307  35.640  27.037  1.00  0.00     0.127 S 
ATOM     70  O   UNL A   1      49.493  34.770  26.186  1.00  0.00    -0.237 OA
ATOM     71  O   UNL A   1      49.837  37.022  27.120  1.00  0.00    -0.237 OA
ATOM     72  O   UNL A   1      51.745  35.490  26.879  1.00  0.00    -0.744 OA
ENDBRANCH  66  69
ENDBRANCH  48  62
BRANCH  49  73
ATOM     73  C   UNL A   1      39.124  33.709  34.153  1.00  0.00     0.023 A 
ATOM     74  C   UNL A   1      38.849  33.173  35.427  1.00  0.00     0.012 A 
ATOM     75  C   UNL A   1      38.051  34.118  33.338  1.00  0.00     0.148 A 
ATOM     76  C   UNL A   1      37.532  32.999  35.859  1.00  0.00     0.002 A 
ATOM     77  C   UNL A   1      36.743  33.998  33.798  1.00  0.00     0.091 A 
ATOM     78  F   UNL A   1      38.326  34.607  32.120  1.00  0.00    -0.205 F 
ATOM     79  C   UNL A   1      36.481  33.418  35.048  1.00  0.00     0.022 A 
BRANCH  77  80
ATOM     80  S   UNL A   1      35.339  34.630  32.875  1.00  0.00     0.127 S 
ATOM     81  O   UNL A   1      34.228  33.905  33.485  1.00  0.00    -0.237 OA
ATOM     82  O   UNL A   1      35.391  36.059  33.186  1.00  0.00    -0.237 OA
ATOM     83  O   UNL A   1      35.616  34.312  31.481  1.00  0.00    -0.744 OA
ENDBRANCH  77  80
ENDBRANCH  49  73
BRANCH  61  84
ATOM     84  C   UNL A   1      43.056  29.548  30.152  1.00  0.00     0.023 A 
ATOM     85  C   UNL A   1      43.173  28.361  30.901  1.00  0.00     0.012 A 
ATOM     86  C   UNL A   1      42.602  29.486  28.820  1.00  0.00     0.148 A 
ATOM     87  C   UNL A   1      42.867  27.128  30.324  1.00  0.00     0.002 A 
ATOM     88  C   UNL A   1      42.250  28.261  28.268  1.00  0.00     0.091 A 
ATOM     89  F   UNL A   1      42.508  30.629  28.124  1.00  0.00    -0.205 F 
ATOM     90  C   UNL A   1      42.392  27.080  29.015  1.00  0.00     0.022 A 
BRANCH  88  91
ATOM     91  S   UNL A   1      41.542  28.104  26.625  1.00  0.00     0.127 S 
ATOM     92  O   UNL A   1      41.354  26.658  26.519  1.00  0.00    -0.237 OA
ATOM     93  O   UNL A   1      40.304  28.872  26.749  1.00  0.00    -0.237 OA
ATOM     94  O   UNL A   1      42.520  28.670  25.706  1.00  0.00    -0.744 OA
ENDBRANCH  88  91
ENDBRANCH  61  84
ENDBRANCH  35  36
ENDBRANCH  28  30
ENDBRANCH  27  28
ENDBRANCH  26  27
ENDBRANCH  25  26
ENDBRANCH  24  25
ENDBRANCH  23  24
ENDBRANCH   1  23
TORSDOF 26
ENDMDL
MODEL 3
REMARK VINA RESULT:      -7.7      7.993     12.327
REMARK SMILES CC#CC[C@H](C(=O)OCCOCCOCCOCCOC(=O)c1ccc(-c2c3nc(c(-c4cccc(S(=O)(=O)[O-])c4F)c4ccc([nH]4)c(-c4cccc(S(=O)(=O)[O-])c4F)c4nc(c(-c5cccc(S(=O)(=O)[O-])c5F)c5ccc2[nH]5)C=C4)C=C3)cc1)c1cccc(Br)c1
REMARK SMILES IDX 15 1 14 2 13 3 12 4 11 5 10 6 9 7 8 8 6 9 7 10 5 11 4 12
REMARK SMILES IDX 3 13 1 14 2 15 86 16 87 17 92 18 88 19 90 20 89 21 91 22
REMARK SMILES IDX 16 23 17 24 18 25 19 26 20 27 21 28 22 29 23 30 24 31 85 32
REMARK SMILES IDX 25 33 84 34 26 35 27 36 28 37 78 38 29 39 83 40 77 41 79 42
REMARK SMILES IDX 30 43 82 44 76 45 75 46 31 48 63 49 43 50 62 51 44 52 47 53
REMARK SMILES IDX 61 54 80 55 45 56 46 57 60 59 81 60 48 61 32 62 33 63 41 64
REMARK SMILES IDX 34 65 36 66 42 67 35 68 37 69 38 70 39 71 40 72 64 73 65 74
REMARK SMILES IDX 73 75 66 76 68 77 74 78 67 79 69 80 70 81 71 82 72 83 49 84
REMARK SMILES IDX 50 85 58 86 51 87 53 88 59 89 52 90 54 91 55 92 56 93 57 94
REMARK H PARENT 79 47 47 58
REMARK Flexibility Score: inf
ROOT
ATOM      1  C   UNL A   1      34.932  34.498  33.942  1.00  0.00     0.188 C 
ENDROOT
BRANCH   1   2
ATOM      2  O   UNL A   1      35.308  35.581  33.117  1.00  0.00    -0.377 OA
BRANCH   2   3
ATOM      3  C   UNL A   1      34.390  36.646  32.908  1.00  0.00     0.188 C 
BRANCH   3   4
ATOM      4  C   UNL A   1      32.841  36.476  32.835  1.00  0.00     0.188 C 
BRANCH   4   5
ATOM      5  O   UNL A   1      32.343  35.857  31.664  1.00  0.00    -0.376 OA
BRANCH   5   6
ATOM      6  C   UNL A   1      32.905  36.105  30.390  1.00  0.00     0.202 C 
BRANCH   6   7
ATOM      7  C   UNL A   1      33.444  34.928  29.575  1.00  0.00     0.261 C 
BRANCH   7   8
ATOM      8  O   UNL A   1      33.706  33.789  30.385  1.00  0.00    -0.463 OA
BRANCH   8   9
ATOM      9  C   UNL A   1      34.845  33.084  30.190  1.00  0.00     0.314 C 
ATOM     10  O   UNL A   1      35.391  32.418  31.060  1.00  0.00    -0.252 OA
BRANCH   9  11
ATOM     11  C   UNL A   1      35.200  33.100  28.692  1.00  0.00     0.141 C 
BRANCH  11  12
ATOM     12  C   UNL A   1      36.495  33.855  28.330  1.00  0.00     0.109 C 
BRANCH  12  13
ATOM     13  C   UNL A   1      37.519  33.928  29.408  1.00  0.00    -0.102 C 
ATOM     14  C   UNL A   1      39.910  33.729  30.898  1.00  0.00     0.107 C 
ATOM     15  C   UNL A   1      38.623  33.836  30.095  1.00  0.00    -0.107 C 
ENDBRANCH  12  13
ENDBRANCH  11  12
BRANCH  11  16
ATOM     16  C   UNL A   1      35.077  31.707  28.080  1.00  0.00    -0.032 A 
ATOM     17  C   UNL A   1      36.174  30.837  28.029  1.00  0.00     0.005 A 
ATOM     18  C   UNL A   1      33.813  31.228  27.683  1.00  0.00     0.020 A 
ATOM     19  C   UNL A   1      36.004  29.507  27.640  1.00  0.00     0.001 A 
ATOM     20  C   UNL A   1      33.654  29.900  27.290  1.00  0.00     0.018 A 
ATOM     21  C   UNL A   1      34.743  29.034  27.278  1.00  0.00     0.016 A 
ATOM     22  Br  UNL A   1      31.937  29.260  26.820  1.00  0.00    -0.051 Br
ENDBRANCH  11  16
ENDBRANCH   9  11
ENDBRANCH   8   9
ENDBRANCH   7   8
ENDBRANCH   6   7
ENDBRANCH   5   6
ENDBRANCH   4   5
ENDBRANCH   3   4
ENDBRANCH   2   3
ENDBRANCH   1   2
BRANCH   1  23
ATOM     23  C   UNL A   1      36.089  33.822  34.704  1.00  0.00     0.188 C 
BRANCH  23  24
ATOM     24  O   UNL A   1      37.069  33.253  33.844  1.00  0.00    -0.376 OA
BRANCH  24  25
ATOM     25  C   UNL A   1      38.400  33.179  34.331  1.00  0.00     0.202 C 
BRANCH  25  26
ATOM     26  C   UNL A   1      38.688  32.529  35.696  1.00  0.00     0.261 C 
BRANCH  26  27
ATOM     27  O   UNL A   1      40.034  32.106  35.956  1.00  0.00    -0.460 OA
BRANCH  27  28
ATOM     28  C   UNL A   1      40.724  32.717  36.940  1.00  0.00     0.338 C 
ATOM     29  O   UNL A   1      40.848  32.347  38.095  1.00  0.00    -0.246 OA
BRANCH  28  30
ATOM     30  C   UNL A   1      41.478  33.824  36.308  1.00  0.00     0.060 A 
ATOM     31  C   UNL A   1      40.904  35.101  36.238  1.00  0.00     0.016 A 
ATOM     32  C   UNL A   1      42.774  33.605  35.837  1.00  0.00     0.016 A 
ATOM     33  C   UNL A   1      41.629  36.166  35.697  1.00  0.00     0.010 A 
ATOM     34  C   UNL A   1      43.484  34.663  35.265  1.00  0.00     0.010 A 
ATOM     35  C   UNL A   1      42.909  35.944  35.176  1.00  0.00    -0.014 A 
BRANCH  35  36
ATOM     36  C   UNL A   1      43.596  36.992  34.384  1.00  0.00     0.031 A 
ATOM     37  C   UNL A   1      43.648  36.831  32.892  1.00  0.00     0.074 A 
ATOM     38  C   UNL A   1      44.198  38.039  34.977  1.00  0.00     0.049 A 
ATOM     39  N   UNL A   1      44.305  37.531  32.006  1.00  0.00    -0.248 NA
ATOM     40  C   UNL A   1      42.849  35.732  32.322  1.00  0.00     0.031 C 
ATOM     41  C   UNL A   1      44.191  38.317  36.410  1.00  0.00     0.029 A 
ATOM     42  N   UNL A   1      44.971  39.043  34.444  1.00  0.00    -0.354 N 
ATOM     43  C   UNL A   1      44.019  36.947  30.779  1.00  0.00     0.074 A 
ATOM     44  C   UNL A   1      43.137  35.828  31.033  1.00  0.00     0.031 C 
ATOM     45  C   UNL A   1      44.971  39.385  36.653  1.00  0.00     0.029 A 
ATOM     46  C   UNL A   1      45.558  39.845  35.396  1.00  0.00     0.049 A 
ATOM     47  H   UNL A   1      45.092  39.177  33.476  1.00  0.00     0.167 HD
ATOM     48  C   UNL A   1      44.439  37.318  29.548  1.00  0.00     0.034 A 
ATOM     49  C   UNL A   1      46.499  40.804  35.268  1.00  0.00     0.034 A 
ATOM     50  C   UNL A   1      45.317  38.428  29.300  1.00  0.00     0.049 A 
ATOM     51  C   UNL A   1      47.016  41.143  33.891  1.00  0.00     0.074 A 
ATOM     52  C   UNL A   1      45.791  38.893  28.087  1.00  0.00     0.029 A 
ATOM     53  N   UNL A   1      45.864  39.238  30.282  1.00  0.00    -0.354 N 
ATOM     54  N   UNL A   1      46.661  40.651  32.729  1.00  0.00    -0.248 NA
ATOM     55  C   UNL A   1      48.052  42.187  33.805  1.00  0.00     0.031 C 
ATOM     56  C   UNL A   1      46.647  39.968  28.338  1.00  0.00     0.029 A 
ATOM     57  C   UNL A   1      46.681  40.193  29.705  1.00  0.00     0.049 A 
ATOM     58  H   UNL A   1      45.696  39.147  31.248  1.00  0.00     0.167 HD
ATOM     59  C   UNL A   1      47.399  41.347  31.776  1.00  0.00     0.074 A 
ATOM     60  C   UNL A   1      48.202  42.314  32.493  1.00  0.00     0.031 C 
ATOM     61  C   UNL A   1      47.425  41.189  30.430  1.00  0.00     0.034 A 
BRANCH  48  62
ATOM     62  C   UNL A   1      43.933  36.535  28.369  1.00  0.00     0.023 A 
ATOM     63  C   UNL A   1      42.762  36.960  27.708  1.00  0.00     0.012 A 
ATOM     64  C   UNL A   1      44.649  35.429  27.871  1.00  0.00     0.148 A 
ATOM     65  C   UNL A   1      42.299  36.283  26.582  1.00  0.00     0.002 A 
ATOM     66  C   UNL A   1      44.205  34.786  26.722  1.00  0.00     0.091 A 
ATOM     67  F   UNL A   1      45.748  35.032  28.527  1.00  0.00    -0.205 F 
ATOM     68  C   UNL A   1      43.026  35.206  26.082  1.00  0.00     0.022 A 
BRANCH  66  69
ATOM     69  S   UNL A   1      45.107  33.437  25.953  1.00  0.00     0.127 S 
ATOM     70  O   UNL A   1      44.037  32.738  25.240  1.00  0.00    -0.237 OA
ATOM     71  O   UNL A   1      46.047  34.152  25.090  1.00  0.00    -0.237 OA
ATOM     72  O   UNL A   1      45.719  32.688  27.040  1.00  0.00    -0.744 OA
ENDBRANCH  66  69
ENDBRANCH  48  62
BRANCH  49  73
ATOM     73  C   UNL A   1      47.037  41.509  36.468  1.00  0.00     0.023 A 
ATOM     74  C   UNL A   1      47.954  40.852  37.312  1.00  0.00     0.012 A 
ATOM     75  C   UNL A   1      46.615  42.811  36.800  1.00  0.00     0.148 A 
ATOM     76  C   UNL A   1      48.401  41.458  38.489  1.00  0.00     0.002 A 
ATOM     77  C   UNL A   1      47.110  43.433  37.942  1.00  0.00     0.091 A 
ATOM     78  F   UNL A   1      45.726  43.416  35.999  1.00  0.00    -0.205 F 
ATOM     79  C   UNL A   1      47.986  42.750  38.799  1.00  0.00     0.022 A 
BRANCH  77  80
ATOM     80  S   UNL A   1      46.728  45.140  38.348  1.00  0.00     0.127 S 
ATOM     81  O   UNL A   1      45.544  44.990  39.188  1.00  0.00    -0.237 OA
ATOM     82  O   UNL A   1      47.939  45.560  39.055  1.00  0.00    -0.237 OA
ATOM     83  O   UNL A   1      46.522  45.807  37.069  1.00  0.00    -0.744 OA
ENDBRANCH  77  80
ENDBRANCH  49  73
BRANCH  61  84
ATOM     84  C   UNL A   1      48.316  42.104  29.628  1.00  0.00     0.023 A 
ATOM     85  C   UNL A   1      49.680  41.791  29.471  1.00  0.00     0.012 A 
ATOM     86  C   UNL A   1      47.777  43.216  28.951  1.00  0.00     0.148 A 
ATOM     87  C   UNL A   1      50.501  42.587  28.671  1.00  0.00     0.002 A 
ATOM     88  C   UNL A   1      48.588  43.975  28.116  1.00  0.00     0.091 A 
ATOM     89  F   UNL A   1      46.477  43.500  29.123  1.00  0.00    -0.205 F 
ATOM     90  C   UNL A   1      49.953  43.668  27.984  1.00  0.00     0.022 A 
BRANCH  88  91
ATOM     91  S   UNL A   1      47.957  45.327  27.117  1.00  0.00     0.127 S 
ATOM     92  O   UNL A   1      49.018  45.482  26.123  1.00  0.00    -0.237 OA
ATOM     93  O   UNL A   1      46.710  44.769  26.596  1.00  0.00    -0.237 OA
ATOM     94  O   UNL A   1      47.789  46.456  28.022  1.00  0.00    -0.744 OA
ENDBRANCH  88  91
ENDBRANCH  61  84
ENDBRANCH  35  36
ENDBRANCH  28  30
ENDBRANCH  27  28
ENDBRANCH  26  27
ENDBRANCH  25  26
ENDBRANCH  24  25
ENDBRANCH  23  24
ENDBRANCH   1  23
TORSDOF 26
ENDMDL
