MODEL 1
REMARK VINA RESULT:      -8.3      0.000      0.000
REMARK SMILES Cc1oc(-c2ccc(Cl)cc2[N+](=O)[O-])cc1C(=O)Nc1ccc(C(=O)OCCOCCOCCOCCOC(=O)c2ccc(-c3c4nc(c(-c5cccc(S(=O)(=O)[O-])c5F)c5ccc([nH]5)c(-c5cccc(S(=O)(=O)[O-])c5F)c5nc(c(-c6cccc(S(=O)(=O)[O-])c6F)c6ccc3[nH]6)C=C5)C=C4)cc2)cc1
REMARK SMILES IDX 31 1 30 2 29 3 28 4 27 5 26 6 24 7 25 8 23 9 20 10 21 11
REMARK SMILES IDX 105 12 22 13 104 14 19 15 17 16 18 17 16 19 1 20 2 21 3 22
REMARK SMILES IDX 4 23 15 24 5 25 6 26 11 27 7 28 10 29 8 30 9 31 12 32 13 33
REMARK SMILES IDX 14 34 32 35 33 36 34 37 35 38 36 39 37 40 38 41 39 42 40 43
REMARK SMILES IDX 41 44 42 45 103 46 43 47 102 48 44 49 45 50 46 51 96 52
REMARK SMILES IDX 47 53 101 54 95 55 97 56 48 57 100 58 94 59 93 60 49 62
REMARK SMILES IDX 81 63 61 64 80 65 62 66 65 67 79 68 98 69 63 70 64 71 78 73
REMARK SMILES IDX 99 74 66 75 50 76 51 77 59 78 52 79 54 80 60 81 53 82 55 83
REMARK SMILES IDX 56 84 57 85 58 86 82 87 83 88 91 89 84 90 86 91 92 92 85 93
REMARK SMILES IDX 87 94 88 95 89 96 90 97 67 98 68 99 76 100 69 101 71 102
REMARK SMILES IDX 77 103 70 104 72 105 73 106 74 107 75 108
REMARK H PARENT 19 18 97 61 65 72
REMARK Flexibility Score: inf
ROOT
ATOM      1  C   UNL A   1      42.098  21.219  28.212  1.00  0.00     0.188 C 
ENDROOT
BRANCH   1   2
ATOM      2  C   UNL A   1      42.246  22.753  28.181  1.00  0.00     0.188 C 
BRANCH   2   3
ATOM      3  O   UNL A   1      41.124  23.593  27.976  1.00  0.00    -0.376 OA
BRANCH   3   4
ATOM      4  C   UNL A   1      41.066  24.640  27.016  1.00  0.00     0.202 C 
BRANCH   4   5
ATOM      5  C   UNL A   1      39.804  25.196  26.333  1.00  0.00     0.261 C 
BRANCH   5   6
ATOM      6  O   UNL A   1      39.010  24.262  25.618  1.00  0.00    -0.460 OA
BRANCH   6   7
ATOM      7  C   UNL A   1      37.834  23.972  26.198  1.00  0.00     0.338 C 
ATOM      8  O   UNL A   1      37.295  24.565  27.119  1.00  0.00    -0.246 OA
BRANCH   7   9
ATOM      9  C   UNL A   1      37.167  22.890  25.445  1.00  0.00     0.060 A 
ATOM     10  C   UNL A   1      35.404  20.970  24.617  1.00  0.00     0.041 A 
ATOM     11  C   UNL A   1      35.218  22.277  24.168  1.00  0.00     0.027 A 
ATOM     12  C   UNL A   1      36.604  20.571  25.208  1.00  0.00     0.027 A 
ATOM     13  C   UNL A   1      36.084  23.256  24.632  1.00  0.00     0.018 A 
ATOM     14  C   UNL A   1      37.513  21.543  25.612  1.00  0.00     0.018 A 
BRANCH  10  15
ATOM     15  N   UNL A   1      34.278  20.157  24.623  1.00  0.00    -0.322 N 
ATOM     16  C   UNL A   1      32.976  20.482  24.945  1.00  0.00     0.259 C 
ATOM     17  O   UNL A   1      32.174  19.542  24.970  1.00  0.00    -0.269 OA
ATOM     18  H   UNL A   1      34.430  19.220  24.362  1.00  0.00     0.170 HD
BRANCH  16  19
ATOM     19  C   UNL A   1      32.499  21.852  25.187  1.00  0.00     0.081 A 
ATOM     20  C   UNL A   1      33.433  22.907  27.486  1.00  0.00     0.088 C 
ATOM     21  C   UNL A   1      32.682  22.763  26.226  1.00  0.00     0.114 A 
ATOM     22  O   UNL A   1      32.034  23.922  25.955  1.00  0.00    -0.460 OA
ATOM     23  C   UNL A   1      31.647  23.895  24.668  1.00  0.00     0.142 A 
ATOM     24  C   UNL A   1      31.838  22.632  24.164  1.00  0.00     0.065 A 
BRANCH  23  25
ATOM     25  C   UNL A   1      31.183  25.177  24.180  1.00  0.00     0.095 A 
ATOM     26  C   UNL A   1      29.820  25.486  24.272  1.00  0.00     0.021 A 
ATOM     27  C   UNL A   1      32.055  26.161  23.663  1.00  0.00     0.281 A 
ATOM     28  C   UNL A   1      29.348  26.742  23.874  1.00  0.00     0.022 A 
ATOM     29  C   UNL A   1      31.589  27.423  23.270  1.00  0.00     0.107 A 
ATOM     30  C   UNL A   1      30.232  27.701  23.380  1.00  0.00     0.047 A 
ATOM     31  Cl  UNL A   1      29.638  29.235  22.879  1.00  0.00    -0.084 Cl
BRANCH  27  32
ATOM     32  N   UNL A   1      33.477  25.896  23.450  1.00  0.00     0.063 N 
ATOM     33  O   UNL A   1      34.260  26.274  24.334  1.00  0.00    -0.258 OA
ATOM     34  O   UNL A   1      33.820  25.413  22.360  1.00  0.00    -0.258 OA
ENDBRANCH  27  32
ENDBRANCH  23  25
ENDBRANCH  16  19
ENDBRANCH  10  15
ENDBRANCH   7   9
ENDBRANCH   6   7
ENDBRANCH   5   6
ENDBRANCH   4   5
ENDBRANCH   3   4
ENDBRANCH   2   3
ENDBRANCH   1   2
BRANCH   1  35
ATOM     35  O   UNL A   1      42.133  20.600  26.947  1.00  0.00    -0.377 OA
BRANCH  35  36
ATOM     36  C   UNL A   1      42.290  19.187  26.908  1.00  0.00     0.188 C 
BRANCH  36  37
ATOM     37  C   UNL A   1      42.999  18.513  25.711  1.00  0.00     0.188 C 
BRANCH  37  38
ATOM     38  O   UNL A   1      44.367  18.181  25.912  1.00  0.00    -0.376 OA
BRANCH  38  39
ATOM     39  C   UNL A   1      45.370  18.931  25.245  1.00  0.00     0.202 C 
BRANCH  39  40
ATOM     40  C   UNL A   1      44.931  19.847  24.089  1.00  0.00     0.261 C 
BRANCH  40  41
ATOM     41  O   UNL A   1      44.137  20.979  24.460  1.00  0.00    -0.460 OA
BRANCH  41  42
ATOM     42  C   UNL A   1      44.567  22.185  24.037  1.00  0.00     0.338 C 
ATOM     43  O   UNL A   1      44.594  22.589  22.882  1.00  0.00    -0.246 OA
BRANCH  42  44
ATOM     44  C   UNL A   1      44.815  23.031  25.218  1.00  0.00     0.060 A 
ATOM     45  C   UNL A   1      44.466  24.386  25.152  1.00  0.00     0.016 A 
ATOM     46  C   UNL A   1      45.401  22.503  26.371  1.00  0.00     0.016 A 
ATOM     47  C   UNL A   1      44.768  25.233  26.212  1.00  0.00     0.010 A 
ATOM     48  C   UNL A   1      45.720  23.359  27.429  1.00  0.00     0.010 A 
ATOM     49  C   UNL A   1      45.453  24.736  27.328  1.00  0.00    -0.014 A 
BRANCH  49  50
ATOM     50  C   UNL A   1      46.082  25.700  28.261  1.00  0.00     0.031 A 
ATOM     51  C   UNL A   1      47.465  26.202  27.945  1.00  0.00     0.074 A 
ATOM     52  C   UNL A   1      45.417  26.171  29.328  1.00  0.00     0.049 A 
ATOM     53  N   UNL A   1      48.188  27.092  28.571  1.00  0.00    -0.248 NA
ATOM     54  C   UNL A   1      48.120  25.622  26.760  1.00  0.00     0.031 C 
ATOM     55  C   UNL A   1      44.066  25.777  29.725  1.00  0.00     0.029 A 
ATOM     56  N   UNL A   1      45.795  27.087  30.278  1.00  0.00    -0.354 N 
ATOM     57  C   UNL A   1      49.388  27.164  27.873  1.00  0.00     0.074 A 
ATOM     58  C   UNL A   1      49.307  26.206  26.792  1.00  0.00     0.031 C 
ATOM     59  C   UNL A   1      43.730  26.443  30.843  1.00  0.00     0.029 A 
ATOM     60  C   UNL A   1      44.848  27.293  31.251  1.00  0.00     0.049 A 
ATOM     61  H   UNL A   1      46.663  27.552  30.262  1.00  0.00     0.167 HD
ATOM     62  C   UNL A   1      50.455  27.966  28.096  1.00  0.00     0.034 A 
ATOM     63  C   UNL A   1      44.886  28.075  32.349  1.00  0.00     0.034 A 
ATOM     64  C   UNL A   1      50.531  28.918  29.171  1.00  0.00     0.049 A 
ATOM     65  C   UNL A   1      46.102  28.925  32.605  1.00  0.00     0.074 A 
ATOM     66  C   UNL A   1      51.553  29.801  29.468  1.00  0.00     0.029 A 
ATOM     67  N   UNL A   1      49.553  29.097  30.137  1.00  0.00    -0.354 N 
ATOM     68  N   UNL A   1      47.189  29.055  31.882  1.00  0.00    -0.248 NA
ATOM     69  C   UNL A   1      46.083  29.764  33.813  1.00  0.00     0.031 C 
ATOM     70  C   UNL A   1      51.211  30.483  30.641  1.00  0.00     0.029 A 
ATOM     71  C   UNL A   1      49.952  30.064  31.043  1.00  0.00     0.049 A 
ATOM     72  H   UNL A   1      48.699  28.608  30.174  1.00  0.00     0.167 HD
ATOM     73  C   UNL A   1      47.959  30.024  32.518  1.00  0.00     0.074 A 
ATOM     74  C   UNL A   1      47.209  30.452  33.682  1.00  0.00     0.031 C 
ATOM     75  C   UNL A   1      49.176  30.513  32.172  1.00  0.00     0.034 A 
BRANCH  62  76
ATOM     76  C   UNL A   1      51.624  27.841  27.152  1.00  0.00     0.023 A 
ATOM     77  C   UNL A   1      52.602  26.848  27.368  1.00  0.00     0.012 A 
ATOM     78  C   UNL A   1      51.747  28.697  26.041  1.00  0.00     0.148 A 
ATOM     79  C   UNL A   1      53.709  26.744  26.526  1.00  0.00     0.002 A 
ATOM     80  C   UNL A   1      52.825  28.554  25.176  1.00  0.00     0.091 A 
ATOM     81  F   UNL A   1      50.821  29.650  25.862  1.00  0.00    -0.205 F 
ATOM     82  C   UNL A   1      53.816  27.590  25.426  1.00  0.00     0.022 A 
BRANCH  80  83
ATOM     83  S   UNL A   1      53.007  29.541  23.687  1.00  0.00     0.127 S 
ATOM     84  O   UNL A   1      53.773  30.684  24.183  1.00  0.00    -0.237 OA
ATOM     85  O   UNL A   1      53.755  28.639  22.810  1.00  0.00    -0.237 OA
ATOM     86  O   UNL A   1      51.655  29.841  23.236  1.00  0.00    -0.744 OA
ENDBRANCH  80  83
ENDBRANCH  62  76
BRANCH  63  87
ATOM     87  C   UNL A   1      43.710  28.125  33.262  1.00  0.00     0.023 A 
ATOM     88  C   UNL A   1      42.701  29.084  33.047  1.00  0.00     0.012 A 
ATOM     89  C   UNL A   1      43.576  27.213  34.327  1.00  0.00     0.148 A 
ATOM     90  C   UNL A   1      41.592  29.150  33.891  1.00  0.00     0.002 A 
ATOM     91  C   UNL A   1      42.442  27.249  35.130  1.00  0.00     0.091 A 
ATOM     92  F   UNL A   1      44.553  26.317  34.519  1.00  0.00    -0.205 F 
ATOM     93  C   UNL A   1      41.457  28.227  34.925  1.00  0.00     0.022 A 
BRANCH  91  94
ATOM     94  S   UNL A   1      42.124  26.027  36.406  1.00  0.00     0.127 S 
ATOM     95  O   UNL A   1      42.072  24.789  35.630  1.00  0.00    -0.237 OA
ATOM     96  O   UNL A   1      43.305  26.172  37.258  1.00  0.00    -0.237 OA
ATOM     97  O   UNL A   1      40.872  26.425  37.035  1.00  0.00    -0.744 OA
ENDBRANCH  91  94
ENDBRANCH  63  87
BRANCH  75  98
ATOM     98  C   UNL A   1      49.760  31.613  33.024  1.00  0.00     0.023 A 
ATOM     99  C   UNL A   1      50.599  31.301  34.112  1.00  0.00     0.012 A 
ATOM    100  C   UNL A   1      49.531  32.964  32.694  1.00  0.00     0.148 A 
ATOM    101  C   UNL A   1      51.168  32.317  34.882  1.00  0.00     0.002 A 
ATOM    102  C   UNL A   1      50.145  33.969  33.430  1.00  0.00     0.091 A 
ATOM    103  F   UNL A   1      48.717  33.241  31.664  1.00  0.00    -0.205 F 
ATOM    104  C   UNL A   1      50.951  33.648  34.533  1.00  0.00     0.022 A 
BRANCH 102 105
ATOM    105  S   UNL A   1      50.006  35.706  32.992  1.00  0.00     0.127 S 
ATOM    106  O   UNL A   1      50.774  35.761  31.749  1.00  0.00    -0.237 OA
ATOM    107  O   UNL A   1      48.561  35.868  32.824  1.00  0.00    -0.237 OA
ATOM    108  O   UNL A   1      50.573  36.449  34.109  1.00  0.00    -0.744 OA
ENDBRANCH 102 105
ENDBRANCH  75  98
ENDBRANCH  49  50
ENDBRANCH  42  44
ENDBRANCH  41  42
ENDBRANCH  40  41
ENDBRANCH  39  40
ENDBRANCH  38  39
ENDBRANCH  37  38
ENDBRANCH  36  37
ENDBRANCH  35  36
ENDBRANCH   1  35
TORSDOF 27
ENDMDL
MODEL 2
REMARK VINA RESULT:      -8.1     11.246     19.625
REMARK SMILES Cc1oc(-c2ccc(Cl)cc2[N+](=O)[O-])cc1C(=O)Nc1ccc(C(=O)OCCOCCOCCOCCOC(=O)c2ccc(-c3c4nc(c(-c5cccc(S(=O)(=O)[O-])c5F)c5ccc([nH]5)c(-c5cccc(S(=O)(=O)[O-])c5F)c5nc(c(-c6cccc(S(=O)(=O)[O-])c6F)c6ccc3[nH]6)C=C5)C=C4)cc2)cc1
REMARK SMILES IDX 31 1 30 2 29 3 28 4 27 5 26 6 24 7 25 8 23 9 20 10 21 11
REMARK SMILES IDX 105 12 22 13 104 14 19 15 17 16 18 17 16 19 1 20 2 21 3 22
REMARK SMILES IDX 4 23 15 24 5 25 6 26 11 27 7 28 10 29 8 30 9 31 12 32 13 33
REMARK SMILES IDX 14 34 32 35 33 36 34 37 35 38 36 39 37 40 38 41 39 42 40 43
REMARK SMILES IDX 41 44 42 45 103 46 43 47 102 48 44 49 45 50 46 51 96 52
REMARK SMILES IDX 47 53 101 54 95 55 97 56 48 57 100 58 94 59 93 60 49 62
REMARK SMILES IDX 81 63 61 64 80 65 62 66 65 67 79 68 98 69 63 70 64 71 78 73
REMARK SMILES IDX 99 74 66 75 50 76 51 77 59 78 52 79 54 80 60 81 53 82 55 83
REMARK SMILES IDX 56 84 57 85 58 86 82 87 83 88 91 89 84 90 86 91 92 92 85 93
REMARK SMILES IDX 87 94 88 95 89 96 90 97 67 98 68 99 76 100 69 101 71 102
REMARK SMILES IDX 77 103 70 104 72 105 73 106 74 107 75 108
REMARK H PARENT 19 18 97 61 65 72
REMARK Flexibility Score: inf
ROOT
ATOM      1  C   UNL A   1      46.888  44.046  35.939  1.00  0.00     0.188 C 
ENDROOT
BRANCH   1   2
ATOM      2  C   UNL A   1      45.971  43.304  34.947  1.00  0.00     0.188 C 
BRANCH   2   3
ATOM      3  O   UNL A   1      45.076  42.298  35.388  1.00  0.00    -0.376 OA
BRANCH   3   4
ATOM      4  C   UNL A   1      43.852  41.972  34.745  1.00  0.00     0.202 C 
BRANCH   4   5
ATOM      5  C   UNL A   1      42.583  42.841  34.680  1.00  0.00     0.261 C 
BRANCH   5   6
ATOM      6  O   UNL A   1      42.034  43.061  33.391  1.00  0.00    -0.460 OA
BRANCH   6   7
ATOM      7  C   UNL A   1      42.886  43.608  32.508  1.00  0.00     0.338 C 
ATOM      8  O   UNL A   1      43.638  44.553  32.690  1.00  0.00    -0.246 OA
BRANCH   7   9
ATOM      9  C   UNL A   1      42.917  42.788  31.280  1.00  0.00     0.060 A 
ATOM     10  C   UNL A   1      43.108  40.702  29.521  1.00  0.00     0.041 A 
ATOM     11  C   UNL A   1      41.860  40.990  30.074  1.00  0.00     0.027 A 
ATOM     12  C   UNL A   1      44.163  41.613  29.602  1.00  0.00     0.027 A 
ATOM     13  C   UNL A   1      41.780  42.015  31.004  1.00  0.00     0.018 A 
ATOM     14  C   UNL A   1      44.062  42.687  30.479  1.00  0.00     0.018 A 
BRANCH  10  15
ATOM     15  N   UNL A   1      43.295  39.401  29.070  1.00  0.00    -0.322 N 
ATOM     16  C   UNL A   1      43.584  38.960  27.795  1.00  0.00     0.259 C 
ATOM     17  O   UNL A   1      43.599  37.735  27.637  1.00  0.00    -0.269 OA
ATOM     18  H   UNL A   1      43.209  38.698  29.754  1.00  0.00     0.170 HD
BRANCH  16  19
ATOM     19  C   UNL A   1      43.928  39.842  26.670  1.00  0.00     0.081 A 
ATOM     20  C   UNL A   1      41.790  41.114  25.629  1.00  0.00     0.088 C 
ATOM     21  C   UNL A   1      43.177  40.654  25.820  1.00  0.00     0.114 A 
ATOM     22  O   UNL A   1      43.987  41.293  24.942  1.00  0.00    -0.460 OA
ATOM     23  C   UNL A   1      45.258  41.129  25.348  1.00  0.00     0.142 A 
ATOM     24  C   UNL A   1      45.295  40.196  26.356  1.00  0.00     0.065 A 
BRANCH  23  25
ATOM     25  C   UNL A   1      46.198  41.983  24.653  1.00  0.00     0.095 A 
ATOM     26  C   UNL A   1      46.688  41.579  23.404  1.00  0.00     0.021 A 
ATOM     27  C   UNL A   1      46.606  43.240  25.152  1.00  0.00     0.281 A 
ATOM     28  C   UNL A   1      47.543  42.411  22.674  1.00  0.00     0.022 A 
ATOM     29  C   UNL A   1      47.457  44.081  24.421  1.00  0.00     0.107 A 
ATOM     30  C   UNL A   1      47.919  43.654  23.183  1.00  0.00     0.047 A 
ATOM     31  Cl  UNL A   1      48.984  44.660  22.284  1.00  0.00    -0.084 Cl
BRANCH  27  32
ATOM     32  N   UNL A   1      46.215  43.705  26.483  1.00  0.00     0.063 N 
ATOM     33  O   UNL A   1      45.160  44.350  26.568  1.00  0.00    -0.258 OA
ATOM     34  O   UNL A   1      47.010  43.521  27.417  1.00  0.00    -0.258 OA
ENDBRANCH  27  32
ENDBRANCH  23  25
ENDBRANCH  16  19
ENDBRANCH  10  15
ENDBRANCH   7   9
ENDBRANCH   6   7
ENDBRANCH   5   6
ENDBRANCH   4   5
ENDBRANCH   3   4
ENDBRANCH   2   3
ENDBRANCH   1   2
BRANCH   1  35
ATOM     35  O   UNL A   1      46.381  44.139  37.250  1.00  0.00    -0.377 OA
BRANCH  35  36
ATOM     36  C   UNL A   1      47.284  43.914  38.325  1.00  0.00     0.188 C 
BRANCH  36  37
ATOM     37  C   UNL A   1      46.821  43.155  39.590  1.00  0.00     0.188 C 
BRANCH  37  38
ATOM     38  O   UNL A   1      47.230  43.718  40.829  1.00  0.00    -0.376 OA
BRANCH  38  39
ATOM     39  C   UNL A   1      46.330  43.713  41.926  1.00  0.00     0.202 C 
BRANCH  39  40
ATOM     40  C   UNL A   1      45.163  42.711  41.892  1.00  0.00     0.261 C 
BRANCH  40  41
ATOM     41  O   UNL A   1      44.911  42.008  43.114  1.00  0.00    -0.460 OA
BRANCH  41  42
ATOM     42  C   UNL A   1      45.482  40.793  43.242  1.00  0.00     0.338 C 
ATOM     43  O   UNL A   1      46.446  40.507  43.938  1.00  0.00    -0.246 OA
BRANCH  42  44
ATOM     44  C   UNL A   1      44.628  39.803  42.560  1.00  0.00     0.060 A 
ATOM     45  C   UNL A   1      45.201  38.587  42.167  1.00  0.00     0.016 A 
ATOM     46  C   UNL A   1      43.283  40.074  42.295  1.00  0.00     0.016 A 
ATOM     47  C   UNL A   1      44.451  37.668  41.443  1.00  0.00     0.010 A 
ATOM     48  C   UNL A   1      42.535  39.158  41.553  1.00  0.00     0.010 A 
ATOM     49  C   UNL A   1      43.134  37.977  41.078  1.00  0.00    -0.014 A 
BRANCH  49  50
ATOM     50  C   UNL A   1      42.486  37.172  40.017  1.00  0.00     0.031 A 
ATOM     51  C   UNL A   1      41.375  36.236  40.408  1.00  0.00     0.074 A 
ATOM     52  C   UNL A   1      42.829  37.315  38.726  1.00  0.00     0.049 A 
ATOM     53  N   UNL A   1      40.617  35.484  39.654  1.00  0.00    -0.248 NA
ATOM     54  C   UNL A   1      41.074  36.138  41.847  1.00  0.00     0.031 C 
ATOM     55  C   UNL A   1      43.874  38.204  38.221  1.00  0.00     0.029 A 
ATOM     56  N   UNL A   1      42.330  36.707  37.602  1.00  0.00    -0.354 N 
ATOM     57  C   UNL A   1      39.769  34.808  40.523  1.00  0.00     0.074 A 
ATOM     58  C   UNL A   1      40.123  35.218  41.864  1.00  0.00     0.031 C 
ATOM     59  C   UNL A   1      43.943  38.078  36.885  1.00  0.00     0.029 A 
ATOM     60  C   UNL A   1      42.963  37.086  36.444  1.00  0.00     0.049 A 
ATOM     61  H   UNL A   1      41.587  36.060  37.623  1.00  0.00     0.167 HD
ATOM     62  C   UNL A   1      38.771  33.939  40.235  1.00  0.00     0.034 A 
ATOM     63  C   UNL A   1      42.776  36.672  35.174  1.00  0.00     0.034 A 
ATOM     64  C   UNL A   1      38.422  33.536  38.900  1.00  0.00     0.049 A 
ATOM     65  C   UNL A   1      41.693  35.669  34.880  1.00  0.00     0.074 A 
ATOM     66  C   UNL A   1      37.409  32.686  38.496  1.00  0.00     0.029 A 
ATOM     67  N   UNL A   1      39.087  33.941  37.753  1.00  0.00    -0.354 N 
ATOM     68  N   UNL A   1      40.833  35.113  35.701  1.00  0.00    -0.248 NA
ATOM     69  C   UNL A   1      41.528  35.262  33.476  1.00  0.00     0.031 C 
ATOM     70  C   UNL A   1      37.491  32.542  37.106  1.00  0.00     0.029 A 
ATOM     71  C   UNL A   1      38.520  33.345  36.641  1.00  0.00     0.049 A 
ATOM     72  H   UNL A   1      39.852  34.561  37.733  1.00  0.00     0.167 HD
ATOM     73  C   UNL A   1      39.997  34.330  34.909  1.00  0.00     0.074 A 
ATOM     74  C   UNL A   1      40.450  34.491  33.542  1.00  0.00     0.031 C 
ATOM     75  C   UNL A   1      38.952  33.549  35.281  1.00  0.00     0.034 A 
BRANCH  62  76
ATOM     76  C   UNL A   1      37.992  33.372  41.394  1.00  0.00     0.023 A 
ATOM     77  C   UNL A   1      36.825  34.023  41.846  1.00  0.00     0.012 A 
ATOM     78  C   UNL A   1      38.407  32.185  42.028  1.00  0.00     0.148 A 
ATOM     79  C   UNL A   1      36.115  33.532  42.941  1.00  0.00     0.002 A 
ATOM     80  C   UNL A   1      37.664  31.672  43.085  1.00  0.00     0.091 A 
ATOM     81  F   UNL A   1      39.530  31.590  41.602  1.00  0.00    -0.205 F 
ATOM     82  C   UNL A   1      36.529  32.353  43.554  1.00  0.00     0.022 A 
BRANCH  80  83
ATOM     83  S   UNL A   1      38.070  30.118  43.886  1.00  0.00     0.127 S 
ATOM     84  O   UNL A   1      38.224  29.225  42.739  1.00  0.00    -0.237 OA
ATOM     85  O   UNL A   1      39.317  30.445  44.578  1.00  0.00    -0.237 OA
ATOM     86  O   UNL A   1      36.950  29.816  44.768  1.00  0.00    -0.744 OA
ENDBRANCH  80  83
ENDBRANCH  62  76
BRANCH  63  87
ATOM     87  C   UNL A   1      43.606  37.246  34.078  1.00  0.00     0.023 A 
ATOM     88  C   UNL A   1      43.264  38.497  33.528  1.00  0.00     0.012 A 
ATOM     89  C   UNL A   1      44.745  36.571  33.598  1.00  0.00     0.148 A 
ATOM     90  C   UNL A   1      44.026  39.053  32.499  1.00  0.00     0.002 A 
ATOM     91  C   UNL A   1      45.531  37.156  32.612  1.00  0.00     0.091 A 
ATOM     92  F   UNL A   1      45.045  35.379  34.128  1.00  0.00    -0.205 F 
ATOM     93  C   UNL A   1      45.164  38.389  32.049  1.00  0.00     0.022 A 
BRANCH  91  94
ATOM     94  S   UNL A   1      47.078  36.435  32.056  1.00  0.00     0.127 S 
ATOM     95  O   UNL A   1      47.834  36.350  33.303  1.00  0.00    -0.237 OA
ATOM     96  O   UNL A   1      46.630  35.149  31.518  1.00  0.00    -0.237 OA
ATOM     97  O   UNL A   1      47.611  37.354  31.061  1.00  0.00    -0.744 OA
ENDBRANCH  91  94
ENDBRANCH  63  87
BRANCH  75  98
ATOM     98  C   UNL A   1      38.179  32.846  34.192  1.00  0.00     0.023 A 
ATOM     99  C   UNL A   1      38.574  31.570  33.748  1.00  0.00     0.012 A 
ATOM    100  C   UNL A   1      37.011  33.430  33.662  1.00  0.00     0.148 A 
ATOM    101  C   UNL A   1      37.842  30.903  32.765  1.00  0.00     0.002 A 
ATOM    102  C   UNL A   1      36.255  32.737  32.725  1.00  0.00     0.091 A 
ATOM    103  F   UNL A   1      36.658  34.653  34.086  1.00  0.00    -0.205 F 
ATOM    104  C   UNL A   1      36.677  31.481  32.264  1.00  0.00     0.022 A 
BRANCH 102 105
ATOM    105  S   UNL A   1      34.688  33.357  32.101  1.00  0.00     0.127 S 
ATOM    106  O   UNL A   1      33.812  33.164  33.256  1.00  0.00    -0.237 OA
ATOM    107  O   UNL A   1      35.006  34.753  31.802  1.00  0.00    -0.237 OA
ATOM    108  O   UNL A   1      34.370  32.544  30.935  1.00  0.00    -0.744 OA
ENDBRANCH 102 105
ENDBRANCH  75  98
ENDBRANCH  49  50
ENDBRANCH  42  44
ENDBRANCH  41  42
ENDBRANCH  40  41
ENDBRANCH  39  40
ENDBRANCH  38  39
ENDBRANCH  37  38
ENDBRANCH  36  37
ENDBRANCH  35  36
ENDBRANCH   1  35
TORSDOF 27
ENDMDL
MODEL 3
REMARK VINA RESULT:      -7.9      5.620      9.432
REMARK SMILES Cc1oc(-c2ccc(Cl)cc2[N+](=O)[O-])cc1C(=O)Nc1ccc(C(=O)OCCOCCOCCOCCOC(=O)c2ccc(-c3c4nc(c(-c5cccc(S(=O)(=O)[O-])c5F)c5ccc([nH]5)c(-c5cccc(S(=O)(=O)[O-])c5F)c5nc(c(-c6cccc(S(=O)(=O)[O-])c6F)c6ccc3[nH]6)C=C5)C=C4)cc2)cc1
REMARK SMILES IDX 31 1 30 2 29 3 28 4 27 5 26 6 24 7 25 8 23 9 20 10 21 11
REMARK SMILES IDX 105 12 22 13 104 14 19 15 17 16 18 17 16 19 1 20 2 21 3 22
REMARK SMILES IDX 4 23 15 24 5 25 6 26 11 27 7 28 10 29 8 30 9 31 12 32 13 33
REMARK SMILES IDX 14 34 32 35 33 36 34 37 35 38 36 39 37 40 38 41 39 42 40 43
REMARK SMILES IDX 41 44 42 45 103 46 43 47 102 48 44 49 45 50 46 51 96 52
REMARK SMILES IDX 47 53 101 54 95 55 97 56 48 57 100 58 94 59 93 60 49 62
REMARK SMILES IDX 81 63 61 64 80 65 62 66 65 67 79 68 98 69 63 70 64 71 78 73
REMARK SMILES IDX 99 74 66 75 50 76 51 77 59 78 52 79 54 80 60 81 53 82 55 83
REMARK SMILES IDX 56 84 57 85 58 86 82 87 83 88 91 89 84 90 86 91 92 92 85 93
REMARK SMILES IDX 87 94 88 95 89 96 90 97 67 98 68 99 76 100 69 101 71 102
REMARK SMILES IDX 77 103 70 104 72 105 73 106 74 107 75 108
REMARK H PARENT 19 18 97 61 65 72
REMARK Flexibility Score: inf
ROOT
ATOM      1  C   UNL A   1      41.155  24.473  27.343  1.00  0.00     0.188 C 
ENDROOT
BRANCH   1   2
ATOM      2  C   UNL A   1      41.243  25.091  25.934  1.00  0.00     0.188 C 
BRANCH   2   3
ATOM      3  O   UNL A   1      41.479  26.476  25.755  1.00  0.00    -0.376 OA
BRANCH   3   4
ATOM      4  C   UNL A   1      41.574  27.420  26.813  1.00  0.00     0.202 C 
BRANCH   4   5
ATOM      5  C   UNL A   1      40.642  28.618  27.066  1.00  0.00     0.261 C 
BRANCH   5   6
ATOM      6  O   UNL A   1      39.861  28.571  28.250  1.00  0.00    -0.460 OA
BRANCH   6   7
ATOM      7  C   UNL A   1      38.784  29.373  28.239  1.00  0.00     0.338 C 
ATOM      8  O   UNL A   1      38.115  29.705  27.273  1.00  0.00    -0.246 OA
BRANCH   7   9
ATOM      9  C   UNL A   1      38.397  29.696  29.628  1.00  0.00     0.060 A 
ATOM     10  C   UNL A   1      38.306  29.859  32.356  1.00  0.00     0.041 A 
ATOM     11  C   UNL A   1      39.060  30.804  31.661  1.00  0.00     0.027 A 
ATOM     12  C   UNL A   1      37.379  29.047  31.700  1.00  0.00     0.027 A 
ATOM     13  C   UNL A   1      39.144  30.685  30.282  1.00  0.00     0.018 A 
ATOM     14  C   UNL A   1      37.408  28.977  30.311  1.00  0.00     0.018 A 
BRANCH  10  15
ATOM     15  N   UNL A   1      38.667  29.638  33.680  1.00  0.00    -0.322 N 
ATOM     16  C   UNL A   1      38.528  30.477  34.767  1.00  0.00     0.259 C 
ATOM     17  O   UNL A   1      39.027  30.078  35.825  1.00  0.00    -0.269 OA
ATOM     18  H   UNL A   1      39.079  28.764  33.867  1.00  0.00     0.170 HD
BRANCH  16  19
ATOM     19  C   UNL A   1      37.784  31.745  34.746  1.00  0.00     0.081 A 
ATOM     20  C   UNL A   1      38.969  33.691  36.188  1.00  0.00     0.088 C 
ATOM     21  C   UNL A   1      37.982  32.985  35.352  1.00  0.00     0.114 A 
ATOM     22  O   UNL A   1      37.002  33.847  34.990  1.00  0.00    -0.460 OA
ATOM     23  C   UNL A   1      36.314  33.299  33.973  1.00  0.00     0.142 A 
ATOM     24  C   UNL A   1      36.697  31.988  33.824  1.00  0.00     0.065 A 
BRANCH  23  25
ATOM     25  C   UNL A   1      35.416  34.226  33.320  1.00  0.00     0.095 A 
ATOM     26  C   UNL A   1      34.786  35.216  34.085  1.00  0.00     0.021 A 
ATOM     27  C   UNL A   1      35.185  34.217  31.926  1.00  0.00     0.281 A 
ATOM     28  C   UNL A   1      33.966  36.171  33.474  1.00  0.00     0.022 A 
ATOM     29  C   UNL A   1      34.371  35.175  31.308  1.00  0.00     0.107 A 
ATOM     30  C   UNL A   1      33.766  36.148  32.094  1.00  0.00     0.047 A 
ATOM     31  Cl  UNL A   1      32.743  37.317  31.358  1.00  0.00    -0.084 Cl
BRANCH  27  32
ATOM     32  N   UNL A   1      35.731  33.170  31.061  1.00  0.00     0.063 N 
ATOM     33  O   UNL A   1      35.022  32.171  30.869  1.00  0.00    -0.258 OA
ATOM     34  O   UNL A   1      36.899  33.296  30.665  1.00  0.00    -0.258 OA
ENDBRANCH  27  32
ENDBRANCH  23  25
ENDBRANCH  16  19
ENDBRANCH  10  15
ENDBRANCH   7   9
ENDBRANCH   6   7
ENDBRANCH   5   6
ENDBRANCH   4   5
ENDBRANCH   3   4
ENDBRANCH   2   3
ENDBRANCH   1   2
BRANCH   1  35
ATOM     35  O   UNL A   1      40.854  23.097  27.364  1.00  0.00    -0.377 OA
BRANCH  35  36
ATOM     36  C   UNL A   1      41.023  22.367  26.155  1.00  0.00     0.188 C 
BRANCH  36  37
ATOM     37  C   UNL A   1      41.495  20.895  26.191  1.00  0.00     0.188 C 
BRANCH  37  38
ATOM     38  O   UNL A   1      42.835  20.668  25.772  1.00  0.00    -0.376 OA
BRANCH  38  39
ATOM     39  C   UNL A   1      43.628  21.767  25.353  1.00  0.00     0.202 C 
BRANCH  39  40
ATOM     40  C   UNL A   1      44.793  22.199  26.260  1.00  0.00     0.261 C 
BRANCH  40  41
ATOM     41  O   UNL A   1      46.085  22.224  25.643  1.00  0.00    -0.460 OA
BRANCH  41  42
ATOM     42  C   UNL A   1      46.366  23.293  24.869  1.00  0.00     0.338 C 
ATOM     43  O   UNL A   1      46.589  23.287  23.666  1.00  0.00    -0.246 OA
BRANCH  42  44
ATOM     44  C   UNL A   1      46.159  24.513  25.669  1.00  0.00     0.060 A 
ATOM     45  C   UNL A   1      47.139  24.871  26.604  1.00  0.00     0.016 A 
ATOM     46  C   UNL A   1      45.007  25.289  25.514  1.00  0.00     0.016 A 
ATOM     47  C   UNL A   1      46.935  25.964  27.439  1.00  0.00     0.010 A 
ATOM     48  C   UNL A   1      44.796  26.377  26.364  1.00  0.00     0.010 A 
ATOM     49  C   UNL A   1      45.735  26.683  27.366  1.00  0.00    -0.014 A 
BRANCH  49  50
ATOM     50  C   UNL A   1      45.384  27.590  28.483  1.00  0.00     0.031 A 
ATOM     51  C   UNL A   1      45.144  26.990  29.842  1.00  0.00     0.074 A 
ATOM     52  C   UNL A   1      45.343  28.922  28.312  1.00  0.00     0.049 A 
ATOM     53  N   UNL A   1      44.891  27.584  30.978  1.00  0.00    -0.248 NA
ATOM     54  C   UNL A   1      45.200  25.521  29.931  1.00  0.00     0.031 C 
ATOM     55  C   UNL A   1      45.578  29.621  27.050  1.00  0.00     0.029 A 
ATOM     56  N   UNL A   1      45.085  29.925  29.212  1.00  0.00    -0.354 N 
ATOM     57  C   UNL A   1      44.736  26.565  31.911  1.00  0.00     0.074 A 
ATOM     58  C   UNL A   1      44.895  25.314  31.202  1.00  0.00     0.031 C 
ATOM     59  C   UNL A   1      45.446  30.942  27.255  1.00  0.00     0.029 A 
ATOM     60  C   UNL A   1      45.099  31.180  28.654  1.00  0.00     0.049 A 
ATOM     61  H   UNL A   1      44.909  29.760  30.167  1.00  0.00     0.167 HD
ATOM     62  C   UNL A   1      44.501  26.658  33.241  1.00  0.00     0.034 A 
ATOM     63  C   UNL A   1      44.849  32.382  29.213  1.00  0.00     0.034 A 
ATOM     64  C   UNL A   1      44.345  27.903  33.942  1.00  0.00     0.049 A 
ATOM     65  C   UNL A   1      44.543  32.460  30.685  1.00  0.00     0.074 A 
ATOM     66  C   UNL A   1      44.135  28.110  35.293  1.00  0.00     0.029 A 
ATOM     67  N   UNL A   1      44.363  29.154  33.343  1.00  0.00    -0.354 N 
ATOM     68  N   UNL A   1      44.497  31.496  31.573  1.00  0.00    -0.248 NA
ATOM     69  C   UNL A   1      44.290  33.798  31.241  1.00  0.00     0.031 C 
ATOM     70  C   UNL A   1      43.981  29.485  35.504  1.00  0.00     0.029 A 
ATOM     71  C   UNL A   1      44.150  30.138  34.293  1.00  0.00     0.049 A 
ATOM     72  H   UNL A   1      44.506  29.318  32.383  1.00  0.00     0.167 HD
ATOM     73  C   UNL A   1      44.258  32.113  32.798  1.00  0.00     0.074 A 
ATOM     74  C   UNL A   1      44.177  33.536  32.536  1.00  0.00     0.031 C 
ATOM     75  C   UNL A   1      44.117  31.553  34.026  1.00  0.00     0.034 A 
BRANCH  62  76
ATOM     76  C   UNL A   1      44.401  25.369  34.017  1.00  0.00     0.023 A 
ATOM     77  C   UNL A   1      43.137  24.797  34.275  1.00  0.00     0.012 A 
ATOM     78  C   UNL A   1      45.559  24.715  34.479  1.00  0.00     0.148 A 
ATOM     79  C   UNL A   1      43.025  23.626  35.025  1.00  0.00     0.002 A 
ATOM     80  C   UNL A   1      45.443  23.520  35.180  1.00  0.00     0.091 A 
ATOM     81  F   UNL A   1      46.750  25.282  34.245  1.00  0.00    -0.205 F 
ATOM     82  C   UNL A   1      44.177  22.984  35.469  1.00  0.00     0.022 A 
BRANCH  80  83
ATOM     83  S   UNL A   1      46.870  22.576  35.722  1.00  0.00     0.127 S 
ATOM     84  O   UNL A   1      47.571  22.349  34.459  1.00  0.00    -0.237 OA
ATOM     85  O   UNL A   1      47.533  23.514  36.628  1.00  0.00    -0.237 OA
ATOM     86  O   UNL A   1      46.340  21.382  36.367  1.00  0.00    -0.744 OA
ENDBRANCH  80  83
ENDBRANCH  62  76
BRANCH  63  87
ATOM     87  C   UNL A   1      44.929  33.616  28.381  1.00  0.00     0.023 A 
ATOM     88  C   UNL A   1      43.784  34.073  27.701  1.00  0.00     0.012 A 
ATOM     89  C   UNL A   1      46.127  34.350  28.282  1.00  0.00     0.148 A 
ATOM     90  C   UNL A   1      43.836  35.225  26.916  1.00  0.00     0.002 A 
ATOM     91  C   UNL A   1      46.157  35.527  27.543  1.00  0.00     0.091 A 
ATOM     92  F   UNL A   1      47.206  33.891  28.929  1.00  0.00    -0.205 F 
ATOM     93  C   UNL A   1      45.018  35.957  26.845  1.00  0.00     0.022 A 
BRANCH  91  94
ATOM     94  S   UNL A   1      47.597  36.599  27.493  1.00  0.00     0.127 S 
ATOM     95  O   UNL A   1      47.154  37.651  26.581  1.00  0.00    -0.237 OA
ATOM     96  O   UNL A   1      47.714  37.005  28.894  1.00  0.00    -0.237 OA
ATOM     97  O   UNL A   1      48.693  35.771  27.010  1.00  0.00    -0.744 OA
ENDBRANCH  91  94
ENDBRANCH  63  87
BRANCH  75  98
ATOM     98  C   UNL A   1      43.918  32.478  35.201  1.00  0.00     0.023 A 
ATOM     99  C   UNL A   1      42.623  32.888  35.573  1.00  0.00     0.012 A 
ATOM    100  C   UNL A   1      45.020  32.881  35.981  1.00  0.00     0.148 A 
ATOM    101  C   UNL A   1      42.433  33.717  36.680  1.00  0.00     0.002 A 
ATOM    102  C   UNL A   1      44.818  33.660  37.114  1.00  0.00     0.091 A 
ATOM    103  F   UNL A   1      46.248  32.494  35.602  1.00  0.00    -0.205 F 
ATOM    104  C   UNL A   1      43.527  34.091  37.456  1.00  0.00     0.022 A 
BRANCH 102 105
ATOM    105  S   UNL A   1      46.155  34.104  38.230  1.00  0.00     0.127 S 
ATOM    106  O   UNL A   1      47.256  34.337  37.296  1.00  0.00    -0.237 OA
ATOM    107  O   UNL A   1      45.633  35.310  38.872  1.00  0.00    -0.237 OA
ATOM    108  O   UNL A   1      46.327  32.967  39.124  1.00  0.00    -0.744 OA
ENDBRANCH 102 105
ENDBRANCH  75  98
ENDBRANCH  49  50
ENDBRANCH  42  44
ENDBRANCH  41  42
ENDBRANCH  40  41
ENDBRANCH  39  40
ENDBRANCH  38  39
ENDBRANCH  37  38
ENDBRANCH  36  37
ENDBRANCH  35  36
ENDBRANCH   1  35
TORSDOF 27
ENDMDL
