MODEL 1
REMARK VINA RESULT:     -10.7      0.000      0.000
REMARK SMILES Cc1cccc(-n2c(C)cc(/C=N\c3ccc(O)c(C(=O)OCCOCCOCCOCCOC(=O)c4ccc(-c5c6nc(c(-c7cccc(S(=O)(=O)[O-])c7F)c7ccc([nH]7)c(-c7cccc(S(=O)(=O)[O-])c7F)c7nc(c(-c8cccc(S(=O)(=O)[O-])c8F)c8ccc5[nH]8)C=C7)C=C6)cc4)c3)c2C)c1
REMARK SMILES IDX 28 1 27 2 26 3 25 4 24 5 23 6 22 7 20 8 21 9 19 10 14 11
REMARK SMILES IDX 15 12 100 13 16 14 17 15 13 16 12 17 11 18 7 19 8 20 101 21
REMARK SMILES IDX 9 22 10 23 102 24 6 25 1 26 2 27 3 28 103 29 4 30 5 31 18 32
REMARK SMILES IDX 29 34 30 35 31 36 32 37 33 38 34 39 35 40 36 41 37 42 38 43
REMARK SMILES IDX 99 44 39 45 98 46 40 47 41 48 42 49 92 50 43 51 97 52 91 53
REMARK SMILES IDX 93 54 44 55 96 56 90 57 89 58 45 60 77 61 57 62 76 63 58 64
REMARK SMILES IDX 61 65 75 66 94 67 59 68 60 69 74 71 95 72 62 73 46 74 47 75
REMARK SMILES IDX 55 76 48 77 50 78 56 79 49 80 51 81 52 82 53 83 54 84 78 85
REMARK SMILES IDX 79 86 87 87 80 88 82 89 88 90 81 91 83 92 84 93 85 94 86 95
REMARK SMILES IDX 63 96 64 97 72 98 65 99 67 100 73 101 66 102 68 103 69 104
REMARK SMILES IDX 70 105 71 106
REMARK H PARENT 18 33 93 59 61 70
REMARK Flexibility Score: inf
ROOT
ATOM      1  O   UNL A   1      42.583  20.115  25.205  1.00  0.00    -0.377 OA
ENDROOT
BRANCH   1   2
ATOM      2  C   UNL A   1      41.776  19.906  26.340  1.00  0.00     0.188 C 
BRANCH   2   3
ATOM      3  C   UNL A   1      40.287  19.595  26.137  1.00  0.00     0.188 C 
BRANCH   3   4
ATOM      4  O   UNL A   1      39.417  20.647  25.719  1.00  0.00    -0.376 OA
BRANCH   4   5
ATOM      5  C   UNL A   1      39.460  21.898  26.403  1.00  0.00     0.202 C 
BRANCH   5   6
ATOM      6  C   UNL A   1      38.234  22.757  26.215  1.00  0.00     0.261 C 
BRANCH   6   7
ATOM      7  O   UNL A   1      37.342  21.962  25.432  1.00  0.00    -0.460 OA
BRANCH   7   8
ATOM      8  C   UNL A   1      36.492  22.718  24.746  1.00  0.00     0.342 C 
ATOM      9  O   UNL A   1      36.772  23.644  23.994  1.00  0.00    -0.246 OA
BRANCH   8  10
ATOM     10  C   UNL A   1      35.158  22.111  24.869  1.00  0.00     0.103 A 
ATOM     11  C   UNL A   1      33.034  22.045  23.785  1.00  0.00     0.064 A 
ATOM     12  C   UNL A   1      32.461  21.392  24.877  1.00  0.00     0.032 A 
ATOM     13  C   UNL A   1      34.399  22.248  23.722  1.00  0.00     0.048 A 
ATOM     14  C   UNL A   1      33.241  21.139  26.005  1.00  0.00     0.049 A 
ATOM     15  C   UNL A   1      34.565  21.583  26.027  1.00  0.00     0.130 A 
BRANCH  11  16
ATOM     16  N   UNL A   1      32.301  22.569  22.743  1.00  0.00    -0.256 NA
ATOM     17  C   UNL A   1      32.318  23.846  22.484  1.00  0.00     0.121 C 
BRANCH  17  18
ATOM     18  C   UNL A   1      32.777  25.060  23.188  1.00  0.00     0.014 A 
ATOM     19  N   UNL A   1      33.175  26.913  24.456  1.00  0.00    -0.318 N 
ATOM     20  C   UNL A   1      33.528  27.227  23.166  1.00  0.00     0.021 A 
ATOM     21  C   UNL A   1      32.767  25.580  24.491  1.00  0.00     0.029 A 
ATOM     22  C   UNL A   1      33.998  28.566  22.749  1.00  0.00     0.065 C 
ATOM     23  C   UNL A   1      33.381  26.092  22.404  1.00  0.00     0.033 A 
ATOM     24  C   UNL A   1      32.347  25.028  25.796  1.00  0.00     0.065 C 
BRANCH  19  25
ATOM     25  C   UNL A   1      32.999  27.837  25.527  1.00  0.00     0.046 A 
ATOM     26  C   UNL A   1      35.264  29.631  27.999  1.00  0.00     0.044 C 
ATOM     27  C   UNL A   1      34.068  29.253  27.178  1.00  0.00    -0.049 A 
ATOM     28  C   UNL A   1      32.897  30.021  27.253  1.00  0.00     0.003 A 
ATOM     29  C   UNL A   1      34.114  28.155  26.311  1.00  0.00     0.030 A 
ATOM     30  C   UNL A   1      31.778  29.687  26.488  1.00  0.00     0.002 A 
ATOM     31  C   UNL A   1      31.819  28.585  25.632  1.00  0.00     0.026 A 
ENDBRANCH  19  25
ENDBRANCH  17  18
ENDBRANCH  11  16
BRANCH  15  32
ATOM     32  O   UNL A   1      35.177  21.538  27.244  1.00  0.00    -0.507 OA
ATOM     33  H   UNL A   1      36.109  21.612  27.302  1.00  0.00     0.293 HD
ENDBRANCH  15  32
ENDBRANCH   8  10
ENDBRANCH   7   8
ENDBRANCH   6   7
ENDBRANCH   5   6
ENDBRANCH   4   5
ENDBRANCH   3   4
ENDBRANCH   2   3
ENDBRANCH   1   2
BRANCH   1  34
ATOM     34  C   UNL A   1      43.955  19.819  25.360  1.00  0.00     0.188 C 
BRANCH  34  35
ATOM     35  C   UNL A   1      44.783  21.082  25.138  1.00  0.00     0.188 C 
BRANCH  35  36
ATOM     36  O   UNL A   1      44.629  22.087  26.130  1.00  0.00    -0.376 OA
BRANCH  36  37
ATOM     37  C   UNL A   1      44.174  23.366  25.678  1.00  0.00     0.202 C 
BRANCH  37  38
ATOM     38  C   UNL A   1      42.644  23.705  25.623  1.00  0.00     0.261 C 
BRANCH  38  39
ATOM     39  O   UNL A   1      42.045  23.773  26.955  1.00  0.00    -0.460 OA
BRANCH  39  40
ATOM     40  C   UNL A   1      42.526  24.648  27.896  1.00  0.00     0.338 C 
ATOM     41  O   UNL A   1      43.538  24.440  28.546  1.00  0.00    -0.246 OA
BRANCH  40  42
ATOM     42  C   UNL A   1      41.705  25.922  27.979  1.00  0.00     0.060 A 
ATOM     43  C   UNL A   1      42.293  27.172  27.792  1.00  0.00     0.016 A 
ATOM     44  C   UNL A   1      40.377  25.928  28.380  1.00  0.00     0.016 A 
ATOM     45  C   UNL A   1      41.735  28.332  28.372  1.00  0.00     0.010 A 
ATOM     46  C   UNL A   1      39.848  27.049  29.027  1.00  0.00     0.010 A 
ATOM     47  C   UNL A   1      40.584  28.235  29.143  1.00  0.00    -0.014 A 
BRANCH  47  48
ATOM     48  C   UNL A   1      40.194  29.202  30.200  1.00  0.00     0.031 A 
ATOM     49  C   UNL A   1      39.401  30.449  29.868  1.00  0.00     0.074 A 
ATOM     50  C   UNL A   1      40.196  28.771  31.496  1.00  0.00     0.049 A 
ATOM     51  N   UNL A   1      38.959  31.300  30.738  1.00  0.00    -0.248 NA
ATOM     52  C   UNL A   1      39.004  30.830  28.516  1.00  0.00     0.031 C 
ATOM     53  C   UNL A   1      39.359  29.329  32.547  1.00  0.00     0.029 A 
ATOM     54  N   UNL A   1      40.877  27.750  32.182  1.00  0.00    -0.354 N 
ATOM     55  C   UNL A   1      37.969  32.069  30.162  1.00  0.00     0.074 A 
ATOM     56  C   UNL A   1      38.134  31.823  28.751  1.00  0.00     0.031 C 
ATOM     57  C   UNL A   1      39.529  28.698  33.706  1.00  0.00     0.029 A 
ATOM     58  C   UNL A   1      40.756  27.972  33.570  1.00  0.00     0.049 A 
ATOM     59  H   UNL A   1      41.360  27.003  31.763  1.00  0.00     0.167 HD
ATOM     60  C   UNL A   1      37.059  32.717  30.960  1.00  0.00     0.034 A 
ATOM     61  C   UNL A   1      41.765  28.209  34.460  1.00  0.00     0.034 A 
ATOM     62  C   UNL A   1      37.422  32.627  32.406  1.00  0.00     0.049 A 
ATOM     63  C   UNL A   1      41.747  29.643  34.996  1.00  0.00     0.074 A 
ATOM     64  C   UNL A   1      36.779  32.177  33.551  1.00  0.00     0.029 A 
ATOM     65  N   UNL A   1      38.728  32.930  32.815  1.00  0.00    -0.354 N 
ATOM     66  N   UNL A   1      40.946  30.552  34.493  1.00  0.00    -0.248 NA
ATOM     67  C   UNL A   1      42.512  30.204  36.106  1.00  0.00     0.031 C 
ATOM     68  C   UNL A   1      37.747  32.062  34.595  1.00  0.00     0.029 A 
ATOM     69  C   UNL A   1      38.967  32.525  34.122  1.00  0.00     0.049 A 
ATOM     70  H   UNL A   1      39.394  33.377  32.245  1.00  0.00     0.167 HD
ATOM     71  C   UNL A   1      41.022  31.732  35.151  1.00  0.00     0.074 A 
ATOM     72  C   UNL A   1      42.057  31.479  36.142  1.00  0.00     0.031 C 
ATOM     73  C   UNL A   1      40.246  32.803  34.792  1.00  0.00     0.034 A 
BRANCH  60  74
ATOM     74  C   UNL A   1      35.725  33.351  30.496  1.00  0.00     0.023 A 
ATOM     75  C   UNL A   1      35.180  32.912  29.262  1.00  0.00     0.012 A 
ATOM     76  C   UNL A   1      34.983  34.380  31.138  1.00  0.00     0.148 A 
ATOM     77  C   UNL A   1      33.999  33.439  28.710  1.00  0.00     0.002 A 
ATOM     78  C   UNL A   1      33.761  34.853  30.626  1.00  0.00     0.091 A 
ATOM     79  F   UNL A   1      35.477  34.983  32.219  1.00  0.00    -0.205 F 
ATOM     80  C   UNL A   1      33.275  34.394  29.401  1.00  0.00     0.022 A 
BRANCH  78  81
ATOM     81  S   UNL A   1      32.723  36.051  31.498  1.00  0.00     0.127 S 
ATOM     82  O   UNL A   1      31.773  36.456  30.460  1.00  0.00    -0.237 OA
ATOM     83  O   UNL A   1      32.141  35.238  32.567  1.00  0.00    -0.237 OA
ATOM     84  O   UNL A   1      33.614  37.109  31.957  1.00  0.00    -0.744 OA
ENDBRANCH  78  81
ENDBRANCH  60  74
BRANCH  61  85
ATOM     85  C   UNL A   1      42.770  27.122  34.479  1.00  0.00     0.023 A 
ATOM     86  C   UNL A   1      43.887  27.351  33.629  1.00  0.00     0.012 A 
ATOM     87  C   UNL A   1      42.963  26.423  35.676  1.00  0.00     0.148 A 
ATOM     88  C   UNL A   1      45.188  27.083  34.061  1.00  0.00     0.002 A 
ATOM     89  C   UNL A   1      44.265  26.234  36.131  1.00  0.00     0.091 A 
ATOM     90  F   UNL A   1      41.891  26.166  36.438  1.00  0.00    -0.205 F 
ATOM     91  C   UNL A   1      45.376  26.572  35.334  1.00  0.00     0.022 A 
BRANCH  89  92
ATOM     92  S   UNL A   1      44.617  26.042  37.880  1.00  0.00     0.127 S 
ATOM     93  O   UNL A   1      43.787  27.071  38.493  1.00  0.00    -0.237 OA
ATOM     94  O   UNL A   1      44.156  24.672  38.082  1.00  0.00    -0.237 OA
ATOM     95  O   UNL A   1      46.056  26.225  38.006  1.00  0.00    -0.744 OA
ENDBRANCH  89  92
ENDBRANCH  61  85
BRANCH  73  96
ATOM     96  C   UNL A   1      40.628  34.248  35.038  1.00  0.00     0.023 A 
ATOM     97  C   UNL A   1      40.197  34.930  36.191  1.00  0.00     0.012 A 
ATOM     98  C   UNL A   1      41.636  34.876  34.259  1.00  0.00     0.148 A 
ATOM     99  C   UNL A   1      40.724  36.173  36.550  1.00  0.00     0.002 A 
ATOM    100  C   UNL A   1      42.241  36.051  34.687  1.00  0.00     0.091 A 
ATOM    101  F   UNL A   1      42.016  34.340  33.091  1.00  0.00    -0.205 F 
ATOM    102  C   UNL A   1      41.770  36.718  35.819  1.00  0.00     0.022 A 
BRANCH 100 103
ATOM    103  S   UNL A   1      43.760  36.644  33.926  1.00  0.00     0.127 S 
ATOM    104  O   UNL A   1      43.389  36.694  32.514  1.00  0.00    -0.237 OA
ATOM    105  O   UNL A   1      43.935  37.953  34.560  1.00  0.00    -0.237 OA
ATOM    106  O   UNL A   1      44.777  35.666  34.290  1.00  0.00    -0.744 OA
ENDBRANCH 100 103
ENDBRANCH  73  96
ENDBRANCH  47  48
ENDBRANCH  40  42
ENDBRANCH  39  40
ENDBRANCH  38  39
ENDBRANCH  37  38
ENDBRANCH  36  37
ENDBRANCH  35  36
ENDBRANCH  34  35
ENDBRANCH   1  34
TORSDOF 27
ENDMDL
MODEL 2
REMARK VINA RESULT:      -9.5      2.164      2.726
REMARK SMILES Cc1cccc(-n2c(C)cc(/C=N\c3ccc(O)c(C(=O)OCCOCCOCCOCCOC(=O)c4ccc(-c5c6nc(c(-c7cccc(S(=O)(=O)[O-])c7F)c7ccc([nH]7)c(-c7cccc(S(=O)(=O)[O-])c7F)c7nc(c(-c8cccc(S(=O)(=O)[O-])c8F)c8ccc5[nH]8)C=C7)C=C6)cc4)c3)c2C)c1
REMARK SMILES IDX 28 1 27 2 26 3 25 4 24 5 23 6 22 7 20 8 21 9 19 10 14 11
REMARK SMILES IDX 15 12 100 13 16 14 17 15 13 16 12 17 11 18 7 19 8 20 101 21
REMARK SMILES IDX 9 22 10 23 102 24 6 25 1 26 2 27 3 28 103 29 4 30 5 31 18 32
REMARK SMILES IDX 29 34 30 35 31 36 32 37 33 38 34 39 35 40 36 41 37 42 38 43
REMARK SMILES IDX 99 44 39 45 98 46 40 47 41 48 42 49 92 50 43 51 97 52 91 53
REMARK SMILES IDX 93 54 44 55 96 56 90 57 89 58 45 60 77 61 57 62 76 63 58 64
REMARK SMILES IDX 61 65 75 66 94 67 59 68 60 69 74 71 95 72 62 73 46 74 47 75
REMARK SMILES IDX 55 76 48 77 50 78 56 79 49 80 51 81 52 82 53 83 54 84 78 85
REMARK SMILES IDX 79 86 87 87 80 88 82 89 88 90 81 91 83 92 84 93 85 94 86 95
REMARK SMILES IDX 63 96 64 97 72 98 65 99 67 100 73 101 66 102 68 103 69 104
REMARK SMILES IDX 70 105 71 106
REMARK H PARENT 18 33 93 59 61 70
REMARK Flexibility Score: inf
ROOT
ATOM      1  O   UNL A   1      42.658  20.056  25.155  1.00  0.00    -0.377 OA
ENDROOT
BRANCH   1   2
ATOM      2  C   UNL A   1      41.924  19.938  26.352  1.00  0.00     0.188 C 
BRANCH   2   3
ATOM      3  C   UNL A   1      40.414  19.672  26.266  1.00  0.00     0.188 C 
BRANCH   3   4
ATOM      4  O   UNL A   1      39.554  20.734  25.853  1.00  0.00    -0.376 OA
BRANCH   4   5
ATOM      5  C   UNL A   1      39.648  22.000  26.504  1.00  0.00     0.202 C 
BRANCH   5   6
ATOM      6  C   UNL A   1      38.431  22.876  26.350  1.00  0.00     0.261 C 
BRANCH   6   7
ATOM      7  O   UNL A   1      37.460  22.050  25.705  1.00  0.00    -0.460 OA
BRANCH   7   8
ATOM      8  C   UNL A   1      36.653  22.764  24.928  1.00  0.00     0.342 C 
ATOM      9  O   UNL A   1      36.975  23.668  24.166  1.00  0.00    -0.246 OA
BRANCH   8  10
ATOM     10  C   UNL A   1      35.324  22.136  24.970  1.00  0.00     0.103 A 
ATOM     11  C   UNL A   1      33.268  22.041  23.764  1.00  0.00     0.064 A 
ATOM     12  C   UNL A   1      32.643  21.375  24.818  1.00  0.00     0.032 A 
ATOM     13  C   UNL A   1      34.631  22.266  23.781  1.00  0.00     0.048 A 
ATOM     14  C   UNL A   1      33.359  21.129  25.989  1.00  0.00     0.049 A 
ATOM     15  C   UNL A   1      34.673  21.593  26.090  1.00  0.00     0.130 A 
BRANCH  11  16
ATOM     16  N   UNL A   1      32.589  22.558  22.682  1.00  0.00    -0.256 NA
ATOM     17  C   UNL A   1      32.612  23.835  22.422  1.00  0.00     0.121 C 
BRANCH  17  18
ATOM     18  C   UNL A   1      33.024  25.053  23.147  1.00  0.00     0.014 A 
ATOM     19  N   UNL A   1      33.357  26.891  24.455  1.00  0.00    -0.318 N 
ATOM     20  C   UNL A   1      33.655  27.258  23.165  1.00  0.00     0.021 A 
ATOM     21  C   UNL A   1      33.023  25.537  24.464  1.00  0.00     0.029 A 
ATOM     22  C   UNL A   1      34.039  28.632  22.773  1.00  0.00     0.065 C 
ATOM     23  C   UNL A   1      33.548  26.138  22.377  1.00  0.00     0.033 A 
ATOM     24  C   UNL A   1      32.672  24.929  25.764  1.00  0.00     0.065 C 
BRANCH  19  25
ATOM     25  C   UNL A   1      33.162  27.775  25.556  1.00  0.00     0.046 A 
ATOM     26  C   UNL A   1      35.396  29.620  28.019  1.00  0.00     0.044 C 
ATOM     27  C   UNL A   1      34.200  29.201  27.219  1.00  0.00    -0.049 A 
ATOM     28  C   UNL A   1      32.993  29.903  27.346  1.00  0.00     0.003 A 
ATOM     29  C   UNL A   1      34.280  28.131  26.320  1.00  0.00     0.030 A 
ATOM     30  C   UNL A   1      31.872  29.532  26.601  1.00  0.00     0.002 A 
ATOM     31  C   UNL A   1      31.948  28.457  25.713  1.00  0.00     0.026 A 
ENDBRANCH  19  25
ENDBRANCH  17  18
ENDBRANCH  11  16
BRANCH  15  32
ATOM     32  O   UNL A   1      35.213  21.552  27.341  1.00  0.00    -0.507 OA
ATOM     33  H   UNL A   1      36.126  21.724  27.461  1.00  0.00     0.293 HD
ENDBRANCH  15  32
ENDBRANCH   8  10
ENDBRANCH   7   8
ENDBRANCH   6   7
ENDBRANCH   5   6
ENDBRANCH   4   5
ENDBRANCH   3   4
ENDBRANCH   2   3
ENDBRANCH   1   2
BRANCH   1  34
ATOM     34  C   UNL A   1      43.994  19.604  25.204  1.00  0.00     0.188 C 
BRANCH  34  35
ATOM     35  C   UNL A   1      44.936  20.731  24.786  1.00  0.00     0.188 C 
BRANCH  35  36
ATOM     36  O   UNL A   1      45.141  21.739  25.765  1.00  0.00    -0.376 OA
BRANCH  36  37
ATOM     37  C   UNL A   1      44.904  23.089  25.350  1.00  0.00     0.202 C 
BRANCH  37  38
ATOM     38  C   UNL A   1      43.488  23.743  25.505  1.00  0.00     0.261 C 
BRANCH  38  39
ATOM     39  O   UNL A   1      43.120  23.939  26.906  1.00  0.00    -0.460 OA
BRANCH  39  40
ATOM     40  C   UNL A   1      43.935  24.646  27.753  1.00  0.00     0.338 C 
ATOM     41  O   UNL A   1      45.035  24.252  28.104  1.00  0.00    -0.246 OA
BRANCH  40  42
ATOM     42  C   UNL A   1      43.348  25.993  28.136  1.00  0.00     0.060 A 
ATOM     43  C   UNL A   1      44.161  27.112  28.304  1.00  0.00     0.016 A 
ATOM     44  C   UNL A   1      42.013  26.153  28.477  1.00  0.00     0.016 A 
ATOM     45  C   UNL A   1      43.770  28.175  29.147  1.00  0.00     0.010 A 
ATOM     46  C   UNL A   1      41.638  27.158  29.375  1.00  0.00     0.010 A 
ATOM     47  C   UNL A   1      42.559  28.112  29.824  1.00  0.00    -0.014 A 
BRANCH  47  48
ATOM     48  C   UNL A   1      42.259  28.840  31.082  1.00  0.00     0.031 A 
ATOM     49  C   UNL A   1      41.545  30.176  31.063  1.00  0.00     0.074 A 
ATOM     50  C   UNL A   1      42.258  28.130  32.250  1.00  0.00     0.049 A 
ATOM     51  N   UNL A   1      41.180  30.837  32.116  1.00  0.00    -0.248 NA
ATOM     52  C   UNL A   1      41.147  30.874  29.844  1.00  0.00     0.031 C 
ATOM     53  C   UNL A   1      41.483  28.490  33.427  1.00  0.00     0.029 A 
ATOM     54  N   UNL A   1      42.882  26.943  32.668  1.00  0.00    -0.354 N 
ATOM     55  C   UNL A   1      40.233  31.775  31.760  1.00  0.00     0.074 A 
ATOM     56  C   UNL A   1      40.351  31.841  30.325  1.00  0.00     0.031 C 
ATOM     57  C   UNL A   1      41.634  27.607  34.411  1.00  0.00     0.029 A 
ATOM     58  C   UNL A   1      42.805  26.856  34.073  1.00  0.00     0.049 A 
ATOM     59  H   UNL A   1      43.304  26.279  32.075  1.00  0.00     0.167 HD
ATOM     60  C   UNL A   1      39.387  32.283  32.714  1.00  0.00     0.034 A 
ATOM     61  C   UNL A   1      43.847  26.825  34.957  1.00  0.00     0.034 A 
ATOM     62  C   UNL A   1      39.773  31.850  34.089  1.00  0.00     0.049 A 
ATOM     63  C   UNL A   1      43.938  28.101  35.799  1.00  0.00     0.074 A 
ATOM     64  C   UNL A   1      39.125  31.196  35.128  1.00  0.00     0.029 A 
ATOM     65  N   UNL A   1      41.104  31.973  34.510  1.00  0.00    -0.354 N 
ATOM     66  N   UNL A   1      43.190  29.147  35.538  1.00  0.00    -0.248 NA
ATOM     67  C   UNL A   1      44.762  28.351  36.977  1.00  0.00     0.031 C 
ATOM     68  C   UNL A   1      40.104  30.790  36.086  1.00  0.00     0.029 A 
ATOM     69  C   UNL A   1      41.342  31.271  35.684  1.00  0.00     0.049 A 
ATOM     70  H   UNL A   1      41.788  32.493  34.029  1.00  0.00     0.167 HD
ATOM     71  C   UNL A   1      43.360  30.143  36.438  1.00  0.00     0.074 A 
ATOM     72  C   UNL A   1      44.396  29.611  37.311  1.00  0.00     0.031 C 
ATOM     73  C   UNL A   1      42.651  31.313  36.354  1.00  0.00     0.034 A 
BRANCH  60  74
ATOM     74  C   UNL A   1      38.090  33.086  32.449  1.00  0.00     0.023 A 
ATOM     75  C   UNL A   1      37.734  34.092  33.384  1.00  0.00     0.012 A 
ATOM     76  C   UNL A   1      37.157  32.907  31.391  1.00  0.00     0.148 A 
ATOM     77  C   UNL A   1      36.561  34.860  33.282  1.00  0.00     0.002 A 
ATOM     78  C   UNL A   1      36.025  33.727  31.243  1.00  0.00     0.091 A 
ATOM     79  F   UNL A   1      37.301  31.889  30.542  1.00  0.00    -0.205 F 
ATOM     80  C   UNL A   1      35.715  34.695  32.199  1.00  0.00     0.022 A 
BRANCH  78  81
ATOM     81  S   UNL A   1      34.906  33.620  29.826  1.00  0.00     0.127 S 
ATOM     82  O   UNL A   1      35.836  33.521  28.700  1.00  0.00    -0.237 OA
ATOM     83  O   UNL A   1      34.164  32.390  30.107  1.00  0.00    -0.237 OA
ATOM     84  O   UNL A   1      34.099  34.834  29.847  1.00  0.00    -0.744 OA
ENDBRANCH  78  81
ENDBRANCH  60  74
BRANCH  61  85
ATOM     85  C   UNL A   1      44.776  25.700  34.698  1.00  0.00     0.023 A 
ATOM     86  C   UNL A   1      45.928  26.063  33.949  1.00  0.00     0.012 A 
ATOM     87  C   UNL A   1      44.887  24.701  35.672  1.00  0.00     0.148 A 
ATOM     88  C   UNL A   1      47.195  25.598  34.307  1.00  0.00     0.002 A 
ATOM     89  C   UNL A   1      46.161  24.306  36.073  1.00  0.00     0.091 A 
ATOM     90  F   UNL A   1      43.780  24.332  36.329  1.00  0.00    -0.205 F 
ATOM     91  C   UNL A   1      47.313  24.760  35.403  1.00  0.00     0.022 A 
BRANCH  89  92
ATOM     92  S   UNL A   1      46.451  23.639  37.713  1.00  0.00     0.127 S 
ATOM     93  O   UNL A   1      45.893  24.665  38.584  1.00  0.00    -0.237 OA
ATOM     94  O   UNL A   1      45.670  22.408  37.627  1.00  0.00    -0.237 OA
ATOM     95  O   UNL A   1      47.891  23.442  37.800  1.00  0.00    -0.744 OA
ENDBRANCH  89  92
ENDBRANCH  61  85
BRANCH  73  96
ATOM     96  C   UNL A   1      43.136  32.640  36.900  1.00  0.00     0.023 A 
ATOM     97  C   UNL A   1      44.148  33.370  36.250  1.00  0.00     0.012 A 
ATOM     98  C   UNL A   1      42.415  33.311  37.924  1.00  0.00     0.148 A 
ATOM     99  C   UNL A   1      44.443  34.690  36.600  1.00  0.00     0.002 A 
ATOM    100  C   UNL A   1      42.631  34.660  38.182  1.00  0.00     0.091 A 
ATOM    101  F   UNL A   1      41.515  32.647  38.661  1.00  0.00    -0.205 F 
ATOM    102  C   UNL A   1      43.662  35.347  37.541  1.00  0.00     0.022 A 
BRANCH 100 103
ATOM    103  S   UNL A   1      41.480  35.607  39.190  1.00  0.00     0.127 S 
ATOM    104  O   UNL A   1      41.724  35.059  40.521  1.00  0.00    -0.237 OA
ATOM    105  O   UNL A   1      41.955  36.979  38.996  1.00  0.00    -0.237 OA
ATOM    106  O   UNL A   1      40.166  35.346  38.616  1.00  0.00    -0.744 OA
ENDBRANCH 100 103
ENDBRANCH  73  96
ENDBRANCH  47  48
ENDBRANCH  40  42
ENDBRANCH  39  40
ENDBRANCH  38  39
ENDBRANCH  37  38
ENDBRANCH  36  37
ENDBRANCH  35  36
ENDBRANCH  34  35
ENDBRANCH   1  34
TORSDOF 27
ENDMDL
MODEL 3
REMARK VINA RESULT:      -9.2      2.968      4.051
REMARK SMILES Cc1cccc(-n2c(C)cc(/C=N\c3ccc(O)c(C(=O)OCCOCCOCCOCCOC(=O)c4ccc(-c5c6nc(c(-c7cccc(S(=O)(=O)[O-])c7F)c7ccc([nH]7)c(-c7cccc(S(=O)(=O)[O-])c7F)c7nc(c(-c8cccc(S(=O)(=O)[O-])c8F)c8ccc5[nH]8)C=C7)C=C6)cc4)c3)c2C)c1
REMARK SMILES IDX 28 1 27 2 26 3 25 4 24 5 23 6 22 7 20 8 21 9 19 10 14 11
REMARK SMILES IDX 15 12 100 13 16 14 17 15 13 16 12 17 11 18 7 19 8 20 101 21
REMARK SMILES IDX 9 22 10 23 102 24 6 25 1 26 2 27 3 28 103 29 4 30 5 31 18 32
REMARK SMILES IDX 29 34 30 35 31 36 32 37 33 38 34 39 35 40 36 41 37 42 38 43
REMARK SMILES IDX 99 44 39 45 98 46 40 47 41 48 42 49 92 50 43 51 97 52 91 53
REMARK SMILES IDX 93 54 44 55 96 56 90 57 89 58 45 60 77 61 57 62 76 63 58 64
REMARK SMILES IDX 61 65 75 66 94 67 59 68 60 69 74 71 95 72 62 73 46 74 47 75
REMARK SMILES IDX 55 76 48 77 50 78 56 79 49 80 51 81 52 82 53 83 54 84 78 85
REMARK SMILES IDX 79 86 87 87 80 88 82 89 88 90 81 91 83 92 84 93 85 94 86 95
REMARK SMILES IDX 63 96 64 97 72 98 65 99 67 100 73 101 66 102 68 103 69 104
REMARK SMILES IDX 70 105 71 106
REMARK H PARENT 18 33 93 59 61 70
REMARK Flexibility Score: inf
ROOT
ATOM      1  O   UNL A   1      42.575  20.981  25.380  1.00  0.00    -0.377 OA
ENDROOT
BRANCH   1   2
ATOM      2  C   UNL A   1      42.073  21.508  26.586  1.00  0.00     0.188 C 
BRANCH   2   3
ATOM      3  C   UNL A   1      40.659  21.107  27.032  1.00  0.00     0.188 C 
BRANCH   3   4
ATOM      4  O   UNL A   1      39.546  21.836  26.514  1.00  0.00    -0.376 OA
BRANCH   4   5
ATOM      5  C   UNL A   1      39.426  23.227  26.807  1.00  0.00     0.202 C 
BRANCH   5   6
ATOM      6  C   UNL A   1      38.072  23.817  26.505  1.00  0.00     0.261 C 
BRANCH   6   7
ATOM      7  O   UNL A   1      37.268  22.709  26.095  1.00  0.00    -0.460 OA
BRANCH   7   8
ATOM      8  C   UNL A   1      36.607  22.977  24.975  1.00  0.00     0.342 C 
ATOM      9  O   UNL A   1      37.050  23.518  23.969  1.00  0.00    -0.246 OA
BRANCH   8  10
ATOM     10  C   UNL A   1      35.299  22.310  25.061  1.00  0.00     0.103 A 
ATOM     11  C   UNL A   1      33.319  21.918  23.790  1.00  0.00     0.064 A 
ATOM     12  C   UNL A   1      32.657  21.421  24.912  1.00  0.00     0.032 A 
ATOM     13  C   UNL A   1      34.670  22.200  23.835  1.00  0.00     0.048 A 
ATOM     14  C   UNL A   1      33.313  21.415  26.143  1.00  0.00     0.049 A 
ATOM     15  C   UNL A   1      34.603  21.945  26.226  1.00  0.00     0.130 A 
BRANCH  11  16
ATOM     16  N   UNL A   1      32.685  22.208  22.601  1.00  0.00    -0.256 NA
ATOM     17  C   UNL A   1      32.190  23.392  22.374  1.00  0.00     0.121 C 
BRANCH  17  18
ATOM     18  C   UNL A   1      31.889  24.584  23.191  1.00  0.00     0.014 A 
ATOM     19  N   UNL A   1      31.779  26.447  24.502  1.00  0.00    -0.318 N 
ATOM     20  C   UNL A   1      30.787  25.597  24.929  1.00  0.00     0.021 A 
ATOM     21  C   UNL A   1      32.421  25.863  23.410  1.00  0.00     0.029 A 
ATOM     22  C   UNL A   1      29.905  25.882  26.081  1.00  0.00     0.065 C 
ATOM     23  C   UNL A   1      30.779  24.509  24.090  1.00  0.00     0.033 A 
ATOM     24  C   UNL A   1      33.526  26.619  22.785  1.00  0.00     0.065 C 
BRANCH  19  25
ATOM     25  C   UNL A   1      32.254  27.597  25.196  1.00  0.00     0.046 A 
ATOM     26  C   UNL A   1      31.032  31.152  25.771  1.00  0.00     0.044 C 
ATOM     27  C   UNL A   1      31.798  29.871  25.902  1.00  0.00    -0.049 A 
ATOM     28  C   UNL A   1      32.753  29.728  26.919  1.00  0.00     0.003 A 
ATOM     29  C   UNL A   1      31.553  28.798  25.036  1.00  0.00     0.030 A 
ATOM     30  C   UNL A   1      33.469  28.538  27.061  1.00  0.00     0.002 A 
ATOM     31  C   UNL A   1      33.233  27.472  26.191  1.00  0.00     0.026 A 
ENDBRANCH  19  25
ENDBRANCH  17  18
ENDBRANCH  11  16
BRANCH  15  32
ATOM     32  O   UNL A   1      35.072  22.147  27.489  1.00  0.00    -0.507 OA
ATOM     33  H   UNL A   1      34.620  21.777  28.221  1.00  0.00     0.293 HD
ENDBRANCH  15  32
ENDBRANCH   8  10
ENDBRANCH   7   8
ENDBRANCH   6   7
ENDBRANCH   5   6
ENDBRANCH   4   5
ENDBRANCH   3   4
ENDBRANCH   2   3
ENDBRANCH   1   2
BRANCH   1  34
ATOM     34  C   UNL A   1      43.398  19.840  25.501  1.00  0.00     0.188 C 
BRANCH  34  35
ATOM     35  C   UNL A   1      44.672  20.035  24.682  1.00  0.00     0.188 C 
BRANCH  35  36
ATOM     36  O   UNL A   1      45.765  20.601  25.391  1.00  0.00    -0.376 OA
BRANCH  36  37
ATOM     37  C   UNL A   1      45.953  22.013  25.253  1.00  0.00     0.202 C 
BRANCH  37  38
ATOM     38  C   UNL A   1      45.526  22.999  26.394  1.00  0.00     0.261 C 
BRANCH  38  39
ATOM     39  O   UNL A   1      46.654  23.778  26.903  1.00  0.00    -0.460 OA
BRANCH  39  40
ATOM     40  C   UNL A   1      47.132  24.858  26.205  1.00  0.00     0.338 C 
ATOM     41  O   UNL A   1      47.905  24.757  25.266  1.00  0.00    -0.246 OA
BRANCH  40  42
ATOM     42  C   UNL A   1      46.536  26.170  26.683  1.00  0.00     0.060 A 
ATOM     43  C   UNL A   1      47.278  27.059  27.458  1.00  0.00     0.016 A 
ATOM     44  C   UNL A   1      45.198  26.489  26.505  1.00  0.00     0.016 A 
ATOM     45  C   UNL A   1      46.644  27.961  28.339  1.00  0.00     0.010 A 
ATOM     46  C   UNL A   1      44.549  27.320  27.424  1.00  0.00     0.010 A 
ATOM     47  C   UNL A   1      45.259  27.969  28.442  1.00  0.00    -0.014 A 
BRANCH  47  48
ATOM     48  C   UNL A   1      44.506  28.443  29.631  1.00  0.00     0.031 A 
ATOM     49  C   UNL A   1      43.725  29.740  29.598  1.00  0.00     0.074 A 
ATOM     50  C   UNL A   1      44.188  27.528  30.595  1.00  0.00     0.049 A 
ATOM     51  N   UNL A   1      42.984  30.184  30.563  1.00  0.00    -0.248 NA
ATOM     52  C   UNL A   1      43.685  30.642  28.451  1.00  0.00     0.031 C 
ATOM     53  C   UNL A   1      43.046  27.642  31.489  1.00  0.00     0.029 A 
ATOM     54  N   UNL A   1      44.743  26.299  30.993  1.00  0.00    -0.354 N 
ATOM     55  C   UNL A   1      42.127  31.147  30.073  1.00  0.00     0.074 A 
ATOM     56  C   UNL A   1      42.697  31.483  28.793  1.00  0.00     0.031 C 
ATOM     57  C   UNL A   1      42.945  26.596  32.304  1.00  0.00     0.029 A 
ATOM     58  C   UNL A   1      44.222  25.950  32.256  1.00  0.00     0.049 A 
ATOM     59  H   UNL A   1      45.389  25.769  30.473  1.00  0.00     0.167 HD
ATOM     60  C   UNL A   1      40.977  31.447  30.760  1.00  0.00     0.034 A 
ATOM     61  C   UNL A   1      44.920  25.782  33.419  1.00  0.00     0.034 A 
ATOM     62  C   UNL A   1      40.932  30.776  32.093  1.00  0.00     0.049 A 
ATOM     63  C   UNL A   1      44.623  26.881  34.443  1.00  0.00     0.074 A 
ATOM     64  C   UNL A   1      40.040  29.923  32.731  1.00  0.00     0.029 A 
ATOM     65  N   UNL A   1      42.040  30.852  32.948  1.00  0.00    -0.354 N 
ATOM     66  N   UNL A   1      43.914  27.938  34.126  1.00  0.00    -0.248 NA
ATOM     67  C   UNL A   1      44.997  26.928  35.853  1.00  0.00     0.031 C 
ATOM     68  C   UNL A   1      40.688  29.372  33.878  1.00  0.00     0.029 A 
ATOM     69  C   UNL A   1      41.944  29.950  34.000  1.00  0.00     0.049 A 
ATOM     70  H   UNL A   1      42.794  31.470  32.818  1.00  0.00     0.167 HD
ATOM     71  C   UNL A   1      43.696  28.753  35.185  1.00  0.00     0.074 A 
ATOM     72  C   UNL A   1      44.436  28.095  36.252  1.00  0.00     0.031 C 
ATOM     73  C   UNL A   1      42.956  29.900  35.065  1.00  0.00     0.034 A 
BRANCH  60  74
ATOM     74  C   UNL A   1      39.771  32.252  30.216  1.00  0.00     0.023 A 
ATOM     75  C   UNL A   1      39.859  33.668  30.237  1.00  0.00     0.012 A 
ATOM     76  C   UNL A   1      38.534  31.744  29.733  1.00  0.00     0.148 A 
ATOM     77  C   UNL A   1      38.819  34.512  29.812  1.00  0.00     0.002 A 
ATOM     78  C   UNL A   1      37.522  32.585  29.234  1.00  0.00     0.091 A 
ATOM     79  F   UNL A   1      38.273  30.439  29.813  1.00  0.00    -0.205 F 
ATOM     80  C   UNL A   1      37.657  33.972  29.289  1.00  0.00     0.022 A 
BRANCH  78  81
ATOM     81  S   UNL A   1      36.004  31.959  28.476  1.00  0.00     0.127 S 
ATOM     82  O   UNL A   1      35.146  31.725  29.639  1.00  0.00    -0.237 OA
ATOM     83  O   UNL A   1      35.590  33.084  27.636  1.00  0.00    -0.237 OA
ATOM     84  O   UNL A   1      36.377  30.758  27.740  1.00  0.00    -0.744 OA
ENDBRANCH  78  81
ENDBRANCH  60  74
BRANCH  61  85
ATOM     85  C   UNL A   1      45.975  24.749  33.301  1.00  0.00     0.023 A 
ATOM     86  C   UNL A   1      47.299  25.265  33.363  1.00  0.00     0.012 A 
ATOM     87  C   UNL A   1      45.717  23.480  33.832  1.00  0.00     0.148 A 
ATOM     88  C   UNL A   1      48.284  24.630  34.122  1.00  0.00     0.002 A 
ATOM     89  C   UNL A   1      46.680  22.896  34.651  1.00  0.00     0.091 A 
ATOM     90  F   UNL A   1      44.477  22.986  33.715  1.00  0.00    -0.205 F 
ATOM     91  C   UNL A   1      47.955  23.472  34.807  1.00  0.00     0.022 A 
BRANCH  89  92
ATOM     92  S   UNL A   1      46.224  21.709  35.917  1.00  0.00     0.127 S 
ATOM     93  O   UNL A   1      45.267  22.452  36.728  1.00  0.00    -0.237 OA
ATOM     94  O   UNL A   1      45.646  20.660  35.083  1.00  0.00    -0.237 OA
ATOM     95  O   UNL A   1      47.472  21.348  36.574  1.00  0.00    -0.744 OA
ENDBRANCH  89  92
ENDBRANCH  61  85
BRANCH  73  96
ATOM     96  C   UNL A   1      43.122  31.114  35.956  1.00  0.00     0.023 A 
ATOM     97  C   UNL A   1      44.260  31.937  35.862  1.00  0.00     0.012 A 
ATOM     98  C   UNL A   1      42.032  31.608  36.721  1.00  0.00     0.148 A 
ATOM     99  C   UNL A   1      44.324  33.178  36.500  1.00  0.00     0.002 A 
ATOM    100  C   UNL A   1      42.056  32.893  37.250  1.00  0.00     0.091 A 
ATOM    101  F   UNL A   1      40.961  30.835  36.946  1.00  0.00    -0.205 F 
ATOM    102  C   UNL A   1      43.211  33.672  37.165  1.00  0.00     0.022 A 
BRANCH 100 103
ATOM    103  S   UNL A   1      40.558  33.665  37.880  1.00  0.00     0.127 S 
ATOM    104  O   UNL A   1      41.072  34.917  38.427  1.00  0.00    -0.237 OA
ATOM    105  O   UNL A   1      39.751  33.812  36.666  1.00  0.00    -0.237 OA
ATOM    106  O   UNL A   1      40.015  32.716  38.844  1.00  0.00    -0.744 OA
ENDBRANCH 100 103
ENDBRANCH  73  96
ENDBRANCH  47  48
ENDBRANCH  40  42
ENDBRANCH  39  40
ENDBRANCH  38  39
ENDBRANCH  37  38
ENDBRANCH  36  37
ENDBRANCH  35  36
ENDBRANCH  34  35
ENDBRANCH   1  34
TORSDOF 27
ENDMDL
