MODEL 1
REMARK VINA RESULT:      -9.1      0.000      0.000
REMARK SMILES NS(=O)(=O)c1ccc(N2N=C(C(=O)OCCOCCOCCOCCOC(=O)c3ccc(-c4c5nc(c(-c6cccc(S(=O)(=O)[O-])c6F)c6ccc([nH]6)c(-c6cccc(S(=O)(=O)[O-])c6F)c6nc(c(-c7cccc(S(=O)(=O)[O-])c7F)c7ccc4[nH]7)C=C6)C=C5)cc3)C[C@H]2c2cccs2)cc1
REMARK SMILES IDX 20 1 19 2 18 3 17 4 16 5 15 6 14 7 12 8 13 9 11 10 9 11
REMARK SMILES IDX 10 12 93 13 92 14 8 15 5 16 6 17 100 18 7 19 99 20 2 21 3 22
REMARK SMILES IDX 4 23 1 24 94 27 95 28 98 29 96 30 97 31 21 32 22 33 23 34
REMARK SMILES IDX 24 35 25 36 26 37 27 38 28 39 29 40 30 41 91 42 31 43 90 44
REMARK SMILES IDX 32 45 33 46 34 47 84 48 35 49 89 50 83 51 85 52 36 53 88 54
REMARK SMILES IDX 82 55 81 56 37 58 69 59 49 60 68 61 50 62 53 63 67 64 86 65
REMARK SMILES IDX 51 66 52 67 66 69 87 70 54 71 38 72 39 73 47 74 40 75 42 76
REMARK SMILES IDX 48 77 41 78 43 79 44 80 45 81 46 82 70 83 71 84 79 85 72 86
REMARK SMILES IDX 74 87 80 88 73 89 75 90 76 91 77 92 78 93 55 94 56 95 64 96
REMARK SMILES IDX 57 97 59 98 65 99 58 100 60 101 61 102 62 103 63 104
REMARK H PARENT 1 25 1 26 85 57 53 68
REMARK Flexibility Score: inf
ROOT
ATOM      1  O   UNL A   1      32.726  30.213  27.252  1.00  0.00    -0.377 OA
ENDROOT
BRANCH   1   2
ATOM      2  C   UNL A   1      31.841  31.071  26.557  1.00  0.00     0.188 C 
BRANCH   2   3
ATOM      3  C   UNL A   1      31.245  30.455  25.277  1.00  0.00     0.188 C 
BRANCH   3   4
ATOM      4  O   UNL A   1      31.292  29.056  25.030  1.00  0.00    -0.376 OA
BRANCH   4   5
ATOM      5  C   UNL A   1      30.906  28.488  23.785  1.00  0.00     0.202 C 
BRANCH   5   6
ATOM      6  C   UNL A   1      31.879  28.316  22.605  1.00  0.00     0.261 C 
BRANCH   6   7
ATOM      7  O   UNL A   1      33.105  27.664  22.923  1.00  0.00    -0.459 OA
BRANCH   7   8
ATOM      8  C   UNL A   1      33.332  26.502  22.292  1.00  0.00     0.354 C 
ATOM      9  O   UNL A   1      33.471  26.299  21.101  1.00  0.00    -0.245 OA
BRANCH   8  10
ATOM     10  C   UNL A   1      33.544  25.437  23.331  1.00  0.00     0.148 C 
ATOM     11  N   UNL A   1      33.688  23.541  24.245  1.00  0.00    -0.256 N 
ATOM     12  N   UNL A   1      33.589  24.169  23.039  1.00  0.00    -0.169 NA
ATOM     13  C   UNL A   1      33.366  24.444  25.367  1.00  0.00     0.154 C 
ATOM     14  C   UNL A   1      33.800  25.789  24.765  1.00  0.00     0.099 C 
BRANCH  11  15
ATOM     15  C   UNL A   1      33.669  22.157  24.286  1.00  0.00     0.060 A 
ATOM     16  C   UNL A   1      33.615  19.343  24.304  1.00  0.00     0.082 A 
ATOM     17  C   UNL A   1      32.569  20.050  23.709  1.00  0.00     0.024 A 
ATOM     18  C   UNL A   1      34.659  20.024  24.930  1.00  0.00     0.024 A 
ATOM     19  C   UNL A   1      32.602  21.451  23.709  1.00  0.00     0.029 A 
ATOM     20  C   UNL A   1      34.674  21.421  24.923  1.00  0.00     0.029 A 
BRANCH  16  21
ATOM     21  S   UNL A   1      33.634  17.577  24.310  1.00  0.00     0.238 S 
ATOM     22  O   UNL A   1      32.418  17.092  24.919  1.00  0.00    -0.207 OA
ATOM     23  O   UNL A   1      34.944  17.135  24.732  1.00  0.00    -0.207 OA
BRANCH  21  24
ATOM     24  N   UNL A   1      33.504  17.151  22.690  1.00  0.00    -0.225 NA
ATOM     25  H   UNL A   1      34.218  16.459  22.462  1.00  0.00     0.137 HD
ATOM     26  H   UNL A   1      33.637  17.979  22.110  1.00  0.00     0.137 HD
ENDBRANCH  21  24
ENDBRANCH  16  21
ENDBRANCH  11  15
BRANCH  13  27
ATOM     27  C   UNL A   1      31.919  24.454  25.845  1.00  0.00     0.030 A 
ATOM     28  C   UNL A   1      30.994  25.473  25.688  1.00  0.00     0.017 A 
ATOM     29  S   UNL A   1      31.221  23.138  26.711  1.00  0.00    -0.147 S 
ATOM     30  C   UNL A   1      29.729  25.165  26.268  1.00  0.00     0.012 A 
ATOM     31  C   UNL A   1      29.708  23.906  26.821  1.00  0.00     0.065 A 
ENDBRANCH  13  27
ENDBRANCH   8  10
ENDBRANCH   7   8
ENDBRANCH   6   7
ENDBRANCH   5   6
ENDBRANCH   4   5
ENDBRANCH   3   4
ENDBRANCH   2   3
ENDBRANCH   1   2
BRANCH   1  32
ATOM     32  C   UNL A   1      34.090  30.621  27.297  1.00  0.00     0.188 C 
BRANCH  32  33
ATOM     33  C   UNL A   1      34.391  32.005  27.904  1.00  0.00     0.188 C 
BRANCH  33  34
ATOM     34  O   UNL A   1      35.116  31.945  29.133  1.00  0.00    -0.376 OA
BRANCH  34  35
ATOM     35  C   UNL A   1      36.012  33.017  29.408  1.00  0.00     0.202 C 
BRANCH  35  36
ATOM     36  C   UNL A   1      36.022  33.503  30.866  1.00  0.00     0.261 C 
BRANCH  36  37
ATOM     37  O   UNL A   1      37.192  34.241  31.252  1.00  0.00    -0.460 OA
BRANCH  37  38
ATOM     38  C   UNL A   1      38.198  33.540  31.817  1.00  0.00     0.338 C 
ATOM     39  O   UNL A   1      38.095  32.575  32.552  1.00  0.00    -0.246 OA
BRANCH  38  40
ATOM     40  C   UNL A   1      39.472  34.010  31.240  1.00  0.00     0.060 A 
ATOM     41  C   UNL A   1      39.530  34.228  29.858  1.00  0.00     0.016 A 
ATOM     42  C   UNL A   1      40.603  34.196  32.039  1.00  0.00     0.016 A 
ATOM     43  C   UNL A   1      40.742  34.565  29.260  1.00  0.00     0.010 A 
ATOM     44  C   UNL A   1      41.820  34.525  31.437  1.00  0.00     0.010 A 
ATOM     45  C   UNL A   1      41.903  34.659  30.040  1.00  0.00    -0.014 A 
BRANCH  45  46
ATOM     46  C   UNL A   1      43.220  34.700  29.362  1.00  0.00     0.031 A 
ATOM     47  C   UNL A   1      43.778  36.036  28.953  1.00  0.00     0.074 A 
ATOM     48  C   UNL A   1      43.921  33.577  29.136  1.00  0.00     0.049 A 
ATOM     49  N   UNL A   1      44.935  36.319  28.413  1.00  0.00    -0.248 NA
ATOM     50  C   UNL A   1      42.916  37.208  29.178  1.00  0.00     0.031 C 
ATOM     51  C   UNL A   1      43.476  32.223  29.460  1.00  0.00     0.029 A 
ATOM     52  N   UNL A   1      45.154  33.401  28.560  1.00  0.00    -0.354 N 
ATOM     53  C   UNL A   1      44.932  37.695  28.216  1.00  0.00     0.074 A 
ATOM     54  C   UNL A   1      43.652  38.187  28.673  1.00  0.00     0.031 C 
ATOM     55  C   UNL A   1      44.413  31.349  29.051  1.00  0.00     0.029 A 
ATOM     56  C   UNL A   1      45.517  32.082  28.432  1.00  0.00     0.049 A 
ATOM     57  H   UNL A   1      45.723  34.148  28.266  1.00  0.00     0.167 HD
ATOM     58  C   UNL A   1      45.914  38.483  27.720  1.00  0.00     0.034 A 
ATOM     59  C   UNL A   1      46.613  31.531  27.872  1.00  0.00     0.034 A 
ATOM     60  C   UNL A   1      47.193  37.997  27.279  1.00  0.00     0.049 A 
ATOM     61  C   UNL A   1      47.701  32.427  27.340  1.00  0.00     0.074 A 
ATOM     62  C   UNL A   1      48.278  38.722  26.820  1.00  0.00     0.029 A 
ATOM     63  N   UNL A   1      47.553  36.659  27.222  1.00  0.00    -0.354 N 
ATOM     64  N   UNL A   1      47.751  33.738  27.307  1.00  0.00    -0.248 NA
ATOM     65  C   UNL A   1      48.905  31.770  26.809  1.00  0.00     0.031 C 
ATOM     66  C   UNL A   1      49.285  37.819  26.459  1.00  0.00     0.029 A 
ATOM     67  C   UNL A   1      48.837  36.534  26.723  1.00  0.00     0.049 A 
ATOM     68  H   UNL A   1      46.979  35.909  27.497  1.00  0.00     0.167 HD
ATOM     69  C   UNL A   1      48.999  34.062  26.785  1.00  0.00     0.074 A 
ATOM     70  C   UNL A   1      49.683  32.810  26.537  1.00  0.00     0.031 C 
ATOM     71  C   UNL A   1      49.527  35.284  26.523  1.00  0.00     0.034 A 
BRANCH  58  72
ATOM     72  C   UNL A   1      45.645  39.963  27.650  1.00  0.00     0.023 A 
ATOM     73  C   UNL A   1      46.019  40.794  28.726  1.00  0.00     0.012 A 
ATOM     74  C   UNL A   1      45.049  40.535  26.509  1.00  0.00     0.148 A 
ATOM     75  C   UNL A   1      45.770  42.165  28.685  1.00  0.00     0.002 A 
ATOM     76  C   UNL A   1      44.845  41.909  26.457  1.00  0.00     0.091 A 
ATOM     77  F   UNL A   1      44.672  39.726  25.509  1.00  0.00    -0.205 F 
ATOM     78  C   UNL A   1      45.193  42.723  27.546  1.00  0.00     0.022 A 
BRANCH  76  79
ATOM     79  S   UNL A   1      44.178  42.727  25.004  1.00  0.00     0.127 S 
ATOM     80  O   UNL A   1      44.803  41.966  23.924  1.00  0.00    -0.237 OA
ATOM     81  O   UNL A   1      42.739  42.502  25.155  1.00  0.00    -0.237 OA
ATOM     82  O   UNL A   1      44.585  44.120  25.109  1.00  0.00    -0.744 OA
ENDBRANCH  76  79
ENDBRANCH  58  72
BRANCH  59  83
ATOM     83  C   UNL A   1      46.750  30.048  27.830  1.00  0.00     0.023 A 
ATOM     84  C   UNL A   1      47.151  29.346  28.983  1.00  0.00     0.012 A 
ATOM     85  C   UNL A   1      46.447  29.329  26.658  1.00  0.00     0.148 A 
ATOM     86  C   UNL A   1      47.273  27.957  28.961  1.00  0.00     0.002 A 
ATOM     87  C   UNL A   1      46.515  27.942  26.658  1.00  0.00     0.091 A 
ATOM     88  F   UNL A   1      46.084  30.019  25.567  1.00  0.00    -0.205 F 
ATOM     89  C   UNL A   1      46.944  27.254  27.804  1.00  0.00     0.022 A 
BRANCH  87  90
ATOM     90  S   UNL A   1      45.977  26.951  25.260  1.00  0.00     0.127 S 
ATOM     91  O   UNL A   1      45.784  25.642  25.878  1.00  0.00    -0.237 OA
ATOM     92  O   UNL A   1      44.747  27.635  24.863  1.00  0.00    -0.237 OA
ATOM     93  O   UNL A   1      47.053  27.035  24.281  1.00  0.00    -0.744 OA
ENDBRANCH  87  90
ENDBRANCH  59  83
BRANCH  71  94
ATOM     94  C   UNL A   1      50.927  35.338  25.966  1.00  0.00     0.023 A 
ATOM     95  C   UNL A   1      51.127  35.443  24.575  1.00  0.00     0.012 A 
ATOM     96  C   UNL A   1      52.043  35.351  26.827  1.00  0.00     0.148 A 
ATOM     97  C   UNL A   1      52.416  35.520  24.048  1.00  0.00     0.002 A 
ATOM     98  C   UNL A   1      53.322  35.479  26.296  1.00  0.00     0.091 A 
ATOM     99  F   UNL A   1      51.837  35.232  28.146  1.00  0.00    -0.205 F 
ATOM    100  C   UNL A   1      53.512  35.550  24.907  1.00  0.00     0.022 A 
BRANCH  98 101
ATOM    101  S   UNL A   1      54.779  35.623  27.339  1.00  0.00     0.127 S 
ATOM    102  O   UNL A   1      55.840  35.786  26.347  1.00  0.00    -0.237 OA
ATOM    103  O   UNL A   1      54.487  36.825  28.122  1.00  0.00    -0.237 OA
ATOM    104  O   UNL A   1      54.830  34.395  28.121  1.00  0.00    -0.744 OA
ENDBRANCH  98 101
ENDBRANCH  71  94
ENDBRANCH  45  46
ENDBRANCH  38  40
ENDBRANCH  37  38
ENDBRANCH  36  37
ENDBRANCH  35  36
ENDBRANCH  34  35
ENDBRANCH  33  34
ENDBRANCH  32  33
ENDBRANCH   1  32
TORSDOF 27
ENDMDL
MODEL 2
REMARK VINA RESULT:      -8.5      6.474     10.035
REMARK SMILES NS(=O)(=O)c1ccc(N2N=C(C(=O)OCCOCCOCCOCCOC(=O)c3ccc(-c4c5nc(c(-c6cccc(S(=O)(=O)[O-])c6F)c6ccc([nH]6)c(-c6cccc(S(=O)(=O)[O-])c6F)c6nc(c(-c7cccc(S(=O)(=O)[O-])c7F)c7ccc4[nH]7)C=C6)C=C5)cc3)C[C@H]2c2cccs2)cc1
REMARK SMILES IDX 20 1 19 2 18 3 17 4 16 5 15 6 14 7 12 8 13 9 11 10 9 11
REMARK SMILES IDX 10 12 93 13 92 14 8 15 5 16 6 17 100 18 7 19 99 20 2 21 3 22
REMARK SMILES IDX 4 23 1 24 94 27 95 28 98 29 96 30 97 31 21 32 22 33 23 34
REMARK SMILES IDX 24 35 25 36 26 37 27 38 28 39 29 40 30 41 91 42 31 43 90 44
REMARK SMILES IDX 32 45 33 46 34 47 84 48 35 49 89 50 83 51 85 52 36 53 88 54
REMARK SMILES IDX 82 55 81 56 37 58 69 59 49 60 68 61 50 62 53 63 67 64 86 65
REMARK SMILES IDX 51 66 52 67 66 69 87 70 54 71 38 72 39 73 47 74 40 75 42 76
REMARK SMILES IDX 48 77 41 78 43 79 44 80 45 81 46 82 70 83 71 84 79 85 72 86
REMARK SMILES IDX 74 87 80 88 73 89 75 90 76 91 77 92 78 93 55 94 56 95 64 96
REMARK SMILES IDX 57 97 59 98 65 99 58 100 60 101 61 102 62 103 63 104
REMARK H PARENT 1 25 1 26 85 57 53 68
REMARK Flexibility Score: inf
ROOT
ATOM      1  O   UNL A   1      31.695  25.653  26.883  1.00  0.00    -0.377 OA
ENDROOT
BRANCH   1   2
ATOM      2  C   UNL A   1      30.736  24.716  26.431  1.00  0.00     0.188 C 
BRANCH   2   3
ATOM      3  C   UNL A   1      30.987  23.276  26.916  1.00  0.00     0.188 C 
BRANCH   3   4
ATOM      4  O   UNL A   1      32.137  22.937  27.682  1.00  0.00    -0.376 OA
BRANCH   4   5
ATOM      5  C   UNL A   1      33.106  22.001  27.227  1.00  0.00     0.202 C 
BRANCH   5   6
ATOM      6  C   UNL A   1      34.601  22.107  27.574  1.00  0.00     0.261 C 
BRANCH   6   7
ATOM      7  O   UNL A   1      35.226  23.328  27.187  1.00  0.00    -0.459 OA
BRANCH   7   8
ATOM      8  C   UNL A   1      36.091  23.246  26.165  1.00  0.00     0.354 C 
ATOM      9  O   UNL A   1      37.168  22.683  26.124  1.00  0.00    -0.245 OA
BRANCH   8  10
ATOM     10  C   UNL A   1      35.448  23.865  24.956  1.00  0.00     0.148 C 
ATOM     11  N   UNL A   1      34.170  25.039  23.756  1.00  0.00    -0.256 N 
ATOM     12  N   UNL A   1      34.587  24.838  25.038  1.00  0.00    -0.169 NA
ATOM     13  C   UNL A   1      34.549  23.921  22.870  1.00  0.00     0.154 C 
ATOM     14  C   UNL A   1      35.830  23.444  23.569  1.00  0.00     0.099 C 
BRANCH  11  15
ATOM     15  C   UNL A   1      33.172  25.967  23.510  1.00  0.00     0.060 A 
ATOM     16  C   UNL A   1      31.184  27.884  22.968  1.00  0.00     0.082 A 
ATOM     17  C   UNL A   1      32.495  28.298  23.210  1.00  0.00     0.024 A 
ATOM     18  C   UNL A   1      30.847  26.532  23.041  1.00  0.00     0.024 A 
ATOM     19  C   UNL A   1      33.477  27.337  23.484  1.00  0.00     0.029 A 
ATOM     20  C   UNL A   1      31.839  25.588  23.319  1.00  0.00     0.029 A 
BRANCH  16  21
ATOM     21  S   UNL A   1      29.914  29.053  22.593  1.00  0.00     0.238 S 
ATOM     22  O   UNL A   1      28.626  28.430  22.788  1.00  0.00    -0.207 OA
ATOM     23  O   UNL A   1      30.268  29.738  21.371  1.00  0.00    -0.207 OA
BRANCH  21  24
ATOM     24  N   UNL A   1      30.026  30.201  23.814  1.00  0.00    -0.225 NA
ATOM     25  H   UNL A   1      31.003  30.467  23.942  1.00  0.00     0.137 HD
ATOM     26  H   UNL A   1      29.666  29.808  24.683  1.00  0.00     0.137 HD
ENDBRANCH  21  24
ENDBRANCH  16  21
ENDBRANCH  11  15
BRANCH  13  27
ATOM     27  C   UNL A   1      33.524  22.807  22.695  1.00  0.00     0.030 A 
ATOM     28  C   UNL A   1      32.656  22.630  21.630  1.00  0.00     0.017 A 
ATOM     29  S   UNL A   1      33.282  21.577  23.877  1.00  0.00    -0.147 S 
ATOM     30  C   UNL A   1      31.814  21.491  21.788  1.00  0.00     0.012 A 
ATOM     31  C   UNL A   1      32.083  20.807  22.950  1.00  0.00     0.065 A 
ENDBRANCH  13  27
ENDBRANCH   8  10
ENDBRANCH   7   8
ENDBRANCH   6   7
ENDBRANCH   5   6
ENDBRANCH   4   5
ENDBRANCH   3   4
ENDBRANCH   2   3
ENDBRANCH   1   2
BRANCH   1  32
ATOM     32  C   UNL A   1      31.424  27.020  26.589  1.00  0.00     0.188 C 
BRANCH  32  33
ATOM     33  C   UNL A   1      31.059  27.937  27.772  1.00  0.00     0.188 C 
BRANCH  33  34
ATOM     34  O   UNL A   1      31.664  29.228  27.703  1.00  0.00    -0.376 OA
BRANCH  34  35
ATOM     35  C   UNL A   1      32.608  29.444  26.659  1.00  0.00     0.202 C 
BRANCH  35  36
ATOM     36  C   UNL A   1      33.283  30.826  26.664  1.00  0.00     0.261 C 
BRANCH  36  37
ATOM     37  O   UNL A   1      33.986  31.155  27.872  1.00  0.00    -0.460 OA
BRANCH  37  38
ATOM     38  C   UNL A   1      34.708  32.295  27.867  1.00  0.00     0.338 C 
ATOM     39  O   UNL A   1      34.306  33.415  27.606  1.00  0.00    -0.246 OA
BRANCH  38  40
ATOM     40  C   UNL A   1      36.040  32.003  28.428  1.00  0.00     0.060 A 
ATOM     41  C   UNL A   1      36.276  30.720  28.935  1.00  0.00     0.016 A 
ATOM     42  C   UNL A   1      37.030  32.987  28.492  1.00  0.00     0.016 A 
ATOM     43  C   UNL A   1      37.482  30.437  29.572  1.00  0.00     0.010 A 
ATOM     44  C   UNL A   1      38.236  32.705  29.139  1.00  0.00     0.010 A 
ATOM     45  C   UNL A   1      38.444  31.445  29.726  1.00  0.00    -0.014 A 
BRANCH  45  46
ATOM     46  C   UNL A   1      39.566  31.227  30.669  1.00  0.00     0.031 A 
ATOM     47  C   UNL A   1      40.780  30.482  30.185  1.00  0.00     0.074 A 
ATOM     48  C   UNL A   1      39.521  31.704  31.924  1.00  0.00     0.049 A 
ATOM     49  N   UNL A   1      41.903  30.236  30.808  1.00  0.00    -0.248 NA
ATOM     50  C   UNL A   1      40.718  29.938  28.819  1.00  0.00     0.031 C 
ATOM     51  C   UNL A   1      38.393  32.416  32.520  1.00  0.00     0.029 A 
ATOM     52  N   UNL A   1      40.451  31.639  32.931  1.00  0.00    -0.354 N 
ATOM     53  C   UNL A   1      42.672  29.493  29.919  1.00  0.00     0.074 A 
ATOM     54  C   UNL A   1      41.880  29.310  28.723  1.00  0.00     0.031 C 
ATOM     55  C   UNL A   1      38.686  32.700  33.800  1.00  0.00     0.029 A 
ATOM     56  C   UNL A   1      40.017  32.183  34.115  1.00  0.00     0.049 A 
ATOM     57  H   UNL A   1      41.344  31.241  32.816  1.00  0.00     0.167 HD
ATOM     58  C   UNL A   1      43.932  29.024  30.074  1.00  0.00     0.034 A 
ATOM     59  C   UNL A   1      40.624  32.249  35.318  1.00  0.00     0.034 A 
ATOM     60  C   UNL A   1      44.725  29.218  31.257  1.00  0.00     0.049 A 
ATOM     61  C   UNL A   1      42.032  31.734  35.464  1.00  0.00     0.074 A 
ATOM     62  C   UNL A   1      46.035  28.837  31.487  1.00  0.00     0.029 A 
ATOM     63  N   UNL A   1      44.276  29.831  32.418  1.00  0.00    -0.354 N 
ATOM     64  N   UNL A   1      42.806  31.175  34.565  1.00  0.00    -0.248 NA
ATOM     65  C   UNL A   1      42.669  31.900  36.780  1.00  0.00     0.031 C 
ATOM     66  C   UNL A   1      46.368  29.195  32.800  1.00  0.00     0.029 A 
ATOM     67  C   UNL A   1      45.276  29.826  33.373  1.00  0.00     0.049 A 
ATOM     68  H   UNL A   1      43.378  30.212  32.542  1.00  0.00     0.167 HD
ATOM     69  C   UNL A   1      44.027  30.954  35.193  1.00  0.00     0.074 A 
ATOM     70  C   UNL A   1      43.898  31.461  36.544  1.00  0.00     0.031 C 
ATOM     71  C   UNL A   1      45.151  30.374  34.701  1.00  0.00     0.034 A 
BRANCH  58  72
ATOM     72  C   UNL A   1      44.536  28.270  28.920  1.00  0.00     0.023 A 
ATOM     73  C   UNL A   1      44.342  26.877  28.815  1.00  0.00     0.012 A 
ATOM     74  C   UNL A   1      45.271  28.942  27.924  1.00  0.00     0.148 A 
ATOM     75  C   UNL A   1      44.901  26.159  27.759  1.00  0.00     0.002 A 
ATOM     76  C   UNL A   1      45.787  28.226  26.850  1.00  0.00     0.091 A 
ATOM     77  F   UNL A   1      45.470  30.261  28.056  1.00  0.00    -0.205 F 
ATOM     78  C   UNL A   1      45.614  26.835  26.772  1.00  0.00     0.022 A 
BRANCH  76  79
ATOM     79  S   UNL A   1      46.654  29.021  25.493  1.00  0.00     0.127 S 
ATOM     80  O   UNL A   1      46.118  30.380  25.556  1.00  0.00    -0.237 OA
ATOM     81  O   UNL A   1      48.053  28.898  25.904  1.00  0.00    -0.237 OA
ATOM     82  O   UNL A   1      46.306  28.263  24.300  1.00  0.00    -0.744 OA
ENDBRANCH  76  79
ENDBRANCH  58  72
BRANCH  59  83
ATOM     83  C   UNL A   1      39.908  32.869  36.468  1.00  0.00     0.023 A 
ATOM     84  C   UNL A   1      40.173  34.206  36.823  1.00  0.00     0.012 A 
ATOM     85  C   UNL A   1      38.939  32.145  37.190  1.00  0.00     0.148 A 
ATOM     86  C   UNL A   1      39.503  34.802  37.891  1.00  0.00     0.002 A 
ATOM     87  C   UNL A   1      38.234  32.762  38.216  1.00  0.00     0.091 A 
ATOM     88  F   UNL A   1      38.717  30.868  36.847  1.00  0.00    -0.205 F 
ATOM     89  C   UNL A   1      38.526  34.086  38.580  1.00  0.00     0.022 A 
BRANCH  87  90
ATOM     90  S   UNL A   1      36.867  31.961  39.062  1.00  0.00     0.127 S 
ATOM     91  O   UNL A   1      36.907  30.618  38.490  1.00  0.00    -0.237 OA
ATOM     92  O   UNL A   1      37.287  32.051  40.460  1.00  0.00    -0.237 OA
ATOM     93  O   UNL A   1      35.687  32.751  38.738  1.00  0.00    -0.744 OA
ENDBRANCH  87  90
ENDBRANCH  59  83
BRANCH  71  94
ATOM     94  C   UNL A   1      46.348  30.279  35.613  1.00  0.00     0.023 A 
ATOM     95  C   UNL A   1      46.550  29.122  36.391  1.00  0.00     0.012 A 
ATOM     96  C   UNL A   1      47.308  31.311  35.650  1.00  0.00     0.148 A 
ATOM     97  C   UNL A   1      47.666  29.010  37.219  1.00  0.00     0.002 A 
ATOM     98  C   UNL A   1      48.443  31.169  36.440  1.00  0.00     0.091 A 
ATOM     99  F   UNL A   1      47.092  32.414  34.918  1.00  0.00    -0.205 F 
ATOM    100  C   UNL A   1      48.618  30.026  37.235  1.00  0.00     0.022 A 
BRANCH  98 101
ATOM    101  S   UNL A   1      49.763  32.389  36.442  1.00  0.00     0.127 S 
ATOM    102  O   UNL A   1      50.538  31.988  37.616  1.00  0.00    -0.237 OA
ATOM    103  O   UNL A   1      50.425  32.139  35.161  1.00  0.00    -0.237 OA
ATOM    104  O   UNL A   1      49.106  33.686  36.534  1.00  0.00    -0.744 OA
ENDBRANCH  98 101
ENDBRANCH  71  94
ENDBRANCH  45  46
ENDBRANCH  38  40
ENDBRANCH  37  38
ENDBRANCH  36  37
ENDBRANCH  35  36
ENDBRANCH  34  35
ENDBRANCH  33  34
ENDBRANCH  32  33
ENDBRANCH   1  32
TORSDOF 27
ENDMDL
MODEL 3
REMARK VINA RESULT:      -8.4      6.649     12.631
REMARK SMILES NS(=O)(=O)c1ccc(N2N=C(C(=O)OCCOCCOCCOCCOC(=O)c3ccc(-c4c5nc(c(-c6cccc(S(=O)(=O)[O-])c6F)c6ccc([nH]6)c(-c6cccc(S(=O)(=O)[O-])c6F)c6nc(c(-c7cccc(S(=O)(=O)[O-])c7F)c7ccc4[nH]7)C=C6)C=C5)cc3)C[C@H]2c2cccs2)cc1
REMARK SMILES IDX 20 1 19 2 18 3 17 4 16 5 15 6 14 7 12 8 13 9 11 10 9 11
REMARK SMILES IDX 10 12 93 13 92 14 8 15 5 16 6 17 100 18 7 19 99 20 2 21 3 22
REMARK SMILES IDX 4 23 1 24 94 27 95 28 98 29 96 30 97 31 21 32 22 33 23 34
REMARK SMILES IDX 24 35 25 36 26 37 27 38 28 39 29 40 30 41 91 42 31 43 90 44
REMARK SMILES IDX 32 45 33 46 34 47 84 48 35 49 89 50 83 51 85 52 36 53 88 54
REMARK SMILES IDX 82 55 81 56 37 58 69 59 49 60 68 61 50 62 53 63 67 64 86 65
REMARK SMILES IDX 51 66 52 67 66 69 87 70 54 71 38 72 39 73 47 74 40 75 42 76
REMARK SMILES IDX 48 77 41 78 43 79 44 80 45 81 46 82 70 83 71 84 79 85 72 86
REMARK SMILES IDX 74 87 80 88 73 89 75 90 76 91 77 92 78 93 55 94 56 95 64 96
REMARK SMILES IDX 57 97 59 98 65 99 58 100 60 101 61 102 62 103 63 104
REMARK H PARENT 1 25 1 26 85 57 53 68
REMARK Flexibility Score: inf
ROOT
ATOM      1  O   UNL A   1      49.776  34.552  24.938  1.00  0.00    -0.377 OA
ENDROOT
BRANCH   1   2
ATOM      2  C   UNL A   1      48.553  35.119  25.367  1.00  0.00     0.188 C 
BRANCH   2   3
ATOM      3  C   UNL A   1      47.635  34.137  26.120  1.00  0.00     0.188 C 
BRANCH   3   4
ATOM      4  O   UNL A   1      46.282  33.932  25.730  1.00  0.00    -0.376 OA
BRANCH   4   5
ATOM      5  C   UNL A   1      45.596  32.712  25.975  1.00  0.00     0.202 C 
BRANCH   5   6
ATOM      6  C   UNL A   1      44.253  32.641  26.724  1.00  0.00     0.261 C 
BRANCH   6   7
ATOM      7  O   UNL A   1      43.932  31.364  27.268  1.00  0.00    -0.459 OA
BRANCH   7   8
ATOM      8  C   UNL A   1      43.416  31.367  28.507  1.00  0.00     0.354 C 
ATOM      9  O   UNL A   1      42.970  32.302  29.142  1.00  0.00    -0.245 OA
BRANCH   8  10
ATOM     10  C   UNL A   1      43.329  29.943  28.982  1.00  0.00     0.148 C 
ATOM     11  N   UNL A   1      43.252  27.834  28.964  1.00  0.00    -0.256 N 
ATOM     12  N   UNL A   1      43.517  28.926  28.191  1.00  0.00    -0.169 NA
ATOM     13  C   UNL A   1      42.552  28.198  30.212  1.00  0.00     0.154 C 
ATOM     14  C   UNL A   1      43.099  29.617  30.426  1.00  0.00     0.099 C 
BRANCH  11  15
ATOM     15  C   UNL A   1      43.280  26.577  28.386  1.00  0.00     0.060 A 
ATOM     16  C   UNL A   1      43.383  24.043  27.166  1.00  0.00     0.082 A 
ATOM     17  C   UNL A   1      43.317  25.189  26.372  1.00  0.00     0.024 A 
ATOM     18  C   UNL A   1      43.349  24.146  28.557  1.00  0.00     0.024 A 
ATOM     19  C   UNL A   1      43.261  26.446  26.988  1.00  0.00     0.029 A 
ATOM     20  C   UNL A   1      43.290  25.408  29.154  1.00  0.00     0.029 A 
BRANCH  16  21
ATOM     21  S   UNL A   1      43.480  22.436  26.440  1.00  0.00     0.238 S 
ATOM     22  O   UNL A   1      42.711  21.509  27.237  1.00  0.00    -0.207 OA
ATOM     23  O   UNL A   1      44.853  22.185  26.066  1.00  0.00    -0.207 OA
BRANCH  21  24
ATOM     24  N   UNL A   1      42.627  22.574  24.999  1.00  0.00    -0.225 NA
ATOM     25  H   UNL A   1      43.253  22.385  24.214  1.00  0.00     0.137 HD
ATOM     26  H   UNL A   1      42.254  23.519  24.914  1.00  0.00     0.137 HD
ENDBRANCH  21  24
ENDBRANCH  16  21
ENDBRANCH  11  15
BRANCH  13  27
ATOM     27  C   UNL A   1      41.028  28.153  30.180  1.00  0.00     0.030 A 
ATOM     28  C   UNL A   1      40.232  27.476  29.271  1.00  0.00     0.017 A 
ATOM     29  S   UNL A   1      40.052  29.006  31.315  1.00  0.00    -0.147 S 
ATOM     30  C   UNL A   1      38.839  27.656  29.517  1.00  0.00     0.012 A 
ATOM     31  C   UNL A   1      38.607  28.434  30.626  1.00  0.00     0.065 A 
ENDBRANCH  13  27
ENDBRANCH   8  10
ENDBRANCH   7   8
ENDBRANCH   6   7
ENDBRANCH   5   6
ENDBRANCH   4   5
ENDBRANCH   3   4
ENDBRANCH   2   3
ENDBRANCH   1   2
BRANCH   1  32
ATOM     32  C   UNL A   1      50.960  35.130  25.480  1.00  0.00     0.188 C 
BRANCH  32  33
ATOM     33  C   UNL A   1      51.518  36.382  24.776  1.00  0.00     0.188 C 
BRANCH  33  34
ATOM     34  O   UNL A   1      51.562  37.538  25.615  1.00  0.00    -0.376 OA
BRANCH  34  35
ATOM     35  C   UNL A   1      51.134  37.374  26.963  1.00  0.00     0.202 C 
BRANCH  35  36
ATOM     36  C   UNL A   1      49.945  38.252  27.383  1.00  0.00     0.261 C 
BRANCH  36  37
ATOM     37  O   UNL A   1      49.101  37.687  28.398  1.00  0.00    -0.460 OA
BRANCH  37  38
ATOM     38  C   UNL A   1      47.784  37.591  28.116  1.00  0.00     0.338 C 
ATOM     39  O   UNL A   1      47.181  38.174  27.232  1.00  0.00    -0.246 OA
BRANCH  38  40
ATOM     40  C   UNL A   1      47.212  36.504  28.930  1.00  0.00     0.060 A 
ATOM     41  C   UNL A   1      48.017  35.926  29.919  1.00  0.00     0.016 A 
ATOM     42  C   UNL A   1      45.917  36.032  28.700  1.00  0.00     0.016 A 
ATOM     43  C   UNL A   1      47.553  34.824  30.635  1.00  0.00     0.010 A 
ATOM     44  C   UNL A   1      45.456  34.921  29.412  1.00  0.00     0.010 A 
ATOM     45  C   UNL A   1      46.293  34.283  30.345  1.00  0.00    -0.014 A 
BRANCH  45  46
ATOM     46  C   UNL A   1      45.949  32.944  30.876  1.00  0.00     0.031 A 
ATOM     47  C   UNL A   1      46.492  31.729  30.174  1.00  0.00     0.074 A 
ATOM     48  C   UNL A   1      45.191  32.806  31.976  1.00  0.00     0.049 A 
ATOM     49  N   UNL A   1      46.381  30.467  30.498  1.00  0.00    -0.248 NA
ATOM     50  C   UNL A   1      47.257  31.968  28.940  1.00  0.00     0.031 C 
ATOM     51  C   UNL A   1      44.584  33.902  32.729  1.00  0.00     0.029 A 
ATOM     52  N   UNL A   1      44.788  31.674  32.640  1.00  0.00    -0.354 N 
ATOM     53  C   UNL A   1      47.044  29.762  29.500  1.00  0.00     0.074 A 
ATOM     54  C   UNL A   1      47.535  30.734  28.549  1.00  0.00     0.031 C 
ATOM     55  C   UNL A   1      43.860  33.387  33.738  1.00  0.00     0.029 A 
ATOM     56  C   UNL A   1      43.948  31.927  33.697  1.00  0.00     0.049 A 
ATOM     57  H   UNL A   1      45.073  30.768  32.383  1.00  0.00     0.167 HD
ATOM     58  C   UNL A   1      47.247  28.428  29.395  1.00  0.00     0.034 A 
ATOM     59  C   UNL A   1      43.317  31.077  34.531  1.00  0.00     0.034 A 
ATOM     60  C   UNL A   1      46.772  27.463  30.348  1.00  0.00     0.049 A 
ATOM     61  C   UNL A   1      43.569  29.597  34.406  1.00  0.00     0.074 A 
ATOM     62  C   UNL A   1      46.980  26.095  30.365  1.00  0.00     0.029 A 
ATOM     63  N   UNL A   1      45.977  27.760  31.445  1.00  0.00    -0.354 N 
ATOM     64  N   UNL A   1      44.329  28.956  33.551  1.00  0.00    -0.248 NA
ATOM     65  C   UNL A   1      42.911  28.723  35.391  1.00  0.00     0.031 C 
ATOM     66  C   UNL A   1      46.285  25.562  31.458  1.00  0.00     0.029 A 
ATOM     67  C   UNL A   1      45.672  26.602  32.138  1.00  0.00     0.049 A 
ATOM     68  H   UNL A   1      45.674  28.663  31.693  1.00  0.00     0.167 HD
ATOM     69  C   UNL A   1      44.269  27.614  33.913  1.00  0.00     0.074 A 
ATOM     70  C   UNL A   1      43.415  27.536  35.080  1.00  0.00     0.031 C 
ATOM     71  C   UNL A   1      44.857  26.542  33.325  1.00  0.00     0.034 A 
BRANCH  58  72
ATOM     72  C   UNL A   1      48.038  27.939  28.211  1.00  0.00     0.023 A 
ATOM     73  C   UNL A   1      49.407  27.634  28.361  1.00  0.00     0.012 A 
ATOM     74  C   UNL A   1      47.422  27.755  26.958  1.00  0.00     0.148 A 
ATOM     75  C   UNL A   1      50.158  27.190  27.275  1.00  0.00     0.002 A 
ATOM     76  C   UNL A   1      48.168  27.268  25.891  1.00  0.00     0.091 A 
ATOM     77  F   UNL A   1      46.128  28.080  26.826  1.00  0.00    -0.205 F 
ATOM     78  C   UNL A   1      49.537  26.997  26.044  1.00  0.00     0.022 A 
BRANCH  76  79
ATOM     79  S   UNL A   1      47.438  26.918  24.288  1.00  0.00     0.127 S 
ATOM     80  O   UNL A   1      46.936  28.234  23.898  1.00  0.00    -0.237 OA
ATOM     81  O   UNL A   1      48.592  26.452  23.517  1.00  0.00    -0.237 OA
ATOM     82  O   UNL A   1      46.422  25.902  24.527  1.00  0.00    -0.744 OA
ENDBRANCH  76  79
ENDBRANCH  58  72
BRANCH  59  83
ATOM     83  C   UNL A   1      42.418  31.617  35.589  1.00  0.00     0.023 A 
ATOM     84  C   UNL A   1      42.965  32.131  36.781  1.00  0.00     0.012 A 
ATOM     85  C   UNL A   1      41.023  31.655  35.400  1.00  0.00     0.148 A 
ATOM     86  C   UNL A   1      42.135  32.649  37.776  1.00  0.00     0.002 A 
ATOM     87  C   UNL A   1      40.207  32.224  36.370  1.00  0.00     0.091 A 
ATOM     88  F   UNL A   1      40.523  31.144  34.266  1.00  0.00    -0.205 F 
ATOM     89  C   UNL A   1      40.759  32.707  37.566  1.00  0.00     0.022 A 
BRANCH  87  90
ATOM     90  S   UNL A   1      38.444  32.466  36.123  1.00  0.00     0.127 S 
ATOM     91  O   UNL A   1      38.066  33.174  37.344  1.00  0.00    -0.237 OA
ATOM     92  O   UNL A   1      38.420  33.277  34.906  1.00  0.00    -0.237 OA
ATOM     93  O   UNL A   1      37.882  31.132  35.966  1.00  0.00    -0.744 OA
ENDBRANCH  87  90
ENDBRANCH  59  83
BRANCH  71  94
ATOM     94  C   UNL A   1      44.628  25.188  33.949  1.00  0.00     0.023 A 
ATOM     95  C   UNL A   1      43.617  24.344  33.447  1.00  0.00     0.012 A 
ATOM     96  C   UNL A   1      45.459  24.725  34.990  1.00  0.00     0.148 A 
ATOM     97  C   UNL A   1      43.411  23.079  33.997  1.00  0.00     0.002 A 
ATOM     98  C   UNL A   1      45.279  23.444  35.498  1.00  0.00     0.091 A 
ATOM     99  F   UNL A   1      46.404  25.547  35.469  1.00  0.00    -0.205 F 
ATOM    100  C   UNL A   1      44.247  22.625  35.013  1.00  0.00     0.022 A 
BRANCH  98 101
ATOM    101  S   UNL A   1      46.375  22.747  36.739  1.00  0.00     0.127 S 
ATOM    102  O   UNL A   1      47.674  22.837  36.074  1.00  0.00    -0.237 OA
ATOM    103  O   UNL A   1      46.202  23.666  37.865  1.00  0.00    -0.237 OA
ATOM    104  O   UNL A   1      45.886  21.397  36.988  1.00  0.00    -0.744 OA
ENDBRANCH  98 101
ENDBRANCH  71  94
ENDBRANCH  45  46
ENDBRANCH  38  40
ENDBRANCH  37  38
ENDBRANCH  36  37
ENDBRANCH  35  36
ENDBRANCH  34  35
ENDBRANCH  33  34
ENDBRANCH  32  33
ENDBRANCH   1  32
TORSDOF 27
ENDMDL
