MODEL 1
REMARK VINA RESULT:      -8.6      0.000      0.000
REMARK SMILES C[C@@H](C(=O)OCCOCCOCCOCCOC(=O)c1ccc(-c2c3nc(c(-c4cccc(S(=O)(=O)[O-])c4F)c4ccc([nH]4)c(-c4cccc(S(=O)(=O)[O-])c4F)c4nc(c(-c5cccc(S(=O)(=O)[O-])c5F)c5ccc2[nH]5)C=C4)C=C3)cc1)c1ccc(NC2CCCC2)cc1F
REMARK SMILES IDX 11 1 10 2 9 3 8 4 7 5 6 6 5 7 3 8 4 9 2 10 1 11 83 12 84 13
REMARK SMILES IDX 94 14 85 15 93 16 95 17 86 18 87 19 88 21 89 22 92 23 90 24
REMARK SMILES IDX 91 25 12 26 13 27 14 28 15 29 16 30 17 31 18 32 19 33 20 34
REMARK SMILES IDX 21 35 82 36 22 37 81 38 23 39 24 40 25 41 75 42 26 43 80 44
REMARK SMILES IDX 74 45 76 46 27 47 79 48 73 49 72 50 28 52 60 53 40 54 59 55
REMARK SMILES IDX 41 56 44 57 58 58 77 59 42 60 43 61 57 63 78 64 45 65 29 66
REMARK SMILES IDX 30 67 38 68 31 69 33 70 39 71 32 72 34 73 35 74 36 75 37 76
REMARK SMILES IDX 61 77 62 78 70 79 63 80 65 81 71 82 64 83 66 84 67 85 68 86
REMARK SMILES IDX 69 87 46 88 47 89 55 90 48 91 50 92 56 93 49 94 51 95 52 96
REMARK SMILES IDX 53 97 54 98
REMARK H PARENT 87 20 76 51 44 62
REMARK Flexibility Score: inf
ROOT
ATOM      1  O   UNL A   1      47.349  43.785  26.385  1.00  0.00    -0.377 OA
ENDROOT
BRANCH   1   2
ATOM      2  C   UNL A   1      46.084  44.411  26.431  1.00  0.00     0.188 C 
BRANCH   2   3
ATOM      3  C   UNL A   1      44.900  43.542  25.980  1.00  0.00     0.188 C 
BRANCH   3   4
ATOM      4  O   UNL A   1      44.118  43.955  24.876  1.00  0.00    -0.376 OA
BRANCH   4   5
ATOM      5  C   UNL A   1      43.424  43.007  24.073  1.00  0.00     0.202 C 
BRANCH   5   6
ATOM      6  C   UNL A   1      42.449  41.932  24.603  1.00  0.00     0.261 C 
BRANCH   6   7
ATOM      7  O   UNL A   1      42.724  41.417  25.909  1.00  0.00    -0.463 OA
BRANCH   7   8
ATOM      8  C   UNL A   1      41.828  40.559  26.450  1.00  0.00     0.313 C 
ATOM      9  O   UNL A   1      40.633  40.541  26.166  1.00  0.00    -0.252 OA
BRANCH   8  10
ATOM     10  C   UNL A   1      42.484  39.495  27.344  1.00  0.00     0.129 C 
ATOM     11  C   UNL A   1      42.022  38.072  26.989  1.00  0.00     0.025 C 
BRANCH  10  12
ATOM     12  C   UNL A   1      42.495  39.872  28.831  1.00  0.00     0.002 A 
ATOM     13  C   UNL A   1      41.732  40.952  29.301  1.00  0.00     0.010 A 
ATOM     14  C   UNL A   1      43.320  39.254  29.774  1.00  0.00     0.129 A 
ATOM     15  C   UNL A   1      41.792  41.380  30.633  1.00  0.00     0.026 A 
ATOM     16  C   UNL A   1      43.403  39.707  31.103  1.00  0.00     0.065 A 
ATOM     17  F   UNL A   1      44.091  38.214  29.428  1.00  0.00    -0.207 F 
ATOM     18  C   UNL A   1      42.663  40.805  31.554  1.00  0.00     0.037 A 
BRANCH  18  19
ATOM     19  N   UNL A   1      42.840  41.269  32.843  1.00  0.00    -0.382 N 
ATOM     20  H   UNL A   1      42.583  40.643  33.559  1.00  0.00     0.160 HD
BRANCH  19  21
ATOM     21  C   UNL A   1      43.355  42.558  33.289  1.00  0.00     0.079 C 
ATOM     22  C   UNL A   1      44.560  43.075  32.507  1.00  0.00     0.025 C 
ATOM     23  C   UNL A   1      42.309  43.669  33.272  1.00  0.00     0.025 C 
ATOM     24  C   UNL A   1      44.517  44.585  32.695  1.00  0.00     0.002 C 
ATOM     25  C   UNL A   1      43.056  44.953  32.926  1.00  0.00     0.002 C 
ENDBRANCH  19  21
ENDBRANCH  18  19
ENDBRANCH  10  12
ENDBRANCH   8  10
ENDBRANCH   7   8
ENDBRANCH   6   7
ENDBRANCH   5   6
ENDBRANCH   4   5
ENDBRANCH   3   4
ENDBRANCH   2   3
ENDBRANCH   1   2
BRANCH   1  26
ATOM     26  C   UNL A   1      48.045  43.546  27.601  1.00  0.00     0.188 C 
BRANCH  26  27
ATOM     27  C   UNL A   1      47.763  42.282  28.440  1.00  0.00     0.188 C 
BRANCH  27  28
ATOM     28  O   UNL A   1      46.601  41.554  28.070  1.00  0.00    -0.376 OA
BRANCH  28  29
ATOM     29  C   UNL A   1      46.700  40.144  27.934  1.00  0.00     0.202 C 
BRANCH  29  30
ATOM     30  C   UNL A   1      47.446  39.370  29.033  1.00  0.00     0.261 C 
BRANCH  30  31
ATOM     31  O   UNL A   1      46.822  38.165  29.503  1.00  0.00    -0.460 OA
BRANCH  31  32
ATOM     32  C   UNL A   1      47.572  37.041  29.554  1.00  0.00     0.338 C 
ATOM     33  O   UNL A   1      48.743  36.954  29.856  1.00  0.00    -0.246 OA
BRANCH  32  34
ATOM     34  C   UNL A   1      46.659  35.889  29.374  1.00  0.00     0.060 A 
ATOM     35  C   UNL A   1      46.675  34.861  30.326  1.00  0.00     0.016 A 
ATOM     36  C   UNL A   1      45.795  35.827  28.278  1.00  0.00     0.016 A 
ATOM     37  C   UNL A   1      45.858  33.742  30.160  1.00  0.00     0.010 A 
ATOM     38  C   UNL A   1      44.994  34.696  28.102  1.00  0.00     0.010 A 
ATOM     39  C   UNL A   1      45.051  33.632  29.020  1.00  0.00    -0.014 A 
BRANCH  39  40
ATOM     40  C   UNL A   1      44.428  32.327  28.686  1.00  0.00     0.031 A 
ATOM     41  C   UNL A   1      43.083  32.009  29.280  1.00  0.00     0.074 A 
ATOM     42  C   UNL A   1      45.033  31.445  27.871  1.00  0.00     0.049 A 
ATOM     43  N   UNL A   1      42.366  30.921  29.175  1.00  0.00    -0.248 NA
ATOM     44  C   UNL A   1      42.465  33.060  30.107  1.00  0.00     0.031 C 
ATOM     45  C   UNL A   1      46.328  31.643  27.223  1.00  0.00     0.029 A 
ATOM     46  N   UNL A   1      44.645  30.190  27.476  1.00  0.00    -0.354 N 
ATOM     47  C   UNL A   1      41.230  31.143  29.945  1.00  0.00     0.074 A 
ATOM     48  C   UNL A   1      41.358  32.463  30.522  1.00  0.00     0.031 C 
ATOM     49  C   UNL A   1      46.644  30.530  26.537  1.00  0.00     0.029 A 
ATOM     50  C   UNL A   1      45.589  29.534  26.722  1.00  0.00     0.049 A 
ATOM     51  H   UNL A   1      43.772  29.796  27.708  1.00  0.00     0.167 HD
ATOM     52  C   UNL A   1      40.168  30.328  30.145  1.00  0.00     0.034 A 
ATOM     53  C   UNL A   1      45.613  28.266  26.264  1.00  0.00     0.034 A 
ATOM     54  C   UNL A   1      40.038  29.018  29.566  1.00  0.00     0.049 A 
ATOM     55  C   UNL A   1      44.437  27.361  26.534  1.00  0.00     0.074 A 
ATOM     56  C   UNL A   1      38.984  28.129  29.679  1.00  0.00     0.029 A 
ATOM     57  N   UNL A   1      40.999  28.402  28.780  1.00  0.00    -0.354 N 
ATOM     58  N   UNL A   1      43.324  27.620  27.177  1.00  0.00    -0.248 NA
ATOM     59  C   UNL A   1      44.506  25.997  25.986  1.00  0.00     0.031 C 
ATOM     60  C   UNL A   1      39.325  26.959  28.994  1.00  0.00     0.029 A 
ATOM     61  C   UNL A   1      40.571  27.139  28.413  1.00  0.00     0.049 A 
ATOM     62  H   UNL A   1      41.860  28.804  28.521  1.00  0.00     0.167 HD
ATOM     63  C   UNL A   1      42.547  26.470  27.077  1.00  0.00     0.074 A 
ATOM     64  C   UNL A   1      43.309  25.518  26.296  1.00  0.00     0.031 C 
ATOM     65  C   UNL A   1      41.317  26.219  27.592  1.00  0.00     0.034 A 
BRANCH  52  66
ATOM     66  C   UNL A   1      39.054  30.835  31.024  1.00  0.00     0.023 A 
ATOM     67  C   UNL A   1      39.102  30.613  32.415  1.00  0.00     0.012 A 
ATOM     68  C   UNL A   1      37.985  31.570  30.476  1.00  0.00     0.148 A 
ATOM     69  C   UNL A   1      38.084  31.086  33.245  1.00  0.00     0.002 A 
ATOM     70  C   UNL A   1      37.001  32.080  31.314  1.00  0.00     0.091 A 
ATOM     71  F   UNL A   1      37.947  31.752  29.149  1.00  0.00    -0.205 F 
ATOM     72  C   UNL A   1      37.041  31.828  32.695  1.00  0.00     0.022 A 
BRANCH  70  73
ATOM     73  S   UNL A   1      35.661  33.116  30.718  1.00  0.00     0.127 S 
ATOM     74  O   UNL A   1      35.926  34.373  31.416  1.00  0.00    -0.237 OA
ATOM     75  O   UNL A   1      35.918  33.151  29.278  1.00  0.00    -0.237 OA
ATOM     76  O   UNL A   1      34.429  32.440  31.101  1.00  0.00    -0.744 OA
ENDBRANCH  70  73
ENDBRANCH  52  66
BRANCH  53  77
ATOM     77  C   UNL A   1      46.790  27.771  25.493  1.00  0.00     0.023 A 
ATOM     78  C   UNL A   1      46.829  27.930  24.095  1.00  0.00     0.012 A 
ATOM     79  C   UNL A   1      47.869  27.141  26.143  1.00  0.00     0.148 A 
ATOM     80  C   UNL A   1      47.905  27.438  23.353  1.00  0.00     0.002 A 
ATOM     81  C   UNL A   1      48.964  26.708  25.406  1.00  0.00     0.091 A 
ATOM     82  F   UNL A   1      47.805  26.985  27.473  1.00  0.00    -0.205 F 
ATOM     83  C   UNL A   1      48.976  26.838  24.008  1.00  0.00     0.022 A 
BRANCH  81  84
ATOM     84  S   UNL A   1      50.441  26.036  26.176  1.00  0.00     0.127 S 
ATOM     85  O   UNL A   1      51.273  25.733  25.013  1.00  0.00    -0.237 OA
ATOM     86  O   UNL A   1      50.898  27.169  26.983  1.00  0.00    -0.237 OA
ATOM     87  O   UNL A   1      49.995  24.886  26.951  1.00  0.00    -0.744 OA
ENDBRANCH  81  84
ENDBRANCH  53  77
BRANCH  65  88
ATOM     88  C   UNL A   1      40.683  24.885  27.289  1.00  0.00     0.023 A 
ATOM     89  C   UNL A   1      39.429  24.825  26.650  1.00  0.00     0.012 A 
ATOM     90  C   UNL A   1      41.373  23.688  27.569  1.00  0.00     0.148 A 
ATOM     91  C   UNL A   1      38.854  23.595  26.329  1.00  0.00     0.002 A 
ATOM     92  C   UNL A   1      40.819  22.468  27.199  1.00  0.00     0.091 A 
ATOM     93  F   UNL A   1      42.558  23.765  28.190  1.00  0.00    -0.205 F 
ATOM     94  C   UNL A   1      39.554  22.418  26.593  1.00  0.00     0.022 A 
BRANCH  92  95
ATOM     95  S   UNL A   1      41.688  20.910  27.406  1.00  0.00     0.127 S 
ATOM     96  O   UNL A   1      42.202  20.674  26.059  1.00  0.00    -0.237 OA
ATOM     97  O   UNL A   1      42.708  21.255  28.397  1.00  0.00    -0.237 OA
ATOM     98  O   UNL A   1      40.693  19.952  27.869  1.00  0.00    -0.744 OA
ENDBRANCH  92  95
ENDBRANCH  65  88
ENDBRANCH  39  40
ENDBRANCH  32  34
ENDBRANCH  31  32
ENDBRANCH  30  31
ENDBRANCH  29  30
ENDBRANCH  28  29
ENDBRANCH  27  28
ENDBRANCH  26  27
ENDBRANCH   1  26
TORSDOF 26
ENDMDL
MODEL 2
REMARK VINA RESULT:      -8.6      6.101     15.923
REMARK SMILES C[C@@H](C(=O)OCCOCCOCCOCCOC(=O)c1ccc(-c2c3nc(c(-c4cccc(S(=O)(=O)[O-])c4F)c4ccc([nH]4)c(-c4cccc(S(=O)(=O)[O-])c4F)c4nc(c(-c5cccc(S(=O)(=O)[O-])c5F)c5ccc2[nH]5)C=C4)C=C3)cc1)c1ccc(NC2CCCC2)cc1F
REMARK SMILES IDX 11 1 10 2 9 3 8 4 7 5 6 6 5 7 3 8 4 9 2 10 1 11 83 12 84 13
REMARK SMILES IDX 94 14 85 15 93 16 95 17 86 18 87 19 88 21 89 22 92 23 90 24
REMARK SMILES IDX 91 25 12 26 13 27 14 28 15 29 16 30 17 31 18 32 19 33 20 34
REMARK SMILES IDX 21 35 82 36 22 37 81 38 23 39 24 40 25 41 75 42 26 43 80 44
REMARK SMILES IDX 74 45 76 46 27 47 79 48 73 49 72 50 28 52 60 53 40 54 59 55
REMARK SMILES IDX 41 56 44 57 58 58 77 59 42 60 43 61 57 63 78 64 45 65 29 66
REMARK SMILES IDX 30 67 38 68 31 69 33 70 39 71 32 72 34 73 35 74 36 75 37 76
REMARK SMILES IDX 61 77 62 78 70 79 63 80 65 81 71 82 64 83 66 84 67 85 68 86
REMARK SMILES IDX 69 87 46 88 47 89 55 90 48 91 50 92 56 93 49 94 51 95 52 96
REMARK SMILES IDX 53 97 54 98
REMARK H PARENT 87 20 76 51 44 62
REMARK Flexibility Score: inf
ROOT
ATOM      1  O   UNL A   1      40.644  24.319  27.901  1.00  0.00    -0.377 OA
ENDROOT
BRANCH   1   2
ATOM      2  C   UNL A   1      40.159  23.041  27.545  1.00  0.00     0.188 C 
BRANCH   2   3
ATOM      3  C   UNL A   1      39.292  22.992  26.278  1.00  0.00     0.188 C 
BRANCH   3   4
ATOM      4  O   UNL A   1      38.191  23.872  26.158  1.00  0.00    -0.376 OA
BRANCH   4   5
ATOM      5  C   UNL A   1      36.860  23.375  26.081  1.00  0.00     0.202 C 
BRANCH   5   6
ATOM      6  C   UNL A   1      36.470  21.916  25.753  1.00  0.00     0.261 C 
BRANCH   6   7
ATOM      7  O   UNL A   1      35.118  21.702  25.335  1.00  0.00    -0.463 OA
BRANCH   7   8
ATOM      8  C   UNL A   1      34.211  21.365  26.282  1.00  0.00     0.313 C 
ATOM      9  O   UNL A   1      34.398  21.488  27.490  1.00  0.00    -0.252 OA
BRANCH   8  10
ATOM     10  C   UNL A   1      32.853  20.955  25.690  1.00  0.00     0.129 C 
ATOM     11  C   UNL A   1      32.966  19.722  24.778  1.00  0.00     0.025 C 
BRANCH  10  12
ATOM     12  C   UNL A   1      32.038  22.141  25.159  1.00  0.00     0.002 A 
ATOM     13  C   UNL A   1      31.858  22.326  23.780  1.00  0.00     0.010 A 
ATOM     14  C   UNL A   1      31.520  23.146  25.980  1.00  0.00     0.129 A 
ATOM     15  C   UNL A   1      31.200  23.448  23.261  1.00  0.00     0.026 A 
ATOM     16  C   UNL A   1      30.888  24.287  25.454  1.00  0.00     0.065 A 
ATOM     17  F   UNL A   1      31.639  23.067  27.313  1.00  0.00    -0.207 F 
ATOM     18  C   UNL A   1      30.744  24.479  24.076  1.00  0.00     0.037 A 
BRANCH  18  19
ATOM     19  N   UNL A   1      30.195  25.654  23.601  1.00  0.00    -0.382 N 
ATOM     20  H   UNL A   1      29.766  25.596  22.716  1.00  0.00     0.160 HD
BRANCH  19  21
ATOM     21  C   UNL A   1      30.162  26.969  24.231  1.00  0.00     0.079 C 
ATOM     22  C   UNL A   1      31.524  27.516  24.650  1.00  0.00     0.025 C 
ATOM     23  C   UNL A   1      29.504  28.041  23.365  1.00  0.00     0.025 C 
ATOM     24  C   UNL A   1      31.336  29.026  24.677  1.00  0.00     0.002 C 
ATOM     25  C   UNL A   1      30.231  29.345  23.675  1.00  0.00     0.002 C 
ENDBRANCH  19  21
ENDBRANCH  18  19
ENDBRANCH  10  12
ENDBRANCH   8  10
ENDBRANCH   7   8
ENDBRANCH   6   7
ENDBRANCH   5   6
ENDBRANCH   4   5
ENDBRANCH   3   4
ENDBRANCH   2   3
ENDBRANCH   1   2
BRANCH   1  26
ATOM     26  C   UNL A   1      41.293  25.109  26.914  1.00  0.00     0.188 C 
BRANCH  26  27
ATOM     27  C   UNL A   1      40.725  26.481  26.496  1.00  0.00     0.188 C 
BRANCH  27  28
ATOM     28  O   UNL A   1      40.476  27.385  27.563  1.00  0.00    -0.376 OA
BRANCH  28  29
ATOM     29  C   UNL A   1      39.215  27.334  28.214  1.00  0.00     0.202 C 
BRANCH  29  30
ATOM     30  C   UNL A   1      38.351  28.606  28.199  1.00  0.00     0.261 C 
BRANCH  30  31
ATOM     31  O   UNL A   1      38.266  29.335  29.433  1.00  0.00    -0.460 OA
BRANCH  31  32
ATOM     32  C   UNL A   1      37.659  30.543  29.415  1.00  0.00     0.338 C 
ATOM     33  O   UNL A   1      36.469  30.765  29.353  1.00  0.00    -0.246 OA
BRANCH  32  34
ATOM     34  C   UNL A   1      38.694  31.565  29.694  1.00  0.00     0.060 A 
ATOM     35  C   UNL A   1      39.988  31.143  30.025  1.00  0.00     0.016 A 
ATOM     36  C   UNL A   1      38.388  32.927  29.628  1.00  0.00     0.016 A 
ATOM     37  C   UNL A   1      40.971  32.082  30.336  1.00  0.00     0.010 A 
ATOM     38  C   UNL A   1      39.368  33.865  29.961  1.00  0.00     0.010 A 
ATOM     39  C   UNL A   1      40.652  33.445  30.355  1.00  0.00    -0.014 A 
BRANCH  39  40
ATOM     40  C   UNL A   1      41.590  34.410  30.979  1.00  0.00     0.031 A 
ATOM     41  C   UNL A   1      41.514  34.615  32.468  1.00  0.00     0.074 A 
ATOM     42  C   UNL A   1      42.494  35.087  30.249  1.00  0.00     0.049 A 
ATOM     43  N   UNL A   1      42.189  35.436  33.229  1.00  0.00    -0.248 NA
ATOM     44  C   UNL A   1      40.539  33.784  33.196  1.00  0.00     0.031 C 
ATOM     45  C   UNL A   1      42.677  34.967  28.804  1.00  0.00     0.029 A 
ATOM     46  N   UNL A   1      43.410  36.037  30.628  1.00  0.00    -0.354 N 
ATOM     47  C   UNL A   1      41.702  35.242  34.517  1.00  0.00     0.074 A 
ATOM     48  C   UNL A   1      40.666  34.238  34.433  1.00  0.00     0.031 C 
ATOM     49  C   UNL A   1      43.624  35.838  28.413  1.00  0.00     0.029 A 
ATOM     50  C   UNL A   1      44.091  36.596  29.573  1.00  0.00     0.049 A 
ATOM     51  H   UNL A   1      43.566  36.293  31.566  1.00  0.00     0.167 HD
ATOM     52  C   UNL A   1      42.091  35.837  35.669  1.00  0.00     0.034 A 
ATOM     53  C   UNL A   1      44.964  37.623  29.543  1.00  0.00     0.034 A 
ATOM     54  C   UNL A   1      43.126  36.831  35.752  1.00  0.00     0.049 A 
ATOM     55  C   UNL A   1      45.352  38.299  30.835  1.00  0.00     0.074 A 
ATOM     56  C   UNL A   1      43.618  37.468  36.878  1.00  0.00     0.029 A 
ATOM     57  N   UNL A   1      43.817  37.346  34.667  1.00  0.00    -0.354 N 
ATOM     58  N   UNL A   1      44.960  38.036  32.058  1.00  0.00    -0.248 NA
ATOM     59  C   UNL A   1      46.330  39.396  30.745  1.00  0.00     0.031 C 
ATOM     60  C   UNL A   1      44.579  38.398  36.468  1.00  0.00     0.029 A 
ATOM     61  C   UNL A   1      44.721  38.304  35.092  1.00  0.00     0.049 A 
ATOM     62  H   UNL A   1      43.684  37.072  33.730  1.00  0.00     0.167 HD
ATOM     63  C   UNL A   1      45.669  38.902  32.883  1.00  0.00     0.074 A 
ATOM     64  C   UNL A   1      46.530  39.687  32.023  1.00  0.00     0.031 C 
ATOM     65  C   UNL A   1      45.608  39.044  34.231  1.00  0.00     0.034 A 
BRANCH  52  66
ATOM     66  C   UNL A   1      41.396  35.421  36.939  1.00  0.00     0.023 A 
ATOM     67  C   UNL A   1      40.183  36.037  37.310  1.00  0.00     0.012 A 
ATOM     68  C   UNL A   1      41.920  34.387  37.739  1.00  0.00     0.148 A 
ATOM     69  C   UNL A   1      39.521  35.655  38.477  1.00  0.00     0.002 A 
ATOM     70  C   UNL A   1      41.230  33.979  38.873  1.00  0.00     0.091 A 
ATOM     71  F   UNL A   1      43.085  33.829  37.381  1.00  0.00    -0.205 F 
ATOM     72  C   UNL A   1      40.038  34.619  39.251  1.00  0.00     0.022 A 
BRANCH  70  73
ATOM     73  S   UNL A   1      41.768  32.602  39.893  1.00  0.00     0.127 S 
ATOM     74  O   UNL A   1      42.105  31.600  38.883  1.00  0.00    -0.237 OA
ATOM     75  O   UNL A   1      42.918  33.172  40.595  1.00  0.00    -0.237 OA
ATOM     76  O   UNL A   1      40.637  32.267  40.747  1.00  0.00    -0.744 OA
ENDBRANCH  70  73
ENDBRANCH  52  66
BRANCH  53  77
ATOM     77  C   UNL A   1      45.542  38.076  28.246  1.00  0.00     0.023 A 
ATOM     78  C   UNL A   1      46.562  37.325  27.632  1.00  0.00     0.012 A 
ATOM     79  C   UNL A   1      45.085  39.253  27.620  1.00  0.00     0.148 A 
ATOM     80  C   UNL A   1      47.143  37.755  26.437  1.00  0.00     0.002 A 
ATOM     81  C   UNL A   1      45.625  39.643  26.401  1.00  0.00     0.091 A 
ATOM     82  F   UNL A   1      44.125  39.963  28.229  1.00  0.00    -0.205 F 
ATOM     83  C   UNL A   1      46.667  38.906  25.816  1.00  0.00     0.022 A 
BRANCH  81  84
ATOM     84  S   UNL A   1      44.991  41.041  25.469  1.00  0.00     0.127 S 
ATOM     85  O   UNL A   1      45.322  42.161  26.348  1.00  0.00    -0.237 OA
ATOM     86  O   UNL A   1      45.784  40.966  24.241  1.00  0.00    -0.237 OA
ATOM     87  O   UNL A   1      43.569  40.782  25.284  1.00  0.00    -0.744 OA
ENDBRANCH  81  84
ENDBRANCH  53  77
BRANCH  65  88
ATOM     88  C   UNL A   1      46.532  40.044  34.878  1.00  0.00     0.023 A 
ATOM     89  C   UNL A   1      47.712  39.611  35.517  1.00  0.00     0.012 A 
ATOM     90  C   UNL A   1      46.267  41.425  34.783  1.00  0.00     0.148 A 
ATOM     91  C   UNL A   1      48.592  40.533  36.083  1.00  0.00     0.002 A 
ATOM     92  C   UNL A   1      47.174  42.341  35.302  1.00  0.00     0.091 A 
ATOM     93  F   UNL A   1      45.133  41.817  34.185  1.00  0.00    -0.205 F 
ATOM     94  C   UNL A   1      48.330  41.897  35.965  1.00  0.00     0.022 A 
BRANCH  92  95
ATOM     95  S   UNL A   1      46.972  44.115  35.111  1.00  0.00     0.127 S 
ATOM     96  O   UNL A   1      48.199  44.622  35.723  1.00  0.00    -0.237 OA
ATOM     97  O   UNL A   1      46.909  44.264  33.657  1.00  0.00    -0.237 OA
ATOM     98  O   UNL A   1      45.740  44.459  35.809  1.00  0.00    -0.744 OA
ENDBRANCH  92  95
ENDBRANCH  65  88
ENDBRANCH  39  40
ENDBRANCH  32  34
ENDBRANCH  31  32
ENDBRANCH  30  31
ENDBRANCH  29  30
ENDBRANCH  28  29
ENDBRANCH  27  28
ENDBRANCH  26  27
ENDBRANCH   1  26
TORSDOF 26
ENDMDL
MODEL 3
REMARK VINA RESULT:      -8.6      4.288     14.830
REMARK SMILES C[C@@H](C(=O)OCCOCCOCCOCCOC(=O)c1ccc(-c2c3nc(c(-c4cccc(S(=O)(=O)[O-])c4F)c4ccc([nH]4)c(-c4cccc(S(=O)(=O)[O-])c4F)c4nc(c(-c5cccc(S(=O)(=O)[O-])c5F)c5ccc2[nH]5)C=C4)C=C3)cc1)c1ccc(NC2CCCC2)cc1F
REMARK SMILES IDX 11 1 10 2 9 3 8 4 7 5 6 6 5 7 3 8 4 9 2 10 1 11 83 12 84 13
REMARK SMILES IDX 94 14 85 15 93 16 95 17 86 18 87 19 88 21 89 22 92 23 90 24
REMARK SMILES IDX 91 25 12 26 13 27 14 28 15 29 16 30 17 31 18 32 19 33 20 34
REMARK SMILES IDX 21 35 82 36 22 37 81 38 23 39 24 40 25 41 75 42 26 43 80 44
REMARK SMILES IDX 74 45 76 46 27 47 79 48 73 49 72 50 28 52 60 53 40 54 59 55
REMARK SMILES IDX 41 56 44 57 58 58 77 59 42 60 43 61 57 63 78 64 45 65 29 66
REMARK SMILES IDX 30 67 38 68 31 69 33 70 39 71 32 72 34 73 35 74 36 75 37 76
REMARK SMILES IDX 61 77 62 78 70 79 63 80 65 81 71 82 64 83 66 84 67 85 68 86
REMARK SMILES IDX 69 87 46 88 47 89 55 90 48 91 50 92 56 93 49 94 51 95 52 96
REMARK SMILES IDX 53 97 54 98
REMARK H PARENT 87 20 76 51 44 62
REMARK Flexibility Score: inf
ROOT
ATOM      1  O   UNL A   1      45.873  25.024  26.225  1.00  0.00    -0.377 OA
ENDROOT
BRANCH   1   2
ATOM      2  C   UNL A   1      46.914  25.978  26.200  1.00  0.00     0.188 C 
BRANCH   2   3
ATOM      3  C   UNL A   1      46.812  27.037  25.092  1.00  0.00     0.188 C 
BRANCH   3   4
ATOM      4  O   UNL A   1      47.793  27.072  24.073  1.00  0.00    -0.376 OA
BRANCH   4   5
ATOM      5  C   UNL A   1      49.044  26.416  24.239  1.00  0.00     0.202 C 
BRANCH   5   6
ATOM      6  C   UNL A   1      50.323  27.064  24.815  1.00  0.00     0.261 C 
BRANCH   6   7
ATOM      7  O   UNL A   1      50.538  28.440  24.485  1.00  0.00    -0.463 OA
BRANCH   7   8
ATOM      8  C   UNL A   1      51.689  29.017  24.905  1.00  0.00     0.313 C 
ATOM      9  O   UNL A   1      52.148  28.894  26.037  1.00  0.00    -0.252 OA
BRANCH   8  10
ATOM     10  C   UNL A   1      52.453  29.717  23.771  1.00  0.00     0.129 C 
ATOM     11  C   UNL A   1      52.433  31.248  23.916  1.00  0.00     0.025 C 
BRANCH  10  12
ATOM     12  C   UNL A   1      52.141  29.146  22.382  1.00  0.00     0.002 A 
ATOM     13  C   UNL A   1      51.304  29.840  21.495  1.00  0.00     0.010 A 
ATOM     14  C   UNL A   1      52.570  27.887  21.954  1.00  0.00     0.129 A 
ATOM     15  C   UNL A   1      50.924  29.303  20.258  1.00  0.00     0.026 A 
ATOM     16  C   UNL A   1      52.160  27.337  20.727  1.00  0.00     0.065 A 
ATOM     17  F   UNL A   1      53.372  27.141  22.727  1.00  0.00    -0.207 F 
ATOM     18  C   UNL A   1      51.298  28.022  19.864  1.00  0.00     0.037 A 
BRANCH  18  19
ATOM     19  N   UNL A   1      50.854  27.409  18.709  1.00  0.00    -0.382 N 
ATOM     20  H   UNL A   1      49.994  26.934  18.783  1.00  0.00     0.160 HD
BRANCH  19  21
ATOM     21  C   UNL A   1      51.483  27.367  17.395  1.00  0.00     0.079 C 
ATOM     22  C   UNL A   1      52.389  28.554  17.077  1.00  0.00     0.025 C 
ATOM     23  C   UNL A   1      52.310  26.107  17.156  1.00  0.00     0.025 C 
ATOM     24  C   UNL A   1      53.359  28.025  16.030  1.00  0.00     0.002 C 
ATOM     25  C   UNL A   1      53.477  26.523  16.267  1.00  0.00     0.002 C 
ENDBRANCH  19  21
ENDBRANCH  18  19
ENDBRANCH  10  12
ENDBRANCH   8  10
ENDBRANCH   7   8
ENDBRANCH   6   7
ENDBRANCH   5   6
ENDBRANCH   4   5
ENDBRANCH   3   4
ENDBRANCH   2   3
ENDBRANCH   1   2
BRANCH   1  26
ATOM     26  C   UNL A   1      45.397  24.490  24.997  1.00  0.00     0.188 C 
BRANCH  26  27
ATOM     27  C   UNL A   1      44.370  23.339  24.977  1.00  0.00     0.188 C 
BRANCH  27  28
ATOM     28  O   UNL A   1      44.530  22.365  25.998  1.00  0.00    -0.376 OA
BRANCH  28  29
ATOM     29  C   UNL A   1      43.425  22.082  26.844  1.00  0.00     0.202 C 
BRANCH  29  30
ATOM     30  C   UNL A   1      42.058  21.849  26.180  1.00  0.00     0.261 C 
BRANCH  30  31
ATOM     31  O   UNL A   1      40.907  21.954  27.032  1.00  0.00    -0.460 OA
BRANCH  31  32
ATOM     32  C   UNL A   1      39.808  22.569  26.541  1.00  0.00     0.338 C 
ATOM     33  O   UNL A   1      38.853  22.047  26.005  1.00  0.00    -0.246 OA
BRANCH  32  34
ATOM     34  C   UNL A   1      39.870  23.989  26.956  1.00  0.00     0.060 A 
ATOM     35  C   UNL A   1      40.294  24.945  26.024  1.00  0.00     0.016 A 
ATOM     36  C   UNL A   1      39.511  24.371  28.250  1.00  0.00     0.016 A 
ATOM     37  C   UNL A   1      40.405  26.285  26.400  1.00  0.00     0.010 A 
ATOM     38  C   UNL A   1      39.643  25.708  28.631  1.00  0.00     0.010 A 
ATOM     39  C   UNL A   1      40.128  26.664  27.719  1.00  0.00    -0.014 A 
BRANCH  39  40
ATOM     40  C   UNL A   1      40.539  28.007  28.198  1.00  0.00     0.031 A 
ATOM     41  C   UNL A   1      42.008  28.329  28.239  1.00  0.00     0.074 A 
ATOM     42  C   UNL A   1      39.635  28.924  28.583  1.00  0.00     0.049 A 
ATOM     43  N   UNL A   1      42.610  29.409  28.664  1.00  0.00    -0.248 NA
ATOM     44  C   UNL A   1      42.922  27.288  27.737  1.00  0.00     0.031 C 
ATOM     45  C   UNL A   1      38.185  28.739  28.576  1.00  0.00     0.029 A 
ATOM     46  N   UNL A   1      39.812  30.190  29.085  1.00  0.00    -0.354 N 
ATOM     47  C   UNL A   1      43.970  29.168  28.509  1.00  0.00     0.074 A 
ATOM     48  C   UNL A   1      44.107  27.835  27.965  1.00  0.00     0.031 C 
ATOM     49  C   UNL A   1      37.604  29.840  29.086  1.00  0.00     0.029 A 
ATOM     50  C   UNL A   1      38.641  30.793  29.480  1.00  0.00     0.049 A 
ATOM     51  H   UNL A   1      40.692  30.625  29.155  1.00  0.00     0.167 HD
ATOM     52  C   UNL A   1      45.013  29.986  28.782  1.00  0.00     0.034 A 
ATOM     53  C   UNL A   1      38.435  31.963  30.118  1.00  0.00     0.034 A 
ATOM     54  C   UNL A   1      44.876  31.314  29.317  1.00  0.00     0.049 A 
ATOM     55  C   UNL A   1      39.615  32.842  30.450  1.00  0.00     0.074 A 
ATOM     56  C   UNL A   1      45.870  32.235  29.595  1.00  0.00     0.029 A 
ATOM     57  N   UNL A   1      43.673  31.903  29.671  1.00  0.00    -0.354 N 
ATOM     58  N   UNL A   1      40.888  32.645  30.204  1.00  0.00    -0.248 NA
ATOM     59  C   UNL A   1      39.327  34.119  31.121  1.00  0.00     0.031 C 
ATOM     60  C   UNL A   1      45.270  33.368  30.155  1.00  0.00     0.029 A 
ATOM     61  C   UNL A   1      43.898  33.170  30.180  1.00  0.00     0.049 A 
ATOM     62  H   UNL A   1      42.788  31.482  29.576  1.00  0.00     0.167 HD
ATOM     63  C   UNL A   1      41.546  33.787  30.651  1.00  0.00     0.074 A 
ATOM     64  C   UNL A   1      40.529  34.679  31.167  1.00  0.00     0.031 C 
ATOM     65  C   UNL A   1      42.873  34.069  30.644  1.00  0.00     0.034 A 
BRANCH  52  66
ATOM     66  C   UNL A   1      46.400  29.470  28.499  1.00  0.00     0.023 A 
ATOM     67  C   UNL A   1      47.089  29.906  27.349  1.00  0.00     0.012 A 
ATOM     68  C   UNL A   1      47.036  28.589  29.394  1.00  0.00     0.148 A 
ATOM     69  C   UNL A   1      48.378  29.446  27.077  1.00  0.00     0.002 A 
ATOM     70  C   UNL A   1      48.337  28.174  29.143  1.00  0.00     0.091 A 
ATOM     71  F   UNL A   1      46.356  28.169  30.470  1.00  0.00    -0.205 F 
ATOM     72  C   UNL A   1      49.005  28.591  27.979  1.00  0.00     0.022 A 
BRANCH  70  73
ATOM     73  S   UNL A   1      49.262  27.138  30.281  1.00  0.00     0.127 S 
ATOM     74  O   UNL A   1      50.548  27.018  29.594  1.00  0.00    -0.237 OA
ATOM     75  O   UNL A   1      49.291  27.961  31.490  1.00  0.00    -0.237 OA
ATOM     76  O   UNL A   1      48.506  25.900  30.404  1.00  0.00    -0.744 OA
ENDBRANCH  70  73
ENDBRANCH  52  66
BRANCH  53  77
ATOM     77  C   UNL A   1      37.051  32.383  30.481  1.00  0.00     0.023 A 
ATOM     78  C   UNL A   1      36.572  32.167  31.787  1.00  0.00     0.012 A 
ATOM     79  C   UNL A   1      36.207  32.994  29.532  1.00  0.00     0.148 A 
ATOM     80  C   UNL A   1      35.265  32.519  32.133  1.00  0.00     0.002 A 
ATOM     81  C   UNL A   1      34.929  33.396  29.900  1.00  0.00     0.091 A 
ATOM     82  F   UNL A   1      36.676  33.176  28.290  1.00  0.00    -0.205 F 
ATOM     83  C   UNL A   1      34.449  33.143  31.194  1.00  0.00     0.022 A 
BRANCH  81  84
ATOM     84  S   UNL A   1      33.853  34.317  28.795  1.00  0.00     0.127 S 
ATOM     85  O   UNL A   1      34.741  35.380  28.331  1.00  0.00    -0.237 OA
ATOM     86  O   UNL A   1      33.523  33.306  27.790  1.00  0.00    -0.237 OA
ATOM     87  O   UNL A   1      32.724  34.747  29.610  1.00  0.00    -0.744 OA
ENDBRANCH  81  84
ENDBRANCH  53  77
BRANCH  65  88
ATOM     88  C   UNL A   1      43.310  35.418  31.158  1.00  0.00     0.023 A 
ATOM     89  C   UNL A   1      43.598  36.462  30.256  1.00  0.00     0.012 A 
ATOM     90  C   UNL A   1      43.359  35.670  32.544  1.00  0.00     0.148 A 
ATOM     91  C   UNL A   1      43.964  37.723  30.725  1.00  0.00     0.002 A 
ATOM     92  C   UNL A   1      43.672  36.944  33.004  1.00  0.00     0.091 A 
ATOM     93  F   UNL A   1      43.096  34.662  33.387  1.00  0.00    -0.205 F 
ATOM     94  C   UNL A   1      43.989  37.968  32.097  1.00  0.00     0.022 A 
BRANCH  92  95
ATOM     95  S   UNL A   1      43.632  37.379  34.746  1.00  0.00     0.127 S 
ATOM     96  O   UNL A   1      44.724  36.567  35.281  1.00  0.00    -0.237 OA
ATOM     97  O   UNL A   1      43.899  38.816  34.712  1.00  0.00    -0.237 OA
ATOM     98  O   UNL A   1      42.302  37.021  35.221  1.00  0.00    -0.744 OA
ENDBRANCH  92  95
ENDBRANCH  65  88
ENDBRANCH  39  40
ENDBRANCH  32  34
ENDBRANCH  31  32
ENDBRANCH  30  31
ENDBRANCH  29  30
ENDBRANCH  28  29
ENDBRANCH  27  28
ENDBRANCH  26  27
ENDBRANCH   1  26
TORSDOF 26
ENDMDL
