MODEL 1
REMARK VINA RESULT:      -9.6      0.000      0.000
REMARK SMILES COc1cccc([C@@]([NH3+])(C(=O)OCCOCCOCCOCCOC(=O)c2ccc(-c3c4nc(c(-c5cccc(S(=O)(=O)[O-])c5F)c5ccc([nH]5)c(-c5cccc(S(=O)(=O)[O-])c5F)c5nc(c(-c6cccc(S(=O)(=O)[O-])c6F)c6ccc3[nH]6)C=C5)C=C4)cc2)C(F)(F)F)c1
REMARK SMILES IDX 19 1 18 2 17 3 16 4 15 5 14 6 13 7 12 8 10 9 11 10 8 11 7 12
REMARK SMILES IDX 3 13 4 14 94 15 5 16 6 17 2 18 1 19 9 20 90 24 91 25 92 26
REMARK SMILES IDX 93 27 20 28 21 29 22 30 23 31 24 32 25 33 26 34 27 35 28 36
REMARK SMILES IDX 89 37 29 38 88 39 30 40 31 41 32 42 82 43 33 44 87 45 81 46
REMARK SMILES IDX 83 47 34 48 86 49 80 50 79 51 35 53 67 54 47 55 66 56 48 57
REMARK SMILES IDX 51 58 65 59 84 60 49 61 50 62 64 64 85 65 52 66 36 67 37 68
REMARK SMILES IDX 45 69 38 70 40 71 46 72 39 73 41 74 42 75 43 76 44 77 68 78
REMARK SMILES IDX 69 79 77 80 70 81 72 82 78 83 71 84 73 85 74 86 75 87 76 88
REMARK SMILES IDX 53 89 54 90 62 91 55 92 57 93 63 94 56 95 58 96 59 97 60 98
REMARK SMILES IDX 61 99
REMARK H PARENT 9 21 9 22 9 23 83 52 51 63
REMARK Flexibility Score: inf
ROOT
ATOM      1  C   UNL A   1      42.664  19.148  26.550  1.00  0.00     0.188 C 
ENDROOT
BRANCH   1   2
ATOM      2  O   UNL A   1      42.042  20.418  26.650  1.00  0.00    -0.377 OA
BRANCH   2   3
ATOM      3  C   UNL A   1      40.679  20.438  27.017  1.00  0.00     0.188 C 
BRANCH   3   4
ATOM      4  C   UNL A   1      39.725  20.872  25.891  1.00  0.00     0.188 C 
BRANCH   4   5
ATOM      5  O   UNL A   1      38.704  21.829  26.135  1.00  0.00    -0.376 OA
BRANCH   5   6
ATOM      6  C   UNL A   1      37.735  22.110  25.132  1.00  0.00     0.202 C 
BRANCH   6   7
ATOM      7  C   UNL A   1      37.215  23.541  24.875  1.00  0.00     0.261 C 
BRANCH   7   8
ATOM      8  O   UNL A   1      35.942  23.644  24.201  1.00  0.00    -0.458 OA
BRANCH   8   9
ATOM      9  C   UNL A   1      34.844  23.836  24.965  1.00  0.00     0.382 C 
ATOM     10  O   UNL A   1      34.910  23.992  26.185  1.00  0.00    -0.244 OA
BRANCH   9  11
ATOM     11  C   UNL A   1      33.478  23.836  24.220  1.00  0.00     0.314 C 
BRANCH  11  12
ATOM     12  C   UNL A   1      32.453  24.970  24.517  1.00  0.00     0.037 A 
ATOM     13  C   UNL A   1      30.967  26.792  23.757  1.00  0.00     0.119 A 
ATOM     14  C   UNL A   1      30.618  27.076  25.069  1.00  0.00     0.046 A 
ATOM     15  C   UNL A   1      31.894  25.776  23.489  1.00  0.00     0.057 A 
ATOM     16  C   UNL A   1      31.168  26.322  26.106  1.00  0.00     0.004 A 
ATOM     17  C   UNL A   1      32.076  25.286  25.835  1.00  0.00     0.011 A 
BRANCH  13  18
ATOM     18  O   UNL A   1      30.448  27.608  22.787  1.00  0.00    -0.497 OA
ATOM     19  C   UNL A   1      30.784  28.984  22.948  1.00  0.00     0.278 C 
ENDBRANCH  13  18
ENDBRANCH  11  12
BRANCH  11  20
ATOM     20  N   UNL A   1      33.819  23.940  22.750  1.00  0.00    -0.332 N 
ATOM     21  H   UNL A   1      33.095  24.477  22.272  1.00  0.00     0.346 HD
ATOM     22  H   UNL A   1      33.873  23.006  22.347  1.00  0.00     0.346 HD
ATOM     23  H   UNL A   1      34.718  24.411  22.642  1.00  0.00     0.346 HD
ENDBRANCH  11  20
BRANCH  11  24
ATOM     24  C   UNL A   1      32.914  22.423  24.613  1.00  0.00     0.460 C 
ATOM     25  F   UNL A   1      33.726  21.405  24.238  1.00  0.00    -0.164 F 
ATOM     26  F   UNL A   1      32.776  22.325  25.967  1.00  0.00    -0.164 F 
ATOM     27  F   UNL A   1      31.685  22.154  24.120  1.00  0.00    -0.164 F 
ENDBRANCH  11  24
ENDBRANCH   9  11
ENDBRANCH   8   9
ENDBRANCH   7   8
ENDBRANCH   6   7
ENDBRANCH   5   6
ENDBRANCH   4   5
ENDBRANCH   3   4
ENDBRANCH   2   3
ENDBRANCH   1   2
BRANCH   1  28
ATOM     28  C   UNL A   1      43.594  18.904  25.347  1.00  0.00     0.188 C 
BRANCH  28  29
ATOM     29  O   UNL A   1      43.958  20.084  24.639  1.00  0.00    -0.376 OA
BRANCH  29  30
ATOM     30  C   UNL A   1      45.257  20.626  24.824  1.00  0.00     0.202 C 
BRANCH  30  31
ATOM     31  C   UNL A   1      45.406  21.970  25.560  1.00  0.00     0.261 C 
BRANCH  31  32
ATOM     32  O   UNL A   1      44.204  22.617  26.000  1.00  0.00    -0.460 OA
BRANCH  32  33
ATOM     33  C   UNL A   1      43.582  23.473  25.163  1.00  0.00     0.338 C 
ATOM     34  O   UNL A   1      43.418  23.336  23.963  1.00  0.00    -0.246 OA
BRANCH  33  35
ATOM     35  C   UNL A   1      42.938  24.514  25.993  1.00  0.00     0.060 A 
ATOM     36  C   UNL A   1      43.374  25.843  25.882  1.00  0.00     0.016 A 
ATOM     37  C   UNL A   1      41.893  24.184  26.857  1.00  0.00     0.016 A 
ATOM     38  C   UNL A   1      42.790  26.840  26.664  1.00  0.00     0.010 A 
ATOM     39  C   UNL A   1      41.328  25.179  27.660  1.00  0.00     0.010 A 
ATOM     40  C   UNL A   1      41.800  26.502  27.594  1.00  0.00    -0.014 A 
BRANCH  40  41
ATOM     41  C   UNL A   1      41.418  27.459  28.659  1.00  0.00     0.031 A 
ATOM     42  C   UNL A   1      42.200  27.426  29.942  1.00  0.00     0.074 A 
ATOM     43  C   UNL A   1      40.386  28.309  28.514  1.00  0.00     0.049 A 
ATOM     44  N   UNL A   1      41.990  28.063  31.062  1.00  0.00    -0.248 NA
ATOM     45  C   UNL A   1      43.380  26.542  29.966  1.00  0.00     0.031 C 
ATOM     46  C   UNL A   1      39.569  28.455  27.312  1.00  0.00     0.029 A 
ATOM     47  N   UNL A   1      39.826  29.185  29.412  1.00  0.00    -0.354 N 
ATOM     48  C   UNL A   1      42.979  27.628  31.936  1.00  0.00     0.074 A 
ATOM     49  C   UNL A   1      43.790  26.670  31.218  1.00  0.00     0.031 C 
ATOM     50  C   UNL A   1      38.586  29.339  27.560  1.00  0.00     0.029 A 
ATOM     51  C   UNL A   1      38.681  29.789  28.947  1.00  0.00     0.049 A 
ATOM     52  H   UNL A   1      40.208  29.364  30.302  1.00  0.00     0.167 HD
ATOM     53  C   UNL A   1      43.197  27.995  33.219  1.00  0.00     0.034 A 
ATOM     54  C   UNL A   1      37.794  30.580  29.585  1.00  0.00     0.034 A 
ATOM     55  C   UNL A   1      42.392  28.952  33.926  1.00  0.00     0.049 A 
ATOM     56  C   UNL A   1      38.029  30.937  31.032  1.00  0.00     0.074 A 
ATOM     57  C   UNL A   1      42.553  29.422  35.216  1.00  0.00     0.029 A 
ATOM     58  N   UNL A   1      41.265  29.572  33.409  1.00  0.00    -0.354 N 
ATOM     59  N   UNL A   1      39.020  30.593  31.818  1.00  0.00    -0.248 NA
ATOM     60  C   UNL A   1      37.038  31.815  31.674  1.00  0.00     0.031 C 
ATOM     61  C   UNL A   1      41.497  30.294  35.495  1.00  0.00     0.029 A 
ATOM     62  C   UNL A   1      40.710  30.408  34.359  1.00  0.00     0.049 A 
ATOM     63  H   UNL A   1      40.913  29.436  32.500  1.00  0.00     0.167 HD
ATOM     64  C   UNL A   1      38.798  31.248  33.026  1.00  0.00     0.074 A 
ATOM     65  C   UNL A   1      37.581  32.015  32.867  1.00  0.00     0.031 C 
ATOM     66  C   UNL A   1      39.533  31.214  34.166  1.00  0.00     0.034 A 
BRANCH  53  67
ATOM     67  C   UNL A   1      44.350  27.355  33.943  1.00  0.00     0.023 A 
ATOM     68  C   UNL A   1      45.631  27.941  33.887  1.00  0.00     0.012 A 
ATOM     69  C   UNL A   1      44.154  26.195  34.719  1.00  0.00     0.148 A 
ATOM     70  C   UNL A   1      46.706  27.364  34.563  1.00  0.00     0.002 A 
ATOM     71  C   UNL A   1      45.217  25.654  35.429  1.00  0.00     0.091 A 
ATOM     72  F   UNL A   1      42.934  25.640  34.739  1.00  0.00    -0.205 F 
ATOM     73  C   UNL A   1      46.496  26.229  35.341  1.00  0.00     0.022 A 
BRANCH  71  74
ATOM     74  S   UNL A   1      45.033  24.243  36.524  1.00  0.00     0.127 S 
ATOM     75  O   UNL A   1      45.176  23.126  35.590  1.00  0.00    -0.237 OA
ATOM     76  O   UNL A   1      46.158  24.420  37.441  1.00  0.00    -0.237 OA
ATOM     77  O   UNL A   1      43.719  24.377  37.137  1.00  0.00    -0.744 OA
ENDBRANCH  71  74
ENDBRANCH  53  67
BRANCH  54  78
ATOM     78  C   UNL A   1      36.597  31.100  28.862  1.00  0.00     0.023 A 
ATOM     79  C   UNL A   1      36.469  32.483  28.631  1.00  0.00     0.012 A 
ATOM     80  C   UNL A   1      35.585  30.232  28.407  1.00  0.00     0.148 A 
ATOM     81  C   UNL A   1      35.341  32.996  27.991  1.00  0.00     0.002 A 
ATOM     82  C   UNL A   1      34.491  30.744  27.720  1.00  0.00     0.091 A 
ATOM     83  F   UNL A   1      35.718  28.920  28.650  1.00  0.00    -0.205 F 
ATOM     84  C   UNL A   1      34.357  32.127  27.527  1.00  0.00     0.022 A 
BRANCH  82  85
ATOM     85  S   UNL A   1      33.235  29.693  26.981  1.00  0.00     0.127 S 
ATOM     86  O   UNL A   1      32.161  30.649  26.721  1.00  0.00    -0.237 OA
ATOM     87  O   UNL A   1      33.924  29.200  25.788  1.00  0.00    -0.237 OA
ATOM     88  O   UNL A   1      32.942  28.670  27.976  1.00  0.00    -0.744 OA
ENDBRANCH  82  85
ENDBRANCH  54  78
BRANCH  66  89
ATOM     89  C   UNL A   1      39.097  32.080  35.319  1.00  0.00     0.023 A 
ATOM     90  C   UNL A   1      38.303  31.545  36.352  1.00  0.00     0.012 A 
ATOM     91  C   UNL A   1      39.575  33.402  35.428  1.00  0.00     0.148 A 
ATOM     92  C   UNL A   1      37.971  32.321  37.463  1.00  0.00     0.002 A 
ATOM     93  C   UNL A   1      39.286  34.150  36.562  1.00  0.00     0.091 A 
ATOM     94  F   UNL A   1      40.318  33.896  34.427  1.00  0.00    -0.205 F 
ATOM     95  C   UNL A   1      38.474  33.616  37.575  1.00  0.00     0.022 A 
BRANCH  93  96
ATOM     96  S   UNL A   1      39.974  35.786  36.841  1.00  0.00     0.127 S 
ATOM     97  O   UNL A   1      39.285  36.194  38.065  1.00  0.00    -0.237 OA
ATOM     98  O   UNL A   1      41.398  35.496  37.010  1.00  0.00    -0.237 OA
ATOM     99  O   UNL A   1      39.651  36.570  35.657  1.00  0.00    -0.744 OA
ENDBRANCH  93  96
ENDBRANCH  66  89
ENDBRANCH  40  41
ENDBRANCH  33  35
ENDBRANCH  32  33
ENDBRANCH  31  32
ENDBRANCH  30  31
ENDBRANCH  29  30
ENDBRANCH  28  29
ENDBRANCH   1  28
TORSDOF 27
ENDMDL
MODEL 2
REMARK VINA RESULT:      -9.3      3.668     10.821
REMARK SMILES COc1cccc([C@@]([NH3+])(C(=O)OCCOCCOCCOCCOC(=O)c2ccc(-c3c4nc(c(-c5cccc(S(=O)(=O)[O-])c5F)c5ccc([nH]5)c(-c5cccc(S(=O)(=O)[O-])c5F)c5nc(c(-c6cccc(S(=O)(=O)[O-])c6F)c6ccc3[nH]6)C=C5)C=C4)cc2)C(F)(F)F)c1
REMARK SMILES IDX 19 1 18 2 17 3 16 4 15 5 14 6 13 7 12 8 10 9 11 10 8 11 7 12
REMARK SMILES IDX 3 13 4 14 94 15 5 16 6 17 2 18 1 19 9 20 90 24 91 25 92 26
REMARK SMILES IDX 93 27 20 28 21 29 22 30 23 31 24 32 25 33 26 34 27 35 28 36
REMARK SMILES IDX 89 37 29 38 88 39 30 40 31 41 32 42 82 43 33 44 87 45 81 46
REMARK SMILES IDX 83 47 34 48 86 49 80 50 79 51 35 53 67 54 47 55 66 56 48 57
REMARK SMILES IDX 51 58 65 59 84 60 49 61 50 62 64 64 85 65 52 66 36 67 37 68
REMARK SMILES IDX 45 69 38 70 40 71 46 72 39 73 41 74 42 75 43 76 44 77 68 78
REMARK SMILES IDX 69 79 77 80 70 81 72 82 78 83 71 84 73 85 74 86 75 87 76 88
REMARK SMILES IDX 53 89 54 90 62 91 55 92 57 93 63 94 56 95 58 96 59 97 60 98
REMARK SMILES IDX 61 99
REMARK H PARENT 9 21 9 22 9 23 83 52 51 63
REMARK Flexibility Score: inf
ROOT
ATOM      1  C   UNL A   1      31.053  29.565  24.611  1.00  0.00     0.188 C 
ENDROOT
BRANCH   1   2
ATOM      2  O   UNL A   1      31.325  30.259  25.817  1.00  0.00    -0.377 OA
BRANCH   2   3
ATOM      3  C   UNL A   1      31.077  31.648  25.828  1.00  0.00     0.188 C 
BRANCH   3   4
ATOM      4  C   UNL A   1      31.367  32.334  27.175  1.00  0.00     0.188 C 
BRANCH   4   5
ATOM      5  O   UNL A   1      31.879  33.658  27.218  1.00  0.00    -0.376 OA
BRANCH   5   6
ATOM      6  C   UNL A   1      33.096  33.931  27.903  1.00  0.00     0.202 C 
BRANCH   6   7
ATOM      7  C   UNL A   1      33.133  34.754  29.209  1.00  0.00     0.261 C 
BRANCH   7   8
ATOM      8  O   UNL A   1      34.403  34.806  29.893  1.00  0.00    -0.458 OA
BRANCH   8   9
ATOM      9  C   UNL A   1      34.386  34.836  31.243  1.00  0.00     0.382 C 
ATOM     10  O   UNL A   1      33.517  35.436  31.877  1.00  0.00    -0.244 OA
BRANCH   9  11
ATOM     11  C   UNL A   1      35.538  34.078  31.965  1.00  0.00     0.314 C 
BRANCH  11  12
ATOM     12  C   UNL A   1      36.902  33.901  31.235  1.00  0.00     0.037 A 
ATOM     13  C   UNL A   1      39.348  34.223  31.121  1.00  0.00     0.119 A 
ATOM     14  C   UNL A   1      39.386  33.619  29.873  1.00  0.00     0.046 A 
ATOM     15  C   UNL A   1      38.122  34.388  31.776  1.00  0.00     0.057 A 
ATOM     16  C   UNL A   1      38.204  33.151  29.299  1.00  0.00     0.004 A 
ATOM     17  C   UNL A   1      36.977  33.294  29.968  1.00  0.00     0.011 A 
BRANCH  13  18
ATOM     18  O   UNL A   1      40.529  34.722  31.604  1.00  0.00    -0.497 OA
ATOM     19  C   UNL A   1      41.677  33.970  31.215  1.00  0.00     0.278 C 
ENDBRANCH  13  18
ENDBRANCH  11  12
BRANCH  11  20
ATOM     20  N   UNL A   1      35.823  34.875  33.218  1.00  0.00    -0.332 N 
ATOM     21  H   UNL A   1      35.448  34.380  34.027  1.00  0.00     0.346 HD
ATOM     22  H   UNL A   1      35.384  35.792  33.146  1.00  0.00     0.346 HD
ATOM     23  H   UNL A   1      36.831  34.988  33.327  1.00  0.00     0.346 HD
ENDBRANCH  11  20
BRANCH  11  24
ATOM     24  C   UNL A   1      34.854  32.696  32.267  1.00  0.00     0.460 C 
ATOM     25  F   UNL A   1      35.728  31.754  32.697  1.00  0.00    -0.164 F 
ATOM     26  F   UNL A   1      33.921  32.832  33.254  1.00  0.00    -0.164 F 
ATOM     27  F   UNL A   1      34.179  32.165  31.223  1.00  0.00    -0.164 F 
ENDBRANCH  11  24
ENDBRANCH   9  11
ENDBRANCH   8   9
ENDBRANCH   7   8
ENDBRANCH   6   7
ENDBRANCH   5   6
ENDBRANCH   4   5
ENDBRANCH   3   4
ENDBRANCH   2   3
ENDBRANCH   1   2
BRANCH   1  28
ATOM     28  C   UNL A   1      32.257  29.108  23.766  1.00  0.00     0.188 C 
BRANCH  28  29
ATOM     29  O   UNL A   1      33.033  28.074  24.363  1.00  0.00    -0.376 OA
BRANCH  29  30
ATOM     30  C   UNL A   1      34.045  28.424  25.296  1.00  0.00     0.202 C 
BRANCH  30  31
ATOM     31  C   UNL A   1      33.836  28.089  26.784  1.00  0.00     0.261 C 
BRANCH  31  32
ATOM     32  O   UNL A   1      33.832  29.183  27.711  1.00  0.00    -0.460 OA
BRANCH  32  33
ATOM     33  C   UNL A   1      34.658  30.226  27.491  1.00  0.00     0.338 C 
ATOM     34  O   UNL A   1      34.361  31.309  27.017  1.00  0.00    -0.246 OA
BRANCH  33  35
ATOM     35  C   UNL A   1      35.955  29.904  28.125  1.00  0.00     0.060 A 
ATOM     36  C   UNL A   1      37.132  30.018  27.370  1.00  0.00     0.016 A 
ATOM     37  C   UNL A   1      36.011  29.518  29.465  1.00  0.00     0.016 A 
ATOM     38  C   UNL A   1      38.366  29.708  27.943  1.00  0.00     0.010 A 
ATOM     39  C   UNL A   1      37.244  29.181  30.030  1.00  0.00     0.010 A 
ATOM     40  C   UNL A   1      38.421  29.239  29.261  1.00  0.00    -0.014 A 
BRANCH  40  41
ATOM     41  C   UNL A   1      39.649  28.585  29.771  1.00  0.00     0.031 A 
ATOM     42  C   UNL A   1      40.323  29.199  30.967  1.00  0.00     0.074 A 
ATOM     43  C   UNL A   1      40.178  27.503  29.174  1.00  0.00     0.049 A 
ATOM     44  N   UNL A   1      41.465  28.899  31.523  1.00  0.00    -0.248 NA
ATOM     45  C   UNL A   1      39.610  30.313  31.618  1.00  0.00     0.031 C 
ATOM     46  C   UNL A   1      39.605  26.801  28.028  1.00  0.00     0.029 A 
ATOM     47  N   UNL A   1      41.346  26.828  29.435  1.00  0.00    -0.354 N 
ATOM     48  C   UNL A   1      41.630  29.810  32.560  1.00  0.00     0.074 A 
ATOM     49  C   UNL A   1      40.473  30.676  32.554  1.00  0.00     0.031 C 
ATOM     50  C   UNL A   1      40.446  25.818  27.657  1.00  0.00     0.029 A 
ATOM     51  C   UNL A   1      41.629  25.847  28.514  1.00  0.00     0.049 A 
ATOM     52  H   UNL A   1      41.924  27.028  30.207  1.00  0.00     0.167 HD
ATOM     53  C   UNL A   1      42.651  29.915  33.440  1.00  0.00     0.034 A 
ATOM     54  C   UNL A   1      42.736  25.091  28.360  1.00  0.00     0.034 A 
ATOM     55  C   UNL A   1      43.796  29.048  33.446  1.00  0.00     0.049 A 
ATOM     56  C   UNL A   1      43.885  25.259  29.324  1.00  0.00     0.074 A 
ATOM     57  C   UNL A   1      44.867  29.046  34.320  1.00  0.00     0.029 A 
ATOM     58  N   UNL A   1      44.029  28.041  32.522  1.00  0.00    -0.354 N 
ATOM     59  N   UNL A   1      43.988  26.060  30.356  1.00  0.00    -0.248 NA
ATOM     60  C   UNL A   1      45.061  24.398  29.119  1.00  0.00     0.031 C 
ATOM     61  C   UNL A   1      45.769  28.065  33.900  1.00  0.00     0.029 A 
ATOM     62  C   UNL A   1      45.233  27.421  32.795  1.00  0.00     0.049 A 
ATOM     63  H   UNL A   1      43.425  27.803  31.782  1.00  0.00     0.167 HD
ATOM     64  C   UNL A   1      45.213  25.767  30.949  1.00  0.00     0.074 A 
ATOM     65  C   UNL A   1      45.814  24.710  30.164  1.00  0.00     0.031 C 
ATOM     66  C   UNL A   1      45.790  26.326  32.042  1.00  0.00     0.034 A 
BRANCH  53  67
ATOM     67  C   UNL A   1      42.578  31.011  34.469  1.00  0.00     0.023 A 
ATOM     68  C   UNL A   1      41.885  30.797  35.678  1.00  0.00     0.012 A 
ATOM     69  C   UNL A   1      43.236  32.238  34.257  1.00  0.00     0.148 A 
ATOM     70  C   UNL A   1      41.817  31.800  36.644  1.00  0.00     0.002 A 
ATOM     71  C   UNL A   1      43.207  33.213  35.245  1.00  0.00     0.091 A 
ATOM     72  F   UNL A   1      43.869  32.430  33.091  1.00  0.00    -0.205 F 
ATOM     73  C   UNL A   1      42.488  33.002  36.432  1.00  0.00     0.022 A 
BRANCH  71  74
ATOM     74  S   UNL A   1      44.105  34.762  35.102  1.00  0.00     0.127 S 
ATOM     75  O   UNL A   1      45.418  34.301  34.652  1.00  0.00    -0.237 OA
ATOM     76  O   UNL A   1      43.327  35.473  34.088  1.00  0.00    -0.237 OA
ATOM     77  O   UNL A   1      44.079  35.367  36.427  1.00  0.00    -0.744 OA
ENDBRANCH  71  74
ENDBRANCH  53  67
BRANCH  54  78
ATOM     78  C   UNL A   1      42.817  24.096  27.252  1.00  0.00     0.023 A 
ATOM     79  C   UNL A   1      43.500  24.427  26.066  1.00  0.00     0.012 A 
ATOM     80  C   UNL A   1      42.216  22.826  27.366  1.00  0.00     0.148 A 
ATOM     81  C   UNL A   1      43.555  23.527  25.001  1.00  0.00     0.002 A 
ATOM     82  C   UNL A   1      42.324  21.913  26.324  1.00  0.00     0.091 A 
ATOM     83  F   UNL A   1      41.557  22.536  28.497  1.00  0.00    -0.205 F 
ATOM     84  C   UNL A   1      42.976  22.268  25.134  1.00  0.00     0.022 A 
BRANCH  82  85
ATOM     85  S   UNL A   1      41.715  20.228  26.449  1.00  0.00     0.127 S 
ATOM     86  O   UNL A   1      42.329  19.601  25.281  1.00  0.00    -0.237 OA
ATOM     87  O   UNL A   1      42.267  19.807  27.737  1.00  0.00    -0.237 OA
ATOM     88  O   UNL A   1      40.262  20.330  26.419  1.00  0.00    -0.744 OA
ENDBRANCH  82  85
ENDBRANCH  54  78
BRANCH  66  89
ATOM     89  C   UNL A   1      47.109  25.770  32.513  1.00  0.00     0.023 A 
ATOM     90  C   UNL A   1      48.320  26.317  32.049  1.00  0.00     0.012 A 
ATOM     91  C   UNL A   1      47.137  24.772  33.510  1.00  0.00     0.148 A 
ATOM     92  C   UNL A   1      49.540  25.861  32.549  1.00  0.00     0.002 A 
ATOM     93  C   UNL A   1      48.352  24.362  34.042  1.00  0.00     0.091 A 
ATOM     94  F   UNL A   1      45.973  24.256  33.928  1.00  0.00    -0.205 F 
ATOM     95  C   UNL A   1      49.556  24.896  33.555  1.00  0.00     0.022 A 
BRANCH  93  96
ATOM     96  S   UNL A   1      48.465  23.203  35.409  1.00  0.00     0.127 S 
ATOM     97  O   UNL A   1      47.789  22.028  34.861  1.00  0.00    -0.237 OA
ATOM     98  O   UNL A   1      49.912  23.055  35.569  1.00  0.00    -0.237 OA
ATOM     99  O   UNL A   1      47.793  23.836  36.536  1.00  0.00    -0.744 OA
ENDBRANCH  93  96
ENDBRANCH  66  89
ENDBRANCH  40  41
ENDBRANCH  33  35
ENDBRANCH  32  33
ENDBRANCH  31  32
ENDBRANCH  30  31
ENDBRANCH  29  30
ENDBRANCH  28  29
ENDBRANCH   1  28
TORSDOF 27
ENDMDL
MODEL 3
REMARK VINA RESULT:      -9.2      1.739      2.037
REMARK SMILES COc1cccc([C@@]([NH3+])(C(=O)OCCOCCOCCOCCOC(=O)c2ccc(-c3c4nc(c(-c5cccc(S(=O)(=O)[O-])c5F)c5ccc([nH]5)c(-c5cccc(S(=O)(=O)[O-])c5F)c5nc(c(-c6cccc(S(=O)(=O)[O-])c6F)c6ccc3[nH]6)C=C5)C=C4)cc2)C(F)(F)F)c1
REMARK SMILES IDX 19 1 18 2 17 3 16 4 15 5 14 6 13 7 12 8 10 9 11 10 8 11 7 12
REMARK SMILES IDX 3 13 4 14 94 15 5 16 6 17 2 18 1 19 9 20 90 24 91 25 92 26
REMARK SMILES IDX 93 27 20 28 21 29 22 30 23 31 24 32 25 33 26 34 27 35 28 36
REMARK SMILES IDX 89 37 29 38 88 39 30 40 31 41 32 42 82 43 33 44 87 45 81 46
REMARK SMILES IDX 83 47 34 48 86 49 80 50 79 51 35 53 67 54 47 55 66 56 48 57
REMARK SMILES IDX 51 58 65 59 84 60 49 61 50 62 64 64 85 65 52 66 36 67 37 68
REMARK SMILES IDX 45 69 38 70 40 71 46 72 39 73 41 74 42 75 43 76 44 77 68 78
REMARK SMILES IDX 69 79 77 80 70 81 72 82 78 83 71 84 73 85 74 86 75 87 76 88
REMARK SMILES IDX 53 89 54 90 62 91 55 92 57 93 63 94 56 95 58 96 59 97 60 98
REMARK SMILES IDX 61 99
REMARK H PARENT 9 21 9 22 9 23 83 52 51 63
REMARK Flexibility Score: inf
ROOT
ATOM      1  C   UNL A   1      42.659  19.303  26.711  1.00  0.00     0.188 C 
ENDROOT
BRANCH   1   2
ATOM      2  O   UNL A   1      42.134  20.614  26.830  1.00  0.00    -0.377 OA
BRANCH   2   3
ATOM      3  C   UNL A   1      40.752  20.732  27.091  1.00  0.00     0.188 C 
BRANCH   3   4
ATOM      4  C   UNL A   1      39.946  21.388  25.957  1.00  0.00     0.188 C 
BRANCH   4   5
ATOM      5  O   UNL A   1      38.585  21.747  26.150  1.00  0.00    -0.376 OA
BRANCH   5   6
ATOM      6  C   UNL A   1      37.851  22.357  25.094  1.00  0.00     0.202 C 
BRANCH   6   7
ATOM      7  C   UNL A   1      37.085  23.683  25.289  1.00  0.00     0.261 C 
BRANCH   7   8
ATOM      8  O   UNL A   1      35.879  23.842  24.513  1.00  0.00    -0.458 OA
BRANCH   8   9
ATOM      9  C   UNL A   1      34.699  23.741  25.163  1.00  0.00     0.382 C 
ATOM     10  O   UNL A   1      34.629  23.635  26.388  1.00  0.00    -0.244 OA
BRANCH   9  11
ATOM     11  C   UNL A   1      33.420  23.751  24.276  1.00  0.00     0.314 C 
BRANCH  11  12
ATOM     12  C   UNL A   1      32.267  24.739  24.619  1.00  0.00     0.037 A 
ATOM     13  C   UNL A   1      31.266  26.997  24.552  1.00  0.00     0.119 A 
ATOM     14  C   UNL A   1      30.180  26.554  25.293  1.00  0.00     0.046 A 
ATOM     15  C   UNL A   1      32.307  26.110  24.248  1.00  0.00     0.057 A 
ATOM     16  C   UNL A   1      30.120  25.221  25.698  1.00  0.00     0.004 A 
ATOM     17  C   UNL A   1      31.151  24.326  25.369  1.00  0.00     0.011 A 
BRANCH  13  18
ATOM     18  O   UNL A   1      31.303  28.331  24.241  1.00  0.00    -0.497 OA
ATOM     19  C   UNL A   1      31.438  28.596  22.847  1.00  0.00     0.278 C 
ENDBRANCH  13  18
ENDBRANCH  11  12
BRANCH  11  20
ATOM     20  N   UNL A   1      33.895  24.113  22.886  1.00  0.00    -0.332 N 
ATOM     21  H   UNL A   1      33.279  24.823  22.491  1.00  0.00     0.346 HD
ATOM     22  H   UNL A   1      33.880  23.283  22.295  1.00  0.00     0.346 HD
ATOM     23  H   UNL A   1      34.846  24.478  22.936  1.00  0.00     0.346 HD
ENDBRANCH  11  20
BRANCH  11  24
ATOM     24  C   UNL A   1      32.957  22.254  24.388  1.00  0.00     0.460 C 
ATOM     25  F   UNL A   1      33.964  21.370  24.184  1.00  0.00    -0.164 F 
ATOM     26  F   UNL A   1      32.469  21.998  25.636  1.00  0.00    -0.164 F 
ATOM     27  F   UNL A   1      31.954  21.913  23.547  1.00  0.00    -0.164 F 
ENDBRANCH  11  24
ENDBRANCH   9  11
ENDBRANCH   8   9
ENDBRANCH   7   8
ENDBRANCH   6   7
ENDBRANCH   5   6
ENDBRANCH   4   5
ENDBRANCH   3   4
ENDBRANCH   2   3
ENDBRANCH   1   2
BRANCH   1  28
ATOM     28  C   UNL A   1      43.620  19.025  25.539  1.00  0.00     0.188 C 
BRANCH  28  29
ATOM     29  O   UNL A   1      44.075  20.193  24.865  1.00  0.00    -0.376 OA
BRANCH  29  30
ATOM     30  C   UNL A   1      45.409  20.633  25.074  1.00  0.00     0.202 C 
BRANCH  30  31
ATOM     31  C   UNL A   1      45.648  21.947  25.841  1.00  0.00     0.261 C 
BRANCH  31  32
ATOM     32  O   UNL A   1      44.492  22.679  26.270  1.00  0.00    -0.460 OA
BRANCH  32  33
ATOM     33  C   UNL A   1      43.937  23.572  25.424  1.00  0.00     0.338 C 
ATOM     34  O   UNL A   1      43.866  23.485  24.210  1.00  0.00    -0.246 OA
BRANCH  33  35
ATOM     35  C   UNL A   1      43.232  24.580  26.245  1.00  0.00     0.060 A 
ATOM     36  C   UNL A   1      43.556  25.936  26.089  1.00  0.00     0.016 A 
ATOM     37  C   UNL A   1      42.238  24.191  27.145  1.00  0.00     0.016 A 
ATOM     38  C   UNL A   1      42.913  26.904  26.862  1.00  0.00     0.010 A 
ATOM     39  C   UNL A   1      41.615  25.158  27.938  1.00  0.00     0.010 A 
ATOM     40  C   UNL A   1      41.977  26.513  27.826  1.00  0.00    -0.014 A 
BRANCH  40  41
ATOM     41  C   UNL A   1      41.545  27.464  28.877  1.00  0.00     0.031 A 
ATOM     42  C   UNL A   1      42.367  27.538  30.134  1.00  0.00     0.074 A 
ATOM     43  C   UNL A   1      40.438  28.215  28.744  1.00  0.00     0.049 A 
ATOM     44  N   UNL A   1      42.136  28.188  31.242  1.00  0.00    -0.248 NA
ATOM     45  C   UNL A   1      43.620  26.762  30.142  1.00  0.00     0.031 C 
ATOM     46  C   UNL A   1      39.575  28.253  27.566  1.00  0.00     0.029 A 
ATOM     47  N   UNL A   1      39.832  29.066  29.636  1.00  0.00    -0.354 N 
ATOM     48  C   UNL A   1      43.186  27.867  32.094  1.00  0.00     0.074 A 
ATOM     49  C   UNL A   1      44.056  26.963  31.375  1.00  0.00     0.031 C 
ATOM     50  C   UNL A   1      38.525  29.055  27.823  1.00  0.00     0.029 A 
ATOM     51  C   UNL A   1      38.624  29.553  29.194  1.00  0.00     0.049 A 
ATOM     52  H   UNL A   1      40.224  29.305  30.507  1.00  0.00     0.167 HD
ATOM     53  C   UNL A   1      43.411  28.290  33.359  1.00  0.00     0.034 A 
ATOM     54  C   UNL A   1      37.690  30.283  29.839  1.00  0.00     0.034 A 
ATOM     55  C   UNL A   1      42.547  29.194  34.065  1.00  0.00     0.049 A 
ATOM     56  C   UNL A   1      37.938  30.702  31.268  1.00  0.00     0.074 A 
ATOM     57  C   UNL A   1      42.706  29.714  35.337  1.00  0.00     0.029 A 
ATOM     58  N   UNL A   1      41.354  29.697  33.571  1.00  0.00    -0.354 N 
ATOM     59  N   UNL A   1      38.980  30.470  32.029  1.00  0.00    -0.248 NA
ATOM     60  C   UNL A   1      36.894  31.509  31.918  1.00  0.00     0.031 C 
ATOM     61  C   UNL A   1      41.587  30.499  35.627  1.00  0.00     0.029 A 
ATOM     62  C   UNL A   1      40.758  30.509  34.516  1.00  0.00     0.049 A 
ATOM     63  H   UNL A   1      40.988  29.504  32.678  1.00  0.00     0.167 HD
ATOM     64  C   UNL A   1      38.738  31.139  33.225  1.00  0.00     0.074 A 
ATOM     65  C   UNL A   1      37.454  31.792  33.086  1.00  0.00     0.031 C 
ATOM     66  C   UNL A   1      39.508  31.204  34.340  1.00  0.00     0.034 A 
BRANCH  53  67
ATOM     67  C   UNL A   1      44.638  27.775  34.061  1.00  0.00     0.023 A 
ATOM     68  C   UNL A   1      45.831  28.525  34.037  1.00  0.00     0.012 A 
ATOM     69  C   UNL A   1      44.595  26.567  34.785  1.00  0.00     0.148 A 
ATOM     70  C   UNL A   1      46.973  28.065  34.692  1.00  0.00     0.002 A 
ATOM     71  C   UNL A   1      45.721  26.140  35.476  1.00  0.00     0.091 A 
ATOM     72  F   UNL A   1      43.459  25.857  34.775  1.00  0.00    -0.205 F 
ATOM     73  C   UNL A   1      46.913  26.879  35.420  1.00  0.00     0.022 A 
BRANCH  71  74
ATOM     74  S   UNL A   1      45.723  24.671  36.509  1.00  0.00     0.127 S 
ATOM     75  O   UNL A   1      46.116  23.638  35.550  1.00  0.00    -0.237 OA
ATOM     76  O   UNL A   1      46.742  24.999  37.505  1.00  0.00    -0.237 OA
ATOM     77  O   UNL A   1      44.371  24.546  37.036  1.00  0.00    -0.744 OA
ENDBRANCH  71  74
ENDBRANCH  53  67
BRANCH  54  78
ATOM     78  C   UNL A   1      36.431  30.674  29.143  1.00  0.00     0.023 A 
ATOM     79  C   UNL A   1      35.587  29.677  28.616  1.00  0.00     0.012 A 
ATOM     80  C   UNL A   1      36.068  32.028  28.996  1.00  0.00     0.148 A 
ATOM     81  C   UNL A   1      34.424  30.021  27.927  1.00  0.00     0.002 A 
ATOM     82  C   UNL A   1      34.879  32.361  28.359  1.00  0.00     0.091 A 
ATOM     83  F   UNL A   1      36.892  32.962  29.491  1.00  0.00    -0.205 F 
ATOM     84  C   UNL A   1      34.065  31.361  27.807  1.00  0.00     0.022 A 
BRANCH  82  85
ATOM     85  S   UNL A   1      34.275  34.050  28.261  1.00  0.00     0.127 S 
ATOM     86  O   UNL A   1      35.048  34.580  27.141  1.00  0.00    -0.237 OA
ATOM     87  O   UNL A   1      32.853  33.841  27.985  1.00  0.00    -0.237 OA
ATOM     88  O   UNL A   1      34.557  34.646  29.560  1.00  0.00    -0.744 OA
ENDBRANCH  82  85
ENDBRANCH  54  78
BRANCH  66  89
ATOM     89  C   UNL A   1      39.034  32.062  35.484  1.00  0.00     0.023 A 
ATOM     90  C   UNL A   1      39.123  33.465  35.407  1.00  0.00     0.012 A 
ATOM     91  C   UNL A   1      38.395  31.469  36.592  1.00  0.00     0.148 A 
ATOM     92  C   UNL A   1      38.606  34.263  36.428  1.00  0.00     0.002 A 
ATOM     93  C   UNL A   1      37.835  32.271  37.578  1.00  0.00     0.091 A 
ATOM     94  F   UNL A   1      38.334  30.131  36.652  1.00  0.00    -0.205 F 
ATOM     95  C   UNL A   1      37.950  33.668  37.504  1.00  0.00     0.022 A 
BRANCH  93  96
ATOM     96  S   UNL A   1      36.882  31.599  38.944  1.00  0.00     0.127 S 
ATOM     97  O   UNL A   1      37.764  31.865  40.081  1.00  0.00    -0.237 OA
ATOM     98  O   UNL A   1      35.671  32.418  38.907  1.00  0.00    -0.237 OA
ATOM     99  O   UNL A   1      36.672  30.191  38.639  1.00  0.00    -0.744 OA
ENDBRANCH  93  96
ENDBRANCH  66  89
ENDBRANCH  40  41
ENDBRANCH  33  35
ENDBRANCH  32  33
ENDBRANCH  31  32
ENDBRANCH  30  31
ENDBRANCH  29  30
ENDBRANCH  28  29
ENDBRANCH   1  28
TORSDOF 27
ENDMDL
