MODEL 1
REMARK VINA RESULT:      -8.7      0.000      0.000
REMARK SMILES Cc1ccc(S(=O)(=O)n2cc(C(=O)C(=O)NCC(=O)OCCOCCOCCOCCOC(=O)c3ccc(-c4c5nc(c(-c6cccc(S(=O)(=O)[O-])c6F)c6ccc([nH]6)c(-c6cccc(S(=O)(=O)[O-])c6F)c6nc(c(-c7cccc(S(=O)(=O)[O-])c7F)c7ccc4[nH]7)C=C6)C=C5)cc3)c3ccccc32)cc1
REMARK SMILES IDX 25 1 24 2 23 3 22 4 21 5 20 6 18 7 19 8 17 9 16 10 14 11
REMARK SMILES IDX 15 12 12 14 13 15 11 16 9 17 10 18 103 19 98 20 102 21 99 22
REMARK SMILES IDX 101 23 100 24 6 25 7 26 8 27 5 28 1 29 2 30 3 31 105 32 4 33
REMARK SMILES IDX 104 34 26 35 27 36 28 37 29 38 30 39 31 40 32 41 33 42 34 43
REMARK SMILES IDX 35 44 36 45 97 46 37 47 96 48 38 49 39 50 40 51 90 52 41 53
REMARK SMILES IDX 95 54 89 55 91 56 42 57 94 58 88 59 87 60 43 62 75 63 55 64
REMARK SMILES IDX 74 65 56 66 59 67 73 68 92 69 57 70 58 71 72 73 93 74 60 75
REMARK SMILES IDX 44 76 45 77 53 78 46 79 48 80 54 81 47 82 49 83 50 84 51 85
REMARK SMILES IDX 52 86 76 87 77 88 85 89 78 90 80 91 86 92 79 93 81 94 82 95
REMARK SMILES IDX 83 96 84 97 61 98 62 99 70 100 63 101 65 102 71 103 64 104
REMARK SMILES IDX 66 105 67 106 68 107 69 108
REMARK H PARENT 16 13 91 61 59 72
REMARK Flexibility Score: inf
ROOT
ATOM      1  C   UNL A   1      43.796  44.717  33.509  1.00  0.00     0.188 C 
ENDROOT
BRANCH   1   2
ATOM      2  C   UNL A   1      43.712  43.832  32.253  1.00  0.00     0.188 C 
BRANCH   2   3
ATOM      3  O   UNL A   1      42.654  42.899  32.116  1.00  0.00    -0.376 OA
BRANCH   3   4
ATOM      4  C   UNL A   1      42.449  42.363  30.808  1.00  0.00     0.202 C 
BRANCH   4   5
ATOM      5  C   UNL A   1      42.418  40.840  30.688  1.00  0.00     0.261 C 
BRANCH   5   6
ATOM      6  O   UNL A   1      42.927  40.459  29.400  1.00  0.00    -0.462 OA
BRANCH   6   7
ATOM      7  C   UNL A   1      44.269  40.409  29.269  1.00  0.00     0.325 C 
ATOM      8  O   UNL A   1      45.031  39.701  29.916  1.00  0.00    -0.250 OA
BRANCH   7   9
ATOM      9  C   UNL A   1      44.749  41.316  28.136  1.00  0.00     0.239 C 
BRANCH   9  10
ATOM     10  N   UNL A   1      45.230  40.637  26.931  1.00  0.00    -0.338 N 
ATOM     11  C   UNL A   1      45.466  41.050  25.648  1.00  0.00     0.292 C 
ATOM     12  O   UNL A   1      46.012  40.300  24.845  1.00  0.00    -0.265 OA
ATOM     13  H   UNL A   1      45.425  39.682  27.075  1.00  0.00     0.164 HD
BRANCH  11  14
ATOM     14  C   UNL A   1      45.105  42.471  25.236  1.00  0.00     0.252 C 
ATOM     15  O   UNL A   1      44.355  43.100  25.977  1.00  0.00    -0.283 OA
BRANCH  14  16
ATOM     16  C   UNL A   1      45.663  43.092  24.028  1.00  0.00     0.054 A 
ATOM     17  N   UNL A   1      46.149  43.659  21.923  1.00  0.00    -0.240 N 
ATOM     18  C   UNL A   1      45.357  42.846  22.699  1.00  0.00     0.117 A 
ATOM     19  C   UNL A   1      46.995  44.419  22.701  1.00  0.00     0.065 A 
ATOM     20  C   UNL A   1      46.699  44.084  24.027  1.00  0.00     0.012 A 
ATOM     21  C   UNL A   1      48.013  45.339  22.388  1.00  0.00     0.028 A 
ATOM     22  C   UNL A   1      47.425  44.704  25.065  1.00  0.00     0.011 A 
ATOM     23  C   UNL A   1      48.739  45.905  23.440  1.00  0.00     0.002 A 
ATOM     24  C   UNL A   1      48.448  45.599  24.763  1.00  0.00     0.001 A 
BRANCH  17  25
ATOM     25  S   UNL A   1      46.199  43.574  20.220  1.00  0.00     0.268 S 
ATOM     26  O   UNL A   1      46.639  42.213  19.917  1.00  0.00    -0.201 OA
ATOM     27  O   UNL A   1      46.924  44.730  19.765  1.00  0.00    -0.201 OA
BRANCH  25  28
ATOM     28  C   UNL A   1      44.533  43.724  19.620  1.00  0.00     0.088 A 
ATOM     29  C   UNL A   1      40.405  44.231  18.518  1.00  0.00     0.044 C 
ATOM     30  C   UNL A   1      41.846  44.031  18.883  1.00  0.00    -0.051 A 
ATOM     31  C   UNL A   1      42.184  43.298  20.028  1.00  0.00     0.005 A 
ATOM     32  C   UNL A   1      42.867  44.575  18.095  1.00  0.00     0.005 A 
ATOM     33  C   UNL A   1      43.521  43.148  20.400  1.00  0.00     0.022 A 
ATOM     34  C   UNL A   1      44.209  44.413  18.451  1.00  0.00     0.022 A 
ENDBRANCH  25  28
ENDBRANCH  17  25
ENDBRANCH  14  16
ENDBRANCH  11  14
ENDBRANCH   9  10
ENDBRANCH   7   9
ENDBRANCH   6   7
ENDBRANCH   5   6
ENDBRANCH   4   5
ENDBRANCH   3   4
ENDBRANCH   2   3
ENDBRANCH   1   2
BRANCH   1  35
ATOM     35  O   UNL A   1      44.025  44.064  34.740  1.00  0.00    -0.377 OA
BRANCH  35  36
ATOM     36  C   UNL A   1      45.125  43.145  34.839  1.00  0.00     0.188 C 
BRANCH  36  37
ATOM     37  C   UNL A   1      46.508  43.662  35.241  1.00  0.00     0.188 C 
BRANCH  37  38
ATOM     38  O   UNL A   1      46.443  44.093  36.597  1.00  0.00    -0.376 OA
BRANCH  38  39
ATOM     39  C   UNL A   1      46.814  43.158  37.602  1.00  0.00     0.202 C 
BRANCH  39  40
ATOM     40  C   UNL A   1      47.751  42.067  37.097  1.00  0.00     0.261 C 
BRANCH  40  41
ATOM     41  O   UNL A   1      47.159  40.779  37.361  1.00  0.00    -0.460 OA
BRANCH  41  42
ATOM     42  C   UNL A   1      47.079  39.969  36.268  1.00  0.00     0.338 C 
ATOM     43  O   UNL A   1      47.517  40.270  35.169  1.00  0.00    -0.246 OA
BRANCH  42  44
ATOM     44  C   UNL A   1      46.182  38.804  36.540  1.00  0.00     0.060 A 
ATOM     45  C   UNL A   1      46.656  37.500  36.357  1.00  0.00     0.016 A 
ATOM     46  C   UNL A   1      44.813  39.011  36.633  1.00  0.00     0.016 A 
ATOM     47  C   UNL A   1      45.764  36.461  36.032  1.00  0.00     0.010 A 
ATOM     48  C   UNL A   1      43.964  38.012  36.183  1.00  0.00     0.010 A 
ATOM     49  C   UNL A   1      44.424  36.733  35.817  1.00  0.00    -0.014 A 
BRANCH  49  50
ATOM     50  C   UNL A   1      43.420  35.832  35.187  1.00  0.00     0.031 A 
ATOM     51  C   UNL A   1      43.226  35.988  33.695  1.00  0.00     0.074 A 
ATOM     52  C   UNL A   1      43.018  34.681  35.803  1.00  0.00     0.049 A 
ATOM     53  N   UNL A   1      42.712  35.116  32.896  1.00  0.00    -0.248 NA
ATOM     54  C   UNL A   1      43.670  37.182  32.971  1.00  0.00     0.031 C 
ATOM     55  C   UNL A   1      42.870  33.392  35.115  1.00  0.00     0.029 A 
ATOM     56  N   UNL A   1      42.830  34.281  37.121  1.00  0.00    -0.354 N 
ATOM     57  C   UNL A   1      42.937  35.506  31.583  1.00  0.00     0.074 A 
ATOM     58  C   UNL A   1      43.528  36.811  31.693  1.00  0.00     0.031 C 
ATOM     59  C   UNL A   1      42.558  32.408  35.964  1.00  0.00     0.029 A 
ATOM     60  C   UNL A   1      42.127  33.063  37.158  1.00  0.00     0.049 A 
ATOM     61  H   UNL A   1      43.143  34.777  37.912  1.00  0.00     0.167 HD
ATOM     62  C   UNL A   1      42.660  34.630  30.571  1.00  0.00     0.034 A 
ATOM     63  C   UNL A   1      40.849  32.893  37.622  1.00  0.00     0.034 A 
ATOM     64  C   UNL A   1      41.886  33.475  31.087  1.00  0.00     0.049 A 
ATOM     65  C   UNL A   1      39.827  32.600  36.503  1.00  0.00     0.074 A 
ATOM     66  C   UNL A   1      42.062  32.100  31.107  1.00  0.00     0.029 A 
ATOM     67  N   UNL A   1      40.744  33.719  31.851  1.00  0.00    -0.354 N 
ATOM     68  N   UNL A   1      40.106  32.647  35.220  1.00  0.00    -0.248 NA
ATOM     69  C   UNL A   1      38.441  32.181  36.716  1.00  0.00     0.031 C 
ATOM     70  C   UNL A   1      41.086  31.539  31.979  1.00  0.00     0.029 A 
ATOM     71  C   UNL A   1      40.253  32.557  32.410  1.00  0.00     0.049 A 
ATOM     72  H   UNL A   1      40.339  34.608  31.975  1.00  0.00     0.167 HD
ATOM     73  C   UNL A   1      38.991  32.408  34.459  1.00  0.00     0.074 A 
ATOM     74  C   UNL A   1      37.990  32.057  35.452  1.00  0.00     0.031 C 
ATOM     75  C   UNL A   1      38.966  32.561  33.093  1.00  0.00     0.034 A 
BRANCH  62  76
ATOM     76  C   UNL A   1      43.155  34.678  29.107  1.00  0.00     0.023 A 
ATOM     77  C   UNL A   1      42.423  35.518  28.227  1.00  0.00     0.012 A 
ATOM     78  C   UNL A   1      44.195  33.934  28.485  1.00  0.00     0.148 A 
ATOM     79  C   UNL A   1      42.633  35.569  26.842  1.00  0.00     0.002 A 
ATOM     80  C   UNL A   1      44.446  34.028  27.100  1.00  0.00     0.091 A 
ATOM     81  F   UNL A   1      44.945  33.100  29.206  1.00  0.00    -0.205 F 
ATOM     82  C   UNL A   1      43.646  34.823  26.276  1.00  0.00     0.022 A 
BRANCH  80  83
ATOM     83  S   UNL A   1      45.791  33.163  26.255  1.00  0.00     0.127 S 
ATOM     84  O   UNL A   1      46.227  34.152  25.267  1.00  0.00    -0.237 OA
ATOM     85  O   UNL A   1      46.748  32.934  27.338  1.00  0.00    -0.237 OA
ATOM     86  O   UNL A   1      45.210  31.953  25.685  1.00  0.00    -0.744 OA
ENDBRANCH  80  83
ENDBRANCH  62  76
BRANCH  63  87
ATOM     87  C   UNL A   1      40.680  33.545  38.960  1.00  0.00     0.023 A 
ATOM     88  C   UNL A   1      39.640  34.516  38.956  1.00  0.00     0.012 A 
ATOM     89  C   UNL A   1      40.845  32.740  40.097  1.00  0.00     0.148 A 
ATOM     90  C   UNL A   1      38.587  34.414  39.869  1.00  0.00     0.002 A 
ATOM     91  C   UNL A   1      39.799  32.660  41.018  1.00  0.00     0.091 A 
ATOM     92  F   UNL A   1      41.921  31.947  40.171  1.00  0.00    -0.205 F 
ATOM     93  C   UNL A   1      38.638  33.441  40.862  1.00  0.00     0.022 A 
BRANCH  91  94
ATOM     94  S   UNL A   1      39.802  31.362  42.260  1.00  0.00     0.127 S 
ATOM     95  O   UNL A   1      39.450  32.094  43.470  1.00  0.00    -0.237 OA
ATOM     96  O   UNL A   1      38.768  30.447  41.771  1.00  0.00    -0.237 OA
ATOM     97  O   UNL A   1      41.151  30.816  42.197  1.00  0.00    -0.744 OA
ENDBRANCH  91  94
ENDBRANCH  63  87
BRANCH  75  98
ATOM     98  C   UNL A   1      37.718  32.746  32.219  1.00  0.00     0.023 A 
ATOM     99  C   UNL A   1      37.308  31.776  31.289  1.00  0.00     0.012 A 
ATOM    100  C   UNL A   1      36.810  33.831  32.428  1.00  0.00     0.148 A 
ATOM    101  C   UNL A   1      36.108  31.884  30.574  1.00  0.00     0.002 A 
ATOM    102  C   UNL A   1      35.566  33.873  31.800  1.00  0.00     0.091 A 
ATOM    103  F   UNL A   1      37.145  34.852  33.227  1.00  0.00    -0.205 F 
ATOM    104  C   UNL A   1      35.225  32.917  30.847  1.00  0.00     0.022 A 
BRANCH 102 105
ATOM    105  S   UNL A   1      34.288  35.053  32.274  1.00  0.00     0.127 S 
ATOM    106  O   UNL A   1      33.803  35.505  30.972  1.00  0.00    -0.237 OA
ATOM    107  O   UNL A   1      33.350  34.203  33.012  1.00  0.00    -0.237 OA
ATOM    108  O   UNL A   1      34.955  36.058  33.088  1.00  0.00    -0.744 OA
ENDBRANCH 102 105
ENDBRANCH  75  98
ENDBRANCH  49  50
ENDBRANCH  42  44
ENDBRANCH  41  42
ENDBRANCH  40  41
ENDBRANCH  39  40
ENDBRANCH  38  39
ENDBRANCH  37  38
ENDBRANCH  36  37
ENDBRANCH  35  36
ENDBRANCH   1  35
TORSDOF 28
ENDMDL
MODEL 2
REMARK VINA RESULT:      -8.4      5.697      8.666
REMARK SMILES Cc1ccc(S(=O)(=O)n2cc(C(=O)C(=O)NCC(=O)OCCOCCOCCOCCOC(=O)c3ccc(-c4c5nc(c(-c6cccc(S(=O)(=O)[O-])c6F)c6ccc([nH]6)c(-c6cccc(S(=O)(=O)[O-])c6F)c6nc(c(-c7cccc(S(=O)(=O)[O-])c7F)c7ccc4[nH]7)C=C6)C=C5)cc3)c3ccccc32)cc1
REMARK SMILES IDX 25 1 24 2 23 3 22 4 21 5 20 6 18 7 19 8 17 9 16 10 14 11
REMARK SMILES IDX 15 12 12 14 13 15 11 16 9 17 10 18 103 19 98 20 102 21 99 22
REMARK SMILES IDX 101 23 100 24 6 25 7 26 8 27 5 28 1 29 2 30 3 31 105 32 4 33
REMARK SMILES IDX 104 34 26 35 27 36 28 37 29 38 30 39 31 40 32 41 33 42 34 43
REMARK SMILES IDX 35 44 36 45 97 46 37 47 96 48 38 49 39 50 40 51 90 52 41 53
REMARK SMILES IDX 95 54 89 55 91 56 42 57 94 58 88 59 87 60 43 62 75 63 55 64
REMARK SMILES IDX 74 65 56 66 59 67 73 68 92 69 57 70 58 71 72 73 93 74 60 75
REMARK SMILES IDX 44 76 45 77 53 78 46 79 48 80 54 81 47 82 49 83 50 84 51 85
REMARK SMILES IDX 52 86 76 87 77 88 85 89 78 90 80 91 86 92 79 93 81 94 82 95
REMARK SMILES IDX 83 96 84 97 61 98 62 99 70 100 63 101 65 102 71 103 64 104
REMARK SMILES IDX 66 105 67 106 68 107 69 108
REMARK H PARENT 16 13 91 61 59 72
REMARK Flexibility Score: inf
ROOT
ATOM      1  C   UNL A   1      44.354  38.839  31.773  1.00  0.00     0.188 C 
ENDROOT
BRANCH   1   2
ATOM      2  C   UNL A   1      44.130  38.915  30.252  1.00  0.00     0.188 C 
BRANCH   2   3
ATOM      3  O   UNL A   1      45.243  38.949  29.376  1.00  0.00    -0.376 OA
BRANCH   3   4
ATOM      4  C   UNL A   1      44.954  38.830  27.982  1.00  0.00     0.202 C 
BRANCH   4   5
ATOM      5  C   UNL A   1      46.093  39.149  27.016  1.00  0.00     0.261 C 
BRANCH   5   6
ATOM      6  O   UNL A   1      45.557  39.809  25.858  1.00  0.00    -0.462 OA
BRANCH   6   7
ATOM      7  C   UNL A   1      46.439  40.449  25.062  1.00  0.00     0.325 C 
ATOM      8  O   UNL A   1      46.749  40.126  23.922  1.00  0.00    -0.250 OA
BRANCH   7   9
ATOM      9  C   UNL A   1      46.982  41.708  25.739  1.00  0.00     0.239 C 
BRANCH   9  10
ATOM     10  N   UNL A   1      45.990  42.728  26.084  1.00  0.00    -0.338 N 
ATOM     11  C   UNL A   1      45.937  44.085  25.914  1.00  0.00     0.292 C 
ATOM     12  O   UNL A   1      44.909  44.704  26.174  1.00  0.00    -0.265 OA
ATOM     13  H   UNL A   1      45.194  42.361  26.533  1.00  0.00     0.164 HD
BRANCH  11  14
ATOM     14  C   UNL A   1      47.140  44.820  25.339  1.00  0.00     0.252 C 
ATOM     15  O   UNL A   1      47.688  45.653  26.056  1.00  0.00    -0.283 OA
BRANCH  14  16
ATOM     16  C   UNL A   1      47.663  44.521  23.999  1.00  0.00     0.054 A 
ATOM     17  N   UNL A   1      47.903  43.892  21.870  1.00  0.00    -0.240 N 
ATOM     18  C   UNL A   1      46.994  44.022  22.893  1.00  0.00     0.117 A 
ATOM     19  C   UNL A   1      49.166  44.263  22.277  1.00  0.00     0.065 A 
ATOM     20  C   UNL A   1      49.035  44.671  23.609  1.00  0.00     0.012 A 
ATOM     21  C   UNL A   1      50.418  44.255  21.634  1.00  0.00     0.028 A 
ATOM     22  C   UNL A   1      50.182  45.102  24.307  1.00  0.00     0.011 A 
ATOM     23  C   UNL A   1      51.541  44.652  22.367  1.00  0.00     0.002 A 
ATOM     24  C   UNL A   1      51.427  45.077  23.684  1.00  0.00     0.001 A 
BRANCH  17  25
ATOM     25  S   UNL A   1      47.531  43.174  20.367  1.00  0.00     0.268 S 
ATOM     26  O   UNL A   1      47.869  41.760  20.525  1.00  0.00    -0.201 OA
ATOM     27  O   UNL A   1      48.135  43.995  19.352  1.00  0.00    -0.201 OA
BRANCH  25  28
ATOM     28  C   UNL A   1      45.771  43.263  20.145  1.00  0.00     0.088 A 
ATOM     29  C   UNL A   1      41.482  43.575  19.982  1.00  0.00     0.044 C 
ATOM     30  C   UNL A   1      42.977  43.446  20.017  1.00  0.00    -0.051 A 
ATOM     31  C   UNL A   1      43.587  42.615  20.966  1.00  0.00     0.005 A 
ATOM     32  C   UNL A   1      43.778  44.152  19.112  1.00  0.00     0.005 A 
ATOM     33  C   UNL A   1      44.978  42.527  21.035  1.00  0.00     0.022 A 
ATOM     34  C   UNL A   1      45.171  44.054  19.164  1.00  0.00     0.022 A 
ENDBRANCH  25  28
ENDBRANCH  17  25
ENDBRANCH  14  16
ENDBRANCH  11  14
ENDBRANCH   9  10
ENDBRANCH   7   9
ENDBRANCH   6   7
ENDBRANCH   5   6
ENDBRANCH   4   5
ENDBRANCH   3   4
ENDBRANCH   2   3
ENDBRANCH   1   2
BRANCH   1  35
ATOM     35  O   UNL A   1      43.205  38.870  32.593  1.00  0.00    -0.377 OA
BRANCH  35  36
ATOM     36  C   UNL A   1      43.318  38.431  33.956  1.00  0.00     0.188 C 
BRANCH  36  37
ATOM     37  C   UNL A   1      42.756  37.067  34.359  1.00  0.00     0.188 C 
BRANCH  37  38
ATOM     38  O   UNL A   1      42.830  36.958  35.778  1.00  0.00    -0.376 OA
BRANCH  38  39
ATOM     39  C   UNL A   1      41.691  36.449  36.458  1.00  0.00     0.202 C 
BRANCH  39  40
ATOM     40  C   UNL A   1      41.999  35.243  37.337  1.00  0.00     0.261 C 
BRANCH  40  41
ATOM     41  O   UNL A   1      42.635  34.227  36.538  1.00  0.00    -0.460 OA
BRANCH  41  42
ATOM     42  C   UNL A   1      41.841  33.154  36.264  1.00  0.00     0.338 C 
ATOM     43  O   UNL A   1      40.845  32.868  36.910  1.00  0.00    -0.246 OA
BRANCH  42  44
ATOM     44  C   UNL A   1      42.485  32.265  35.249  1.00  0.00     0.060 A 
ATOM     45  C   UNL A   1      42.947  32.802  34.043  1.00  0.00     0.016 A 
ATOM     46  C   UNL A   1      42.315  30.890  35.348  1.00  0.00     0.016 A 
ATOM     47  C   UNL A   1      43.004  32.002  32.886  1.00  0.00     0.010 A 
ATOM     48  C   UNL A   1      42.248  30.151  34.178  1.00  0.00     0.010 A 
ATOM     49  C   UNL A   1      42.534  30.700  32.914  1.00  0.00    -0.014 A 
BRANCH  49  50
ATOM     50  C   UNL A   1      42.246  29.830  31.741  1.00  0.00     0.031 A 
ATOM     51  C   UNL A   1      40.804  29.779  31.285  1.00  0.00     0.074 A 
ATOM     52  C   UNL A   1      43.238  29.447  30.884  1.00  0.00     0.049 A 
ATOM     53  N   UNL A   1      40.382  29.410  30.124  1.00  0.00    -0.248 NA
ATOM     54  C   UNL A   1      39.699  30.213  32.144  1.00  0.00     0.031 C 
ATOM     55  C   UNL A   1      43.108  29.458  29.422  1.00  0.00     0.029 A 
ATOM     56  N   UNL A   1      44.591  29.154  31.009  1.00  0.00    -0.354 N 
ATOM     57  C   UNL A   1      39.041  29.741  29.996  1.00  0.00     0.074 A 
ATOM     58  C   UNL A   1      38.665  30.228  31.295  1.00  0.00     0.031 C 
ATOM     59  C   UNL A   1      44.253  29.130  28.817  1.00  0.00     0.029 A 
ATOM     60  C   UNL A   1      45.059  28.535  29.835  1.00  0.00     0.049 A 
ATOM     61  H   UNL A   1      45.141  29.349  31.803  1.00  0.00     0.167 HD
ATOM     62  C   UNL A   1      38.441  29.630  28.772  1.00  0.00     0.034 A 
ATOM     63  C   UNL A   1      45.466  27.231  29.728  1.00  0.00     0.034 A 
ATOM     64  C   UNL A   1      39.318  28.888  27.835  1.00  0.00     0.049 A 
ATOM     65  C   UNL A   1      44.489  26.351  28.920  1.00  0.00     0.074 A 
ATOM     66  C   UNL A   1      39.892  29.155  26.601  1.00  0.00     0.029 A 
ATOM     67  N   UNL A   1      39.845  27.660  28.236  1.00  0.00    -0.354 N 
ATOM     68  N   UNL A   1      43.313  26.756  28.494  1.00  0.00    -0.248 NA
ATOM     69  C   UNL A   1      44.756  24.983  28.476  1.00  0.00     0.031 C 
ATOM     70  C   UNL A   1      40.847  28.135  26.324  1.00  0.00     0.029 A 
ATOM     71  C   UNL A   1      40.784  27.195  27.338  1.00  0.00     0.049 A 
ATOM     72  H   UNL A   1      39.580  27.184  29.057  1.00  0.00     0.167 HD
ATOM     73  C   UNL A   1      42.635  25.743  27.865  1.00  0.00     0.074 A 
ATOM     74  C   UNL A   1      43.617  24.672  27.826  1.00  0.00     0.031 C 
ATOM     75  C   UNL A   1      41.322  25.848  27.474  1.00  0.00     0.034 A 
BRANCH  62  76
ATOM     76  C   UNL A   1      37.114  30.267  28.299  1.00  0.00     0.023 A 
ATOM     77  C   UNL A   1      36.975  31.661  28.525  1.00  0.00     0.012 A 
ATOM     78  C   UNL A   1      35.966  29.641  27.741  1.00  0.00     0.148 A 
ATOM     79  C   UNL A   1      35.789  32.374  28.301  1.00  0.00     0.002 A 
ATOM     80  C   UNL A   1      34.790  30.367  27.460  1.00  0.00     0.091 A 
ATOM     81  F   UNL A   1      35.971  28.330  27.494  1.00  0.00    -0.205 F 
ATOM     82  C   UNL A   1      34.693  31.726  27.768  1.00  0.00     0.022 A 
BRANCH  80  83
ATOM     83  S   UNL A   1      33.318  29.651  26.690  1.00  0.00     0.127 S 
ATOM     84  O   UNL A   1      33.833  29.188  25.400  1.00  0.00    -0.237 OA
ATOM     85  O   UNL A   1      32.968  28.576  27.618  1.00  0.00    -0.237 OA
ATOM     86  O   UNL A   1      32.336  30.726  26.599  1.00  0.00    -0.744 OA
ENDBRANCH  80  83
ENDBRANCH  62  76
BRANCH  63  87
ATOM     87  C   UNL A   1      46.423  26.882  30.826  1.00  0.00     0.023 A 
ATOM     88  C   UNL A   1      47.486  27.822  30.930  1.00  0.00     0.012 A 
ATOM     89  C   UNL A   1      45.886  26.340  32.003  1.00  0.00     0.148 A 
ATOM     90  C   UNL A   1      47.724  28.474  32.142  1.00  0.00     0.002 A 
ATOM     91  C   UNL A   1      46.147  26.982  33.215  1.00  0.00     0.091 A 
ATOM     92  F   UNL A   1      45.007  25.335  31.904  1.00  0.00    -0.205 F 
ATOM     93  C   UNL A   1      47.005  28.096  33.272  1.00  0.00     0.022 A 
BRANCH  91  94
ATOM     94  S   UNL A   1      45.177  26.567  34.670  1.00  0.00     0.127 S 
ATOM     95  O   UNL A   1      45.711  27.486  35.667  1.00  0.00    -0.237 OA
ATOM     96  O   UNL A   1      43.808  26.857  34.236  1.00  0.00    -0.237 OA
ATOM     97  O   UNL A   1      45.441  25.150  34.880  1.00  0.00    -0.744 OA
ENDBRANCH  91  94
ENDBRANCH  63  87
BRANCH  75  98
ATOM     98  C   UNL A   1      40.364  24.686  27.176  1.00  0.00     0.023 A 
ATOM     99  C   UNL A   1      39.079  24.895  26.647  1.00  0.00     0.012 A 
ATOM    100  C   UNL A   1      40.791  23.324  27.254  1.00  0.00     0.148 A 
ATOM    101  C   UNL A   1      38.247  23.836  26.263  1.00  0.00     0.002 A 
ATOM    102  C   UNL A   1      40.004  22.282  26.763  1.00  0.00     0.091 A 
ATOM    103  F   UNL A   1      41.961  23.010  27.824  1.00  0.00    -0.205 F 
ATOM    104  C   UNL A   1      38.717  22.533  26.296  1.00  0.00     0.022 A 
BRANCH 102 105
ATOM    105  S   UNL A   1      40.638  20.606  26.567  1.00  0.00     0.127 S 
ATOM    106  O   UNL A   1      40.807  20.187  27.957  1.00  0.00    -0.237 OA
ATOM    107  O   UNL A   1      39.537  19.947  25.861  1.00  0.00    -0.237 OA
ATOM    108  O   UNL A   1      41.862  20.731  25.789  1.00  0.00    -0.744 OA
ENDBRANCH 102 105
ENDBRANCH  75  98
ENDBRANCH  49  50
ENDBRANCH  42  44
ENDBRANCH  41  42
ENDBRANCH  40  41
ENDBRANCH  39  40
ENDBRANCH  38  39
ENDBRANCH  37  38
ENDBRANCH  36  37
ENDBRANCH  35  36
ENDBRANCH   1  35
TORSDOF 28
ENDMDL
MODEL 3
REMARK VINA RESULT:      -8.3      5.326      9.113
REMARK SMILES Cc1ccc(S(=O)(=O)n2cc(C(=O)C(=O)NCC(=O)OCCOCCOCCOCCOC(=O)c3ccc(-c4c5nc(c(-c6cccc(S(=O)(=O)[O-])c6F)c6ccc([nH]6)c(-c6cccc(S(=O)(=O)[O-])c6F)c6nc(c(-c7cccc(S(=O)(=O)[O-])c7F)c7ccc4[nH]7)C=C6)C=C5)cc3)c3ccccc32)cc1
REMARK SMILES IDX 25 1 24 2 23 3 22 4 21 5 20 6 18 7 19 8 17 9 16 10 14 11
REMARK SMILES IDX 15 12 12 14 13 15 11 16 9 17 10 18 103 19 98 20 102 21 99 22
REMARK SMILES IDX 101 23 100 24 6 25 7 26 8 27 5 28 1 29 2 30 3 31 105 32 4 33
REMARK SMILES IDX 104 34 26 35 27 36 28 37 29 38 30 39 31 40 32 41 33 42 34 43
REMARK SMILES IDX 35 44 36 45 97 46 37 47 96 48 38 49 39 50 40 51 90 52 41 53
REMARK SMILES IDX 95 54 89 55 91 56 42 57 94 58 88 59 87 60 43 62 75 63 55 64
REMARK SMILES IDX 74 65 56 66 59 67 73 68 92 69 57 70 58 71 72 73 93 74 60 75
REMARK SMILES IDX 44 76 45 77 53 78 46 79 48 80 54 81 47 82 49 83 50 84 51 85
REMARK SMILES IDX 52 86 76 87 77 88 85 89 78 90 80 91 86 92 79 93 81 94 82 95
REMARK SMILES IDX 83 96 84 97 61 98 62 99 70 100 63 101 65 102 71 103 64 104
REMARK SMILES IDX 66 105 67 106 68 107 69 108
REMARK H PARENT 16 13 91 61 59 72
REMARK Flexibility Score: inf
ROOT
ATOM      1  C   UNL A   1      45.215  38.356  31.807  1.00  0.00     0.188 C 
ENDROOT
BRANCH   1   2
ATOM      2  C   UNL A   1      44.954  38.303  30.291  1.00  0.00     0.188 C 
BRANCH   2   3
ATOM      3  O   UNL A   1      46.042  38.354  29.386  1.00  0.00    -0.376 OA
BRANCH   3   4
ATOM      4  C   UNL A   1      45.757  37.995  28.033  1.00  0.00     0.202 C 
BRANCH   4   5
ATOM      5  C   UNL A   1      46.725  38.505  26.968  1.00  0.00     0.261 C 
BRANCH   5   6
ATOM      6  O   UNL A   1      45.984  39.196  25.950  1.00  0.00    -0.462 OA
BRANCH   6   7
ATOM      7  C   UNL A   1      46.661  40.104  25.218  1.00  0.00     0.325 C 
ATOM      8  O   UNL A   1      46.795  40.095  24.000  1.00  0.00    -0.250 OA
BRANCH   7   9
ATOM      9  C   UNL A   1      47.211  41.227  26.098  1.00  0.00     0.239 C 
BRANCH   9  10
ATOM     10  N   UNL A   1      46.213  42.109  26.708  1.00  0.00    -0.338 N 
ATOM     11  C   UNL A   1      45.914  43.436  26.560  1.00  0.00     0.292 C 
ATOM     12  O   UNL A   1      44.919  43.912  27.097  1.00  0.00    -0.265 OA
ATOM     13  H   UNL A   1      45.637  41.651  27.362  1.00  0.00     0.164 HD
BRANCH  11  14
ATOM     14  C   UNL A   1      46.787  44.310  25.670  1.00  0.00     0.252 C 
ATOM     15  O   UNL A   1      47.390  45.237  26.206  1.00  0.00    -0.283 OA
BRANCH  14  16
ATOM     16  C   UNL A   1      46.948  44.039  24.236  1.00  0.00     0.054 A 
ATOM     17  N   UNL A   1      46.650  43.407  22.115  1.00  0.00    -0.240 N 
ATOM     18  C   UNL A   1      46.047  43.474  23.348  1.00  0.00     0.117 A 
ATOM     19  C   UNL A   1      47.942  43.885  22.166  1.00  0.00     0.065 A 
ATOM     20  C   UNL A   1      48.145  44.296  23.488  1.00  0.00     0.012 A 
ATOM     21  C   UNL A   1      48.968  43.972  21.207  1.00  0.00     0.028 A 
ATOM     22  C   UNL A   1      49.400  44.828  23.852  1.00  0.00     0.011 A 
ATOM     23  C   UNL A   1      50.212  44.467  21.611  1.00  0.00     0.002 A 
ATOM     24  C   UNL A   1      50.426  44.897  22.914  1.00  0.00     0.001 A 
BRANCH  17  25
ATOM     25  S   UNL A   1      45.943  42.644  20.762  1.00  0.00     0.268 S 
ATOM     26  O   UNL A   1      44.703  42.051  21.262  1.00  0.00    -0.201 OA
ATOM     27  O   UNL A   1      46.973  41.852  20.144  1.00  0.00    -0.201 OA
BRANCH  25  28
ATOM     28  C   UNL A   1      45.481  43.911  19.606  1.00  0.00     0.088 A 
ATOM     29  C   UNL A   1      44.167  47.149  17.096  1.00  0.00     0.044 C 
ATOM     30  C   UNL A   1      44.626  46.002  17.948  1.00  0.00    -0.051 A 
ATOM     31  C   UNL A   1      43.692  45.246  18.668  1.00  0.00     0.005 A 
ATOM     32  C   UNL A   1      45.984  45.676  18.038  1.00  0.00     0.005 A 
ATOM     33  C   UNL A   1      44.116  44.208  19.499  1.00  0.00     0.022 A 
ATOM     34  C   UNL A   1      46.414  44.625  18.853  1.00  0.00     0.022 A 
ENDBRANCH  25  28
ENDBRANCH  17  25
ENDBRANCH  14  16
ENDBRANCH  11  14
ENDBRANCH   9  10
ENDBRANCH   7   9
ENDBRANCH   6   7
ENDBRANCH   5   6
ENDBRANCH   4   5
ENDBRANCH   3   4
ENDBRANCH   2   3
ENDBRANCH   1   2
BRANCH   1  35
ATOM     35  O   UNL A   1      44.106  38.612  32.642  1.00  0.00    -0.377 OA
BRANCH  35  36
ATOM     36  C   UNL A   1      44.142  38.147  34.000  1.00  0.00     0.188 C 
BRANCH  36  37
ATOM     37  C   UNL A   1      43.236  36.990  34.427  1.00  0.00     0.188 C 
BRANCH  37  38
ATOM     38  O   UNL A   1      43.076  37.051  35.842  1.00  0.00    -0.376 OA
BRANCH  38  39
ATOM     39  C   UNL A   1      41.784  36.783  36.369  1.00  0.00     0.202 C 
BRANCH  39  40
ATOM     40  C   UNL A   1      41.761  35.622  37.356  1.00  0.00     0.261 C 
BRANCH  40  41
ATOM     41  O   UNL A   1      42.498  34.515  36.800  1.00  0.00    -0.460 OA
BRANCH  41  42
ATOM     42  C   UNL A   1      41.715  33.501  36.337  1.00  0.00     0.338 C 
ATOM     43  O   UNL A   1      40.700  33.120  36.898  1.00  0.00    -0.246 OA
BRANCH  42  44
ATOM     44  C   UNL A   1      42.393  32.782  35.215  1.00  0.00     0.060 A 
ATOM     45  C   UNL A   1      42.538  33.406  33.971  1.00  0.00     0.016 A 
ATOM     46  C   UNL A   1      42.560  31.406  35.296  1.00  0.00     0.016 A 
ATOM     47  C   UNL A   1      42.610  32.636  32.795  1.00  0.00     0.010 A 
ATOM     48  C   UNL A   1      42.497  30.665  34.127  1.00  0.00     0.010 A 
ATOM     49  C   UNL A   1      42.462  31.260  32.851  1.00  0.00    -0.014 A 
BRANCH  49  50
ATOM     50  C   UNL A   1      42.215  30.341  31.707  1.00  0.00     0.031 A 
ATOM     51  C   UNL A   1      40.768  30.125  31.324  1.00  0.00     0.074 A 
ATOM     52  C   UNL A   1      43.201  30.052  30.807  1.00  0.00     0.049 A 
ATOM     53  N   UNL A   1      40.334  29.690  30.190  1.00  0.00    -0.248 NA
ATOM     54  C   UNL A   1      39.664  30.452  32.230  1.00  0.00     0.031 C 
ATOM     55  C   UNL A   1      43.001  30.021  29.353  1.00  0.00     0.029 A 
ATOM     56  N   UNL A   1      44.583  29.910  30.869  1.00  0.00    -0.354 N 
ATOM     57  C   UNL A   1      38.959  29.870  30.124  1.00  0.00     0.074 A 
ATOM     58  C   UNL A   1      38.595  30.338  31.433  1.00  0.00     0.031 C 
ATOM     59  C   UNL A   1      44.145  29.808  28.696  1.00  0.00     0.029 A 
ATOM     60  C   UNL A   1      45.059  29.324  29.681  1.00  0.00     0.049 A 
ATOM     61  H   UNL A   1      45.145  30.180  31.631  1.00  0.00     0.167 HD
ATOM     62  C   UNL A   1      38.318  29.671  28.933  1.00  0.00     0.034 A 
ATOM     63  C   UNL A   1      45.601  28.070  29.572  1.00  0.00     0.034 A 
ATOM     64  C   UNL A   1      39.225  29.011  27.964  1.00  0.00     0.049 A 
ATOM     65  C   UNL A   1      44.689  27.074  28.827  1.00  0.00     0.074 A 
ATOM     66  C   UNL A   1      39.707  29.314  26.699  1.00  0.00     0.029 A 
ATOM     67  N   UNL A   1      39.902  27.856  28.356  1.00  0.00    -0.354 N 
ATOM     68  N   UNL A   1      43.456  27.340  28.454  1.00  0.00    -0.248 NA
ATOM     69  C   UNL A   1      45.083  25.734  28.389  1.00  0.00     0.031 C 
ATOM     70  C   UNL A   1      40.753  28.400  26.390  1.00  0.00     0.029 A 
ATOM     71  C   UNL A   1      40.843  27.478  27.419  1.00  0.00     0.049 A 
ATOM     72  H   UNL A   1      39.731  27.370  29.196  1.00  0.00     0.167 HD
ATOM     73  C   UNL A   1      42.865  26.247  27.874  1.00  0.00     0.074 A 
ATOM     74  C   UNL A   1      43.955  25.289  27.801  1.00  0.00     0.031 C 
ATOM     75  C   UNL A   1      41.531  26.200  27.547  1.00  0.00     0.034 A 
BRANCH  62  76
ATOM     76  C   UNL A   1      36.908  30.150  28.518  1.00  0.00     0.023 A 
ATOM     77  C   UNL A   1      36.110  29.210  27.815  1.00  0.00     0.012 A 
ATOM     78  C   UNL A   1      36.315  31.434  28.667  1.00  0.00     0.148 A 
ATOM     79  C   UNL A   1      34.873  29.518  27.232  1.00  0.00     0.002 A 
ATOM     80  C   UNL A   1      35.044  31.730  28.132  1.00  0.00     0.091 A 
ATOM     81  F   UNL A   1      36.974  32.406  29.301  1.00  0.00    -0.205 F 
ATOM     82  C   UNL A   1      34.338  30.780  27.390  1.00  0.00     0.022 A 
BRANCH  80  83
ATOM     83  S   UNL A   1      34.203  33.318  28.340  1.00  0.00     0.127 S 
ATOM     84  O   UNL A   1      34.987  34.202  27.476  1.00  0.00    -0.237 OA
ATOM     85  O   UNL A   1      32.858  33.029  27.841  1.00  0.00    -0.237 OA
ATOM     86  O   UNL A   1      34.274  33.639  29.760  1.00  0.00    -0.744 OA
ENDBRANCH  80  83
ENDBRANCH  62  76
BRANCH  63  87
ATOM     87  C   UNL A   1      46.642  27.849  30.627  1.00  0.00     0.023 A 
ATOM     88  C   UNL A   1      46.134  27.119  31.738  1.00  0.00     0.012 A 
ATOM     89  C   UNL A   1      47.953  27.596  30.198  1.00  0.00     0.148 A 
ATOM     90  C   UNL A   1      46.757  25.934  32.137  1.00  0.00     0.002 A 
ATOM     91  C   UNL A   1      48.581  26.422  30.620  1.00  0.00     0.091 A 
ATOM     92  F   UNL A   1      48.490  28.395  29.268  1.00  0.00    -0.205 F 
ATOM     93  C   UNL A   1      47.950  25.553  31.530  1.00  0.00     0.022 A 
BRANCH  91  94
ATOM     94  S   UNL A   1      50.079  25.867  29.797  1.00  0.00     0.127 S 
ATOM     95  O   UNL A   1      49.547  25.089  28.686  1.00  0.00    -0.237 OA
ATOM     96  O   UNL A   1      50.721  27.127  29.416  1.00  0.00    -0.237 OA
ATOM     97  O   UNL A   1      50.795  25.128  30.828  1.00  0.00    -0.744 OA
ENDBRANCH  91  94
ENDBRANCH  63  87
BRANCH  75  98
ATOM     98  C   UNL A   1      40.693  24.935  27.313  1.00  0.00     0.023 A 
ATOM     99  C   UNL A   1      39.416  24.984  26.729  1.00  0.00     0.012 A 
ATOM    100  C   UNL A   1      41.238  23.629  27.514  1.00  0.00     0.148 A 
ATOM    101  C   UNL A   1      38.697  23.826  26.405  1.00  0.00     0.002 A 
ATOM    102  C   UNL A   1      40.567  22.484  27.083  1.00  0.00     0.091 A 
ATOM    103  F   UNL A   1      42.408  23.469  28.143  1.00  0.00    -0.205 F 
ATOM    104  C   UNL A   1      39.281  22.578  26.557  1.00  0.00     0.022 A 
BRANCH 102 105
ATOM    105  S   UNL A   1      41.355  20.864  27.042  1.00  0.00     0.127 S 
ATOM    106  O   UNL A   1      41.003  20.395  25.703  1.00  0.00    -0.237 OA
ATOM    107  O   UNL A   1      42.767  21.210  27.214  1.00  0.00    -0.237 OA
ATOM    108  O   UNL A   1      40.781  20.113  28.148  1.00  0.00    -0.744 OA
ENDBRANCH 102 105
ENDBRANCH  75  98
ENDBRANCH  49  50
ENDBRANCH  42  44
ENDBRANCH  41  42
ENDBRANCH  40  41
ENDBRANCH  39  40
ENDBRANCH  38  39
ENDBRANCH  37  38
ENDBRANCH  36  37
ENDBRANCH  35  36
ENDBRANCH   1  35
TORSDOF 28
ENDMDL
