MODEL 1
REMARK VINA RESULT:      -9.1      0.000      0.000
REMARK SMILES Cc1ccc(S(=O)(=O)N2CCN(C(=O)[C@H]3CCCC[C@H]3C(=O)OCCOCCOCCOCCOC(=O)c3ccc(-c4c5nc(c(-c6cccc(S(=O)(=O)[O-])c6F)c6ccc([nH]6)c(-c6cccc(S(=O)(=O)[O-])c6F)c6nc(c(-c7cccc(S(=O)(=O)[O-])c7F)c7ccc4[nH]7)C=C6)C=C5)cc3)CC2)cc1C
REMARK SMILES IDX 29 1 28 2 27 3 26 4 25 5 24 6 23 7 21 8 22 9 20 10 15 11
REMARK SMILES IDX 16 12 17 13 19 14 18 15 13 16 9 17 10 18 102 19 11 20 101 21
REMARK SMILES IDX 12 22 14 23 6 24 7 25 8 26 5 27 1 28 2 29 3 30 104 31 4 32
REMARK SMILES IDX 103 33 105 34 30 35 31 36 32 37 33 38 34 39 35 40 36 41
REMARK SMILES IDX 37 42 38 43 39 44 100 45 40 46 99 47 41 48 42 49 43 50 93 51
REMARK SMILES IDX 44 52 98 53 92 54 94 55 45 56 97 57 91 58 90 59 46 61 78 62
REMARK SMILES IDX 58 63 77 64 59 65 62 66 76 67 95 68 60 69 61 70 75 72 96 73
REMARK SMILES IDX 63 74 47 75 48 76 56 77 49 78 51 79 57 80 50 81 52 82 53 83
REMARK SMILES IDX 54 84 55 85 79 86 80 87 88 88 81 89 83 90 89 91 82 92 84 93
REMARK SMILES IDX 85 94 86 95 87 96 64 97 65 98 73 99 66 100 68 101 74 102
REMARK SMILES IDX 67 103 69 104 70 105 71 106 72 107
REMARK H PARENT 94 60 62 71
REMARK Flexibility Score: inf
ROOT
ATOM      1  O   UNL A   1      33.361  25.396  24.632  1.00  0.00    -0.377 OA
ENDROOT
BRANCH   1   2
ATOM      2  C   UNL A   1      34.581  24.695  24.513  1.00  0.00     0.188 C 
BRANCH   2   3
ATOM      3  C   UNL A   1      34.924  23.642  25.577  1.00  0.00     0.188 C 
BRANCH   3   4
ATOM      4  O   UNL A   1      36.193  23.651  26.191  1.00  0.00    -0.376 OA
BRANCH   4   5
ATOM      5  C   UNL A   1      37.304  22.967  25.628  1.00  0.00     0.202 C 
BRANCH   5   6
ATOM      6  C   UNL A   1      38.698  22.856  26.268  1.00  0.00     0.261 C 
BRANCH   6   7
ATOM      7  O   UNL A   1      39.383  21.603  26.138  1.00  0.00    -0.463 OA
BRANCH   7   8
ATOM      8  C   UNL A   1      40.562  21.541  26.790  1.00  0.00     0.309 C 
ATOM      9  O   UNL A   1      40.661  21.499  28.016  1.00  0.00    -0.252 OA
BRANCH   8  10
ATOM     10  C   UNL A   1      41.808  21.468  25.925  1.00  0.00     0.111 C 
ATOM     11  C   UNL A   1      42.679  22.716  25.615  1.00  0.00     0.093 C 
ATOM     12  C   UNL A   1      43.844  22.284  24.691  1.00  0.00     0.014 C 
ATOM     13  C   UNL A   1      44.637  21.092  25.218  1.00  0.00     0.001 C 
ATOM     14  C   UNL A   1      42.621  20.269  26.441  1.00  0.00     0.016 C 
ATOM     15  C   UNL A   1      43.741  19.897  25.489  1.00  0.00     0.001 C 
BRANCH  11  16
ATOM     16  C   UNL A   1      43.181  23.488  26.843  1.00  0.00     0.226 C 
ATOM     17  N   UNL A   1      43.498  27.593  26.901  1.00  0.00    -0.194 NA
ATOM     18  C   UNL A   1      44.055  26.738  27.982  1.00  0.00     0.124 C 
ATOM     19  C   UNL A   1      43.075  26.886  25.674  1.00  0.00     0.124 C 
ATOM     20  C   UNL A   1      43.150  25.524  28.245  1.00  0.00     0.136 C 
ATOM     21  C   UNL A   1      42.156  25.694  26.019  1.00  0.00     0.136 C 
ATOM     22  N   UNL A   1      42.805  24.818  27.001  1.00  0.00    -0.340 N 
ATOM     23  O   UNL A   1      43.911  22.926  27.662  1.00  0.00    -0.275 OA
BRANCH  17  24
ATOM     24  S   UNL A   1      43.354  29.254  27.073  1.00  0.00     0.243 S 
ATOM     25  O   UNL A   1      42.831  29.786  25.825  1.00  0.00    -0.207 OA
ATOM     26  O   UNL A   1      44.573  29.758  27.652  1.00  0.00    -0.207 OA
BRANCH  24  27
ATOM     27  C   UNL A   1      42.051  29.457  28.274  1.00  0.00     0.082 A 
ATOM     28  C   UNL A   1      39.000  29.838  31.301  1.00  0.00     0.044 C 
ATOM     29  C   UNL A   1      40.043  29.657  30.231  1.00  0.00    -0.048 A 
ATOM     30  C   UNL A   1      41.357  30.070  30.503  1.00  0.00     0.005 A 
ATOM     31  C   UNL A   1      39.742  29.099  28.970  1.00  0.00    -0.047 A 
ATOM     32  C   UNL A   1      42.356  29.959  29.537  1.00  0.00     0.022 A 
ATOM     33  C   UNL A   1      40.754  29.018  27.991  1.00  0.00     0.025 A 
ATOM     34  C   UNL A   1      38.388  28.531  28.630  1.00  0.00     0.044 C 
ENDBRANCH  24  27
ENDBRANCH  17  24
ENDBRANCH  11  16
ENDBRANCH   8  10
ENDBRANCH   7   8
ENDBRANCH   6   7
ENDBRANCH   5   6
ENDBRANCH   4   5
ENDBRANCH   3   4
ENDBRANCH   2   3
ENDBRANCH   1   2
BRANCH   1  35
ATOM     35  C   UNL A   1      33.263  26.521  25.501  1.00  0.00     0.188 C 
BRANCH  35  36
ATOM     36  C   UNL A   1      31.932  27.284  25.663  1.00  0.00     0.188 C 
BRANCH  36  37
ATOM     37  O   UNL A   1      32.067  28.699  25.636  1.00  0.00    -0.376 OA
BRANCH  37  38
ATOM     38  C   UNL A   1      32.122  29.393  26.873  1.00  0.00     0.202 C 
BRANCH  38  39
ATOM     39  C   UNL A   1      32.598  30.849  26.806  1.00  0.00     0.261 C 
BRANCH  39  40
ATOM     40  O   UNL A   1      33.462  31.244  27.882  1.00  0.00    -0.460 OA
BRANCH  40  41
ATOM     41  C   UNL A   1      33.487  32.551  28.221  1.00  0.00     0.338 C 
ATOM     42  O   UNL A   1      32.767  33.428  27.775  1.00  0.00    -0.246 OA
BRANCH  41  43
ATOM     43  C   UNL A   1      34.459  32.757  29.319  1.00  0.00     0.060 A 
ATOM     44  C   UNL A   1      34.773  34.068  29.692  1.00  0.00     0.016 A 
ATOM     45  C   UNL A   1      35.109  31.681  29.929  1.00  0.00     0.016 A 
ATOM     46  C   UNL A   1      35.831  34.303  30.568  1.00  0.00     0.010 A 
ATOM     47  C   UNL A   1      36.197  31.913  30.764  1.00  0.00     0.010 A 
ATOM     48  C   UNL A   1      36.594  33.226  31.038  1.00  0.00    -0.014 A 
BRANCH  48  49
ATOM     49  C   UNL A   1      37.887  33.474  31.703  1.00  0.00     0.031 A 
ATOM     50  C   UNL A   1      37.974  33.358  33.200  1.00  0.00     0.074 A 
ATOM     51  C   UNL A   1      38.939  33.888  30.982  1.00  0.00     0.049 A 
ATOM     52  N   UNL A   1      39.015  33.449  33.981  1.00  0.00    -0.248 NA
ATOM     53  C   UNL A   1      36.706  33.145  33.917  1.00  0.00     0.031 C 
ATOM     54  C   UNL A   1      38.925  34.155  29.545  1.00  0.00     0.029 A 
ATOM     55  N   UNL A   1      40.217  34.181  31.371  1.00  0.00    -0.354 N 
ATOM     56  C   UNL A   1      38.533  33.322  35.280  1.00  0.00     0.074 A 
ATOM     57  C   UNL A   1      37.098  33.180  35.184  1.00  0.00     0.031 C 
ATOM     58  C   UNL A   1      40.138  34.596  29.174  1.00  0.00     0.029 A 
ATOM     59  C   UNL A   1      41.018  34.603  30.340  1.00  0.00     0.049 A 
ATOM     60  H   UNL A   1      40.532  34.096  32.300  1.00  0.00     0.167 HD
ATOM     61  C   UNL A   1      39.233  33.300  36.440  1.00  0.00     0.034 A 
ATOM     62  C   UNL A   1      42.325  34.918  30.336  1.00  0.00     0.034 A 
ATOM     63  C   UNL A   1      40.668  33.403  36.493  1.00  0.00     0.049 A 
ATOM     64  C   UNL A   1      43.112  34.717  31.601  1.00  0.00     0.074 A 
ATOM     65  C   UNL A   1      41.508  33.265  37.583  1.00  0.00     0.029 A 
ATOM     66  N   UNL A   1      41.477  33.673  35.399  1.00  0.00    -0.354 N 
ATOM     67  N   UNL A   1      42.684  34.380  32.795  1.00  0.00    -0.248 NA
ATOM     68  C   UNL A   1      44.571  34.857  31.502  1.00  0.00     0.031 C 
ATOM     69  C   UNL A   1      42.825  33.456  37.149  1.00  0.00     0.029 A 
ATOM     70  C   UNL A   1      42.806  33.692  35.782  1.00  0.00     0.049 A 
ATOM     71  H   UNL A   1      41.153  33.829  34.482  1.00  0.00     0.167 HD
ATOM     72  C   UNL A   1      43.821  34.225  33.579  1.00  0.00     0.074 A 
ATOM     73  C   UNL A   1      44.956  34.484  32.715  1.00  0.00     0.031 C 
ATOM     74  C   UNL A   1      43.920  33.908  34.894  1.00  0.00     0.034 A 
BRANCH  61  75
ATOM     75  C   UNL A   1      38.480  33.080  37.731  1.00  0.00     0.023 A 
ATOM     76  C   UNL A   1      37.808  31.859  37.943  1.00  0.00     0.012 A 
ATOM     77  C   UNL A   1      38.511  34.032  38.771  1.00  0.00     0.148 A 
ATOM     78  C   UNL A   1      37.154  31.599  39.146  1.00  0.00     0.002 A 
ATOM     79  C   UNL A   1      37.900  33.746  39.989  1.00  0.00     0.091 A 
ATOM     80  F   UNL A   1      39.135  35.199  38.552  1.00  0.00    -0.205 F 
ATOM     81  C   UNL A   1      37.212  32.537  40.173  1.00  0.00     0.022 A 
BRANCH  79  82
ATOM     82  S   UNL A   1      38.001  34.843  41.410  1.00  0.00     0.127 S 
ATOM     83  O   UNL A   1      36.663  34.704  41.983  1.00  0.00    -0.237 OA
ATOM     84  O   UNL A   1      39.069  34.227  42.198  1.00  0.00    -0.237 OA
ATOM     85  O   UNL A   1      38.322  36.159  40.877  1.00  0.00    -0.744 OA
ENDBRANCH  79  82
ENDBRANCH  61  75
BRANCH  62  86
ATOM     86  C   UNL A   1      42.978  35.284  29.052  1.00  0.00     0.023 A 
ATOM     87  C   UNL A   1      43.123  36.644  28.717  1.00  0.00     0.012 A 
ATOM     88  C   UNL A   1      43.534  34.303  28.210  1.00  0.00     0.148 A 
ATOM     89  C   UNL A   1      43.787  37.021  27.550  1.00  0.00     0.002 A 
ATOM     90  C   UNL A   1      44.239  34.687  27.076  1.00  0.00     0.091 A 
ATOM     91  F   UNL A   1      43.383  33.014  28.550  1.00  0.00    -0.205 F 
ATOM     92  C   UNL A   1      44.354  36.044  26.736  1.00  0.00     0.022 A 
BRANCH  90  93
ATOM     93  S   UNL A   1      45.126  33.506  26.054  1.00  0.00     0.127 S 
ATOM     94  O   UNL A   1      45.615  34.356  24.971  1.00  0.00    -0.237 OA
ATOM     95  O   UNL A   1      46.158  33.023  26.972  1.00  0.00    -0.237 OA
ATOM     96  O   UNL A   1      44.140  32.501  25.680  1.00  0.00    -0.744 OA
ENDBRANCH  90  93
ENDBRANCH  62  86
BRANCH  74  97
ATOM     97  C   UNL A   1      45.306  33.794  35.473  1.00  0.00     0.023 A 
ATOM     98  C   UNL A   1      45.934  34.932  36.016  1.00  0.00     0.012 A 
ATOM     99  C   UNL A   1      45.967  32.551  35.515  1.00  0.00     0.148 A 
ATOM    100  C   UNL A   1      47.218  34.844  36.549  1.00  0.00     0.002 A 
ATOM    101  C   UNL A   1      47.227  32.461  36.093  1.00  0.00     0.091 A 
ATOM    102  F   UNL A   1      45.361  31.483  34.976  1.00  0.00    -0.205 F 
ATOM    103  C   UNL A   1      47.861  33.609  36.596  1.00  0.00     0.022 A 
BRANCH 101 104
ATOM    104  S   UNL A   1      48.083  30.893  36.275  1.00  0.00     0.127 S 
ATOM    105  O   UNL A   1      47.269  30.225  37.290  1.00  0.00    -0.237 OA
ATOM    106  O   UNL A   1      47.975  30.319  34.933  1.00  0.00    -0.237 OA
ATOM    107  O   UNL A   1      49.442  31.228  36.676  1.00  0.00    -0.744 OA
ENDBRANCH 101 104
ENDBRANCH  74  97
ENDBRANCH  48  49
ENDBRANCH  41  43
ENDBRANCH  40  41
ENDBRANCH  39  40
ENDBRANCH  38  39
ENDBRANCH  37  38
ENDBRANCH  36  37
ENDBRANCH  35  36
ENDBRANCH   1  35
TORSDOF 26
ENDMDL
MODEL 2
REMARK VINA RESULT:      -8.7      4.946     11.221
REMARK SMILES Cc1ccc(S(=O)(=O)N2CCN(C(=O)[C@H]3CCCC[C@H]3C(=O)OCCOCCOCCOCCOC(=O)c3ccc(-c4c5nc(c(-c6cccc(S(=O)(=O)[O-])c6F)c6ccc([nH]6)c(-c6cccc(S(=O)(=O)[O-])c6F)c6nc(c(-c7cccc(S(=O)(=O)[O-])c7F)c7ccc4[nH]7)C=C6)C=C5)cc3)CC2)cc1C
REMARK SMILES IDX 29 1 28 2 27 3 26 4 25 5 24 6 23 7 21 8 22 9 20 10 15 11
REMARK SMILES IDX 16 12 17 13 19 14 18 15 13 16 9 17 10 18 102 19 11 20 101 21
REMARK SMILES IDX 12 22 14 23 6 24 7 25 8 26 5 27 1 28 2 29 3 30 104 31 4 32
REMARK SMILES IDX 103 33 105 34 30 35 31 36 32 37 33 38 34 39 35 40 36 41
REMARK SMILES IDX 37 42 38 43 39 44 100 45 40 46 99 47 41 48 42 49 43 50 93 51
REMARK SMILES IDX 44 52 98 53 92 54 94 55 45 56 97 57 91 58 90 59 46 61 78 62
REMARK SMILES IDX 58 63 77 64 59 65 62 66 76 67 95 68 60 69 61 70 75 72 96 73
REMARK SMILES IDX 63 74 47 75 48 76 56 77 49 78 51 79 57 80 50 81 52 82 53 83
REMARK SMILES IDX 54 84 55 85 79 86 80 87 88 88 81 89 83 90 89 91 82 92 84 93
REMARK SMILES IDX 85 94 86 95 87 96 64 97 65 98 73 99 66 100 68 101 74 102
REMARK SMILES IDX 67 103 69 104 70 105 71 106 72 107
REMARK H PARENT 94 60 62 71
REMARK Flexibility Score: inf
ROOT
ATOM      1  O   UNL A   1      41.732  21.990  28.308  1.00  0.00    -0.377 OA
ENDROOT
BRANCH   1   2
ATOM      2  C   UNL A   1      41.079  21.334  27.242  1.00  0.00     0.188 C 
BRANCH   2   3
ATOM      3  C   UNL A   1      40.119  22.149  26.361  1.00  0.00     0.188 C 
BRANCH   3   4
ATOM      4  O   UNL A   1      39.686  23.421  26.786  1.00  0.00    -0.376 OA
BRANCH   4   5
ATOM      5  C   UNL A   1      38.434  23.961  26.386  1.00  0.00     0.202 C 
BRANCH   5   6
ATOM      6  C   UNL A   1      37.101  23.196  26.367  1.00  0.00     0.261 C 
BRANCH   6   7
ATOM      7  O   UNL A   1      36.680  22.638  25.116  1.00  0.00    -0.463 OA
BRANCH   7   8
ATOM      8  C   UNL A   1      36.385  21.322  25.161  1.00  0.00     0.309 C 
ATOM      9  O   UNL A   1      37.229  20.431  25.063  1.00  0.00    -0.252 OA
BRANCH   8  10
ATOM     10  C   UNL A   1      34.928  20.965  25.398  1.00  0.00     0.111 C 
ATOM     11  C   UNL A   1      33.787  22.013  25.293  1.00  0.00     0.093 C 
ATOM     12  C   UNL A   1      32.446  21.313  25.621  1.00  0.00     0.014 C 
ATOM     13  C   UNL A   1      32.199  20.047  24.806  1.00  0.00     0.001 C 
ATOM     14  C   UNL A   1      34.661  19.687  24.584  1.00  0.00     0.016 C 
ATOM     15  C   UNL A   1      33.335  19.052  24.956  1.00  0.00     0.001 C 
BRANCH  11  16
ATOM     16  C   UNL A   1      33.721  22.781  23.967  1.00  0.00     0.226 C 
ATOM     17  N   UNL A   1      31.402  26.147  23.470  1.00  0.00    -0.194 NA
ATOM     18  C   UNL A   1      32.068  25.467  22.329  1.00  0.00     0.124 C 
ATOM     19  C   UNL A   1      31.383  25.399  24.744  1.00  0.00     0.124 C 
ATOM     20  C   UNL A   1      33.440  24.912  22.744  1.00  0.00     0.136 C 
ATOM     21  C   UNL A   1      32.797  24.892  25.102  1.00  0.00     0.136 C 
ATOM     22  N   UNL A   1      33.360  24.125  23.984  1.00  0.00    -0.340 N 
ATOM     23  O   UNL A   1      33.979  22.201  22.911  1.00  0.00    -0.275 OA
BRANCH  17  24
ATOM     24  S   UNL A   1      30.723  27.672  23.316  1.00  0.00     0.243 S 
ATOM     25  O   UNL A   1      29.380  27.618  23.869  1.00  0.00    -0.207 OA
ATOM     26  O   UNL A   1      30.965  28.144  21.977  1.00  0.00    -0.207 OA
BRANCH  24  27
ATOM     27  C   UNL A   1      31.671  28.687  24.435  1.00  0.00     0.082 A 
ATOM     28  C   UNL A   1      33.979  30.989  27.262  1.00  0.00     0.044 C 
ATOM     29  C   UNL A   1      33.130  30.195  26.306  1.00  0.00    -0.048 A 
ATOM     30  C   UNL A   1      33.665  29.020  25.753  1.00  0.00     0.005 A 
ATOM     31  C   UNL A   1      31.826  30.597  25.942  1.00  0.00    -0.047 A 
ATOM     32  C   UNL A   1      32.937  28.265  24.836  1.00  0.00     0.022 A 
ATOM     33  C   UNL A   1      31.110  29.841  24.991  1.00  0.00     0.025 A 
ATOM     34  C   UNL A   1      31.133  31.781  26.566  1.00  0.00     0.044 C 
ENDBRANCH  24  27
ENDBRANCH  17  24
ENDBRANCH  11  16
ENDBRANCH   8  10
ENDBRANCH   7   8
ENDBRANCH   6   7
ENDBRANCH   5   6
ENDBRANCH   4   5
ENDBRANCH   3   4
ENDBRANCH   2   3
ENDBRANCH   1   2
BRANCH   1  35
ATOM     35  C   UNL A   1      42.917  22.743  28.066  1.00  0.00     0.188 C 
BRANCH  35  36
ATOM     36  C   UNL A   1      43.179  23.389  26.690  1.00  0.00     0.188 C 
BRANCH  36  37
ATOM     37  O   UNL A   1      44.021  22.622  25.839  1.00  0.00    -0.376 OA
BRANCH  37  38
ATOM     38  C   UNL A   1      44.339  23.147  24.559  1.00  0.00     0.202 C 
BRANCH  38  39
ATOM     39  C   UNL A   1      45.832  23.251  24.228  1.00  0.00     0.261 C 
BRANCH  39  40
ATOM     40  O   UNL A   1      46.441  24.495  24.603  1.00  0.00    -0.460 OA
BRANCH  40  41
ATOM     41  C   UNL A   1      46.865  24.629  25.879  1.00  0.00     0.338 C 
ATOM     42  O   UNL A   1      47.729  23.968  26.427  1.00  0.00    -0.246 OA
BRANCH  41  43
ATOM     43  C   UNL A   1      46.194  25.794  26.500  1.00  0.00     0.060 A 
ATOM     44  C   UNL A   1      45.416  26.624  25.688  1.00  0.00     0.016 A 
ATOM     45  C   UNL A   1      46.382  26.111  27.848  1.00  0.00     0.016 A 
ATOM     46  C   UNL A   1      44.946  27.837  26.187  1.00  0.00     0.010 A 
ATOM     47  C   UNL A   1      45.957  27.342  28.335  1.00  0.00     0.010 A 
ATOM     48  C   UNL A   1      45.288  28.231  27.488  1.00  0.00    -0.014 A 
BRANCH  48  49
ATOM     49  C   UNL A   1      45.068  29.624  27.917  1.00  0.00     0.031 A 
ATOM     50  C   UNL A   1      46.106  30.663  27.593  1.00  0.00     0.074 A 
ATOM     51  C   UNL A   1      43.999  29.930  28.668  1.00  0.00     0.049 A 
ATOM     52  N   UNL A   1      46.083  31.952  27.796  1.00  0.00    -0.248 NA
ATOM     53  C   UNL A   1      47.356  30.176  26.987  1.00  0.00     0.031 C 
ATOM     54  C   UNL A   1      43.002  28.973  29.145  1.00  0.00     0.029 A 
ATOM     55  N   UNL A   1      43.593  31.131  29.181  1.00  0.00    -0.354 N 
ATOM     56  C   UNL A   1      47.316  32.430  27.361  1.00  0.00     0.074 A 
ATOM     57  C   UNL A   1      48.077  31.287  26.912  1.00  0.00     0.031 C 
ATOM     58  C   UNL A   1      42.105  29.625  29.904  1.00  0.00     0.029 A 
ATOM     59  C   UNL A   1      42.447  31.044  29.930  1.00  0.00     0.049 A 
ATOM     60  H   UNL A   1      44.075  31.975  29.027  1.00  0.00     0.167 HD
ATOM     61  C   UNL A   1      47.754  33.712  27.319  1.00  0.00     0.034 A 
ATOM     62  C   UNL A   1      41.735  32.014  30.532  1.00  0.00     0.034 A 
ATOM     63  C   UNL A   1      46.950  34.831  27.737  1.00  0.00     0.049 A 
ATOM     64  C   UNL A   1      42.151  33.443  30.321  1.00  0.00     0.074 A 
ATOM     65  C   UNL A   1      47.221  36.182  27.626  1.00  0.00     0.029 A 
ATOM     66  N   UNL A   1      45.711  34.722  28.352  1.00  0.00    -0.354 N 
ATOM     67  N   UNL A   1      43.216  33.911  29.713  1.00  0.00    -0.248 NA
ATOM     68  C   UNL A   1      41.230  34.478  30.804  1.00  0.00     0.031 C 
ATOM     69  C   UNL A   1      46.147  36.891  28.178  1.00  0.00     0.029 A 
ATOM     70  C   UNL A   1      45.198  35.979  28.614  1.00  0.00     0.049 A 
ATOM     71  H   UNL A   1      45.263  33.873  28.571  1.00  0.00     0.167 HD
ATOM     72  C   UNL A   1      43.073  35.293  29.701  1.00  0.00     0.074 A 
ATOM     73  C   UNL A   1      41.805  35.582  30.344  1.00  0.00     0.031 C 
ATOM     74  C   UNL A   1      43.914  36.239  29.215  1.00  0.00     0.034 A 
BRANCH  61  75
ATOM     75  C   UNL A   1      49.119  33.986  26.735  1.00  0.00     0.023 A 
ATOM     76  C   UNL A   1      49.223  34.493  25.423  1.00  0.00     0.012 A 
ATOM     77  C   UNL A   1      50.291  33.836  27.504  1.00  0.00     0.148 A 
ATOM     78  C   UNL A   1      50.465  34.814  24.874  1.00  0.00     0.002 A 
ATOM     79  C   UNL A   1      51.522  34.207  26.969  1.00  0.00     0.091 A 
ATOM     80  F   UNL A   1      50.184  33.334  28.742  1.00  0.00    -0.205 F 
ATOM     81  C   UNL A   1      51.611  34.684  25.651  1.00  0.00     0.022 A 
BRANCH  79  82
ATOM     82  S   UNL A   1      53.048  34.173  27.920  1.00  0.00     0.127 S 
ATOM     83  O   UNL A   1      52.554  34.400  29.277  1.00  0.00    -0.237 OA
ATOM     84  O   UNL A   1      53.537  32.817  27.668  1.00  0.00    -0.237 OA
ATOM     85  O   UNL A   1      53.884  35.231  27.371  1.00  0.00    -0.744 OA
ENDBRANCH  79  82
ENDBRANCH  61  75
BRANCH  62  86
ATOM     86  C   UNL A   1      40.474  31.656  31.233  1.00  0.00     0.023 A 
ATOM     87  C   UNL A   1      40.492  31.464  32.628  1.00  0.00     0.012 A 
ATOM     88  C   UNL A   1      39.247  31.596  30.544  1.00  0.00     0.148 A 
ATOM     89  C   UNL A   1      39.315  31.190  33.323  1.00  0.00     0.002 A 
ATOM     90  C   UNL A   1      38.071  31.374  31.250  1.00  0.00     0.091 A 
ATOM     91  F   UNL A   1      39.255  31.782  29.216  1.00  0.00    -0.205 F 
ATOM     92  C   UNL A   1      38.104  31.156  32.636  1.00  0.00     0.022 A 
BRANCH  90  93
ATOM     93  S   UNL A   1      36.456  31.461  30.470  1.00  0.00     0.127 S 
ATOM     94  O   UNL A   1      35.562  31.358  31.621  1.00  0.00    -0.237 OA
ATOM     95  O   UNL A   1      36.495  32.780  29.836  1.00  0.00    -0.237 OA
ATOM     96  O   UNL A   1      36.418  30.347  29.532  1.00  0.00    -0.744 OA
ENDBRANCH  90  93
ENDBRANCH  62  86
BRANCH  74  97
ATOM     97  C   UNL A   1      43.476  37.675  29.331  1.00  0.00     0.023 A 
ATOM     98  C   UNL A   1      42.741  38.270  28.286  1.00  0.00     0.012 A 
ATOM     99  C   UNL A   1      43.757  38.421  30.492  1.00  0.00     0.148 A 
ATOM    100  C   UNL A   1      42.333  39.599  28.375  1.00  0.00     0.002 A 
ATOM    101  C   UNL A   1      43.305  39.731  30.594  1.00  0.00     0.091 A 
ATOM    102  F   UNL A   1      44.474  37.845  31.467  1.00  0.00    -0.205 F 
ATOM    103  C   UNL A   1      42.607  40.326  29.531  1.00  0.00     0.022 A 
BRANCH 101 104
ATOM    104  S   UNL A   1      43.537  40.705  32.085  1.00  0.00     0.127 S 
ATOM    105  O   UNL A   1      44.987  40.643  32.260  1.00  0.00    -0.237 OA
ATOM    106  O   UNL A   1      43.027  42.017  31.685  1.00  0.00    -0.237 OA
ATOM    107  O   UNL A   1      42.747  40.045  33.115  1.00  0.00    -0.744 OA
ENDBRANCH 101 104
ENDBRANCH  74  97
ENDBRANCH  48  49
ENDBRANCH  41  43
ENDBRANCH  40  41
ENDBRANCH  39  40
ENDBRANCH  38  39
ENDBRANCH  37  38
ENDBRANCH  36  37
ENDBRANCH  35  36
ENDBRANCH   1  35
TORSDOF 26
ENDMDL
MODEL 3
REMARK VINA RESULT:      -8.6      3.112      7.759
REMARK SMILES Cc1ccc(S(=O)(=O)N2CCN(C(=O)[C@H]3CCCC[C@H]3C(=O)OCCOCCOCCOCCOC(=O)c3ccc(-c4c5nc(c(-c6cccc(S(=O)(=O)[O-])c6F)c6ccc([nH]6)c(-c6cccc(S(=O)(=O)[O-])c6F)c6nc(c(-c7cccc(S(=O)(=O)[O-])c7F)c7ccc4[nH]7)C=C6)C=C5)cc3)CC2)cc1C
REMARK SMILES IDX 29 1 28 2 27 3 26 4 25 5 24 6 23 7 21 8 22 9 20 10 15 11
REMARK SMILES IDX 16 12 17 13 19 14 18 15 13 16 9 17 10 18 102 19 11 20 101 21
REMARK SMILES IDX 12 22 14 23 6 24 7 25 8 26 5 27 1 28 2 29 3 30 104 31 4 32
REMARK SMILES IDX 103 33 105 34 30 35 31 36 32 37 33 38 34 39 35 40 36 41
REMARK SMILES IDX 37 42 38 43 39 44 100 45 40 46 99 47 41 48 42 49 43 50 93 51
REMARK SMILES IDX 44 52 98 53 92 54 94 55 45 56 97 57 91 58 90 59 46 61 78 62
REMARK SMILES IDX 58 63 77 64 59 65 62 66 76 67 95 68 60 69 61 70 75 72 96 73
REMARK SMILES IDX 63 74 47 75 48 76 56 77 49 78 51 79 57 80 50 81 52 82 53 83
REMARK SMILES IDX 54 84 55 85 79 86 80 87 88 88 81 89 83 90 89 91 82 92 84 93
REMARK SMILES IDX 85 94 86 95 87 96 64 97 65 98 73 99 66 100 68 101 74 102
REMARK SMILES IDX 67 103 69 104 70 105 71 106 72 107
REMARK H PARENT 94 60 62 71
REMARK Flexibility Score: inf
ROOT
ATOM      1  O   UNL A   1      33.913  25.069  24.703  1.00  0.00    -0.377 OA
ENDROOT
BRANCH   1   2
ATOM      2  C   UNL A   1      34.880  24.054  24.534  1.00  0.00     0.188 C 
BRANCH   2   3
ATOM      3  C   UNL A   1      35.313  23.246  25.767  1.00  0.00     0.188 C 
BRANCH   3   4
ATOM      4  O   UNL A   1      36.657  23.280  26.192  1.00  0.00    -0.376 OA
BRANCH   4   5
ATOM      5  C   UNL A   1      37.655  22.463  25.596  1.00  0.00     0.202 C 
BRANCH   5   6
ATOM      6  C   UNL A   1      39.124  22.384  26.041  1.00  0.00     0.261 C 
BRANCH   6   7
ATOM      7  O   UNL A   1      39.544  21.191  26.715  1.00  0.00    -0.463 OA
BRANCH   7   8
ATOM      8  C   UNL A   1      40.806  21.230  27.188  1.00  0.00     0.309 C 
ATOM      9  O   UNL A   1      41.116  21.748  28.261  1.00  0.00    -0.252 OA
BRANCH   8  10
ATOM     10  C   UNL A   1      41.864  20.542  26.343  1.00  0.00     0.111 C 
ATOM     11  C   UNL A   1      42.945  21.333  25.557  1.00  0.00     0.093 C 
ATOM     12  C   UNL A   1      43.833  20.322  24.791  1.00  0.00     0.014 C 
ATOM     13  C   UNL A   1      44.399  19.211  25.673  1.00  0.00     0.001 C 
ATOM     14  C   UNL A   1      42.446  19.416  27.216  1.00  0.00     0.016 C 
ATOM     15  C   UNL A   1      43.302  18.462  26.405  1.00  0.00     0.001 C 
BRANCH  11  16
ATOM     16  C   UNL A   1      43.782  22.310  26.393  1.00  0.00     0.226 C 
ATOM     17  N   UNL A   1      43.667  26.384  25.811  1.00  0.00    -0.194 NA
ATOM     18  C   UNL A   1      44.671  25.737  26.696  1.00  0.00     0.124 C 
ATOM     19  C   UNL A   1      42.896  25.475  24.937  1.00  0.00     0.124 C 
ATOM     20  C   UNL A   1      44.060  24.535  27.434  1.00  0.00     0.136 C 
ATOM     21  C   UNL A   1      42.300  24.307  25.753  1.00  0.00     0.136 C 
ATOM     22  N   UNL A   1      43.355  23.628  26.515  1.00  0.00    -0.340 N 
ATOM     23  O   UNL A   1      44.817  21.919  26.935  1.00  0.00    -0.275 OA
BRANCH  17  24
ATOM     24  S   UNL A   1      43.424  28.043  25.816  1.00  0.00     0.243 S 
ATOM     25  O   UNL A   1      42.597  28.374  24.667  1.00  0.00    -0.207 OA
ATOM     26  O   UNL A   1      44.693  28.688  26.037  1.00  0.00    -0.207 OA
BRANCH  24  27
ATOM     27  C   UNL A   1      42.404  28.330  27.250  1.00  0.00     0.082 A 
ATOM     28  C   UNL A   1      39.966  28.842  30.773  1.00  0.00     0.044 C 
ATOM     29  C   UNL A   1      40.773  28.642  29.519  1.00  0.00    -0.048 A 
ATOM     30  C   UNL A   1      42.110  28.231  29.644  1.00  0.00     0.005 A 
ATOM     31  C   UNL A   1      40.237  28.862  28.232  1.00  0.00    -0.047 A 
ATOM     32  C   UNL A   1      42.915  28.064  28.519  1.00  0.00     0.022 A 
ATOM     33  C   UNL A   1      41.069  28.718  27.103  1.00  0.00     0.025 A 
ATOM     34  C   UNL A   1      38.786  29.199  27.999  1.00  0.00     0.044 C 
ENDBRANCH  24  27
ENDBRANCH  17  24
ENDBRANCH  11  16
ENDBRANCH   8  10
ENDBRANCH   7   8
ENDBRANCH   6   7
ENDBRANCH   5   6
ENDBRANCH   4   5
ENDBRANCH   3   4
ENDBRANCH   2   3
ENDBRANCH   1   2
BRANCH   1  35
ATOM     35  C   UNL A   1      34.088  26.065  25.707  1.00  0.00     0.188 C 
BRANCH  35  36
ATOM     36  C   UNL A   1      33.187  27.316  25.748  1.00  0.00     0.188 C 
BRANCH  36  37
ATOM     37  O   UNL A   1      33.894  28.535  25.938  1.00  0.00    -0.376 OA
BRANCH  37  38
ATOM     38  C   UNL A   1      34.079  29.005  27.265  1.00  0.00     0.202 C 
BRANCH  38  39
ATOM     39  C   UNL A   1      35.351  29.824  27.515  1.00  0.00     0.261 C 
BRANCH  39  40
ATOM     40  O   UNL A   1      35.506  30.287  28.865  1.00  0.00    -0.460 OA
BRANCH  40  41
ATOM     41  C   UNL A   1      35.184  31.572  29.130  1.00  0.00     0.338 C 
ATOM     42  O   UNL A   1      34.251  32.196  28.656  1.00  0.00    -0.246 OA
BRANCH  41  43
ATOM     43  C   UNL A   1      36.078  32.095  30.188  1.00  0.00     0.060 A 
ATOM     44  C   UNL A   1      35.997  33.452  30.516  1.00  0.00     0.016 A 
ATOM     45  C   UNL A   1      37.035  31.283  30.803  1.00  0.00     0.016 A 
ATOM     46  C   UNL A   1      36.959  34.021  31.348  1.00  0.00     0.010 A 
ATOM     47  C   UNL A   1      38.024  31.856  31.593  1.00  0.00     0.010 A 
ATOM     48  C   UNL A   1      38.020  33.236  31.820  1.00  0.00    -0.014 A 
BRANCH  48  49
ATOM     49  C   UNL A   1      39.196  33.880  32.433  1.00  0.00     0.031 A 
ATOM     50  C   UNL A   1      40.389  34.196  31.572  1.00  0.00     0.074 A 
ATOM     51  C   UNL A   1      39.228  34.089  33.757  1.00  0.00     0.049 A 
ATOM     52  N   UNL A   1      41.488  34.830  31.877  1.00  0.00    -0.248 NA
ATOM     53  C   UNL A   1      40.350  33.698  30.188  1.00  0.00     0.031 C 
ATOM     54  C   UNL A   1      38.178  33.702  34.698  1.00  0.00     0.029 A 
ATOM     55  N   UNL A   1      40.195  34.656  34.540  1.00  0.00    -0.354 N 
ATOM     56  C   UNL A   1      42.280  34.795  30.733  1.00  0.00     0.074 A 
ATOM     57  C   UNL A   1      41.548  34.048  29.736  1.00  0.00     0.031 C 
ATOM     58  C   UNL A   1      38.569  34.026  35.941  1.00  0.00     0.029 A 
ATOM     59  C   UNL A   1      39.876  34.675  35.874  1.00  0.00     0.049 A 
ATOM     60  H   UNL A   1      41.038  35.017  34.181  1.00  0.00     0.167 HD
ATOM     61  C   UNL A   1      43.495  35.361  30.533  1.00  0.00     0.034 A 
ATOM     62  C   UNL A   1      40.549  35.197  36.915  1.00  0.00     0.034 A 
ATOM     63  C   UNL A   1      44.177  36.134  31.538  1.00  0.00     0.049 A 
ATOM     64  C   UNL A   1      41.808  35.969  36.637  1.00  0.00     0.074 A 
ATOM     65  C   UNL A   1      45.344  36.867  31.425  1.00  0.00     0.029 A 
ATOM     66  N   UNL A   1      43.746  36.271  32.850  1.00  0.00    -0.354 N 
ATOM     67  N   UNL A   1      42.449  36.122  35.502  1.00  0.00    -0.248 NA
ATOM     68  C   UNL A   1      42.393  36.708  37.763  1.00  0.00     0.031 C 
ATOM     69  C   UNL A   1      45.621  37.443  32.670  1.00  0.00     0.029 A 
ATOM     70  C   UNL A   1      44.614  37.087  33.553  1.00  0.00     0.049 A 
ATOM     71  H   UNL A   1      42.939  35.849  33.226  1.00  0.00     0.167 HD
ATOM     72  C   UNL A   1      43.487  37.008  35.765  1.00  0.00     0.074 A 
ATOM     73  C   UNL A   1      43.372  37.374  37.164  1.00  0.00     0.031 C 
ATOM     74  C   UNL A   1      44.452  37.471  34.933  1.00  0.00     0.034 A 
BRANCH  61  75
ATOM     75  C   UNL A   1      44.129  35.239  29.168  1.00  0.00     0.023 A 
ATOM     76  C   UNL A   1      43.633  36.017  28.101  1.00  0.00     0.012 A 
ATOM     77  C   UNL A   1      45.267  34.435  28.955  1.00  0.00     0.148 A 
ATOM     78  C   UNL A   1      44.233  35.974  26.843  1.00  0.00     0.002 A 
ATOM     79  C   UNL A   1      45.893  34.436  27.711  1.00  0.00     0.091 A 
ATOM     80  F   UNL A   1      45.719  33.683  29.969  1.00  0.00    -0.205 F 
ATOM     81  C   UNL A   1      45.370  35.195  26.652  1.00  0.00     0.022 A 
BRANCH  79  82
ATOM     82  S   UNL A   1      47.420  33.544  27.388  1.00  0.00     0.127 S 
ATOM     83  O   UNL A   1      48.349  34.214  28.297  1.00  0.00    -0.237 OA
ATOM     84  O   UNL A   1      47.067  32.178  27.774  1.00  0.00    -0.237 OA
ATOM     85  O   UNL A   1      47.693  33.721  25.969  1.00  0.00    -0.744 OA
ENDBRANCH  79  82
ENDBRANCH  61  75
BRANCH  62  86
ATOM     86  C   UNL A   1      39.941  35.144  38.270  1.00  0.00     0.023 A 
ATOM     87  C   UNL A   1      39.331  36.299  38.797  1.00  0.00     0.012 A 
ATOM     88  C   UNL A   1      39.883  33.940  38.998  1.00  0.00     0.148 A 
ATOM     89  C   UNL A   1      38.697  36.264  40.038  1.00  0.00     0.002 A 
ATOM     90  C   UNL A   1      39.204  33.900  40.210  1.00  0.00     0.091 A 
ATOM     91  F   UNL A   1      40.471  32.853  38.477  1.00  0.00    -0.205 F 
ATOM     92  C   UNL A   1      38.624  35.063  40.739  1.00  0.00     0.022 A 
BRANCH  90  93
ATOM     93  S   UNL A   1      38.935  32.366  41.106  1.00  0.00     0.127 S 
ATOM     94  O   UNL A   1      38.116  31.610  40.162  1.00  0.00    -0.237 OA
ATOM     95  O   UNL A   1      40.301  31.869  41.275  1.00  0.00    -0.237 OA
ATOM     96  O   UNL A   1      38.282  32.755  42.349  1.00  0.00    -0.744 OA
ENDBRANCH  90  93
ENDBRANCH  62  86
BRANCH  74  97
ATOM     97  C   UNL A   1      45.444  38.449  35.505  1.00  0.00     0.023 A 
ATOM     98  C   UNL A   1      46.643  37.978  36.075  1.00  0.00     0.012 A 
ATOM     99  C   UNL A   1      45.206  39.836  35.439  1.00  0.00     0.148 A 
ATOM    100  C   UNL A   1      47.568  38.869  36.614  1.00  0.00     0.002 A 
ATOM    101  C   UNL A   1      46.156  40.721  35.935  1.00  0.00     0.091 A 
ATOM    102  F   UNL A   1      44.052  40.265  34.910  1.00  0.00    -0.205 F 
ATOM    103  C   UNL A   1      47.330  40.239  36.537  1.00  0.00     0.022 A 
BRANCH 101 104
ATOM    104  S   UNL A   1      45.967  42.500  35.791  1.00  0.00     0.127 S 
ATOM    105  O   UNL A   1      47.174  42.985  36.460  1.00  0.00    -0.237 OA
ATOM    106  O   UNL A   1      45.953  42.699  34.341  1.00  0.00    -0.237 OA
ATOM    107  O   UNL A   1      44.708  42.819  36.450  1.00  0.00    -0.744 OA
ENDBRANCH 101 104
ENDBRANCH  74  97
ENDBRANCH  48  49
ENDBRANCH  41  43
ENDBRANCH  40  41
ENDBRANCH  39  40
ENDBRANCH  38  39
ENDBRANCH  37  38
ENDBRANCH  36  37
ENDBRANCH  35  36
ENDBRANCH   1  35
TORSDOF 26
ENDMDL
