MODEL 1
REMARK VINA RESULT:     -10.3      0.000      0.000
REMARK SMILES CC1(C(=O)N[C@H](C(=O)OCCOCCOCCOCCOC(=O)c2ccc(-c3c4nc(c(-c5cccc(S(=O)(=O)[O-])c5F)c5ccc([nH]5)c(-c5cccc(S(=O)(=O)[O-])c5F)c5nc(c(-c6cccc(S(=O)(=O)[O-])c6F)c6ccc3[nH]6)C=C5)C=C4)cc2)C2CC2)CCCC1
REMARK SMILES IDX 16 1 15 2 14 3 13 4 12 5 11 6 10 7 9 8 7 9 8 10 6 11 5 12
REMARK SMILES IDX 3 13 4 14 2 16 1 17 90 18 93 19 91 20 92 21 87 22 88 23
REMARK SMILES IDX 89 24 17 25 18 26 19 27 20 28 21 29 22 30 23 31 24 32 25 33
REMARK SMILES IDX 86 34 26 35 85 36 27 37 28 38 29 39 79 40 30 41 84 42 78 43
REMARK SMILES IDX 80 44 31 45 83 46 77 47 76 48 32 50 64 51 44 52 63 53 45 54
REMARK SMILES IDX 48 55 62 56 81 57 46 58 47 59 61 61 82 62 49 63 33 64 34 65
REMARK SMILES IDX 42 66 35 67 37 68 43 69 36 70 38 71 39 72 40 73 41 74 65 75
REMARK SMILES IDX 66 76 74 77 67 78 69 79 75 80 68 81 70 82 71 83 72 84 73 85
REMARK SMILES IDX 50 86 51 87 59 88 52 89 54 90 60 91 53 92 55 93 56 94 57 95
REMARK SMILES IDX 58 96
REMARK H PARENT 5 15 80 49 48 60
REMARK Flexibility Score: inf
ROOT
ATOM      1  C   UNL A   1      33.242  29.295  24.636  1.00  0.00     0.188 C 
ENDROOT
BRANCH   1   2
ATOM      2  O   UNL A   1      32.207  29.104  23.685  1.00  0.00    -0.377 OA
BRANCH   2   3
ATOM      3  C   UNL A   1      30.929  28.809  24.196  1.00  0.00     0.188 C 
BRANCH   3   4
ATOM      4  C   UNL A   1      30.108  27.770  23.421  1.00  0.00     0.188 C 
BRANCH   4   5
ATOM      5  O   UNL A   1      30.460  27.438  22.091  1.00  0.00    -0.376 OA
BRANCH   5   6
ATOM      6  C   UNL A   1      31.545  26.540  21.893  1.00  0.00     0.202 C 
BRANCH   6   7
ATOM      7  C   UNL A   1      31.504  25.171  22.609  1.00  0.00     0.261 C 
BRANCH   7   8
ATOM      8  O   UNL A   1      32.690  24.766  23.348  1.00  0.00    -0.462 OA
BRANCH   8   9
ATOM      9  C   UNL A   1      33.221  23.559  23.020  1.00  0.00     0.329 C 
ATOM     10  O   UNL A   1      33.653  23.290  21.899  1.00  0.00    -0.250 OA
BRANCH   9  11
ATOM     11  C   UNL A   1      33.206  22.467  24.161  1.00  0.00     0.195 C 
BRANCH  11  12
ATOM     12  N   UNL A   1      34.419  21.699  24.489  1.00  0.00    -0.342 N 
ATOM     13  C   UNL A   1      34.698  20.387  24.748  1.00  0.00     0.226 C 
ATOM     14  O   UNL A   1      35.829  20.175  25.207  1.00  0.00    -0.274 OA
ATOM     15  H   UNL A   1      35.222  22.267  24.529  1.00  0.00     0.164 HD
BRANCH  13  16
ATOM     16  C   UNL A   1      33.735  19.173  24.534  1.00  0.00     0.046 C 
ATOM     17  C   UNL A   1      32.851  18.912  25.752  1.00  0.00     0.022 C 
ATOM     18  C   UNL A   1      34.555  17.881  24.218  1.00  0.00     0.016 C 
ATOM     19  C   UNL A   1      32.926  19.262  23.245  1.00  0.00     0.016 C 
ATOM     20  C   UNL A   1      33.677  16.980  23.338  1.00  0.00     0.001 C 
ATOM     21  C   UNL A   1      32.524  17.849  22.857  1.00  0.00     0.001 C 
ENDBRANCH  13  16
ENDBRANCH  11  12
BRANCH  11  22
ATOM     22  C   UNL A   1      32.708  23.199  25.412  1.00  0.00     0.023 C 
ATOM     23  C   UNL A   1      31.272  23.050  25.849  1.00  0.00     0.007 C 
ATOM     24  C   UNL A   1      32.374  22.564  26.743  1.00  0.00     0.007 C 
ENDBRANCH  11  22
ENDBRANCH   9  11
ENDBRANCH   8   9
ENDBRANCH   7   8
ENDBRANCH   6   7
ENDBRANCH   5   6
ENDBRANCH   4   5
ENDBRANCH   3   4
ENDBRANCH   2   3
ENDBRANCH   1   2
BRANCH   1  25
ATOM     25  C   UNL A   1      32.654  29.503  26.034  1.00  0.00     0.188 C 
BRANCH  25  26
ATOM     26  O   UNL A   1      32.747  30.805  26.624  1.00  0.00    -0.376 OA
BRANCH  26  27
ATOM     27  C   UNL A   1      31.603  31.656  26.627  1.00  0.00     0.202 C 
BRANCH  27  28
ATOM     28  C   UNL A   1      31.867  33.081  27.089  1.00  0.00     0.261 C 
BRANCH  28  29
ATOM     29  O   UNL A   1      33.274  33.323  27.092  1.00  0.00    -0.460 OA
BRANCH  29  30
ATOM     30  C   UNL A   1      33.788  33.739  28.268  1.00  0.00     0.338 C 
ATOM     31  O   UNL A   1      33.277  34.499  29.079  1.00  0.00    -0.246 OA
BRANCH  30  32
ATOM     32  C   UNL A   1      34.971  32.906  28.541  1.00  0.00     0.060 A 
ATOM     33  C   UNL A   1      34.770  31.547  28.828  1.00  0.00     0.016 A 
ATOM     34  C   UNL A   1      36.257  33.446  28.476  1.00  0.00     0.016 A 
ATOM     35  C   UNL A   1      35.856  30.725  29.080  1.00  0.00     0.010 A 
ATOM     36  C   UNL A   1      37.344  32.635  28.767  1.00  0.00     0.010 A 
ATOM     37  C   UNL A   1      37.132  31.292  29.118  1.00  0.00    -0.014 A 
BRANCH  37  38
ATOM     38  C   UNL A   1      38.190  30.581  29.847  1.00  0.00     0.031 A 
ATOM     39  C   UNL A   1      38.428  31.004  31.268  1.00  0.00     0.074 A 
ATOM     40  C   UNL A   1      38.913  29.625  29.249  1.00  0.00     0.049 A 
ATOM     41  N   UNL A   1      39.353  30.624  32.101  1.00  0.00    -0.248 NA
ATOM     42  C   UNL A   1      37.496  32.009  31.818  1.00  0.00     0.031 C 
ATOM     43  C   UNL A   1      38.722  29.153  27.879  1.00  0.00     0.029 A 
ATOM     44  N   UNL A   1      39.981  28.910  29.714  1.00  0.00    -0.354 N 
ATOM     45  C   UNL A   1      39.144  31.370  33.254  1.00  0.00     0.074 A 
ATOM     46  C   UNL A   1      38.010  32.230  33.017  1.00  0.00     0.031 C 
ATOM     47  C   UNL A   1      39.679  28.253  27.595  1.00  0.00     0.029 A 
ATOM     48  C   UNL A   1      40.560  28.118  28.753  1.00  0.00     0.049 A 
ATOM     49  H   UNL A   1      40.303  28.957  30.643  1.00  0.00     0.167 HD
ATOM     50  C   UNL A   1      39.842  31.336  34.410  1.00  0.00     0.034 A 
ATOM     51  C   UNL A   1      41.699  27.403  28.808  1.00  0.00     0.034 A 
ATOM     52  C   UNL A   1      40.970  30.472  34.611  1.00  0.00     0.049 A 
ATOM     53  C   UNL A   1      42.474  27.396  30.099  1.00  0.00     0.074 A 
ATOM     54  C   UNL A   1      41.740  30.310  35.745  1.00  0.00     0.029 A 
ATOM     55  N   UNL A   1      41.499  29.637  33.637  1.00  0.00    -0.354 N 
ATOM     56  N   UNL A   1      42.218  28.030  31.220  1.00  0.00    -0.248 NA
ATOM     57  C   UNL A   1      43.674  26.552  30.148  1.00  0.00     0.031 C 
ATOM     58  C   UNL A   1      42.763  29.407  35.443  1.00  0.00     0.029 A 
ATOM     59  C   UNL A   1      42.596  28.965  34.137  1.00  0.00     0.049 A 
ATOM     60  H   UNL A   1      41.144  29.538  32.724  1.00  0.00     0.167 HD
ATOM     61  C   UNL A   1      43.197  27.630  32.120  1.00  0.00     0.074 A 
ATOM     62  C   UNL A   1      44.046  26.690  31.414  1.00  0.00     0.031 C 
ATOM     63  C   UNL A   1      43.386  28.002  33.411  1.00  0.00     0.034 A 
BRANCH  50  64
ATOM     64  C   UNL A   1      39.412  32.262  35.514  1.00  0.00     0.023 A 
ATOM     65  C   UNL A   1      38.497  31.821  36.494  1.00  0.00     0.012 A 
ATOM     66  C   UNL A   1      39.924  33.571  35.589  1.00  0.00     0.148 A 
ATOM     67  C   UNL A   1      38.071  32.679  37.507  1.00  0.00     0.002 A 
ATOM     68  C   UNL A   1      39.535  34.404  36.631  1.00  0.00     0.091 A 
ATOM     69  F   UNL A   1      40.764  33.984  34.630  1.00  0.00    -0.205 F 
ATOM     70  C   UNL A   1      38.599  33.966  37.582  1.00  0.00     0.022 A 
BRANCH  68  71
ATOM     71  S   UNL A   1      40.217  36.049  36.860  1.00  0.00     0.127 S 
ATOM     72  O   UNL A   1      39.818  36.710  35.618  1.00  0.00    -0.237 OA
ATOM     73  O   UNL A   1      39.505  36.510  38.052  1.00  0.00    -0.237 OA
ATOM     74  O   UNL A   1      41.651  35.871  37.039  1.00  0.00    -0.744 OA
ENDBRANCH  68  71
ENDBRANCH  50  64
BRANCH  51  75
ATOM     75  C   UNL A   1      42.146  26.628  27.620  1.00  0.00     0.023 A 
ATOM     76  C   UNL A   1      42.920  27.258  26.628  1.00  0.00     0.012 A 
ATOM     77  C   UNL A   1      41.844  25.257  27.489  1.00  0.00     0.148 A 
ATOM     78  C   UNL A   1      43.365  26.545  25.513  1.00  0.00     0.002 A 
ATOM     79  C   UNL A   1      42.336  24.540  26.405  1.00  0.00     0.091 A 
ATOM     80  F   UNL A   1      41.100  24.678  28.441  1.00  0.00    -0.205 F 
ATOM     81  C   UNL A   1      43.082  25.186  25.407  1.00  0.00     0.022 A 
BRANCH  79  82
ATOM     82  S   UNL A   1      42.133  22.762  26.249  1.00  0.00     0.127 S 
ATOM     83  O   UNL A   1      40.679  22.622  26.293  1.00  0.00    -0.237 OA
ATOM     84  O   UNL A   1      42.737  22.506  24.941  1.00  0.00    -0.237 OA
ATOM     85  O   UNL A   1      42.856  22.181  27.371  1.00  0.00    -0.744 OA
ENDBRANCH  79  82
ENDBRANCH  51  75
BRANCH  63  86
ATOM     86  C   UNL A   1      44.514  27.349  34.164  1.00  0.00     0.023 A 
ATOM     87  C   UNL A   1      45.792  27.938  34.179  1.00  0.00     0.012 A 
ATOM     88  C   UNL A   1      44.270  26.193  34.932  1.00  0.00     0.148 A 
ATOM     89  C   UNL A   1      46.822  27.365  34.922  1.00  0.00     0.002 A 
ATOM     90  C   UNL A   1      45.284  25.662  35.715  1.00  0.00     0.091 A 
ATOM     91  F   UNL A   1      43.047  25.643  34.889  1.00  0.00    -0.205 F 
ATOM     92  C   UNL A   1      46.565  26.238  35.700  1.00  0.00     0.022 A 
BRANCH  90  93
ATOM     93  S   UNL A   1      45.015  24.281  36.829  1.00  0.00     0.127 S 
ATOM     94  O   UNL A   1      44.038  24.838  37.763  1.00  0.00    -0.237 OA
ATOM     95  O   UNL A   1      44.486  23.256  35.929  1.00  0.00    -0.237 OA
ATOM     96  O   UNL A   1      46.316  23.967  37.405  1.00  0.00    -0.744 OA
ENDBRANCH  90  93
ENDBRANCH  63  86
ENDBRANCH  37  38
ENDBRANCH  30  32
ENDBRANCH  29  30
ENDBRANCH  28  29
ENDBRANCH  27  28
ENDBRANCH  26  27
ENDBRANCH  25  26
ENDBRANCH   1  25
TORSDOF 26
ENDMDL
MODEL 2
REMARK VINA RESULT:      -9.7      2.655      7.972
REMARK SMILES CC1(C(=O)N[C@H](C(=O)OCCOCCOCCOCCOC(=O)c2ccc(-c3c4nc(c(-c5cccc(S(=O)(=O)[O-])c5F)c5ccc([nH]5)c(-c5cccc(S(=O)(=O)[O-])c5F)c5nc(c(-c6cccc(S(=O)(=O)[O-])c6F)c6ccc3[nH]6)C=C5)C=C4)cc2)C2CC2)CCCC1
REMARK SMILES IDX 16 1 15 2 14 3 13 4 12 5 11 6 10 7 9 8 7 9 8 10 6 11 5 12
REMARK SMILES IDX 3 13 4 14 2 16 1 17 90 18 93 19 91 20 92 21 87 22 88 23
REMARK SMILES IDX 89 24 17 25 18 26 19 27 20 28 21 29 22 30 23 31 24 32 25 33
REMARK SMILES IDX 86 34 26 35 85 36 27 37 28 38 29 39 79 40 30 41 84 42 78 43
REMARK SMILES IDX 80 44 31 45 83 46 77 47 76 48 32 50 64 51 44 52 63 53 45 54
REMARK SMILES IDX 48 55 62 56 81 57 46 58 47 59 61 61 82 62 49 63 33 64 34 65
REMARK SMILES IDX 42 66 35 67 37 68 43 69 36 70 38 71 39 72 40 73 41 74 65 75
REMARK SMILES IDX 66 76 74 77 67 78 69 79 75 80 68 81 70 82 71 83 72 84 73 85
REMARK SMILES IDX 50 86 51 87 59 88 52 89 54 90 60 91 53 92 55 93 56 94 57 95
REMARK SMILES IDX 58 96
REMARK H PARENT 5 15 80 49 48 60
REMARK Flexibility Score: inf
ROOT
ATOM      1  C   UNL A   1      34.136  28.608  24.511  1.00  0.00     0.188 C 
ENDROOT
BRANCH   1   2
ATOM      2  O   UNL A   1      33.097  29.129  23.698  1.00  0.00    -0.377 OA
BRANCH   2   3
ATOM      3  C   UNL A   1      32.640  28.302  22.654  1.00  0.00     0.188 C 
BRANCH   3   4
ATOM      4  C   UNL A   1      31.954  26.995  23.071  1.00  0.00     0.188 C 
BRANCH   4   5
ATOM      5  O   UNL A   1      30.655  27.024  23.633  1.00  0.00    -0.376 OA
BRANCH   5   6
ATOM      6  C   UNL A   1      30.528  27.399  24.999  1.00  0.00     0.202 C 
BRANCH   6   7
ATOM      7  C   UNL A   1      30.799  26.329  26.081  1.00  0.00     0.261 C 
BRANCH   7   8
ATOM      8  O   UNL A   1      29.826  25.256  26.220  1.00  0.00    -0.462 OA
BRANCH   8   9
ATOM      9  C   UNL A   1      30.321  24.033  26.545  1.00  0.00     0.329 C 
ATOM     10  O   UNL A   1      29.765  23.262  27.327  1.00  0.00    -0.250 OA
BRANCH   9  11
ATOM     11  C   UNL A   1      31.711  23.658  25.894  1.00  0.00     0.195 C 
BRANCH  11  12
ATOM     12  N   UNL A   1      32.710  22.877  26.643  1.00  0.00    -0.342 N 
ATOM     13  C   UNL A   1      34.060  22.689  26.558  1.00  0.00     0.226 C 
ATOM     14  O   UNL A   1      34.503  21.762  27.249  1.00  0.00    -0.274 OA
ATOM     15  H   UNL A   1      32.307  22.368  27.384  1.00  0.00     0.164 HD
BRANCH  13  16
ATOM     16  C   UNL A   1      35.057  23.512  25.678  1.00  0.00     0.046 C 
ATOM     17  C   UNL A   1      34.576  24.943  25.441  1.00  0.00     0.022 C 
ATOM     18  C   UNL A   1      35.263  22.813  24.295  1.00  0.00     0.016 C 
ATOM     19  C   UNL A   1      36.494  23.465  26.185  1.00  0.00     0.016 C 
ATOM     20  C   UNL A   1      36.675  23.163  23.806  1.00  0.00     0.001 C 
ATOM     21  C   UNL A   1      37.407  23.752  25.004  1.00  0.00     0.001 C 
ENDBRANCH  13  16
ENDBRANCH  11  12
BRANCH  11  22
ATOM     22  C   UNL A   1      31.363  22.933  24.591  1.00  0.00     0.023 C 
ATOM     23  C   UNL A   1      30.519  23.624  23.548  1.00  0.00     0.007 C 
ATOM     24  C   UNL A   1      31.931  23.236  23.223  1.00  0.00     0.007 C 
ENDBRANCH  11  22
ENDBRANCH   9  11
ENDBRANCH   8   9
ENDBRANCH   7   8
ENDBRANCH   6   7
ENDBRANCH   5   6
ENDBRANCH   4   5
ENDBRANCH   3   4
ENDBRANCH   2   3
ENDBRANCH   1   2
BRANCH   1  25
ATOM     25  C   UNL A   1      33.747  28.678  25.990  1.00  0.00     0.188 C 
BRANCH  25  26
ATOM     26  O   UNL A   1      33.625  29.969  26.601  1.00  0.00    -0.376 OA
BRANCH  26  27
ATOM     27  C   UNL A   1      32.329  30.482  26.901  1.00  0.00     0.202 C 
BRANCH  27  28
ATOM     28  C   UNL A   1      32.273  31.986  27.127  1.00  0.00     0.261 C 
BRANCH  28  29
ATOM     29  O   UNL A   1      33.563  32.452  27.520  1.00  0.00    -0.460 OA
BRANCH  29  30
ATOM     30  C   UNL A   1      33.572  33.579  28.262  1.00  0.00     0.338 C 
ATOM     31  O   UNL A   1      32.737  34.472  28.271  1.00  0.00    -0.246 OA
BRANCH  30  32
ATOM     32  C   UNL A   1      34.635  33.426  29.269  1.00  0.00     0.060 A 
ATOM     33  C   UNL A   1      35.865  34.061  29.034  1.00  0.00     0.016 A 
ATOM     34  C   UNL A   1      34.409  32.703  30.442  1.00  0.00     0.016 A 
ATOM     35  C   UNL A   1      36.887  33.951  29.962  1.00  0.00     0.010 A 
ATOM     36  C   UNL A   1      35.444  32.558  31.354  1.00  0.00     0.010 A 
ATOM     37  C   UNL A   1      36.693  33.141  31.082  1.00  0.00    -0.014 A 
BRANCH  37  38
ATOM     38  C   UNL A   1      37.876  32.625  31.784  1.00  0.00     0.031 A 
ATOM     39  C   UNL A   1      38.640  31.530  31.099  1.00  0.00     0.074 A 
ATOM     40  C   UNL A   1      38.223  33.103  32.987  1.00  0.00     0.049 A 
ATOM     41  N   UNL A   1      39.649  30.830  31.531  1.00  0.00    -0.248 NA
ATOM     42  C   UNL A   1      38.191  31.166  29.741  1.00  0.00     0.031 C 
ATOM     43  C   UNL A   1      37.537  34.179  33.699  1.00  0.00     0.029 A 
ATOM     44  N   UNL A   1      39.222  32.712  33.833  1.00  0.00    -0.354 N 
ATOM     45  C   UNL A   1      39.927  29.917  30.520  1.00  0.00     0.074 A 
ATOM     46  C   UNL A   1      38.981  30.145  29.455  1.00  0.00     0.031 C 
ATOM     47  C   UNL A   1      38.109  34.332  34.906  1.00  0.00     0.029 A 
ATOM     48  C   UNL A   1      39.175  33.343  35.052  1.00  0.00     0.049 A 
ATOM     49  H   UNL A   1      39.906  32.046  33.595  1.00  0.00     0.167 HD
ATOM     50  C   UNL A   1      40.892  28.972  30.490  1.00  0.00     0.034 A 
ATOM     51  C   UNL A   1      39.894  33.107  36.165  1.00  0.00     0.034 A 
ATOM     52  C   UNL A   1      41.814  28.769  31.570  1.00  0.00     0.049 A 
ATOM     53  C   UNL A   1      40.949  32.033  36.116  1.00  0.00     0.074 A 
ATOM     54  C   UNL A   1      42.863  27.874  31.650  1.00  0.00     0.029 A 
ATOM     55  N   UNL A   1      41.778  29.463  32.770  1.00  0.00    -0.354 N 
ATOM     56  N   UNL A   1      41.273  31.237  35.124  1.00  0.00    -0.248 NA
ATOM     57  C   UNL A   1      41.762  31.847  37.325  1.00  0.00     0.031 C 
ATOM     58  C   UNL A   1      43.436  27.999  32.919  1.00  0.00     0.029 A 
ATOM     59  C   UNL A   1      42.778  29.010  33.608  1.00  0.00     0.049 A 
ATOM     60  H   UNL A   1      41.135  30.175  32.992  1.00  0.00     0.167 HD
ATOM     61  C   UNL A   1      42.352  30.485  35.570  1.00  0.00     0.074 A 
ATOM     62  C   UNL A   1      42.633  30.931  36.921  1.00  0.00     0.031 C 
ATOM     63  C   UNL A   1      43.050  29.514  34.930  1.00  0.00     0.034 A 
BRANCH  50  64
ATOM     64  C   UNL A   1      40.975  28.098  29.269  1.00  0.00     0.023 A 
ATOM     65  C   UNL A   1      40.058  27.040  29.090  1.00  0.00     0.012 A 
ATOM     66  C   UNL A   1      41.958  28.332  28.288  1.00  0.00     0.148 A 
ATOM     67  C   UNL A   1      40.142  26.208  27.974  1.00  0.00     0.002 A 
ATOM     68  C   UNL A   1      42.003  27.531  27.153  1.00  0.00     0.091 A 
ATOM     69  F   UNL A   1      42.842  29.318  28.492  1.00  0.00    -0.205 F 
ATOM     70  C   UNL A   1      41.107  26.460  27.002  1.00  0.00     0.022 A 
BRANCH  68  71
ATOM     71  S   UNL A   1      43.155  27.824  25.808  1.00  0.00     0.127 S 
ATOM     72  O   UNL A   1      43.838  26.534  25.718  1.00  0.00    -0.237 OA
ATOM     73  O   UNL A   1      42.253  28.115  24.694  1.00  0.00    -0.237 OA
ATOM     74  O   UNL A   1      43.988  28.942  26.226  1.00  0.00    -0.744 OA
ENDBRANCH  68  71
ENDBRANCH  50  64
BRANCH  51  75
ATOM     75  C   UNL A   1      39.651  33.914  37.391  1.00  0.00     0.023 A 
ATOM     76  C   UNL A   1      40.081  35.252  37.440  1.00  0.00     0.012 A 
ATOM     77  C   UNL A   1      38.955  33.373  38.492  1.00  0.00     0.148 A 
ATOM     78  C   UNL A   1      39.849  36.033  38.574  1.00  0.00     0.002 A 
ATOM     79  C   UNL A   1      38.679  34.172  39.595  1.00  0.00     0.091 A 
ATOM     80  F   UNL A   1      38.559  32.095  38.426  1.00  0.00    -0.205 F 
ATOM     81  C   UNL A   1      39.139  35.496  39.645  1.00  0.00     0.022 A 
BRANCH  79  82
ATOM     82  S   UNL A   1      37.661  33.610  40.965  1.00  0.00     0.127 S 
ATOM     83  O   UNL A   1      37.717  34.756  41.869  1.00  0.00    -0.237 OA
ATOM     84  O   UNL A   1      36.369  33.402  40.312  1.00  0.00    -0.237 OA
ATOM     85  O   UNL A   1      38.293  32.391  41.453  1.00  0.00    -0.744 OA
ENDBRANCH  79  82
ENDBRANCH  51  75
BRANCH  63  86
ATOM     86  C   UNL A   1      44.222  28.909  35.655  1.00  0.00     0.023 A 
ATOM     87  C   UNL A   1      45.507  29.468  35.517  1.00  0.00     0.012 A 
ATOM     88  C   UNL A   1      44.020  27.837  36.547  1.00  0.00     0.148 A 
ATOM     89  C   UNL A   1      46.583  28.945  36.233  1.00  0.00     0.002 A 
ATOM     90  C   UNL A   1      45.084  27.360  37.300  1.00  0.00     0.091 A 
ATOM     91  F   UNL A   1      42.790  27.314  36.650  1.00  0.00    -0.205 F 
ATOM     92  C   UNL A   1      46.369  27.902  37.132  1.00  0.00     0.022 A 
BRANCH  90  93
ATOM     93  S   UNL A   1      44.880  26.098  38.559  1.00  0.00     0.127 S 
ATOM     94  O   UNL A   1      44.647  24.904  37.748  1.00  0.00    -0.237 OA
ATOM     95  O   UNL A   1      46.173  26.131  39.241  1.00  0.00    -0.237 OA
ATOM     96  O   UNL A   1      43.753  26.523  39.379  1.00  0.00    -0.744 OA
ENDBRANCH  90  93
ENDBRANCH  63  86
ENDBRANCH  37  38
ENDBRANCH  30  32
ENDBRANCH  29  30
ENDBRANCH  28  29
ENDBRANCH  27  28
ENDBRANCH  26  27
ENDBRANCH  25  26
ENDBRANCH   1  25
TORSDOF 26
ENDMDL
MODEL 3
REMARK VINA RESULT:      -9.4      2.598      4.064
REMARK SMILES CC1(C(=O)N[C@H](C(=O)OCCOCCOCCOCCOC(=O)c2ccc(-c3c4nc(c(-c5cccc(S(=O)(=O)[O-])c5F)c5ccc([nH]5)c(-c5cccc(S(=O)(=O)[O-])c5F)c5nc(c(-c6cccc(S(=O)(=O)[O-])c6F)c6ccc3[nH]6)C=C5)C=C4)cc2)C2CC2)CCCC1
REMARK SMILES IDX 16 1 15 2 14 3 13 4 12 5 11 6 10 7 9 8 7 9 8 10 6 11 5 12
REMARK SMILES IDX 3 13 4 14 2 16 1 17 90 18 93 19 91 20 92 21 87 22 88 23
REMARK SMILES IDX 89 24 17 25 18 26 19 27 20 28 21 29 22 30 23 31 24 32 25 33
REMARK SMILES IDX 86 34 26 35 85 36 27 37 28 38 29 39 79 40 30 41 84 42 78 43
REMARK SMILES IDX 80 44 31 45 83 46 77 47 76 48 32 50 64 51 44 52 63 53 45 54
REMARK SMILES IDX 48 55 62 56 81 57 46 58 47 59 61 61 82 62 49 63 33 64 34 65
REMARK SMILES IDX 42 66 35 67 37 68 43 69 36 70 38 71 39 72 40 73 41 74 65 75
REMARK SMILES IDX 66 76 74 77 67 78 69 79 75 80 68 81 70 82 71 83 72 84 73 85
REMARK SMILES IDX 50 86 51 87 59 88 52 89 54 90 60 91 53 92 55 93 56 94 57 95
REMARK SMILES IDX 58 96
REMARK H PARENT 5 15 80 49 48 60
REMARK Flexibility Score: inf
ROOT
ATOM      1  C   UNL A   1      34.011  27.612  25.257  1.00  0.00     0.188 C 
ENDROOT
BRANCH   1   2
ATOM      2  O   UNL A   1      33.328  27.039  24.153  1.00  0.00    -0.377 OA
BRANCH   2   3
ATOM      3  C   UNL A   1      33.939  25.926  23.544  1.00  0.00     0.188 C 
BRANCH   3   4
ATOM      4  C   UNL A   1      34.429  24.818  24.485  1.00  0.00     0.188 C 
BRANCH   4   5
ATOM      5  O   UNL A   1      34.913  23.599  23.953  1.00  0.00    -0.376 OA
BRANCH   5   6
ATOM      6  C   UNL A   1      34.164  22.981  22.914  1.00  0.00     0.202 C 
BRANCH   6   7
ATOM      7  C   UNL A   1      32.735  22.488  23.234  1.00  0.00     0.261 C 
BRANCH   7   8
ATOM      8  O   UNL A   1      32.544  21.056  23.408  1.00  0.00    -0.462 OA
BRANCH   8   9
ATOM      9  C   UNL A   1      32.397  20.619  24.686  1.00  0.00     0.329 C 
ATOM     10  O   UNL A   1      32.268  19.432  24.987  1.00  0.00    -0.250 OA
BRANCH   9  11
ATOM     11  C   UNL A   1      32.344  21.742  25.796  1.00  0.00     0.195 C 
BRANCH  11  12
ATOM     12  N   UNL A   1      31.085  22.056  26.493  1.00  0.00    -0.342 N 
ATOM     13  C   UNL A   1      30.333  23.181  26.682  1.00  0.00     0.226 C 
ATOM     14  O   UNL A   1      29.439  23.074  27.533  1.00  0.00    -0.274 OA
ATOM     15  H   UNL A   1      30.689  21.265  26.925  1.00  0.00     0.164 HD
BRANCH  13  16
ATOM     16  C   UNL A   1      30.512  24.551  25.949  1.00  0.00     0.046 C 
ATOM     17  C   UNL A   1      31.634  25.392  26.557  1.00  0.00     0.022 C 
ATOM     18  C   UNL A   1      29.182  25.370  26.000  1.00  0.00     0.016 C 
ATOM     19  C   UNL A   1      30.651  24.415  24.437  1.00  0.00     0.016 C 
ATOM     20  C   UNL A   1      29.139  26.259  24.748  1.00  0.00     0.001 C 
ATOM     21  C   UNL A   1      30.222  25.734  23.816  1.00  0.00     0.001 C 
ENDBRANCH  13  16
ENDBRANCH  11  12
BRANCH  11  22
ATOM     22  C   UNL A   1      33.413  21.348  26.819  1.00  0.00     0.023 C 
ATOM     23  C   UNL A   1      34.873  21.556  26.499  1.00  0.00     0.007 C 
ATOM     24  C   UNL A   1      34.250  22.299  27.645  1.00  0.00     0.007 C 
ENDBRANCH  11  22
ENDBRANCH   9  11
ENDBRANCH   8   9
ENDBRANCH   7   8
ENDBRANCH   6   7
ENDBRANCH   5   6
ENDBRANCH   4   5
ENDBRANCH   3   4
ENDBRANCH   2   3
ENDBRANCH   1   2
BRANCH   1  25
ATOM     25  C   UNL A   1      33.066  28.501  26.070  1.00  0.00     0.188 C 
BRANCH  25  26
ATOM     26  O   UNL A   1      33.594  29.696  26.656  1.00  0.00    -0.376 OA
BRANCH  26  27
ATOM     27  C   UNL A   1      32.753  30.840  26.791  1.00  0.00     0.202 C 
BRANCH  27  28
ATOM     28  C   UNL A   1      33.322  31.954  27.659  1.00  0.00     0.261 C 
BRANCH  28  29
ATOM     29  O   UNL A   1      34.727  31.756  27.818  1.00  0.00    -0.460 OA
BRANCH  29  30
ATOM     30  C   UNL A   1      35.174  31.772  29.091  1.00  0.00     0.338 C 
ATOM     31  O   UNL A   1      34.618  32.247  30.071  1.00  0.00    -0.246 OA
BRANCH  30  32
ATOM     32  C   UNL A   1      36.338  30.873  29.151  1.00  0.00     0.060 A 
ATOM     33  C   UNL A   1      36.345  29.863  30.126  1.00  0.00     0.016 A 
ATOM     34  C   UNL A   1      37.386  30.998  28.236  1.00  0.00     0.016 A 
ATOM     35  C   UNL A   1      37.415  28.989  30.210  1.00  0.00     0.010 A 
ATOM     36  C   UNL A   1      38.478  30.149  28.342  1.00  0.00     0.010 A 
ATOM     37  C   UNL A   1      38.508  29.184  29.362  1.00  0.00    -0.014 A 
BRANCH  37  38
ATOM     38  C   UNL A   1      39.805  28.617  29.754  1.00  0.00     0.031 A 
ATOM     39  C   UNL A   1      40.553  29.336  30.838  1.00  0.00     0.074 A 
ATOM     40  C   UNL A   1      40.291  27.528  29.143  1.00  0.00     0.049 A 
ATOM     41  N   UNL A   1      41.749  29.119  31.304  1.00  0.00    -0.248 NA
ATOM     42  C   UNL A   1      39.854  30.469  31.477  1.00  0.00     0.031 C 
ATOM     43  C   UNL A   1      39.609  26.770  28.096  1.00  0.00     0.029 A 
ATOM     44  N   UNL A   1      41.494  26.898  29.296  1.00  0.00    -0.354 N 
ATOM     45  C   UNL A   1      41.963  30.109  32.254  1.00  0.00     0.074 A 
ATOM     46  C   UNL A   1      40.780  30.933  32.300  1.00  0.00     0.031 C 
ATOM     47  C   UNL A   1      40.430  25.797  27.663  1.00  0.00     0.029 A 
ATOM     48  C   UNL A   1      41.698  25.893  28.382  1.00  0.00     0.049 A 
ATOM     49  H   UNL A   1      42.150  27.139  29.990  1.00  0.00     0.167 HD
ATOM     50  C   UNL A   1      43.058  30.309  33.022  1.00  0.00     0.034 A 
ATOM     51  C   UNL A   1      42.806  25.170  28.141  1.00  0.00     0.034 A 
ATOM     52  C   UNL A   1      44.221  29.473  32.947  1.00  0.00     0.049 A 
ATOM     53  C   UNL A   1      44.022  25.423  28.993  1.00  0.00     0.074 A 
ATOM     54  C   UNL A   1      45.380  29.541  33.695  1.00  0.00     0.029 A 
ATOM     55  N   UNL A   1      44.376  28.426  32.051  1.00  0.00    -0.354 N 
ATOM     56  N   UNL A   1      44.187  26.299  29.957  1.00  0.00    -0.248 NA
ATOM     57  C   UNL A   1      45.192  24.571  28.749  1.00  0.00     0.031 C 
ATOM     58  C   UNL A   1      46.254  28.559  33.220  1.00  0.00     0.029 A 
ATOM     59  C   UNL A   1      45.617  27.844  32.214  1.00  0.00     0.049 A 
ATOM     60  H   UNL A   1      43.699  28.138  31.395  1.00  0.00     0.167 HD
ATOM     61  C   UNL A   1      45.460  26.075  30.466  1.00  0.00     0.074 A 
ATOM     62  C   UNL A   1      46.019  24.974  29.706  1.00  0.00     0.031 C 
ATOM     63  C   UNL A   1      46.115  26.718  31.465  1.00  0.00     0.034 A 
BRANCH  50  64
ATOM     64  C   UNL A   1      43.039  31.471  33.976  1.00  0.00     0.023 A 
ATOM     65  C   UNL A   1      43.546  32.726  33.577  1.00  0.00     0.012 A 
ATOM     66  C   UNL A   1      42.506  31.324  35.271  1.00  0.00     0.148 A 
ATOM     67  C   UNL A   1      43.558  33.803  34.462  1.00  0.00     0.002 A 
ATOM     68  C   UNL A   1      42.472  32.415  36.130  1.00  0.00     0.091 A 
ATOM     69  F   UNL A   1      42.060  30.117  35.645  1.00  0.00    -0.205 F 
ATOM     70  C   UNL A   1      43.010  33.650  35.734  1.00  0.00     0.022 A 
BRANCH  68  71
ATOM     71  S   UNL A   1      41.717  32.342  37.757  1.00  0.00     0.127 S 
ATOM     72  O   UNL A   1      40.363  31.893  37.435  1.00  0.00    -0.237 OA
ATOM     73  O   UNL A   1      42.546  31.343  38.432  1.00  0.00    -0.237 OA
ATOM     74  O   UNL A   1      41.814  33.687  38.308  1.00  0.00    -0.744 OA
ENDBRANCH  68  71
ENDBRANCH  50  64
BRANCH  51  75
ATOM     75  C   UNL A   1      42.799  24.135  27.072  1.00  0.00     0.023 A 
ATOM     76  C   UNL A   1      43.477  24.378  25.863  1.00  0.00     0.012 A 
ATOM     77  C   UNL A   1      42.160  22.894  27.265  1.00  0.00     0.148 A 
ATOM     78  C   UNL A   1      43.497  23.415  24.853  1.00  0.00     0.002 A 
ATOM     79  C   UNL A   1      42.230  21.919  26.277  1.00  0.00     0.091 A 
ATOM     80  F   UNL A   1      41.515  22.686  28.420  1.00  0.00    -0.205 F 
ATOM     81  C   UNL A   1      42.883  22.183  25.064  1.00  0.00     0.022 A 
BRANCH  79  82
ATOM     82  S   UNL A   1      41.582  20.258  26.510  1.00  0.00     0.127 S 
ATOM     83  O   UNL A   1      40.141  20.495  26.491  1.00  0.00    -0.237 OA
ATOM     84  O   UNL A   1      42.108  19.565  25.333  1.00  0.00    -0.237 OA
ATOM     85  O   UNL A   1      42.129  19.794  27.777  1.00  0.00    -0.744 OA
ENDBRANCH  79  82
ENDBRANCH  51  75
BRANCH  63  86
ATOM     86  C   UNL A   1      47.482  26.210  31.838  1.00  0.00     0.023 A 
ATOM     87  C   UNL A   1      48.622  26.672  31.153  1.00  0.00     0.012 A 
ATOM     88  C   UNL A   1      47.633  25.339  32.935  1.00  0.00     0.148 A 
ATOM     89  C   UNL A   1      49.893  26.247  31.536  1.00  0.00     0.002 A 
ATOM     90  C   UNL A   1      48.904  24.966  33.346  1.00  0.00     0.091 A 
ATOM     91  F   UNL A   1      46.530  24.902  33.561  1.00  0.00    -0.205 F 
ATOM     92  C   UNL A   1      50.035  25.407  32.638  1.00  0.00     0.022 A 
BRANCH  90  93
ATOM     93  S   UNL A   1      49.187  23.978  34.817  1.00  0.00     0.127 S 
ATOM     94  O   UNL A   1      48.565  24.802  35.852  1.00  0.00    -0.237 OA
ATOM     95  O   UNL A   1      48.468  22.743  34.504  1.00  0.00    -0.237 OA
ATOM     96  O   UNL A   1      50.633  23.825  34.929  1.00  0.00    -0.744 OA
ENDBRANCH  90  93
ENDBRANCH  63  86
ENDBRANCH  37  38
ENDBRANCH  30  32
ENDBRANCH  29  30
ENDBRANCH  28  29
ENDBRANCH  27  28
ENDBRANCH  26  27
ENDBRANCH  25  26
ENDBRANCH   1  25
TORSDOF 26
ENDMDL
