MODEL 1
REMARK VINA RESULT:     -10.2      0.000      0.000
REMARK SMILES CN(C[C@@H]1CCC[N@H+]1C)C(=O)N[C@H]1COC[C@]1(C)C(=O)OCCOCCOCCOCCOC(=O)c1ccc(-c2c3nc(c(-c4cccc(S(=O)(=O)[O-])c4F)c4ccc([nH]4)c(-c4cccc(S(=O)(=O)[O-])c4F)c4nc(c(-c5cccc(S(=O)(=O)[O-])c5F)c5ccc2[nH]5)C=C4)C=C3)cc1
REMARK SMILES IDX 26 1 25 2 24 3 23 4 22 5 21 6 19 7 20 8 17 9 13 10 14 11
REMARK SMILES IDX 15 12 16 13 18 14 12 15 10 16 11 17 2 19 1 20 3 21 4 22 5 23
REMARK SMILES IDX 8 24 6 25 7 26 9 27 27 29 28 30 29 31 30 32 31 33 32 34
REMARK SMILES IDX 33 35 34 36 35 37 36 38 37 39 98 40 38 41 97 42 39 43 40 44
REMARK SMILES IDX 41 45 91 46 42 47 96 48 90 49 92 50 43 51 95 52 89 53 88 54
REMARK SMILES IDX 44 56 76 57 56 58 75 59 57 60 60 61 74 62 93 63 58 64 59 65
REMARK SMILES IDX 73 67 94 68 61 69 45 70 46 71 54 72 47 73 49 74 55 75 48 76
REMARK SMILES IDX 50 77 51 78 52 79 53 80 77 81 78 82 86 83 79 84 81 85 87 86
REMARK SMILES IDX 80 87 82 88 83 89 84 90 85 91 62 92 63 93 71 94 64 95 66 96
REMARK SMILES IDX 72 97 65 98 67 99 68 100 69 101 70 102
REMARK H PARENT 12 18 8 28 92 55 60 66
REMARK Flexibility Score: inf
ROOT
ATOM      1  C   UNL A   1      30.256  28.629  22.557  1.00  0.00     0.188 C 
ENDROOT
BRANCH   1   2
ATOM      2  C   UNL A   1      31.144  28.227  23.727  1.00  0.00     0.188 C 
BRANCH   2   3
ATOM      3  O   UNL A   1      32.518  28.280  23.434  1.00  0.00    -0.376 OA
BRANCH   3   4
ATOM      4  C   UNL A   1      33.446  28.316  24.507  1.00  0.00     0.202 C 
BRANCH   4   5
ATOM      5  C   UNL A   1      33.288  27.650  25.896  1.00  0.00     0.261 C 
BRANCH   5   6
ATOM      6  O   UNL A   1      33.765  26.316  26.135  1.00  0.00    -0.463 OA
BRANCH   6   7
ATOM      7  C   UNL A   1      32.890  25.310  25.878  1.00  0.00     0.316 C 
ATOM      8  O   UNL A   1      31.878  25.121  26.552  1.00  0.00    -0.251 OA
BRANCH   7   9
ATOM      9  C   UNL A   1      33.277  24.369  24.725  1.00  0.00     0.111 C 
ATOM     10  C   UNL A   1      33.463  22.874  25.074  1.00  0.00     0.129 C 
ATOM     11  C   UNL A   1      34.992  22.692  25.163  1.00  0.00     0.186 C 
ATOM     12  O   UNL A   1      35.620  23.953  24.918  1.00  0.00    -0.378 OA
ATOM     13  C   UNL A   1      34.669  24.785  24.252  1.00  0.00     0.181 C 
ATOM     14  C   UNL A   1      32.260  24.672  23.609  1.00  0.00     0.028 C 
BRANCH  10  15
ATOM     15  N   UNL A   1      32.949  21.923  24.075  1.00  0.00    -0.332 N 
ATOM     16  C   UNL A   1      32.906  20.589  23.941  1.00  0.00     0.317 C 
ATOM     17  O   UNL A   1      32.180  20.191  23.023  1.00  0.00    -0.249 OA
ATOM     18  H   UNL A   1      32.532  22.383  23.311  1.00  0.00     0.165 HD
BRANCH  16  19
ATOM     19  N   UNL A   1      33.542  19.736  24.788  1.00  0.00    -0.322 N 
ATOM     20  C   UNL A   1      32.835  19.394  26.016  1.00  0.00     0.149 C 
BRANCH  19  21
ATOM     21  C   UNL A   1      34.814  19.037  24.582  1.00  0.00     0.185 C 
BRANCH  21  22
ATOM     22  C   UNL A   1      34.759  17.510  24.297  1.00  0.00     0.203 C 
ATOM     23  C   UNL A   1      33.390  17.193  23.651  1.00  0.00     0.073 C 
ATOM     24  N   UNL A   1      34.806  16.647  25.499  1.00  0.00    -0.333 N 
ATOM     25  C   UNL A   1      32.720  16.185  24.565  1.00  0.00     0.068 C 
ATOM     26  C   UNL A   1      33.884  15.528  25.267  1.00  0.00     0.262 C 
ATOM     27  C   UNL A   1      36.139  16.132  25.795  1.00  0.00     0.333 C 
ATOM     28  H   UNL A   1      34.539  17.208  26.309  1.00  0.00     0.348 HD
ENDBRANCH  21  22
ENDBRANCH  19  21
ENDBRANCH  16  19
ENDBRANCH  10  15
ENDBRANCH   7   9
ENDBRANCH   6   7
ENDBRANCH   5   6
ENDBRANCH   4   5
ENDBRANCH   3   4
ENDBRANCH   2   3
ENDBRANCH   1   2
BRANCH   1  29
ATOM     29  O   UNL A   1      30.003  30.012  22.361  1.00  0.00    -0.377 OA
BRANCH  29  30
ATOM     30  C   UNL A   1      28.797  30.551  22.902  1.00  0.00     0.188 C 
BRANCH  30  31
ATOM     31  C   UNL A   1      28.915  31.538  24.068  1.00  0.00     0.188 C 
BRANCH  31  32
ATOM     32  O   UNL A   1      30.217  31.934  24.503  1.00  0.00    -0.376 OA
BRANCH  32  33
ATOM     33  C   UNL A   1      30.799  31.298  25.638  1.00  0.00     0.202 C 
BRANCH  33  34
ATOM     34  C   UNL A   1      31.454  32.250  26.631  1.00  0.00     0.261 C 
BRANCH  34  35
ATOM     35  O   UNL A   1      32.676  31.699  27.142  1.00  0.00    -0.460 OA
BRANCH  35  36
ATOM     36  C   UNL A   1      33.518  32.589  27.700  1.00  0.00     0.338 C 
ATOM     37  O   UNL A   1      33.264  33.736  28.054  1.00  0.00    -0.246 OA
BRANCH  36  38
ATOM     38  C   UNL A   1      34.816  31.950  27.938  1.00  0.00     0.060 A 
ATOM     39  C   UNL A   1      34.854  30.556  28.071  1.00  0.00     0.016 A 
ATOM     40  C   UNL A   1      35.962  32.724  28.140  1.00  0.00     0.016 A 
ATOM     41  C   UNL A   1      36.025  29.938  28.498  1.00  0.00     0.010 A 
ATOM     42  C   UNL A   1      37.133  32.102  28.566  1.00  0.00     0.010 A 
ATOM     43  C   UNL A   1      37.148  30.717  28.803  1.00  0.00    -0.014 A 
BRANCH  43  44
ATOM     44  C   UNL A   1      38.274  30.121  29.555  1.00  0.00     0.031 A 
ATOM     45  C   UNL A   1      38.535  30.602  30.956  1.00  0.00     0.074 A 
ATOM     46  C   UNL A   1      39.052  29.183  28.991  1.00  0.00     0.049 A 
ATOM     47  N   UNL A   1      39.496  30.275  31.779  1.00  0.00    -0.248 NA
ATOM     48  C   UNL A   1      37.590  31.594  31.498  1.00  0.00     0.031 C 
ATOM     49  C   UNL A   1      38.877  28.639  27.646  1.00  0.00     0.029 A 
ATOM     50  N   UNL A   1      40.162  28.544  29.476  1.00  0.00    -0.354 N 
ATOM     51  C   UNL A   1      39.290  31.039  32.922  1.00  0.00     0.074 A 
ATOM     52  C   UNL A   1      38.126  31.862  32.679  1.00  0.00     0.031 C 
ATOM     53  C   UNL A   1      39.866  27.761  27.402  1.00  0.00     0.029 A 
ATOM     54  C   UNL A   1      40.754  27.709  28.560  1.00  0.00     0.049 A 
ATOM     55  H   UNL A   1      40.502  28.672  30.392  1.00  0.00     0.167 HD
ATOM     56  C   UNL A   1      39.999  31.044  34.076  1.00  0.00     0.034 A 
ATOM     57  C   UNL A   1      41.898  27.002  28.647  1.00  0.00     0.034 A 
ATOM     58  C   UNL A   1      41.149  30.214  34.308  1.00  0.00     0.049 A 
ATOM     59  C   UNL A   1      42.691  27.052  29.927  1.00  0.00     0.074 A 
ATOM     60  C   UNL A   1      41.923  30.111  35.450  1.00  0.00     0.029 A 
ATOM     61  N   UNL A   1      41.702  29.353  33.371  1.00  0.00    -0.354 N 
ATOM     62  N   UNL A   1      42.431  27.703  31.036  1.00  0.00    -0.248 NA
ATOM     63  C   UNL A   1      43.919  26.247  29.978  1.00  0.00     0.031 C 
ATOM     64  C   UNL A   1      42.963  29.212  35.191  1.00  0.00     0.029 A 
ATOM     65  C   UNL A   1      42.812  28.723  33.903  1.00  0.00     0.049 A 
ATOM     66  H   UNL A   1      41.354  29.210  32.461  1.00  0.00     0.167 HD
ATOM     67  C   UNL A   1      43.434  27.348  31.932  1.00  0.00     0.074 A 
ATOM     68  C   UNL A   1      44.299  26.416  31.237  1.00  0.00     0.031 C 
ATOM     69  C   UNL A   1      43.630  27.760  33.209  1.00  0.00     0.034 A 
BRANCH  56  70
ATOM     70  C   UNL A   1      39.536  31.966  35.175  1.00  0.00     0.023 A 
ATOM     71  C   UNL A   1      39.883  33.332  35.138  1.00  0.00     0.012 A 
ATOM     72  C   UNL A   1      38.732  31.489  36.229  1.00  0.00     0.148 A 
ATOM     73  C   UNL A   1      39.475  34.199  36.153  1.00  0.00     0.002 A 
ATOM     74  C   UNL A   1      38.290  32.367  37.212  1.00  0.00     0.091 A 
ATOM     75  F   UNL A   1      38.431  30.182  36.262  1.00  0.00    -0.205 F 
ATOM     76  C   UNL A   1      38.672  33.718  37.183  1.00  0.00     0.022 A 
BRANCH  74  77
ATOM     77  S   UNL A   1      37.186  31.862  38.536  1.00  0.00     0.127 S 
ATOM     78  O   UNL A   1      36.994  30.445  38.236  1.00  0.00    -0.237 OA
ATOM     79  O   UNL A   1      37.993  32.130  39.727  1.00  0.00    -0.237 OA
ATOM     80  O   UNL A   1      35.999  32.696  38.409  1.00  0.00    -0.744 OA
ENDBRANCH  74  77
ENDBRANCH  56  70
BRANCH  57  81
ATOM     81  C   UNL A   1      42.336  26.152  27.505  1.00  0.00     0.023 A 
ATOM     82  C   UNL A   1      43.201  26.693  26.533  1.00  0.00     0.012 A 
ATOM     83  C   UNL A   1      41.924  24.811  27.388  1.00  0.00     0.148 A 
ATOM     84  C   UNL A   1      43.619  25.923  25.448  1.00  0.00     0.002 A 
ATOM     85  C   UNL A   1      42.390  24.032  26.335  1.00  0.00     0.091 A 
ATOM     86  F   UNL A   1      41.093  24.319  28.317  1.00  0.00    -0.205 F 
ATOM     87  C   UNL A   1      43.222  24.592  25.354  1.00  0.00     0.022 A 
BRANCH  85  88
ATOM     88  S   UNL A   1      42.043  22.275  26.206  1.00  0.00     0.127 S 
ATOM     89  O   UNL A   1      42.879  21.886  25.074  1.00  0.00    -0.237 OA
ATOM     90  O   UNL A   1      42.497  21.784  27.507  1.00  0.00    -0.237 OA
ATOM     91  O   UNL A   1      40.605  22.171  25.995  1.00  0.00    -0.744 OA
ENDBRANCH  85  88
ENDBRANCH  57  81
BRANCH  69  92
ATOM     92  C   UNL A   1      44.793  27.165  33.963  1.00  0.00     0.023 A 
ATOM     93  C   UNL A   1      46.041  27.819  33.969  1.00  0.00     0.012 A 
ATOM     94  C   UNL A   1      44.622  25.992  34.724  1.00  0.00     0.148 A 
ATOM     95  C   UNL A   1      47.113  27.292  34.690  1.00  0.00     0.002 A 
ATOM     96  C   UNL A   1      45.679  25.503  35.483  1.00  0.00     0.091 A 
ATOM     97  F   UNL A   1      43.432  25.376  34.693  1.00  0.00    -0.205 F 
ATOM     98  C   UNL A   1      46.929  26.142  35.454  1.00  0.00     0.022 A 
BRANCH  96  99
ATOM     99  S   UNL A   1      45.505  24.088  36.577  1.00  0.00     0.127 S 
ATOM    100  O   UNL A   1      44.473  23.309  35.894  1.00  0.00    -0.237 OA
ATOM    101  O   UNL A   1      46.843  23.498  36.534  1.00  0.00    -0.237 OA
ATOM    102  O   UNL A   1      45.123  24.629  37.875  1.00  0.00    -0.744 OA
ENDBRANCH  96  99
ENDBRANCH  69  92
ENDBRANCH  43  44
ENDBRANCH  36  38
ENDBRANCH  35  36
ENDBRANCH  34  35
ENDBRANCH  33  34
ENDBRANCH  32  33
ENDBRANCH  31  32
ENDBRANCH  30  31
ENDBRANCH  29  30
ENDBRANCH   1  29
TORSDOF 27
ENDMDL
MODEL 2
REMARK VINA RESULT:      -9.2      1.619      7.443
REMARK SMILES CN(C[C@@H]1CCC[N@H+]1C)C(=O)N[C@H]1COC[C@]1(C)C(=O)OCCOCCOCCOCCOC(=O)c1ccc(-c2c3nc(c(-c4cccc(S(=O)(=O)[O-])c4F)c4ccc([nH]4)c(-c4cccc(S(=O)(=O)[O-])c4F)c4nc(c(-c5cccc(S(=O)(=O)[O-])c5F)c5ccc2[nH]5)C=C4)C=C3)cc1
REMARK SMILES IDX 26 1 25 2 24 3 23 4 22 5 21 6 19 7 20 8 17 9 13 10 14 11
REMARK SMILES IDX 15 12 16 13 18 14 12 15 10 16 11 17 2 19 1 20 3 21 4 22 5 23
REMARK SMILES IDX 8 24 6 25 7 26 9 27 27 29 28 30 29 31 30 32 31 33 32 34
REMARK SMILES IDX 33 35 34 36 35 37 36 38 37 39 98 40 38 41 97 42 39 43 40 44
REMARK SMILES IDX 41 45 91 46 42 47 96 48 90 49 92 50 43 51 95 52 89 53 88 54
REMARK SMILES IDX 44 56 76 57 56 58 75 59 57 60 60 61 74 62 93 63 58 64 59 65
REMARK SMILES IDX 73 67 94 68 61 69 45 70 46 71 54 72 47 73 49 74 55 75 48 76
REMARK SMILES IDX 50 77 51 78 52 79 53 80 77 81 78 82 86 83 79 84 81 85 87 86
REMARK SMILES IDX 80 87 82 88 83 89 84 90 85 91 62 92 63 93 71 94 64 95 66 96
REMARK SMILES IDX 72 97 65 98 67 99 68 100 69 101 70 102
REMARK H PARENT 12 18 8 28 92 55 60 66
REMARK Flexibility Score: inf
ROOT
ATOM      1  C   UNL A   1      29.576  27.992  22.991  1.00  0.00     0.188 C 
ENDROOT
BRANCH   1   2
ATOM      2  C   UNL A   1      30.954  28.209  22.380  1.00  0.00     0.188 C 
BRANCH   2   3
ATOM      3  O   UNL A   1      31.513  27.046  21.825  1.00  0.00    -0.376 OA
BRANCH   3   4
ATOM      4  C   UNL A   1      32.405  26.271  22.612  1.00  0.00     0.202 C 
BRANCH   4   5
ATOM      5  C   UNL A   1      32.818  26.536  24.080  1.00  0.00     0.261 C 
BRANCH   5   6
ATOM      6  O   UNL A   1      32.000  26.079  25.171  1.00  0.00    -0.463 OA
BRANCH   6   7
ATOM      7  C   UNL A   1      31.132  25.074  24.891  1.00  0.00     0.316 C 
ATOM      8  O   UNL A   1      29.981  25.277  24.507  1.00  0.00    -0.251 OA
BRANCH   7   9
ATOM      9  C   UNL A   1      31.656  23.651  25.148  1.00  0.00     0.111 C 
ATOM     10  C   UNL A   1      33.164  23.506  25.458  1.00  0.00     0.129 C 
ATOM     11  C   UNL A   1      33.782  23.029  24.127  1.00  0.00     0.186 C 
ATOM     12  O   UNL A   1      32.745  22.935  23.148  1.00  0.00    -0.378 OA
ATOM     13  C   UNL A   1      31.500  22.871  23.844  1.00  0.00     0.181 C 
ATOM     14  C   UNL A   1      30.699  23.061  26.200  1.00  0.00     0.028 C 
BRANCH  10  15
ATOM     15  N   UNL A   1      33.504  22.520  26.496  1.00  0.00    -0.332 N 
ATOM     16  C   UNL A   1      33.719  21.198  26.542  1.00  0.00     0.317 C 
ATOM     17  O   UNL A   1      34.194  20.793  27.609  1.00  0.00    -0.249 OA
ATOM     18  H   UNL A   1      33.597  22.938  27.383  1.00  0.00     0.165 HD
BRANCH  16  19
ATOM     19  N   UNL A   1      33.508  20.373  25.481  1.00  0.00    -0.322 N 
ATOM     20  C   UNL A   1      34.692  19.922  24.763  1.00  0.00     0.149 C 
BRANCH  19  21
ATOM     21  C   UNL A   1      32.239  19.800  25.019  1.00  0.00     0.185 C 
BRANCH  21  22
ATOM     22  C   UNL A   1      32.239  18.306  24.588  1.00  0.00     0.203 C 
ATOM     23  C   UNL A   1      32.712  17.460  25.793  1.00  0.00     0.073 C 
ATOM     24  N   UNL A   1      33.191  17.966  23.506  1.00  0.00    -0.333 N 
ATOM     25  C   UNL A   1      33.947  16.715  25.323  1.00  0.00     0.068 C 
ATOM     26  C   UNL A   1      33.762  16.652  23.826  1.00  0.00     0.262 C 
ATOM     27  C   UNL A   1      32.578  17.927  22.182  1.00  0.00     0.333 C 
ATOM     28  H   UNL A   1      33.902  18.697  23.462  1.00  0.00     0.348 HD
ENDBRANCH  21  22
ENDBRANCH  19  21
ENDBRANCH  16  19
ENDBRANCH  10  15
ENDBRANCH   7   9
ENDBRANCH   6   7
ENDBRANCH   5   6
ENDBRANCH   4   5
ENDBRANCH   3   4
ENDBRANCH   2   3
ENDBRANCH   1   2
BRANCH   1  29
ATOM     29  O   UNL A   1      28.793  29.139  23.286  1.00  0.00    -0.377 OA
BRANCH  29  30
ATOM     30  C   UNL A   1      29.299  30.410  22.883  1.00  0.00     0.188 C 
BRANCH  30  31
ATOM     31  C   UNL A   1      29.043  31.608  23.805  1.00  0.00     0.188 C 
BRANCH  31  32
ATOM     32  O   UNL A   1      29.815  31.730  25.001  1.00  0.00    -0.376 OA
BRANCH  32  33
ATOM     33  C   UNL A   1      30.930  30.866  25.205  1.00  0.00     0.202 C 
BRANCH  33  34
ATOM     34  C   UNL A   1      31.431  30.808  26.642  1.00  0.00     0.261 C 
BRANCH  34  35
ATOM     35  O   UNL A   1      32.865  30.775  26.686  1.00  0.00    -0.460 OA
BRANCH  35  36
ATOM     36  C   UNL A   1      33.441  31.757  27.404  1.00  0.00     0.338 C 
ATOM     37  O   UNL A   1      32.920  32.796  27.800  1.00  0.00    -0.246 OA
BRANCH  36  38
ATOM     38  C   UNL A   1      34.808  31.363  27.761  1.00  0.00     0.060 A 
ATOM     39  C   UNL A   1      35.074  30.004  27.966  1.00  0.00     0.016 A 
ATOM     40  C   UNL A   1      35.784  32.333  28.002  1.00  0.00     0.016 A 
ATOM     41  C   UNL A   1      36.298  29.616  28.501  1.00  0.00     0.010 A 
ATOM     42  C   UNL A   1      37.009  31.941  28.538  1.00  0.00     0.010 A 
ATOM     43  C   UNL A   1      37.244  30.590  28.843  1.00  0.00    -0.014 A 
BRANCH  43  44
ATOM     44  C   UNL A   1      38.395  30.228  29.698  1.00  0.00     0.031 A 
ATOM     45  C   UNL A   1      39.402  29.245  29.169  1.00  0.00     0.074 A 
ATOM     46  C   UNL A   1      38.527  30.757  30.926  1.00  0.00     0.049 A 
ATOM     47  N   UNL A   1      40.451  28.733  29.758  1.00  0.00    -0.248 NA
ATOM     48  C   UNL A   1      39.194  28.767  27.790  1.00  0.00     0.031 C 
ATOM     49  C   UNL A   1      37.615  31.728  31.529  1.00  0.00     0.029 A 
ATOM     50  N   UNL A   1      39.469  30.528  31.893  1.00  0.00    -0.354 N 
ATOM     51  C   UNL A   1      41.008  27.853  28.837  1.00  0.00     0.074 A 
ATOM     52  C   UNL A   1      40.172  27.884  27.658  1.00  0.00     0.031 C 
ATOM     53  C   UNL A   1      38.030  31.993  32.779  1.00  0.00     0.029 A 
ATOM     54  C   UNL A   1      39.215  31.189  33.070  1.00  0.00     0.049 A 
ATOM     55  H   UNL A   1      40.252  29.946  31.757  1.00  0.00     0.167 HD
ATOM     56  C   UNL A   1      42.126  27.098  28.958  1.00  0.00     0.034 A 
ATOM     57  C   UNL A   1      39.859  31.130  34.252  1.00  0.00     0.034 A 
ATOM     58  C   UNL A   1      42.955  27.083  30.133  1.00  0.00     0.049 A 
ATOM     59  C   UNL A   1      41.078  30.253  34.376  1.00  0.00     0.074 A 
ATOM     60  C   UNL A   1      44.128  26.384  30.353  1.00  0.00     0.029 A 
ATOM     61  N   UNL A   1      42.688  27.792  31.295  1.00  0.00    -0.354 N 
ATOM     62  N   UNL A   1      41.652  29.502  33.466  1.00  0.00    -0.248 NA
ATOM     63  C   UNL A   1      41.756  30.240  35.679  1.00  0.00     0.031 C 
ATOM     64  C   UNL A   1      44.551  26.645  31.661  1.00  0.00     0.029 A 
ATOM     65  C   UNL A   1      43.665  27.540  32.240  1.00  0.00     0.049 A 
ATOM     66  H   UNL A   1      41.915  28.389  31.427  1.00  0.00     0.167 HD
ATOM     67  C   UNL A   1      42.784  28.965  34.071  1.00  0.00     0.074 A 
ATOM     68  C   UNL A   1      42.818  29.489  35.422  1.00  0.00     0.031 C 
ATOM     69  C   UNL A   1      43.707  28.112  33.563  1.00  0.00     0.034 A 
BRANCH  56  70
ATOM     70  C   UNL A   1      42.519  26.241  27.783  1.00  0.00     0.023 A 
ATOM     71  C   UNL A   1      43.345  26.773  26.770  1.00  0.00     0.012 A 
ATOM     72  C   UNL A   1      42.098  24.899  27.691  1.00  0.00     0.148 A 
ATOM     73  C   UNL A   1      43.709  26.000  25.667  1.00  0.00     0.002 A 
ATOM     74  C   UNL A   1      42.503  24.120  26.613  1.00  0.00     0.091 A 
ATOM     75  F   UNL A   1      41.294  24.416  28.649  1.00  0.00    -0.205 F 
ATOM     76  C   UNL A   1      43.296  24.673  25.594  1.00  0.00     0.022 A 
BRANCH  74  77
ATOM     77  S   UNL A   1      42.090  22.378  26.467  1.00  0.00     0.127 S 
ATOM     78  O   UNL A   1      42.611  21.846  27.725  1.00  0.00    -0.237 OA
ATOM     79  O   UNL A   1      40.630  22.415  26.378  1.00  0.00    -0.237 OA
ATOM     80  O   UNL A   1      42.759  21.907  25.263  1.00  0.00    -0.744 OA
ENDBRANCH  74  77
ENDBRANCH  56  70
BRANCH  57  81
ATOM     81  C   UNL A   1      39.389  31.958  35.398  1.00  0.00     0.023 A 
ATOM     82  C   UNL A   1      38.451  31.419  36.301  1.00  0.00     0.012 A 
ATOM     83  C   UNL A   1      39.880  33.259  35.612  1.00  0.00     0.148 A 
ATOM     84  C   UNL A   1      37.987  32.175  37.377  1.00  0.00     0.002 A 
ATOM     85  C   UNL A   1      39.457  33.986  36.719  1.00  0.00     0.091 A 
ATOM     86  F   UNL A   1      40.764  33.757  34.736  1.00  0.00    -0.205 F 
ATOM     87  C   UNL A   1      38.495  33.453  37.591  1.00  0.00     0.022 A 
BRANCH  85  88
ATOM     88  S   UNL A   1      40.156  35.583  37.151  1.00  0.00     0.127 S 
ATOM     89  O   UNL A   1      41.529  35.225  37.495  1.00  0.00    -0.237 OA
ATOM     90  O   UNL A   1      40.006  36.324  35.898  1.00  0.00    -0.237 OA
ATOM     91  O   UNL A   1      39.340  36.088  38.248  1.00  0.00    -0.744 OA
ENDBRANCH  85  88
ENDBRANCH  57  81
BRANCH  69  92
ATOM     92  C   UNL A   1      44.866  27.730  34.447  1.00  0.00     0.023 A 
ATOM     93  C   UNL A   1      45.982  28.584  34.559  1.00  0.00     0.012 A 
ATOM     94  C   UNL A   1      44.813  26.556  35.224  1.00  0.00     0.148 A 
ATOM     95  C   UNL A   1      47.045  28.252  35.399  1.00  0.00     0.002 A 
ATOM     96  C   UNL A   1      45.851  26.261  36.100  1.00  0.00     0.091 A 
ATOM     97  F   UNL A   1      43.750  25.749  35.092  1.00  0.00    -0.205 F 
ATOM     98  C   UNL A   1      46.974  27.099  36.177  1.00  0.00     0.022 A 
BRANCH  96  99
ATOM     99  S   UNL A   1      45.799  24.852  37.214  1.00  0.00     0.127 S 
ATOM    100  O   UNL A   1      44.850  23.970  36.534  1.00  0.00    -0.237 OA
ATOM    101  O   UNL A   1      47.187  24.389  37.191  1.00  0.00    -0.237 OA
ATOM    102  O   UNL A   1      45.355  25.374  38.500  1.00  0.00    -0.744 OA
ENDBRANCH  96  99
ENDBRANCH  69  92
ENDBRANCH  43  44
ENDBRANCH  36  38
ENDBRANCH  35  36
ENDBRANCH  34  35
ENDBRANCH  33  34
ENDBRANCH  32  33
ENDBRANCH  31  32
ENDBRANCH  30  31
ENDBRANCH  29  30
ENDBRANCH   1  29
TORSDOF 27
ENDMDL
MODEL 3
REMARK VINA RESULT:      -8.2      1.654      7.517
REMARK SMILES CN(C[C@@H]1CCC[N@H+]1C)C(=O)N[C@H]1COC[C@]1(C)C(=O)OCCOCCOCCOCCOC(=O)c1ccc(-c2c3nc(c(-c4cccc(S(=O)(=O)[O-])c4F)c4ccc([nH]4)c(-c4cccc(S(=O)(=O)[O-])c4F)c4nc(c(-c5cccc(S(=O)(=O)[O-])c5F)c5ccc2[nH]5)C=C4)C=C3)cc1
REMARK SMILES IDX 26 1 25 2 24 3 23 4 22 5 21 6 19 7 20 8 17 9 13 10 14 11
REMARK SMILES IDX 15 12 16 13 18 14 12 15 10 16 11 17 2 19 1 20 3 21 4 22 5 23
REMARK SMILES IDX 8 24 6 25 7 26 9 27 27 29 28 30 29 31 30 32 31 33 32 34
REMARK SMILES IDX 33 35 34 36 35 37 36 38 37 39 98 40 38 41 97 42 39 43 40 44
REMARK SMILES IDX 41 45 91 46 42 47 96 48 90 49 92 50 43 51 95 52 89 53 88 54
REMARK SMILES IDX 44 56 76 57 56 58 75 59 57 60 60 61 74 62 93 63 58 64 59 65
REMARK SMILES IDX 73 67 94 68 61 69 45 70 46 71 54 72 47 73 49 74 55 75 48 76
REMARK SMILES IDX 50 77 51 78 52 79 53 80 77 81 78 82 86 83 79 84 81 85 87 86
REMARK SMILES IDX 80 87 82 88 83 89 84 90 85 91 62 92 63 93 71 94 64 95 66 96
REMARK SMILES IDX 72 97 65 98 67 99 68 100 69 101 70 102
REMARK H PARENT 12 18 8 28 92 55 60 66
REMARK Flexibility Score: inf
ROOT
ATOM      1  C   UNL A   1      29.780  27.751  23.135  1.00  0.00     0.188 C 
ENDROOT
BRANCH   1   2
ATOM      2  C   UNL A   1      31.040  27.927  22.297  1.00  0.00     0.188 C 
BRANCH   2   3
ATOM      3  O   UNL A   1      31.447  26.752  21.640  1.00  0.00    -0.376 OA
BRANCH   3   4
ATOM      4  C   UNL A   1      32.247  25.816  22.345  1.00  0.00     0.202 C 
BRANCH   4   5
ATOM      5  C   UNL A   1      33.056  26.072  23.641  1.00  0.00     0.261 C 
BRANCH   5   6
ATOM      6  O   UNL A   1      32.468  25.854  24.934  1.00  0.00    -0.463 OA
BRANCH   6   7
ATOM      7  C   UNL A   1      31.683  24.753  25.058  1.00  0.00     0.316 C 
ATOM      8  O   UNL A   1      30.455  24.802  25.000  1.00  0.00    -0.251 OA
BRANCH   7   9
ATOM      9  C   UNL A   1      32.424  23.436  25.346  1.00  0.00     0.111 C 
ATOM     10  C   UNL A   1      33.748  23.197  24.585  1.00  0.00     0.129 C 
ATOM     11  C   UNL A   1      33.363  22.231  23.446  1.00  0.00     0.186 C 
ATOM     12  O   UNL A   1      31.962  21.961  23.527  1.00  0.00    -0.378 OA
ATOM     13  C   UNL A   1      31.533  22.300  24.846  1.00  0.00     0.181 C 
ATOM     14  C   UNL A   1      32.514  23.361  26.882  1.00  0.00     0.028 C 
BRANCH  10  15
ATOM     15  N   UNL A   1      34.824  22.571  25.370  1.00  0.00    -0.332 N 
ATOM     16  C   UNL A   1      35.226  21.320  25.635  1.00  0.00     0.317 C 
ATOM     17  O   UNL A   1      36.329  21.243  26.187  1.00  0.00    -0.249 OA
ATOM     18  H   UNL A   1      35.393  23.241  25.812  1.00  0.00     0.165 HD
BRANCH  16  19
ATOM     19  N   UNL A   1      34.521  20.218  25.262  1.00  0.00    -0.322 N 
ATOM     20  C   UNL A   1      35.209  19.269  24.396  1.00  0.00     0.149 C 
BRANCH  19  21
ATOM     21  C   UNL A   1      33.181  19.811  25.698  1.00  0.00     0.185 C 
BRANCH  21  22
ATOM     22  C   UNL A   1      32.553  18.560  25.021  1.00  0.00     0.203 C 
ATOM     23  C   UNL A   1      32.855  17.332  25.910  1.00  0.00     0.073 C 
ATOM     24  N   UNL A   1      33.128  18.207  23.702  1.00  0.00    -0.333 N 
ATOM     25  C   UNL A   1      33.630  16.363  25.038  1.00  0.00     0.068 C 
ATOM     26  C   UNL A   1      33.205  16.742  23.640  1.00  0.00     0.262 C 
ATOM     27  C   UNL A   1      32.348  18.706  22.574  1.00  0.00     0.333 C 
ATOM     28  H   UNL A   1      34.045  18.647  23.623  1.00  0.00     0.348 HD
ENDBRANCH  21  22
ENDBRANCH  19  21
ENDBRANCH  16  19
ENDBRANCH  10  15
ENDBRANCH   7   9
ENDBRANCH   6   7
ENDBRANCH   5   6
ENDBRANCH   4   5
ENDBRANCH   3   4
ENDBRANCH   2   3
ENDBRANCH   1   2
BRANCH   1  29
ATOM     29  O   UNL A   1      29.164  28.919  23.657  1.00  0.00    -0.377 OA
BRANCH  29  30
ATOM     30  C   UNL A   1      29.671  30.184  23.234  1.00  0.00     0.188 C 
BRANCH  30  31
ATOM     31  C   UNL A   1      29.530  31.369  24.196  1.00  0.00     0.188 C 
BRANCH  31  32
ATOM     32  O   UNL A   1      30.319  31.382  25.387  1.00  0.00    -0.376 OA
BRANCH  32  33
ATOM     33  C   UNL A   1      31.517  30.612  25.442  1.00  0.00     0.202 C 
BRANCH  33  34
ATOM     34  C   UNL A   1      32.078  30.412  26.844  1.00  0.00     0.261 C 
BRANCH  34  35
ATOM     35  O   UNL A   1      33.512  30.417  26.829  1.00  0.00    -0.460 OA
BRANCH  35  36
ATOM     36  C   UNL A   1      34.091  31.396  27.550  1.00  0.00     0.338 C 
ATOM     37  O   UNL A   1      33.581  32.447  27.927  1.00  0.00    -0.246 OA
BRANCH  36  38
ATOM     38  C   UNL A   1      35.445  30.984  27.935  1.00  0.00     0.060 A 
ATOM     39  C   UNL A   1      35.659  29.641  28.271  1.00  0.00     0.016 A 
ATOM     40  C   UNL A   1      36.463  31.931  28.072  1.00  0.00     0.016 A 
ATOM     41  C   UNL A   1      36.872  29.258  28.833  1.00  0.00     0.010 A 
ATOM     42  C   UNL A   1      37.677  31.544  28.635  1.00  0.00     0.010 A 
ATOM     43  C   UNL A   1      37.860  30.221  29.071  1.00  0.00    -0.014 A 
BRANCH  43  44
ATOM     44  C   UNL A   1      39.005  29.898  29.950  1.00  0.00     0.031 A 
ATOM     45  C   UNL A   1      39.965  28.826  29.514  1.00  0.00     0.074 A 
ATOM     46  C   UNL A   1      39.171  30.541  31.118  1.00  0.00     0.049 A 
ATOM     47  N   UNL A   1      40.998  28.332  30.144  1.00  0.00    -0.248 NA
ATOM     48  C   UNL A   1      39.721  28.222  28.192  1.00  0.00     0.031 C 
ATOM     49  C   UNL A   1      38.307  31.604  31.627  1.00  0.00     0.029 A 
ATOM     50  N   UNL A   1      40.115  30.370  32.096  1.00  0.00    -0.354 N 
ATOM     51  C   UNL A   1      41.509  27.342  29.312  1.00  0.00     0.074 A 
ATOM     52  C   UNL A   1      40.661  27.291  28.142  1.00  0.00     0.031 C 
ATOM     53  C   UNL A   1      38.747  31.974  32.842  1.00  0.00     0.029 A 
ATOM     54  C   UNL A   1      39.901  31.155  33.203  1.00  0.00     0.049 A 
ATOM     55  H   UNL A   1      40.871  29.744  32.014  1.00  0.00     0.167 HD
ATOM     56  C   UNL A   1      42.596  26.556  29.500  1.00  0.00     0.034 A 
ATOM     57  C   UNL A   1      40.554  31.186  34.381  1.00  0.00     0.034 A 
ATOM     58  C   UNL A   1      43.436  26.624  30.664  1.00  0.00     0.049 A 
ATOM     59  C   UNL A   1      41.738  30.276  34.582  1.00  0.00     0.074 A 
ATOM     60  C   UNL A   1      44.582  25.901  30.945  1.00  0.00     0.029 A 
ATOM     61  N   UNL A   1      43.211  27.455  31.751  1.00  0.00    -0.354 N 
ATOM     62  N   UNL A   1      42.271  29.414  33.748  1.00  0.00    -0.248 NA
ATOM     63  C   UNL A   1      42.429  30.364  35.876  1.00  0.00     0.031 C 
ATOM     64  C   UNL A   1      45.030  26.274  32.217  1.00  0.00     0.029 A 
ATOM     65  C   UNL A   1      44.188  27.258  32.710  1.00  0.00     0.049 A 
ATOM     66  H   UNL A   1      42.466  28.094  31.829  1.00  0.00     0.167 HD
ATOM     67  C   UNL A   1      43.386  28.894  34.396  1.00  0.00     0.074 A 
ATOM     68  C   UNL A   1      43.457  29.547  35.688  1.00  0.00     0.031 C 
ATOM     69  C   UNL A   1      44.268  27.956  33.969  1.00  0.00     0.034 A 
BRANCH  56  70
ATOM     70  C   UNL A   1      42.940  25.571  28.413  1.00  0.00     0.023 A 
ATOM     71  C   UNL A   1      42.170  24.400  28.256  1.00  0.00     0.012 A 
ATOM     72  C   UNL A   1      44.008  25.815  27.525  1.00  0.00     0.148 A 
ATOM     73  C   UNL A   1      42.481  23.469  27.265  1.00  0.00     0.002 A 
ATOM     74  C   UNL A   1      44.283  24.907  26.510  1.00  0.00     0.091 A 
ATOM     75  F   UNL A   1      44.745  26.921  27.703  1.00  0.00    -0.205 F 
ATOM     76  C   UNL A   1      43.530  23.727  26.387  1.00  0.00     0.022 A 
BRANCH  74  77
ATOM     77  S   UNL A   1      45.562  25.187  25.280  1.00  0.00     0.127 S 
ATOM     78  O   UNL A   1      46.775  25.100  26.092  1.00  0.00    -0.237 OA
ATOM     79  O   UNL A   1      45.359  24.064  24.365  1.00  0.00    -0.237 OA
ATOM     80  O   UNL A   1      45.286  26.496  24.705  1.00  0.00    -0.744 OA
ENDBRANCH  74  77
ENDBRANCH  56  70
BRANCH  57  81
ATOM     81  C   UNL A   1      40.132  32.143  35.441  1.00  0.00     0.023 A 
ATOM     82  C   UNL A   1      40.788  33.384  35.554  1.00  0.00     0.012 A 
ATOM     83  C   UNL A   1      39.073  31.843  36.320  1.00  0.00     0.148 A 
ATOM     84  C   UNL A   1      40.419  34.295  36.544  1.00  0.00     0.002 A 
ATOM     85  C   UNL A   1      38.673  32.778  37.267  1.00  0.00     0.091 A 
ATOM     86  F   UNL A   1      38.469  30.652  36.202  1.00  0.00    -0.205 F 
ATOM     87  C   UNL A   1      39.357  33.997  37.393  1.00  0.00     0.022 A 
BRANCH  85  88
ATOM     88  S   UNL A   1      37.232  32.538  38.311  1.00  0.00     0.127 S 
ATOM     89  O   UNL A   1      36.182  33.184  37.528  1.00  0.00    -0.237 OA
ATOM     90  O   UNL A   1      37.147  31.079  38.374  1.00  0.00    -0.237 OA
ATOM     91  O   UNL A   1      37.554  33.175  39.581  1.00  0.00    -0.744 OA
ENDBRANCH  85  88
ENDBRANCH  57  81
BRANCH  69  92
ATOM     92  C   UNL A   1      45.421  27.616  34.879  1.00  0.00     0.023 A 
ATOM     93  C   UNL A   1      46.679  28.220  34.683  1.00  0.00     0.012 A 
ATOM     94  C   UNL A   1      45.232  26.750  35.974  1.00  0.00     0.148 A 
ATOM     95  C   UNL A   1      47.742  27.934  35.540  1.00  0.00     0.002 A 
ATOM     96  C   UNL A   1      46.280  26.513  36.855  1.00  0.00     0.091 A 
ATOM     97  F   UNL A   1      44.031  26.174  36.134  1.00  0.00    -0.205 F 
ATOM     98  C   UNL A   1      47.540  27.091  36.630  1.00  0.00     0.022 A 
BRANCH  96  99
ATOM     99  S   UNL A   1      46.083  25.524  38.342  1.00  0.00     0.127 S 
ATOM    100  O   UNL A   1      46.021  24.170  37.793  1.00  0.00    -0.237 OA
ATOM    101  O   UNL A   1      47.310  25.828  39.079  1.00  0.00    -0.237 OA
ATOM    102  O   UNL A   1      44.861  25.996  38.980  1.00  0.00    -0.744 OA
ENDBRANCH  96  99
ENDBRANCH  69  92
ENDBRANCH  43  44
ENDBRANCH  36  38
ENDBRANCH  35  36
ENDBRANCH  34  35
ENDBRANCH  33  34
ENDBRANCH  32  33
ENDBRANCH  31  32
ENDBRANCH  30  31
ENDBRANCH  29  30
ENDBRANCH   1  29
TORSDOF 27
ENDMDL
