MODEL 1
REMARK VINA RESULT:      -8.9      0.000      0.000
REMARK SMILES COc1ccc(NC(=O)C[C@@H](C[NH+]2CCOCC2)C(=O)OCCOCCOCCOCCOC(=O)c2ccc(-c3c4nc(c(-c5cccc(S(=O)(=O)[O-])c5F)c5ccc([nH]5)c(-c5cccc(S(=O)(=O)[O-])c5F)c5nc(c(-c6cccc(S(=O)(=O)[O-])c6F)c6ccc3[nH]6)C=C5)C=C4)cc2)cc1
REMARK SMILES IDX 26 1 25 2 24 3 23 4 22 5 21 6 19 7 20 8 11 9 10 10 8 11 7 12
REMARK SMILES IDX 9 14 6 15 3 16 4 17 100 18 5 19 99 20 2 21 1 22 12 23 13 24
REMARK SMILES IDX 14 25 18 26 15 28 17 29 16 30 27 31 28 32 29 33 30 34 31 35
REMARK SMILES IDX 32 36 33 37 34 38 35 39 36 40 37 41 98 42 38 43 97 44 39 45
REMARK SMILES IDX 40 46 41 47 91 48 42 49 96 50 90 51 92 52 43 53 95 54 89 55
REMARK SMILES IDX 88 56 44 58 76 59 56 60 75 61 57 62 60 63 74 64 93 65 58 66
REMARK SMILES IDX 59 67 73 69 94 70 61 71 45 72 46 73 54 74 47 75 49 76 55 77
REMARK SMILES IDX 48 78 50 79 51 80 52 81 53 82 77 83 78 84 86 85 79 86 81 87
REMARK SMILES IDX 87 88 80 89 82 90 83 91 84 92 85 93 62 94 63 95 71 96 64 97
REMARK SMILES IDX 66 98 72 99 65 100 67 101 68 102 69 103 70 104
REMARK H PARENT 7 13 13 27 92 57 60 68
REMARK Flexibility Score: inf
ROOT
ATOM      1  C   UNL A   1      36.602  32.243  28.644  1.00  0.00     0.188 C 
ENDROOT
BRANCH   1   2
ATOM      2  C   UNL A   1      36.254  30.955  27.866  1.00  0.00     0.188 C 
BRANCH   2   3
ATOM      3  O   UNL A   1      34.984  30.341  28.004  1.00  0.00    -0.376 OA
BRANCH   3   4
ATOM      4  C   UNL A   1      34.084  30.315  26.909  1.00  0.00     0.202 C 
BRANCH   4   5
ATOM      5  C   UNL A   1      33.065  29.198  26.736  1.00  0.00     0.261 C 
BRANCH   5   6
ATOM      6  O   UNL A   1      33.261  28.290  25.643  1.00  0.00    -0.463 OA
BRANCH   6   7
ATOM      7  C   UNL A   1      32.732  28.651  24.444  1.00  0.00     0.315 C 
ATOM      8  O   UNL A   1      33.318  29.326  23.601  1.00  0.00    -0.252 OA
BRANCH   7   9
ATOM      9  C   UNL A   1      31.247  28.338  24.343  1.00  0.00     0.163 C 
BRANCH   9  10
ATOM     10  C   UNL A   1      30.780  27.113  25.147  1.00  0.00     0.121 C 
BRANCH  10  11
ATOM     11  C   UNL A   1      30.092  26.064  24.268  1.00  0.00     0.225 C 
ATOM     12  N   UNL A   1      30.692  24.916  23.835  1.00  0.00    -0.326 N 
ATOM     13  H   UNL A   1      30.080  24.296  23.376  1.00  0.00     0.169 HD
ATOM     14  O   UNL A   1      28.887  26.185  24.010  1.00  0.00    -0.275 OA
BRANCH  12  15
ATOM     15  C   UNL A   1      32.010  24.450  23.917  1.00  0.00     0.041 A 
ATOM     16  C   UNL A   1      34.738  23.874  24.315  1.00  0.00     0.119 A 
ATOM     17  C   UNL A   1      34.267  24.246  23.063  1.00  0.00     0.048 A 
ATOM     18  C   UNL A   1      33.811  23.667  25.339  1.00  0.00     0.048 A 
ATOM     19  C   UNL A   1      32.906  24.496  22.860  1.00  0.00     0.030 A 
ATOM     20  C   UNL A   1      32.450  23.935  25.138  1.00  0.00     0.030 A 
BRANCH  16  21
ATOM     21  O   UNL A   1      36.043  23.660  24.654  1.00  0.00    -0.497 OA
ATOM     22  C   UNL A   1      36.804  22.753  23.857  1.00  0.00     0.278 C 
ENDBRANCH  16  21
ENDBRANCH  12  15
ENDBRANCH  10  11
ENDBRANCH   9  10
BRANCH   9  23
ATOM     23  C   UNL A   1      30.534  29.686  24.623  1.00  0.00     0.278 C 
BRANCH  23  24
ATOM     24  N   UNL A   1      29.999  30.308  23.414  1.00  0.00    -0.330 N 
ATOM     25  C   UNL A   1      29.224  31.543  23.520  1.00  0.00     0.291 C 
ATOM     26  C   UNL A   1      29.386  29.375  22.464  1.00  0.00     0.291 C 
ATOM     27  H   UNL A   1      30.886  30.638  23.030  1.00  0.00     0.348 HD
ATOM     28  C   UNL A   1      27.704  31.324  23.619  1.00  0.00     0.221 C 
ATOM     29  C   UNL A   1      27.910  29.144  22.754  1.00  0.00     0.221 C 
ATOM     30  O   UNL A   1      27.208  30.385  22.652  1.00  0.00    -0.370 OA
ENDBRANCH  23  24
ENDBRANCH   9  23
ENDBRANCH   7   9
ENDBRANCH   6   7
ENDBRANCH   5   6
ENDBRANCH   4   5
ENDBRANCH   3   4
ENDBRANCH   2   3
ENDBRANCH   1   2
BRANCH   1  31
ATOM     31  O   UNL A   1      35.874  33.415  28.330  1.00  0.00    -0.377 OA
BRANCH  31  32
ATOM     32  C   UNL A   1      34.685  33.729  29.044  1.00  0.00     0.188 C 
BRANCH  32  33
ATOM     33  C   UNL A   1      33.345  33.857  28.298  1.00  0.00     0.188 C 
BRANCH  33  34
ATOM     34  O   UNL A   1      32.616  35.039  28.581  1.00  0.00    -0.376 OA
BRANCH  34  35
ATOM     35  C   UNL A   1      33.316  36.220  28.932  1.00  0.00     0.202 C 
BRANCH  35  36
ATOM     36  C   UNL A   1      33.004  36.899  30.275  1.00  0.00     0.261 C 
BRANCH  36  37
ATOM     37  O   UNL A   1      33.761  36.465  31.416  1.00  0.00    -0.460 OA
BRANCH  37  38
ATOM     38  C   UNL A   1      33.287  35.429  32.145  1.00  0.00     0.338 C 
ATOM     39  O   UNL A   1      32.153  35.014  32.183  1.00  0.00    -0.246 OA
BRANCH  38  40
ATOM     40  C   UNL A   1      34.459  34.748  32.740  1.00  0.00     0.060 A 
ATOM     41  C   UNL A   1      35.743  35.248  32.478  1.00  0.00     0.016 A 
ATOM     42  C   UNL A   1      34.287  33.622  33.546  1.00  0.00     0.016 A 
ATOM     43  C   UNL A   1      36.862  34.593  32.986  1.00  0.00     0.010 A 
ATOM     44  C   UNL A   1      35.411  32.951  34.032  1.00  0.00     0.010 A 
ATOM     45  C   UNL A   1      36.702  33.412  33.720  1.00  0.00    -0.014 A 
BRANCH  45  46
ATOM     46  C   UNL A   1      37.875  32.545  33.972  1.00  0.00     0.031 A 
ATOM     47  C   UNL A   1      38.735  32.852  35.168  1.00  0.00     0.074 A 
ATOM     48  C   UNL A   1      38.171  31.513  33.164  1.00  0.00     0.049 A 
ATOM     49  N   UNL A   1      39.841  32.281  35.561  1.00  0.00    -0.248 NA
ATOM     50  C   UNL A   1      38.285  33.954  36.036  1.00  0.00     0.031 C 
ATOM     51  C   UNL A   1      37.399  31.108  31.992  1.00  0.00     0.029 A 
ATOM     52  N   UNL A   1      39.226  30.635  33.195  1.00  0.00    -0.354 N 
ATOM     53  C   UNL A   1      40.240  32.974  36.698  1.00  0.00     0.074 A 
ATOM     54  C   UNL A   1      39.260  34.010  36.930  1.00  0.00     0.031 C 
ATOM     55  C   UNL A   1      38.027  30.083  31.391  1.00  0.00     0.029 A 
ATOM     56  C   UNL A   1      39.260  29.783  32.117  1.00  0.00     0.049 A 
ATOM     57  H   UNL A   1      39.892  30.617  33.919  1.00  0.00     0.167 HD
ATOM     58  C   UNL A   1      41.323  32.761  37.480  1.00  0.00     0.034 A 
ATOM     59  C   UNL A   1      40.199  28.891  31.743  1.00  0.00     0.034 A 
ATOM     60  C   UNL A   1      42.286  31.721  37.250  1.00  0.00     0.049 A 
ATOM     61  C   UNL A   1      41.416  28.699  32.614  1.00  0.00     0.074 A 
ATOM     62  C   UNL A   1      43.395  31.394  38.011  1.00  0.00     0.029 A 
ATOM     63  N   UNL A   1      42.270  30.854  36.170  1.00  0.00    -0.354 N 
ATOM     64  N   UNL A   1      41.726  29.289  33.744  1.00  0.00    -0.248 NA
ATOM     65  C   UNL A   1      42.398  27.695  32.176  1.00  0.00     0.031 C 
ATOM     66  C   UNL A   1      44.073  30.356  37.366  1.00  0.00     0.029 A 
ATOM     67  C   UNL A   1      43.360  30.003  36.232  1.00  0.00     0.049 A 
ATOM     68  H   UNL A   1      41.586  30.844  35.463  1.00  0.00     0.167 HD
ATOM     69  C   UNL A   1      42.914  28.700  34.170  1.00  0.00     0.074 A 
ATOM     70  C   UNL A   1      43.255  27.695  33.186  1.00  0.00     0.031 C 
ATOM     71  C   UNL A   1      43.659  28.974  35.270  1.00  0.00     0.034 A 
BRANCH  58  72
ATOM     72  C   UNL A   1      41.524  33.672  38.663  1.00  0.00     0.023 A 
ATOM     73  C   UNL A   1      40.994  33.323  39.921  1.00  0.00     0.012 A 
ATOM     74  C   UNL A   1      42.296  34.843  38.537  1.00  0.00     0.148 A 
ATOM     75  C   UNL A   1      41.206  34.141  41.030  1.00  0.00     0.002 A 
ATOM     76  C   UNL A   1      42.544  35.626  39.656  1.00  0.00     0.091 A 
ATOM     77  F   UNL A   1      42.770  35.168  37.326  1.00  0.00    -0.205 F 
ATOM     78  C   UNL A   1      41.991  35.283  40.901  1.00  0.00     0.022 A 
BRANCH  76  79
ATOM     79  S   UNL A   1      43.608  37.071  39.612  1.00  0.00     0.127 S 
ATOM     80  O   UNL A   1      43.120  37.761  38.417  1.00  0.00    -0.237 OA
ATOM     81  O   UNL A   1      43.280  37.731  40.875  1.00  0.00    -0.237 OA
ATOM     82  O   UNL A   1      44.972  36.567  39.523  1.00  0.00    -0.744 OA
ENDBRANCH  76  79
ENDBRANCH  58  72
BRANCH  59  83
ATOM     83  C   UNL A   1      40.030  28.105  30.487  1.00  0.00     0.023 A 
ATOM     84  C   UNL A   1      39.187  26.977  30.473  1.00  0.00     0.012 A 
ATOM     85  C   UNL A   1      40.703  28.470  29.303  1.00  0.00     0.148 A 
ATOM     86  C   UNL A   1      39.050  26.205  29.319  1.00  0.00     0.002 A 
ATOM     87  C   UNL A   1      40.513  27.735  28.140  1.00  0.00     0.091 A 
ATOM     88  F   UNL A   1      41.514  29.537  29.338  1.00  0.00    -0.205 F 
ATOM     89  C   UNL A   1      39.704  26.588  28.151  1.00  0.00     0.022 A 
BRANCH  87  90
ATOM     90  S   UNL A   1      41.210  28.232  26.561  1.00  0.00     0.127 S 
ATOM     91  O   UNL A   1      40.257  29.245  26.115  1.00  0.00    -0.237 OA
ATOM     92  O   UNL A   1      42.521  28.750  26.955  1.00  0.00    -0.237 OA
ATOM     93  O   UNL A   1      41.269  27.020  25.754  1.00  0.00    -0.744 OA
ENDBRANCH  87  90
ENDBRANCH  59  83
BRANCH  71  94
ATOM     94  C   UNL A   1      44.895  28.141  35.507  1.00  0.00     0.023 A 
ATOM     95  C   UNL A   1      46.151  28.596  35.059  1.00  0.00     0.012 A 
ATOM     96  C   UNL A   1      44.816  26.943  36.244  1.00  0.00     0.148 A 
ATOM     97  C   UNL A   1      47.303  27.850  35.309  1.00  0.00     0.002 A 
ATOM     98  C   UNL A   1      45.974  26.234  36.536  1.00  0.00     0.091 A 
ATOM     99  F   UNL A   1      43.609  26.520  36.650  1.00  0.00    -0.205 F 
ATOM    100  C   UNL A   1      47.217  26.678  36.056  1.00  0.00     0.022 A 
BRANCH  98 101
ATOM    101  S   UNL A   1      45.974  24.769  37.576  1.00  0.00     0.127 S 
ATOM    102  O   UNL A   1      45.604  23.727  36.621  1.00  0.00    -0.237 OA
ATOM    103  O   UNL A   1      47.363  24.715  38.033  1.00  0.00    -0.237 OA
ATOM    104  O   UNL A   1      45.000  25.023  38.629  1.00  0.00    -0.744 OA
ENDBRANCH  98 101
ENDBRANCH  71  94
ENDBRANCH  45  46
ENDBRANCH  38  40
ENDBRANCH  37  38
ENDBRANCH  36  37
ENDBRANCH  35  36
ENDBRANCH  34  35
ENDBRANCH  33  34
ENDBRANCH  32  33
ENDBRANCH  31  32
ENDBRANCH   1  31
TORSDOF 29
ENDMDL
MODEL 2
REMARK VINA RESULT:      -8.8      1.783      2.132
REMARK SMILES COc1ccc(NC(=O)C[C@@H](C[NH+]2CCOCC2)C(=O)OCCOCCOCCOCCOC(=O)c2ccc(-c3c4nc(c(-c5cccc(S(=O)(=O)[O-])c5F)c5ccc([nH]5)c(-c5cccc(S(=O)(=O)[O-])c5F)c5nc(c(-c6cccc(S(=O)(=O)[O-])c6F)c6ccc3[nH]6)C=C5)C=C4)cc2)cc1
REMARK SMILES IDX 26 1 25 2 24 3 23 4 22 5 21 6 19 7 20 8 11 9 10 10 8 11 7 12
REMARK SMILES IDX 9 14 6 15 3 16 4 17 100 18 5 19 99 20 2 21 1 22 12 23 13 24
REMARK SMILES IDX 14 25 18 26 15 28 17 29 16 30 27 31 28 32 29 33 30 34 31 35
REMARK SMILES IDX 32 36 33 37 34 38 35 39 36 40 37 41 98 42 38 43 97 44 39 45
REMARK SMILES IDX 40 46 41 47 91 48 42 49 96 50 90 51 92 52 43 53 95 54 89 55
REMARK SMILES IDX 88 56 44 58 76 59 56 60 75 61 57 62 60 63 74 64 93 65 58 66
REMARK SMILES IDX 59 67 73 69 94 70 61 71 45 72 46 73 54 74 47 75 49 76 55 77
REMARK SMILES IDX 48 78 50 79 51 80 52 81 53 82 77 83 78 84 86 85 79 86 81 87
REMARK SMILES IDX 87 88 80 89 82 90 83 91 84 92 85 93 62 94 63 95 71 96 64 97
REMARK SMILES IDX 66 98 72 99 65 100 67 101 68 102 69 103 70 104
REMARK H PARENT 7 13 13 27 92 57 60 68
REMARK Flexibility Score: inf
ROOT
ATOM      1  C   UNL A   1      35.977  30.993  28.242  1.00  0.00     0.188 C 
ENDROOT
BRANCH   1   2
ATOM      2  C   UNL A   1      35.663  29.987  27.114  1.00  0.00     0.188 C 
BRANCH   2   3
ATOM      3  O   UNL A   1      34.429  29.291  27.079  1.00  0.00    -0.376 OA
BRANCH   3   4
ATOM      4  C   UNL A   1      33.336  29.817  26.345  1.00  0.00     0.202 C 
BRANCH   4   5
ATOM      5  C   UNL A   1      32.172  28.941  25.905  1.00  0.00     0.261 C 
BRANCH   5   6
ATOM      6  O   UNL A   1      32.418  27.999  24.851  1.00  0.00    -0.463 OA
BRANCH   6   7
ATOM      7  C   UNL A   1      32.328  28.465  23.577  1.00  0.00     0.315 C 
ATOM      8  O   UNL A   1      32.953  29.431  23.145  1.00  0.00    -0.252 OA
BRANCH   7   9
ATOM      9  C   UNL A   1      31.192  27.820  22.798  1.00  0.00     0.163 C 
BRANCH   9  10
ATOM     10  C   UNL A   1      31.154  26.284  22.848  1.00  0.00     0.121 C 
BRANCH  10  11
ATOM     11  C   UNL A   1      31.786  25.642  21.609  1.00  0.00     0.225 C 
ATOM     12  N   UNL A   1      32.368  24.407  21.599  1.00  0.00    -0.326 N 
ATOM     13  H   UNL A   1      32.623  24.095  20.700  1.00  0.00     0.169 HD
ATOM     14  O   UNL A   1      31.680  26.209  20.512  1.00  0.00    -0.275 OA
BRANCH  12  15
ATOM     15  C   UNL A   1      32.673  23.499  22.620  1.00  0.00     0.041 A 
ATOM     16  C   UNL A   1      33.600  21.528  24.406  1.00  0.00     0.119 A 
ATOM     17  C   UNL A   1      32.374  21.388  23.769  1.00  0.00     0.048 A 
ATOM     18  C   UNL A   1      34.301  22.725  24.242  1.00  0.00     0.048 A 
ATOM     19  C   UNL A   1      31.900  22.385  22.910  1.00  0.00     0.030 A 
ATOM     20  C   UNL A   1      33.832  23.716  23.368  1.00  0.00     0.030 A 
BRANCH  16  21
ATOM     21  O   UNL A   1      34.197  20.606  25.216  1.00  0.00    -0.497 OA
ATOM     22  C   UNL A   1      33.772  20.533  26.577  1.00  0.00     0.278 C 
ENDBRANCH  16  21
ENDBRANCH  12  15
ENDBRANCH  10  11
ENDBRANCH   9  10
BRANCH   9  23
ATOM     23  C   UNL A   1      29.916  28.577  23.249  1.00  0.00     0.278 C 
BRANCH  23  24
ATOM     24  N   UNL A   1      29.921  29.983  22.852  1.00  0.00    -0.330 N 
ATOM     25  C   UNL A   1      29.360  30.989  23.754  1.00  0.00     0.291 C 
ATOM     26  C   UNL A   1      29.518  30.231  21.464  1.00  0.00     0.291 C 
ATOM     27  H   UNL A   1      30.925  30.145  22.941  1.00  0.00     0.348 HD
ATOM     28  C   UNL A   1      27.880  31.315  23.490  1.00  0.00     0.221 C 
ATOM     29  C   UNL A   1      28.013  30.404  21.322  1.00  0.00     0.221 C 
ATOM     30  O   UNL A   1      27.591  31.528  22.099  1.00  0.00    -0.370 OA
ENDBRANCH  23  24
ENDBRANCH   9  23
ENDBRANCH   7   9
ENDBRANCH   6   7
ENDBRANCH   5   6
ENDBRANCH   4   5
ENDBRANCH   3   4
ENDBRANCH   2   3
ENDBRANCH   1   2
BRANCH   1  31
ATOM     31  O   UNL A   1      35.383  32.275  28.161  1.00  0.00    -0.377 OA
BRANCH  31  32
ATOM     32  C   UNL A   1      34.205  32.564  28.903  1.00  0.00     0.188 C 
BRANCH  32  33
ATOM     33  C   UNL A   1      32.892  32.899  28.173  1.00  0.00     0.188 C 
BRANCH  33  34
ATOM     34  O   UNL A   1      32.656  34.282  27.978  1.00  0.00    -0.376 OA
BRANCH  34  35
ATOM     35  C   UNL A   1      33.533  35.227  28.566  1.00  0.00     0.202 C 
BRANCH  35  36
ATOM     36  C   UNL A   1      32.955  36.295  29.509  1.00  0.00     0.261 C 
BRANCH  36  37
ATOM     37  O   UNL A   1      33.510  36.365  30.831  1.00  0.00    -0.460 OA
BRANCH  37  38
ATOM     38  C   UNL A   1      32.930  35.636  31.811  1.00  0.00     0.338 C 
ATOM     39  O   UNL A   1      31.750  35.445  31.985  1.00  0.00    -0.246 OA
BRANCH  38  40
ATOM     40  C   UNL A   1      34.017  34.929  32.526  1.00  0.00     0.060 A 
ATOM     41  C   UNL A   1      35.258  35.565  32.676  1.00  0.00     0.016 A 
ATOM     42  C   UNL A   1      33.810  33.647  33.036  1.00  0.00     0.016 A 
ATOM     43  C   UNL A   1      36.310  34.900  33.301  1.00  0.00     0.010 A 
ATOM     44  C   UNL A   1      34.873  32.971  33.637  1.00  0.00     0.010 A 
ATOM     45  C   UNL A   1      36.136  33.580  33.734  1.00  0.00    -0.014 A 
BRANCH  45  46
ATOM     46  C   UNL A   1      37.321  32.766  34.086  1.00  0.00     0.031 A 
ATOM     47  C   UNL A   1      38.114  33.162  35.303  1.00  0.00     0.074 A 
ATOM     48  C   UNL A   1      37.687  31.703  33.349  1.00  0.00     0.049 A 
ATOM     49  N   UNL A   1      39.217  32.649  35.776  1.00  0.00    -0.248 NA
ATOM     50  C   UNL A   1      37.591  34.293  36.089  1.00  0.00     0.031 C 
ATOM     51  C   UNL A   1      36.984  31.213  32.166  1.00  0.00     0.029 A 
ATOM     52  N   UNL A   1      38.765  30.863  33.476  1.00  0.00    -0.354 N 
ATOM     53  C   UNL A   1      39.540  33.413  36.891  1.00  0.00     0.074 A 
ATOM     54  C   UNL A   1      38.520  34.427  37.023  1.00  0.00     0.031 C 
ATOM     55  C   UNL A   1      37.671  30.179  31.651  1.00  0.00     0.029 A 
ATOM     56  C   UNL A   1      38.875  29.957  32.448  1.00  0.00     0.049 A 
ATOM     57  H   UNL A   1      39.396  30.905  34.230  1.00  0.00     0.167 HD
ATOM     58  C   UNL A   1      40.591  33.277  37.733  1.00  0.00     0.034 A 
ATOM     59  C   UNL A   1      39.858  29.078  32.166  1.00  0.00     0.034 A 
ATOM     60  C   UNL A   1      41.595  32.258  37.604  1.00  0.00     0.049 A 
ATOM     61  C   UNL A   1      41.037  28.971  33.101  1.00  0.00     0.074 A 
ATOM     62  C   UNL A   1      42.675  32.007  38.431  1.00  0.00     0.029 A 
ATOM     63  N   UNL A   1      41.656  31.335  36.572  1.00  0.00    -0.354 N 
ATOM     64  N   UNL A   1      41.275  29.629  34.211  1.00  0.00    -0.248 NA
ATOM     65  C   UNL A   1      42.068  27.978  32.763  1.00  0.00     0.031 C 
ATOM     66  C   UNL A   1      43.414  30.959  37.874  1.00  0.00     0.029 A 
ATOM     67  C   UNL A   1      42.767  30.525  36.729  1.00  0.00     0.049 A 
ATOM     68  H   UNL A   1      41.007  31.266  35.836  1.00  0.00     0.167 HD
ATOM     69  C   UNL A   1      42.458  29.102  34.723  1.00  0.00     0.074 A 
ATOM     70  C   UNL A   1      42.877  28.059  33.811  1.00  0.00     0.031 C 
ATOM     71  C   UNL A   1      43.142  29.457  35.839  1.00  0.00     0.034 A 
BRANCH  58  72
ATOM     72  C   UNL A   1      40.708  34.254  38.873  1.00  0.00     0.023 A 
ATOM     73  C   UNL A   1      41.621  35.324  38.795  1.00  0.00     0.012 A 
ATOM     74  C   UNL A   1      39.863  34.144  39.995  1.00  0.00     0.148 A 
ATOM     75  C   UNL A   1      41.711  36.255  39.829  1.00  0.00     0.002 A 
ATOM     76  C   UNL A   1      39.924  35.102  40.997  1.00  0.00     0.091 A 
ATOM     77  F   UNL A   1      39.020  33.104  40.060  1.00  0.00    -0.205 F 
ATOM     78  C   UNL A   1      40.855  36.152  40.922  1.00  0.00     0.022 A 
BRANCH  76  79
ATOM     79  S   UNL A   1      38.810  35.105  42.405  1.00  0.00     0.127 S 
ATOM     80  O   UNL A   1      39.154  33.841  43.056  1.00  0.00    -0.237 OA
ATOM     81  O   UNL A   1      39.238  36.301  43.130  1.00  0.00    -0.237 OA
ATOM     82  O   UNL A   1      37.463  35.173  41.855  1.00  0.00    -0.744 OA
ENDBRANCH  76  79
ENDBRANCH  58  72
BRANCH  59  83
ATOM     83  C   UNL A   1      39.772  28.222  30.947  1.00  0.00     0.023 A 
ATOM     84  C   UNL A   1      38.854  27.156  30.902  1.00  0.00     0.012 A 
ATOM     85  C   UNL A   1      40.600  28.460  29.831  1.00  0.00     0.148 A 
ATOM     86  C   UNL A   1      38.790  26.318  29.787  1.00  0.00     0.002 A 
ATOM     87  C   UNL A   1      40.487  27.663  28.699  1.00  0.00     0.091 A 
ATOM     88  F   UNL A   1      41.480  29.470  29.897  1.00  0.00    -0.205 F 
ATOM     89  C   UNL A   1      39.598  26.577  28.683  1.00  0.00     0.022 A 
BRANCH  87  90
ATOM     90  S   UNL A   1      41.393  28.004  27.186  1.00  0.00     0.127 S 
ATOM     91  O   UNL A   1      42.762  27.674  27.573  1.00  0.00    -0.237 OA
ATOM     92  O   UNL A   1      40.775  27.071  26.244  1.00  0.00    -0.237 OA
ATOM     93  O   UNL A   1      41.144  29.407  26.881  1.00  0.00    -0.744 OA
ENDBRANCH  87  90
ENDBRANCH  59  83
BRANCH  71  94
ATOM     94  C   UNL A   1      44.389  28.678  36.177  1.00  0.00     0.023 A 
ATOM     95  C   UNL A   1      45.650  29.140  35.748  1.00  0.00     0.012 A 
ATOM     96  C   UNL A   1      44.314  27.528  36.987  1.00  0.00     0.148 A 
ATOM     97  C   UNL A   1      46.811  28.447  36.090  1.00  0.00     0.002 A 
ATOM     98  C   UNL A   1      45.478  26.874  37.369  1.00  0.00     0.091 A 
ATOM     99  F   UNL A   1      43.104  27.097  37.374  1.00  0.00    -0.205 F 
ATOM    100  C   UNL A   1      46.727  27.324  36.909  1.00  0.00     0.022 A 
BRANCH  98 101
ATOM    101  S   UNL A   1      45.476  25.480  38.502  1.00  0.00     0.127 S 
ATOM    102  O   UNL A   1      46.906  25.234  38.673  1.00  0.00    -0.237 OA
ATOM    103  O   UNL A   1      44.808  26.040  39.678  1.00  0.00    -0.237 OA
ATOM    104  O   UNL A   1      44.736  24.419  37.834  1.00  0.00    -0.744 OA
ENDBRANCH  98 101
ENDBRANCH  71  94
ENDBRANCH  45  46
ENDBRANCH  38  40
ENDBRANCH  37  38
ENDBRANCH  36  37
ENDBRANCH  35  36
ENDBRANCH  34  35
ENDBRANCH  33  34
ENDBRANCH  32  33
ENDBRANCH  31  32
ENDBRANCH   1  31
TORSDOF 29
ENDMDL
MODEL 3
REMARK VINA RESULT:      -8.7      2.981      9.444
REMARK SMILES COc1ccc(NC(=O)C[C@@H](C[NH+]2CCOCC2)C(=O)OCCOCCOCCOCCOC(=O)c2ccc(-c3c4nc(c(-c5cccc(S(=O)(=O)[O-])c5F)c5ccc([nH]5)c(-c5cccc(S(=O)(=O)[O-])c5F)c5nc(c(-c6cccc(S(=O)(=O)[O-])c6F)c6ccc3[nH]6)C=C5)C=C4)cc2)cc1
REMARK SMILES IDX 26 1 25 2 24 3 23 4 22 5 21 6 19 7 20 8 11 9 10 10 8 11 7 12
REMARK SMILES IDX 9 14 6 15 3 16 4 17 100 18 5 19 99 20 2 21 1 22 12 23 13 24
REMARK SMILES IDX 14 25 18 26 15 28 17 29 16 30 27 31 28 32 29 33 30 34 31 35
REMARK SMILES IDX 32 36 33 37 34 38 35 39 36 40 37 41 98 42 38 43 97 44 39 45
REMARK SMILES IDX 40 46 41 47 91 48 42 49 96 50 90 51 92 52 43 53 95 54 89 55
REMARK SMILES IDX 88 56 44 58 76 59 56 60 75 61 57 62 60 63 74 64 93 65 58 66
REMARK SMILES IDX 59 67 73 69 94 70 61 71 45 72 46 73 54 74 47 75 49 76 55 77
REMARK SMILES IDX 48 78 50 79 51 80 52 81 53 82 77 83 78 84 86 85 79 86 81 87
REMARK SMILES IDX 87 88 80 89 82 90 83 91 84 92 85 93 62 94 63 95 71 96 64 97
REMARK SMILES IDX 66 98 72 99 65 100 67 101 68 102 69 103 70 104
REMARK H PARENT 7 13 13 27 92 57 60 68
REMARK Flexibility Score: inf
ROOT
ATOM      1  C   UNL A   1      36.361  23.359  25.709  1.00  0.00     0.188 C 
ENDROOT
BRANCH   1   2
ATOM      2  C   UNL A   1      35.441  22.499  26.601  1.00  0.00     0.188 C 
BRANCH   2   3
ATOM      3  O   UNL A   1      35.178  21.143  26.285  1.00  0.00    -0.376 OA
BRANCH   3   4
ATOM      4  C   UNL A   1      34.384  20.817  25.156  1.00  0.00     0.202 C 
BRANCH   4   5
ATOM      5  C   UNL A   1      33.137  19.954  25.277  1.00  0.00     0.261 C 
BRANCH   5   6
ATOM      6  O   UNL A   1      31.868  20.602  25.107  1.00  0.00    -0.463 OA
BRANCH   6   7
ATOM      7  C   UNL A   1      31.731  21.408  24.021  1.00  0.00     0.315 C 
ATOM      8  O   UNL A   1      32.193  21.162  22.910  1.00  0.00    -0.252 OA
BRANCH   7   9
ATOM      9  C   UNL A   1      31.152  22.769  24.375  1.00  0.00     0.163 C 
BRANCH   9  10
ATOM     10  C   UNL A   1      31.639  23.362  25.707  1.00  0.00     0.121 C 
BRANCH  10  11
ATOM     11  C   UNL A   1      30.487  23.880  26.574  1.00  0.00     0.225 C 
ATOM     12  N   UNL A   1      29.773  25.012  26.301  1.00  0.00    -0.326 N 
ATOM     13  H   UNL A   1      28.995  25.142  26.891  1.00  0.00     0.169 HD
ATOM     14  O   UNL A   1      30.087  23.193  27.525  1.00  0.00    -0.275 OA
BRANCH  12  15
ATOM     15  C   UNL A   1      29.933  26.022  25.346  1.00  0.00     0.041 A 
ATOM     16  C   UNL A   1      30.083  28.319  23.723  1.00  0.00     0.119 A 
ATOM     17  C   UNL A   1      29.173  27.309  23.441  1.00  0.00     0.048 A 
ATOM     18  C   UNL A   1      31.008  28.112  24.749  1.00  0.00     0.048 A 
ATOM     19  C   UNL A   1      29.125  26.153  24.227  1.00  0.00     0.030 A 
ATOM     20  C   UNL A   1      30.948  26.961  25.546  1.00  0.00     0.030 A 
BRANCH  16  21
ATOM     21  O   UNL A   1      30.188  29.514  23.072  1.00  0.00    -0.497 OA
ATOM     22  C   UNL A   1      29.516  30.644  23.629  1.00  0.00     0.278 C 
ENDBRANCH  16  21
ENDBRANCH  12  15
ENDBRANCH  10  11
ENDBRANCH   9  10
BRANCH   9  23
ATOM     23  C   UNL A   1      31.346  23.631  23.101  1.00  0.00     0.278 C 
BRANCH  23  24
ATOM     24  N   UNL A   1      32.752  23.895  22.803  1.00  0.00    -0.330 N 
ATOM     25  C   UNL A   1      33.498  24.847  23.626  1.00  0.00     0.291 C 
ATOM     26  C   UNL A   1      33.054  24.073  21.379  1.00  0.00     0.291 C 
ATOM     27  H   UNL A   1      33.126  22.998  23.113  1.00  0.00     0.348 HD
ATOM     28  C   UNL A   1      33.507  26.283  23.074  1.00  0.00     0.221 C 
ATOM     29  C   UNL A   1      32.897  25.518  20.932  1.00  0.00     0.221 C 
ATOM     30  O   UNL A   1      33.802  26.343  21.670  1.00  0.00    -0.370 OA
ENDBRANCH  23  24
ENDBRANCH   9  23
ENDBRANCH   7   9
ENDBRANCH   6   7
ENDBRANCH   5   6
ENDBRANCH   4   5
ENDBRANCH   3   4
ENDBRANCH   2   3
ENDBRANCH   1   2
BRANCH   1  31
ATOM     31  O   UNL A   1      37.758  23.176  25.840  1.00  0.00    -0.377 OA
BRANCH  31  32
ATOM     32  C   UNL A   1      38.306  21.864  25.874  1.00  0.00     0.188 C 
BRANCH  32  33
ATOM     33  C   UNL A   1      39.828  21.664  25.985  1.00  0.00     0.188 C 
BRANCH  33  34
ATOM     34  O   UNL A   1      40.249  20.907  27.106  1.00  0.00    -0.376 OA
BRANCH  34  35
ATOM     35  C   UNL A   1      41.356  20.031  26.978  1.00  0.00     0.202 C 
BRANCH  35  36
ATOM     36  C   UNL A   1      42.590  20.499  26.190  1.00  0.00     0.261 C 
BRANCH  36  37
ATOM     37  O   UNL A   1      43.239  21.696  26.648  1.00  0.00    -0.460 OA
BRANCH  37  38
ATOM     38  C   UNL A   1      43.150  22.808  25.884  1.00  0.00     0.338 C 
ATOM     39  O   UNL A   1      43.065  22.867  24.679  1.00  0.00    -0.246 OA
BRANCH  38  40
ATOM     40  C   UNL A   1      42.964  23.952  26.804  1.00  0.00     0.060 A 
ATOM     41  C   UNL A   1      43.831  25.050  26.709  1.00  0.00     0.016 A 
ATOM     42  C   UNL A   1      41.943  23.934  27.755  1.00  0.00     0.016 A 
ATOM     43  C   UNL A   1      43.706  26.116  27.597  1.00  0.00     0.010 A 
ATOM     44  C   UNL A   1      41.836  24.990  28.662  1.00  0.00     0.010 A 
ATOM     45  C   UNL A   1      42.743  26.064  28.611  1.00  0.00    -0.014 A 
BRANCH  45  46
ATOM     46  C   UNL A   1      42.822  27.015  29.742  1.00  0.00     0.031 A 
ATOM     47  C   UNL A   1      43.718  26.664  30.899  1.00  0.00     0.074 A 
ATOM     48  C   UNL A   1      42.119  28.161  29.746  1.00  0.00     0.049 A 
ATOM     49  N   UNL A   1      43.907  27.299  32.024  1.00  0.00    -0.248 NA
ATOM     50  C   UNL A   1      44.506  25.425  30.768  1.00  0.00     0.031 C 
ATOM     51  C   UNL A   1      41.239  28.616  28.672  1.00  0.00     0.029 A 
ATOM     52  N   UNL A   1      42.016  29.137  30.706  1.00  0.00    -0.354 N 
ATOM     53  C   UNL A   1      44.803  26.524  32.749  1.00  0.00     0.074 A 
ATOM     54  C   UNL A   1      45.119  25.369  31.940  1.00  0.00     0.031 C 
ATOM     55  C   UNL A   1      40.654  29.766  29.050  1.00  0.00     0.029 A 
ATOM     56  C   UNL A   1      41.093  30.108  30.401  1.00  0.00     0.049 A 
ATOM     57  H   UNL A   1      42.552  29.140  31.532  1.00  0.00     0.167 HD
ATOM     58  C   UNL A   1      45.321  26.757  33.977  1.00  0.00     0.034 A 
ATOM     59  C   UNL A   1      40.631  31.133  31.145  1.00  0.00     0.034 A 
ATOM     60  C   UNL A   1      45.013  27.914  34.770  1.00  0.00     0.049 A 
ATOM     61  C   UNL A   1      41.199  31.350  32.526  1.00  0.00     0.074 A 
ATOM     62  C   UNL A   1      45.520  28.266  36.009  1.00  0.00     0.029 A 
ATOM     63  N   UNL A   1      44.102  28.896  34.416  1.00  0.00    -0.354 N 
ATOM     64  N   UNL A   1      42.125  30.668  33.157  1.00  0.00    -0.248 NA
ATOM     65  C   UNL A   1      40.681  32.498  33.287  1.00  0.00     0.031 C 
ATOM     66  C   UNL A   1      44.881  29.439  36.422  1.00  0.00     0.029 A 
ATOM     67  C   UNL A   1      44.016  29.845  35.419  1.00  0.00     0.049 A 
ATOM     68  H   UNL A   1      43.591  28.915  33.575  1.00  0.00     0.167 HD
ATOM     69  C   UNL A   1      42.329  31.326  34.367  1.00  0.00     0.074 A 
ATOM     70  C   UNL A   1      41.443  32.470  34.372  1.00  0.00     0.031 C 
ATOM     71  C   UNL A   1      43.165  31.006  35.386  1.00  0.00     0.034 A 
BRANCH  58  72
ATOM     72  C   UNL A   1      46.279  25.741  34.539  1.00  0.00     0.023 A 
ATOM     73  C   UNL A   1      47.661  25.859  34.290  1.00  0.00     0.012 A 
ATOM     74  C   UNL A   1      45.812  24.704  35.370  1.00  0.00     0.148 A 
ATOM     75  C   UNL A   1      48.561  24.945  34.837  1.00  0.00     0.002 A 
ATOM     76  C   UNL A   1      46.718  23.827  35.951  1.00  0.00     0.091 A 
ATOM     77  F   UNL A   1      44.492  24.595  35.574  1.00  0.00    -0.205 F 
ATOM     78  C   UNL A   1      48.091  23.938  35.676  1.00  0.00     0.022 A 
BRANCH  76  79
ATOM     79  S   UNL A   1      46.223  22.548  37.109  1.00  0.00     0.127 S 
ATOM     80  O   UNL A   1      47.518  22.039  37.559  1.00  0.00    -0.237 OA
ATOM     81  O   UNL A   1      45.486  23.315  38.114  1.00  0.00    -0.237 OA
ATOM     82  O   UNL A   1      45.415  21.603  36.349  1.00  0.00    -0.744 OA
ENDBRANCH  76  79
ENDBRANCH  58  72
BRANCH  59  83
ATOM     83  C   UNL A   1      39.577  32.039  30.604  1.00  0.00     0.023 A 
ATOM     84  C   UNL A   1      39.941  33.265  30.016  1.00  0.00     0.012 A 
ATOM     85  C   UNL A   1      38.213  31.690  30.671  1.00  0.00     0.148 A 
ATOM     86  C   UNL A   1      38.966  34.145  29.542  1.00  0.00     0.002 A 
ATOM     87  C   UNL A   1      37.251  32.540  30.141  1.00  0.00     0.091 A 
ATOM     88  F   UNL A   1      37.884  30.526  31.249  1.00  0.00    -0.205 F 
ATOM     89  C   UNL A   1      37.623  33.779  29.596  1.00  0.00     0.022 A 
BRANCH  87  90
ATOM     90  S   UNL A   1      35.514  32.091  30.048  1.00  0.00     0.127 S 
ATOM     91  O   UNL A   1      34.934  33.264  29.400  1.00  0.00    -0.237 OA
ATOM     92  O   UNL A   1      35.554  30.885  29.221  1.00  0.00    -0.237 OA
ATOM     93  O   UNL A   1      35.091  31.855  31.422  1.00  0.00    -0.744 OA
ENDBRANCH  87  90
ENDBRANCH  59  83
BRANCH  71  94
ATOM     94  C   UNL A   1      43.209  31.932  36.577  1.00  0.00     0.023 A 
ATOM     95  C   UNL A   1      42.301  31.761  37.641  1.00  0.00     0.012 A 
ATOM     96  C   UNL A   1      44.205  32.925  36.670  1.00  0.00     0.148 A 
ATOM     97  C   UNL A   1      42.362  32.588  38.762  1.00  0.00     0.002 A 
ATOM     98  C   UNL A   1      44.293  33.708  37.814  1.00  0.00     0.091 A 
ATOM     99  F   UNL A   1      45.051  33.080  35.641  1.00  0.00    -0.205 F 
ATOM    100  C   UNL A   1      43.363  33.552  38.854  1.00  0.00     0.022 A 
BRANCH  98 101
ATOM    101  S   UNL A   1      45.610  34.905  38.065  1.00  0.00     0.127 S 
ATOM    102  O   UNL A   1      45.841  35.382  36.704  1.00  0.00    -0.237 OA
ATOM    103  O   UNL A   1      44.976  35.878  38.954  1.00  0.00    -0.237 OA
ATOM    104  O   UNL A   1      46.715  34.169  38.663  1.00  0.00    -0.744 OA
ENDBRANCH  98 101
ENDBRANCH  71  94
ENDBRANCH  45  46
ENDBRANCH  38  40
ENDBRANCH  37  38
ENDBRANCH  36  37
ENDBRANCH  35  36
ENDBRANCH  34  35
ENDBRANCH  33  34
ENDBRANCH  32  33
ENDBRANCH  31  32
ENDBRANCH   1  31
TORSDOF 29
ENDMDL
