MODEL 1
REMARK VINA RESULT:      -9.8      0.000      0.000
REMARK SMILES CC[C@@H]1CC[C@@](Cc2ccc(O)cc2)(C(=O)OCCOCCOCCOCCOC(=O)c2ccc(-c3c4nc(c(-c5cccc(S(=O)(=O)[O-])c5F)c5ccc([nH]5)c(-c5cccc(S(=O)(=O)[O-])c5F)c5nc(c(-c6cccc(S(=O)(=O)[O-])c6F)c6ccc3[nH]6)C=C5)C=C4)cc2)C1
REMARK SMILES IDX 23 1 22 2 21 3 20 4 19 5 18 6 17 7 15 8 16 9 6 10 3 11 4 12
REMARK SMILES IDX 95 13 5 14 2 15 1 16 7 17 8 18 9 19 14 20 10 21 13 22 11 23
REMARK SMILES IDX 12 24 24 26 25 27 26 28 27 29 28 30 29 31 30 32 31 33 32 34
REMARK SMILES IDX 33 35 94 36 34 37 93 38 35 39 36 40 37 41 87 42 38 43 92 44
REMARK SMILES IDX 86 45 88 46 39 47 91 48 85 49 84 50 40 52 72 53 52 54 71 55
REMARK SMILES IDX 53 56 56 57 70 58 89 59 54 60 55 61 69 63 90 64 57 65 41 66
REMARK SMILES IDX 42 67 50 68 43 69 45 70 51 71 44 72 46 73 47 74 48 75 49 76
REMARK SMILES IDX 73 77 74 78 82 79 75 80 77 81 83 82 76 83 78 84 79 85 80 86
REMARK SMILES IDX 81 87 58 88 59 89 67 90 60 91 62 92 68 93 61 94 63 95 64 96
REMARK SMILES IDX 65 97 66 98
REMARK H PARENT 12 25 88 51 56 62
REMARK Flexibility Score: inf
ROOT
ATOM      1  O   UNL A   1      32.733  21.131  25.892  1.00  0.00    -0.377 OA
ENDROOT
BRANCH   1   2
ATOM      2  C   UNL A   1      32.024  22.333  25.692  1.00  0.00     0.188 C 
BRANCH   2   3
ATOM      3  C   UNL A   1      31.803  23.277  26.880  1.00  0.00     0.188 C 
BRANCH   3   4
ATOM      4  O   UNL A   1      30.476  23.265  27.359  1.00  0.00    -0.376 OA
BRANCH   4   5
ATOM      5  C   UNL A   1      29.482  24.133  26.856  1.00  0.00     0.202 C 
BRANCH   5   6
ATOM      6  C   UNL A   1      29.729  25.466  26.130  1.00  0.00     0.261 C 
BRANCH   6   7
ATOM      7  O   UNL A   1      30.299  25.459  24.817  1.00  0.00    -0.463 OA
BRANCH   7   8
ATOM      8  C   UNL A   1      30.848  26.611  24.372  1.00  0.00     0.312 C 
ATOM      9  O   UNL A   1      30.177  27.597  24.077  1.00  0.00    -0.252 OA
BRANCH   8  10
ATOM     10  C   UNL A   1      32.384  26.546  24.179  1.00  0.00     0.072 C 
ATOM     11  C   UNL A   1      32.502  25.834  21.866  1.00  0.00    -0.010 C 
ATOM     12  C   UNL A   1      33.343  27.100  21.942  1.00  0.00     0.005 C 
ATOM     13  C   UNL A   1      32.647  25.287  23.295  1.00  0.00     0.022 C 
ATOM     14  C   UNL A   1      33.097  27.650  23.350  1.00  0.00     0.019 C 
BRANCH  11  15
ATOM     15  C   UNL A   1      32.928  24.905  20.730  1.00  0.00     0.000 C 
ATOM     16  C   UNL A   1      32.571  25.476  19.364  1.00  0.00     0.004 C 
ENDBRANCH  11  15
BRANCH  10  17
ATOM     17  C   UNL A   1      32.991  26.467  25.610  1.00  0.00     0.054 C 
BRANCH  17  18
ATOM     18  C   UNL A   1      33.108  27.821  26.309  1.00  0.00    -0.047 A 
ATOM     19  C   UNL A   1      31.959  28.523  26.702  1.00  0.00     0.007 A 
ATOM     20  C   UNL A   1      34.355  28.446  26.490  1.00  0.00     0.007 A 
ATOM     21  C   UNL A   1      32.045  29.845  27.150  1.00  0.00     0.046 A 
ATOM     22  C   UNL A   1      34.444  29.763  26.970  1.00  0.00     0.046 A 
ATOM     23  C   UNL A   1      33.283  30.460  27.271  1.00  0.00     0.115 A 
BRANCH  23  24
ATOM     24  O   UNL A   1      33.304  31.785  27.579  1.00  0.00    -0.508 OA
ATOM     25  H   UNL A   1      32.891  32.091  28.362  1.00  0.00     0.293 HD
ENDBRANCH  23  24
ENDBRANCH  17  18
ENDBRANCH  10  17
ENDBRANCH   8  10
ENDBRANCH   7   8
ENDBRANCH   6   7
ENDBRANCH   5   6
ENDBRANCH   4   5
ENDBRANCH   3   4
ENDBRANCH   2   3
ENDBRANCH   1   2
BRANCH   1  26
ATOM     26  C   UNL A   1      32.523  20.125  24.925  1.00  0.00     0.188 C 
BRANCH  26  27
ATOM     27  C   UNL A   1      33.637  19.064  24.941  1.00  0.00     0.188 C 
BRANCH  27  28
ATOM     28  O   UNL A   1      34.984  19.351  24.561  1.00  0.00    -0.376 OA
BRANCH  28  29
ATOM     29  C   UNL A   1      35.667  20.505  25.018  1.00  0.00     0.202 C 
BRANCH  29  30
ATOM     30  C   UNL A   1      37.203  20.571  24.926  1.00  0.00     0.261 C 
BRANCH  30  31
ATOM     31  O   UNL A   1      37.855  21.622  25.642  1.00  0.00    -0.460 OA
BRANCH  31  32
ATOM     32  C   UNL A   1      39.077  21.332  26.141  1.00  0.00     0.338 C 
ATOM     33  O   UNL A   1      39.679  20.274  26.061  1.00  0.00    -0.246 OA
BRANCH  32  34
ATOM     34  C   UNL A   1      39.650  22.575  26.697  1.00  0.00     0.060 A 
ATOM     35  C   UNL A   1      39.175  23.806  26.228  1.00  0.00     0.016 A 
ATOM     36  C   UNL A   1      40.641  22.525  27.683  1.00  0.00     0.016 A 
ATOM     37  C   UNL A   1      39.699  24.994  26.730  1.00  0.00     0.010 A 
ATOM     38  C   UNL A   1      41.193  23.716  28.157  1.00  0.00     0.010 A 
ATOM     39  C   UNL A   1      40.745  24.950  27.658  1.00  0.00    -0.014 A 
BRANCH  39  40
ATOM     40  C   UNL A   1      41.534  26.174  27.918  1.00  0.00     0.031 A 
ATOM     41  C   UNL A   1      40.881  27.272  28.707  1.00  0.00     0.074 A 
ATOM     42  C   UNL A   1      42.785  26.316  27.448  1.00  0.00     0.049 A 
ATOM     43  N   UNL A   1      41.339  28.453  29.022  1.00  0.00    -0.248 NA
ATOM     44  C   UNL A   1      39.519  27.000  29.203  1.00  0.00     0.031 C 
ATOM     45  C   UNL A   1      43.515  25.317  26.673  1.00  0.00     0.029 A 
ATOM     46  N   UNL A   1      43.646  27.381  27.531  1.00  0.00    -0.354 N 
ATOM     47  C   UNL A   1      40.314  29.077  29.722  1.00  0.00     0.074 A 
ATOM     48  C   UNL A   1      39.210  28.147  29.786  1.00  0.00     0.031 C 
ATOM     49  C   UNL A   1      44.702  25.834  26.312  1.00  0.00     0.029 A 
ATOM     50  C   UNL A   1      44.803  27.206  26.810  1.00  0.00     0.049 A 
ATOM     51  H   UNL A   1      43.454  28.192  28.055  1.00  0.00     0.167 HD
ATOM     52  C   UNL A   1      40.298  30.312  30.272  1.00  0.00     0.034 A 
ATOM     53  C   UNL A   1      45.808  28.068  26.559  1.00  0.00     0.034 A 
ATOM     54  C   UNL A   1      41.401  31.229  30.214  1.00  0.00     0.049 A 
ATOM     55  C   UNL A   1      45.761  29.448  27.169  1.00  0.00     0.074 A 
ATOM     56  C   UNL A   1      41.506  32.484  30.783  1.00  0.00     0.029 A 
ATOM     57  N   UNL A   1      42.582  30.997  29.527  1.00  0.00    -0.354 N 
ATOM     58  N   UNL A   1      44.845  29.979  27.944  1.00  0.00    -0.248 NA
ATOM     59  C   UNL A   1      46.899  30.340  26.896  1.00  0.00     0.031 C 
ATOM     60  C   UNL A   1      42.742  33.025  30.416  1.00  0.00     0.029 A 
ATOM     61  C   UNL A   1      43.419  32.092  29.644  1.00  0.00     0.049 A 
ATOM     62  H   UNL A   1      42.795  30.175  29.029  1.00  0.00     0.167 HD
ATOM     63  C   UNL A   1      45.312  31.246  28.282  1.00  0.00     0.074 A 
ATOM     64  C   UNL A   1      46.601  31.398  27.639  1.00  0.00     0.031 C 
ATOM     65  C   UNL A   1      44.725  32.202  29.045  1.00  0.00     0.034 A 
BRANCH  52  66
ATOM     66  C   UNL A   1      39.046  30.733  30.991  1.00  0.00     0.023 A 
ATOM     67  C   UNL A   1      38.810  30.285  32.306  1.00  0.00     0.012 A 
ATOM     68  C   UNL A   1      38.120  31.597  30.376  1.00  0.00     0.148 A 
ATOM     69  C   UNL A   1      37.654  30.665  32.988  1.00  0.00     0.002 A 
ATOM     70  C   UNL A   1      36.993  32.007  31.077  1.00  0.00     0.091 A 
ATOM     71  F   UNL A   1      38.349  31.985  29.113  1.00  0.00    -0.205 F 
ATOM     72  C   UNL A   1      36.752  31.534  32.377  1.00  0.00     0.022 A 
BRANCH  70  73
ATOM     73  S   UNL A   1      35.814  33.183  30.404  1.00  0.00     0.127 S 
ATOM     74  O   UNL A   1      34.866  32.298  29.729  1.00  0.00    -0.237 OA
ATOM     75  O   UNL A   1      35.295  33.824  31.613  1.00  0.00    -0.237 OA
ATOM     76  O   UNL A   1      36.580  34.064  29.534  1.00  0.00    -0.744 OA
ENDBRANCH  70  73
ENDBRANCH  52  66
BRANCH  53  77
ATOM     77  C   UNL A   1      46.954  27.637  25.707  1.00  0.00     0.023 A 
ATOM     78  C   UNL A   1      46.906  27.843  24.315  1.00  0.00     0.012 A 
ATOM     79  C   UNL A   1      48.109  27.060  26.274  1.00  0.00     0.148 A 
ATOM     80  C   UNL A   1      47.970  27.446  23.502  1.00  0.00     0.002 A 
ATOM     81  C   UNL A   1      49.196  26.737  25.469  1.00  0.00     0.091 A 
ATOM     82  F   UNL A   1      48.140  26.879  27.602  1.00  0.00    -0.205 F 
ATOM     83  C   UNL A   1      49.116  26.900  24.077  1.00  0.00     0.022 A 
BRANCH  81  84
ATOM     84  S   UNL A   1      50.743  26.128  26.157  1.00  0.00     0.127 S 
ATOM     85  O   UNL A   1      51.558  25.926  24.961  1.00  0.00    -0.237 OA
ATOM     86  O   UNL A   1      51.169  27.238  27.016  1.00  0.00    -0.237 OA
ATOM     87  O   UNL A   1      50.406  24.907  26.875  1.00  0.00    -0.744 OA
ENDBRANCH  81  84
ENDBRANCH  53  77
BRANCH  65  88
ATOM     88  C   UNL A   1      45.479  33.488  29.272  1.00  0.00     0.023 A 
ATOM     89  C   UNL A   1      46.353  33.606  30.369  1.00  0.00     0.012 A 
ATOM     90  C   UNL A   1      45.394  34.540  28.338  1.00  0.00     0.148 A 
ATOM     91  C   UNL A   1      47.109  34.764  30.551  1.00  0.00     0.002 A 
ATOM     92  C   UNL A   1      46.186  35.671  28.498  1.00  0.00     0.091 A 
ATOM     93  F   UNL A   1      44.544  34.414  27.308  1.00  0.00    -0.205 F 
ATOM     94  C   UNL A   1      47.035  35.789  29.610  1.00  0.00     0.022 A 
BRANCH  92  95
ATOM     95  S   UNL A   1      46.230  36.994  27.284  1.00  0.00     0.127 S 
ATOM     96  O   UNL A   1      47.372  37.782  27.743  1.00  0.00    -0.237 OA
ATOM     97  O   UNL A   1      46.457  36.263  26.035  1.00  0.00    -0.237 OA
ATOM     98  O   UNL A   1      44.936  37.659  27.367  1.00  0.00    -0.744 OA
ENDBRANCH  92  95
ENDBRANCH  65  88
ENDBRANCH  39  40
ENDBRANCH  32  34
ENDBRANCH  31  32
ENDBRANCH  30  31
ENDBRANCH  29  30
ENDBRANCH  28  29
ENDBRANCH  27  28
ENDBRANCH  26  27
ENDBRANCH   1  26
TORSDOF 27
ENDMDL
MODEL 2
REMARK VINA RESULT:      -8.8      4.849     10.398
REMARK SMILES CC[C@@H]1CC[C@@](Cc2ccc(O)cc2)(C(=O)OCCOCCOCCOCCOC(=O)c2ccc(-c3c4nc(c(-c5cccc(S(=O)(=O)[O-])c5F)c5ccc([nH]5)c(-c5cccc(S(=O)(=O)[O-])c5F)c5nc(c(-c6cccc(S(=O)(=O)[O-])c6F)c6ccc3[nH]6)C=C5)C=C4)cc2)C1
REMARK SMILES IDX 23 1 22 2 21 3 20 4 19 5 18 6 17 7 15 8 16 9 6 10 3 11 4 12
REMARK SMILES IDX 95 13 5 14 2 15 1 16 7 17 8 18 9 19 14 20 10 21 13 22 11 23
REMARK SMILES IDX 12 24 24 26 25 27 26 28 27 29 28 30 29 31 30 32 31 33 32 34
REMARK SMILES IDX 33 35 94 36 34 37 93 38 35 39 36 40 37 41 87 42 38 43 92 44
REMARK SMILES IDX 86 45 88 46 39 47 91 48 85 49 84 50 40 52 72 53 52 54 71 55
REMARK SMILES IDX 53 56 56 57 70 58 89 59 54 60 55 61 69 63 90 64 57 65 41 66
REMARK SMILES IDX 42 67 50 68 43 69 45 70 51 71 44 72 46 73 47 74 48 75 49 76
REMARK SMILES IDX 73 77 74 78 82 79 75 80 77 81 83 82 76 83 78 84 79 85 80 86
REMARK SMILES IDX 81 87 58 88 59 89 67 90 60 91 62 92 68 93 61 94 63 95 64 96
REMARK SMILES IDX 65 97 66 98
REMARK H PARENT 12 25 88 51 56 62
REMARK Flexibility Score: inf
ROOT
ATOM      1  O   UNL A   1      35.246  33.031  33.887  1.00  0.00    -0.377 OA
ENDROOT
BRANCH   1   2
ATOM      2  C   UNL A   1      36.532  33.516  33.576  1.00  0.00     0.188 C 
BRANCH   2   3
ATOM      3  C   UNL A   1      37.361  32.804  32.500  1.00  0.00     0.188 C 
BRANCH   3   4
ATOM      4  O   UNL A   1      37.642  31.458  32.815  1.00  0.00    -0.376 OA
BRANCH   4   5
ATOM      5  C   UNL A   1      38.696  31.088  33.678  1.00  0.00     0.202 C 
BRANCH   5   6
ATOM      6  C   UNL A   1      39.260  29.669  33.860  1.00  0.00     0.261 C 
BRANCH   6   7
ATOM      7  O   UNL A   1      40.676  29.478  33.942  1.00  0.00    -0.463 OA
BRANCH   7   8
ATOM      8  C   UNL A   1      41.204  29.262  35.168  1.00  0.00     0.312 C 
ATOM      9  O   UNL A   1      40.810  29.846  36.174  1.00  0.00    -0.252 OA
BRANCH   8  10
ATOM     10  C   UNL A   1      42.408  28.286  35.174  1.00  0.00     0.072 C 
ATOM     11  C   UNL A   1      44.199  29.807  35.764  1.00  0.00    -0.010 C 
ATOM     12  C   UNL A   1      44.273  28.682  36.785  1.00  0.00     0.005 C 
ATOM     13  C   UNL A   1      43.599  29.078  34.550  1.00  0.00     0.022 C 
ATOM     14  C   UNL A   1      43.020  27.838  36.530  1.00  0.00     0.019 C 
BRANCH  11  15
ATOM     15  C   UNL A   1      45.542  30.504  35.550  1.00  0.00     0.000 C 
ATOM     16  C   UNL A   1      46.713  29.544  35.710  1.00  0.00     0.004 C 
ENDBRANCH  11  15
BRANCH  10  17
ATOM     17  C   UNL A   1      41.956  27.046  34.349  1.00  0.00     0.054 C 
BRANCH  17  18
ATOM     18  C   UNL A   1      42.975  25.907  34.333  1.00  0.00    -0.047 A 
ATOM     19  C   UNL A   1      42.744  24.731  35.063  1.00  0.00     0.007 A 
ATOM     20  C   UNL A   1      44.210  26.039  33.672  1.00  0.00     0.007 A 
ATOM     21  C   UNL A   1      43.753  23.777  35.224  1.00  0.00     0.046 A 
ATOM     22  C   UNL A   1      45.213  25.065  33.808  1.00  0.00     0.046 A 
ATOM     23  C   UNL A   1      44.983  23.954  34.606  1.00  0.00     0.115 A 
BRANCH  23  24
ATOM     24  O   UNL A   1      45.974  23.070  34.902  1.00  0.00    -0.508 OA
ATOM     25  H   UNL A   1      46.457  23.158  35.700  1.00  0.00     0.293 HD
ENDBRANCH  23  24
ENDBRANCH  17  18
ENDBRANCH  10  17
ENDBRANCH   8  10
ENDBRANCH   7   8
ENDBRANCH   6   7
ENDBRANCH   5   6
ENDBRANCH   4   5
ENDBRANCH   3   4
ENDBRANCH   2   3
ENDBRANCH   1   2
BRANCH   1  26
ATOM     26  C   UNL A   1      34.177  33.631  33.188  1.00  0.00     0.188 C 
BRANCH  26  27
ATOM     27  C   UNL A   1      34.617  34.191  31.825  1.00  0.00     0.188 C 
BRANCH  27  28
ATOM     28  O   UNL A   1      33.716  34.359  30.729  1.00  0.00    -0.376 OA
BRANCH  28  29
ATOM     29  C   UNL A   1      34.164  34.412  29.386  1.00  0.00     0.202 C 
BRANCH  29  30
ATOM     30  C   UNL A   1      34.949  33.225  28.795  1.00  0.00     0.261 C 
BRANCH  30  31
ATOM     31  O   UNL A   1      34.422  31.917  29.024  1.00  0.00    -0.460 OA
BRANCH  31  32
ATOM     32  C   UNL A   1      34.643  31.009  28.047  1.00  0.00     0.338 C 
ATOM     33  O   UNL A   1      33.971  30.817  27.048  1.00  0.00    -0.246 OA
BRANCH  32  34
ATOM     34  C   UNL A   1      35.941  30.356  28.314  1.00  0.00     0.060 A 
ATOM     35  C   UNL A   1      36.171  29.804  29.581  1.00  0.00     0.016 A 
ATOM     36  C   UNL A   1      36.919  30.280  27.318  1.00  0.00     0.016 A 
ATOM     37  C   UNL A   1      37.386  29.187  29.863  1.00  0.00     0.010 A 
ATOM     38  C   UNL A   1      38.152  29.696  27.614  1.00  0.00     0.010 A 
ATOM     39  C   UNL A   1      38.398  29.178  28.897  1.00  0.00    -0.014 A 
BRANCH  39  40
ATOM     40  C   UNL A   1      39.783  28.854  29.301  1.00  0.00     0.031 A 
ATOM     41  C   UNL A   1      40.589  29.936  29.961  1.00  0.00     0.074 A 
ATOM     42  C   UNL A   1      40.319  27.645  29.067  1.00  0.00     0.049 A 
ATOM     43  N   UNL A   1      41.832  29.919  30.358  1.00  0.00    -0.248 NA
ATOM     44  C   UNL A   1      39.896  31.215  30.199  1.00  0.00     0.031 C 
ATOM     45  C   UNL A   1      39.629  26.523  28.434  1.00  0.00     0.029 A 
ATOM     46  N   UNL A   1      41.585  27.175  29.309  1.00  0.00    -0.354 N 
ATOM     47  C   UNL A   1      42.082  31.190  30.861  1.00  0.00     0.074 A 
ATOM     48  C   UNL A   1      40.864  31.954  30.719  1.00  0.00     0.031 C 
ATOM     49  C   UNL A   1      40.496  25.505  28.298  1.00  0.00     0.029 A 
ATOM     50  C   UNL A   1      41.804  25.913  28.811  1.00  0.00     0.049 A 
ATOM     51  H   UNL A   1      42.270  27.691  29.792  1.00  0.00     0.167 HD
ATOM     52  C   UNL A   1      43.222  31.675  31.403  1.00  0.00     0.034 A 
ATOM     53  C   UNL A   1      42.940  25.189  28.749  1.00  0.00     0.034 A 
ATOM     54  C   UNL A   1      44.427  30.909  31.549  1.00  0.00     0.049 A 
ATOM     55  C   UNL A   1      44.205  25.756  29.344  1.00  0.00     0.074 A 
ATOM     56  C   UNL A   1      45.622  31.289  32.132  1.00  0.00     0.029 A 
ATOM     57  N   UNL A   1      44.598  29.613  31.088  1.00  0.00    -0.354 N 
ATOM     58  N   UNL A   1      44.393  26.910  29.941  1.00  0.00    -0.248 NA
ATOM     59  C   UNL A   1      45.409  24.914  29.287  1.00  0.00     0.031 C 
ATOM     60  C   UNL A   1      46.526  30.231  31.998  1.00  0.00     0.029 A 
ATOM     61  C   UNL A   1      45.884  29.181  31.359  1.00  0.00     0.049 A 
ATOM     62  H   UNL A   1      43.907  29.079  30.635  1.00  0.00     0.167 HD
ATOM     63  C   UNL A   1      45.721  26.915  30.363  1.00  0.00     0.074 A 
ATOM     64  C   UNL A   1      46.286  25.642  29.965  1.00  0.00     0.031 C 
ATOM     65  C   UNL A   1      46.412  27.888  31.009  1.00  0.00     0.034 A 
BRANCH  52  66
ATOM     66  C   UNL A   1      43.208  33.100  31.883  1.00  0.00     0.023 A 
ATOM     67  C   UNL A   1      42.916  33.381  33.232  1.00  0.00     0.012 A 
ATOM     68  C   UNL A   1      43.517  34.156  31.005  1.00  0.00     0.148 A 
ATOM     69  C   UNL A   1      42.898  34.696  33.694  1.00  0.00     0.002 A 
ATOM     70  C   UNL A   1      43.542  35.461  31.482  1.00  0.00     0.091 A 
ATOM     71  F   UNL A   1      43.761  33.868  29.718  1.00  0.00    -0.205 F 
ATOM     72  C   UNL A   1      43.222  35.734  32.822  1.00  0.00     0.022 A 
BRANCH  70  73
ATOM     73  S   UNL A   1      44.020  36.854  30.456  1.00  0.00     0.127 S 
ATOM     74  O   UNL A   1      42.971  36.845  29.437  1.00  0.00    -0.237 OA
ATOM     75  O   UNL A   1      43.945  37.971  31.399  1.00  0.00    -0.237 OA
ATOM     76  O   UNL A   1      45.363  36.557  29.977  1.00  0.00    -0.744 OA
ENDBRANCH  70  73
ENDBRANCH  52  66
BRANCH  53  77
ATOM     77  C   UNL A   1      42.920  23.837  28.119  1.00  0.00     0.023 A 
ATOM     78  C   UNL A   1      42.154  22.807  28.697  1.00  0.00     0.012 A 
ATOM     79  C   UNL A   1      43.626  23.578  26.926  1.00  0.00     0.148 A 
ATOM     80  C   UNL A   1      42.123  21.536  28.120  1.00  0.00     0.002 A 
ATOM     81  C   UNL A   1      43.531  22.332  26.314  1.00  0.00     0.091 A 
ATOM     82  F   UNL A   1      44.344  24.573  26.385  1.00  0.00    -0.205 F 
ATOM     83  C   UNL A   1      42.805  21.299  26.928  1.00  0.00     0.022 A 
BRANCH  81  84
ATOM     84  S   UNL A   1      44.298  21.992  24.722  1.00  0.00     0.127 S 
ATOM     85  O   UNL A   1      43.639  22.958  23.847  1.00  0.00    -0.237 OA
ATOM     86  O   UNL A   1      45.714  22.263  24.988  1.00  0.00    -0.237 OA
ATOM     87  O   UNL A   1      43.997  20.599  24.425  1.00  0.00    -0.744 OA
ENDBRANCH  81  84
ENDBRANCH  53  77
BRANCH  65  88
ATOM     88  C   UNL A   1      47.848  27.609  31.373  1.00  0.00     0.023 A 
ATOM     89  C   UNL A   1      48.151  26.912  32.558  1.00  0.00     0.012 A 
ATOM     90  C   UNL A   1      48.889  27.954  30.487  1.00  0.00     0.148 A 
ATOM     91  C   UNL A   1      49.471  26.588  32.871  1.00  0.00     0.002 A 
ATOM     92  C   UNL A   1      50.196  27.586  30.782  1.00  0.00     0.091 A 
ATOM     93  F   UNL A   1      48.582  28.632  29.371  1.00  0.00    -0.205 F 
ATOM     94  C   UNL A   1      50.490  26.912  31.979  1.00  0.00     0.022 A 
BRANCH  92  95
ATOM     95  S   UNL A   1      51.556  27.873  29.644  1.00  0.00     0.127 S 
ATOM     96  O   UNL A   1      52.642  27.132  30.284  1.00  0.00    -0.237 OA
ATOM     97  O   UNL A   1      51.058  27.274  28.405  1.00  0.00    -0.237 OA
ATOM     98  O   UNL A   1      51.733  29.318  29.587  1.00  0.00    -0.744 OA
ENDBRANCH  92  95
ENDBRANCH  65  88
ENDBRANCH  39  40
ENDBRANCH  32  34
ENDBRANCH  31  32
ENDBRANCH  30  31
ENDBRANCH  29  30
ENDBRANCH  28  29
ENDBRANCH  27  28
ENDBRANCH  26  27
ENDBRANCH   1  26
TORSDOF 27
ENDMDL
MODEL 3
REMARK VINA RESULT:      -8.7      2.041      2.416
REMARK SMILES CC[C@@H]1CC[C@@](Cc2ccc(O)cc2)(C(=O)OCCOCCOCCOCCOC(=O)c2ccc(-c3c4nc(c(-c5cccc(S(=O)(=O)[O-])c5F)c5ccc([nH]5)c(-c5cccc(S(=O)(=O)[O-])c5F)c5nc(c(-c6cccc(S(=O)(=O)[O-])c6F)c6ccc3[nH]6)C=C5)C=C4)cc2)C1
REMARK SMILES IDX 23 1 22 2 21 3 20 4 19 5 18 6 17 7 15 8 16 9 6 10 3 11 4 12
REMARK SMILES IDX 95 13 5 14 2 15 1 16 7 17 8 18 9 19 14 20 10 21 13 22 11 23
REMARK SMILES IDX 12 24 24 26 25 27 26 28 27 29 28 30 29 31 30 32 31 33 32 34
REMARK SMILES IDX 33 35 94 36 34 37 93 38 35 39 36 40 37 41 87 42 38 43 92 44
REMARK SMILES IDX 86 45 88 46 39 47 91 48 85 49 84 50 40 52 72 53 52 54 71 55
REMARK SMILES IDX 53 56 56 57 70 58 89 59 54 60 55 61 69 63 90 64 57 65 41 66
REMARK SMILES IDX 42 67 50 68 43 69 45 70 51 71 44 72 46 73 47 74 48 75 49 76
REMARK SMILES IDX 73 77 74 78 82 79 75 80 77 81 83 82 76 83 78 84 79 85 80 86
REMARK SMILES IDX 81 87 58 88 59 89 67 90 60 91 62 92 68 93 61 94 63 95 64 96
REMARK SMILES IDX 65 97 66 98
REMARK H PARENT 12 25 88 51 56 62
REMARK Flexibility Score: inf
ROOT
ATOM      1  O   UNL A   1      32.947  21.208  25.952  1.00  0.00    -0.377 OA
ENDROOT
BRANCH   1   2
ATOM      2  C   UNL A   1      32.202  22.354  25.614  1.00  0.00     0.188 C 
BRANCH   2   3
ATOM      3  C   UNL A   1      32.203  23.556  26.567  1.00  0.00     0.188 C 
BRANCH   3   4
ATOM      4  O   UNL A   1      30.995  23.701  27.280  1.00  0.00    -0.376 OA
BRANCH   4   5
ATOM      5  C   UNL A   1      29.874  24.370  26.742  1.00  0.00     0.202 C 
BRANCH   5   6
ATOM      6  C   UNL A   1      29.907  25.665  25.913  1.00  0.00     0.261 C 
BRANCH   6   7
ATOM      7  O   UNL A   1      30.697  25.719  24.721  1.00  0.00    -0.463 OA
BRANCH   7   8
ATOM      8  C   UNL A   1      31.212  26.919  24.371  1.00  0.00     0.312 C 
ATOM      9  O   UNL A   1      30.513  27.909  24.170  1.00  0.00    -0.252 OA
BRANCH   8  10
ATOM     10  C   UNL A   1      32.747  26.910  24.158  1.00  0.00     0.072 C 
ATOM     11  C   UNL A   1      32.853  26.478  21.776  1.00  0.00    -0.010 C 
ATOM     12  C   UNL A   1      33.669  27.744  21.993  1.00  0.00     0.005 C 
ATOM     13  C   UNL A   1      33.025  25.769  23.130  1.00  0.00     0.022 C 
ATOM     14  C   UNL A   1      33.427  28.119  23.459  1.00  0.00     0.019 C 
BRANCH  11  15
ATOM     15  C   UNL A   1      33.285  25.698  20.535  1.00  0.00     0.000 C 
ATOM     16  C   UNL A   1      32.146  25.543  19.536  1.00  0.00     0.004 C 
ENDBRANCH  11  15
BRANCH  10  17
ATOM     17  C   UNL A   1      33.372  26.676  25.564  1.00  0.00     0.054 C 
BRANCH  17  18
ATOM     18  C   UNL A   1      33.580  27.958  26.371  1.00  0.00    -0.047 A 
ATOM     19  C   UNL A   1      32.512  28.548  27.062  1.00  0.00     0.007 A 
ATOM     20  C   UNL A   1      34.814  28.634  26.364  1.00  0.00     0.007 A 
ATOM     21  C   UNL A   1      32.639  29.822  27.627  1.00  0.00     0.046 A 
ATOM     22  C   UNL A   1      34.951  29.900  26.959  1.00  0.00     0.046 A 
ATOM     23  C   UNL A   1      33.852  30.493  27.562  1.00  0.00     0.115 A 
BRANCH  23  24
ATOM     24  O   UNL A   1      33.887  31.780  28.003  1.00  0.00    -0.508 OA
ATOM     25  H   UNL A   1      34.683  32.136  28.346  1.00  0.00     0.293 HD
ENDBRANCH  23  24
ENDBRANCH  17  18
ENDBRANCH  10  17
ENDBRANCH   8  10
ENDBRANCH   7   8
ENDBRANCH   6   7
ENDBRANCH   5   6
ENDBRANCH   4   5
ENDBRANCH   3   4
ENDBRANCH   2   3
ENDBRANCH   1   2
BRANCH   1  26
ATOM     26  C   UNL A   1      32.600  20.024  25.267  1.00  0.00     0.188 C 
BRANCH  26  27
ATOM     27  C   UNL A   1      33.806  19.088  25.078  1.00  0.00     0.188 C 
BRANCH  27  28
ATOM     28  O   UNL A   1      35.074  19.544  24.606  1.00  0.00    -0.376 OA
BRANCH  28  29
ATOM     29  C   UNL A   1      35.738  20.655  25.182  1.00  0.00     0.202 C 
BRANCH  29  30
ATOM     30  C   UNL A   1      37.261  20.808  25.012  1.00  0.00     0.261 C 
BRANCH  30  31
ATOM     31  O   UNL A   1      37.910  21.803  25.806  1.00  0.00    -0.460 OA
BRANCH  31  32
ATOM     32  C   UNL A   1      39.167  21.515  26.210  1.00  0.00     0.338 C 
ATOM     33  O   UNL A   1      39.759  20.454  26.093  1.00  0.00    -0.246 OA
BRANCH  32  34
ATOM     34  C   UNL A   1      39.785  22.761  26.707  1.00  0.00     0.060 A 
ATOM     35  C   UNL A   1      39.359  23.984  26.174  1.00  0.00     0.016 A 
ATOM     36  C   UNL A   1      40.768  22.722  27.700  1.00  0.00     0.016 A 
ATOM     37  C   UNL A   1      39.926  25.175  26.620  1.00  0.00     0.010 A 
ATOM     38  C   UNL A   1      41.364  23.913  28.119  1.00  0.00     0.010 A 
ATOM     39  C   UNL A   1      40.966  25.138  27.555  1.00  0.00    -0.014 A 
BRANCH  39  40
ATOM     40  C   UNL A   1      41.800  26.342  27.760  1.00  0.00     0.031 A 
ATOM     41  C   UNL A   1      41.185  27.503  28.488  1.00  0.00     0.074 A 
ATOM     42  C   UNL A   1      43.058  26.412  27.292  1.00  0.00     0.049 A 
ATOM     43  N   UNL A   1      41.687  28.680  28.746  1.00  0.00    -0.248 NA
ATOM     44  C   UNL A   1      39.811  27.309  28.986  1.00  0.00     0.031 C 
ATOM     45  C   UNL A   1      43.753  25.348  26.573  1.00  0.00     0.029 A 
ATOM     46  N   UNL A   1      43.959  27.446  27.328  1.00  0.00    -0.354 N 
ATOM     47  C   UNL A   1      40.683  29.377  29.406  1.00  0.00     0.074 A 
ATOM     48  C   UNL A   1      39.543  28.495  29.508  1.00  0.00     0.031 C 
ATOM     49  C   UNL A   1      44.961  25.800  26.196  1.00  0.00     0.029 A 
ATOM     50  C   UNL A   1      45.112  27.191  26.625  1.00  0.00     0.049 A 
ATOM     51  H   UNL A   1      43.796  28.290  27.809  1.00  0.00     0.167 HD
ATOM     52  C   UNL A   1      40.712  30.639  29.893  1.00  0.00     0.034 A 
ATOM     53  C   UNL A   1      46.151  28.000  26.338  1.00  0.00     0.034 A 
ATOM     54  C   UNL A   1      41.850  31.509  29.796  1.00  0.00     0.049 A 
ATOM     55  C   UNL A   1      46.155  29.410  26.877  1.00  0.00     0.074 A 
ATOM     56  C   UNL A   1      42.000  32.786  30.302  1.00  0.00     0.029 A 
ATOM     57  N   UNL A   1      43.025  31.197  29.130  1.00  0.00    -0.354 N 
ATOM     58  N   UNL A   1      45.256  30.014  27.618  1.00  0.00    -0.248 NA
ATOM     59  C   UNL A   1      47.327  30.242  26.569  1.00  0.00     0.031 C 
ATOM     60  C   UNL A   1      43.258  33.259  29.917  1.00  0.00     0.029 A 
ATOM     61  C   UNL A   1      43.903  32.264  29.198  1.00  0.00     0.049 A 
ATOM     62  H   UNL A   1      43.208  30.343  28.676  1.00  0.00     0.167 HD
ATOM     63  C   UNL A   1      45.769  31.278  27.895  1.00  0.00     0.074 A 
ATOM     64  C   UNL A   1      47.066  31.347  27.254  1.00  0.00     0.031 C 
ATOM     65  C   UNL A   1      45.215  32.293  28.604  1.00  0.00     0.034 A 
BRANCH  52  66
ATOM     66  C   UNL A   1      39.473  31.143  30.580  1.00  0.00     0.023 A 
ATOM     67  C   UNL A   1      38.368  31.561  29.813  1.00  0.00     0.012 A 
ATOM     68  C   UNL A   1      39.393  31.172  31.986  1.00  0.00     0.148 A 
ATOM     69  C   UNL A   1      37.211  32.032  30.433  1.00  0.00     0.002 A 
ATOM     70  C   UNL A   1      38.222  31.600  32.598  1.00  0.00     0.091 A 
ATOM     71  F   UNL A   1      40.468  30.800  32.695  1.00  0.00    -0.205 F 
ATOM     72  C   UNL A   1      37.135  32.041  31.825  1.00  0.00     0.022 A 
BRANCH  70  73
ATOM     73  S   UNL A   1      38.000  31.576  34.380  1.00  0.00     0.127 S 
ATOM     74  O   UNL A   1      36.703  32.234  34.525  1.00  0.00    -0.237 OA
ATOM     75  O   UNL A   1      37.993  30.142  34.669  1.00  0.00    -0.237 OA
ATOM     76  O   UNL A   1      39.136  32.299  34.934  1.00  0.00    -0.744 OA
ENDBRANCH  70  73
ENDBRANCH  52  66
BRANCH  53  77
ATOM     77  C   UNL A   1      47.285  27.483  25.517  1.00  0.00     0.023 A 
ATOM     78  C   UNL A   1      48.262  26.663  26.112  1.00  0.00     0.012 A 
ATOM     79  C   UNL A   1      47.376  27.768  24.139  1.00  0.00     0.148 A 
ATOM     80  C   UNL A   1      49.329  26.170  25.359  1.00  0.00     0.002 A 
ATOM     81  C   UNL A   1      48.399  27.212  23.378  1.00  0.00     0.091 A 
ATOM     82  F   UNL A   1      46.432  28.544  23.588  1.00  0.00    -0.205 F 
ATOM     83  C   UNL A   1      49.396  26.438  23.992  1.00  0.00     0.022 A 
BRANCH  81  84
ATOM     84  S   UNL A   1      48.484  27.430  21.593  1.00  0.00     0.127 S 
ATOM     85  O   UNL A   1      48.634  26.056  21.119  1.00  0.00    -0.237 OA
ATOM     86  O   UNL A   1      47.192  28.052  21.287  1.00  0.00    -0.237 OA
ATOM     87  O   UNL A   1      49.636  28.286  21.351  1.00  0.00    -0.744 OA
ENDBRANCH  81  84
ENDBRANCH  53  77
BRANCH  65  88
ATOM     88  C   UNL A   1      46.017  33.559  28.772  1.00  0.00     0.023 A 
ATOM     89  C   UNL A   1      45.857  34.618  27.858  1.00  0.00     0.012 A 
ATOM     90  C   UNL A   1      46.854  33.730  29.893  1.00  0.00     0.148 A 
ATOM     91  C   UNL A   1      46.542  35.819  28.042  1.00  0.00     0.002 A 
ATOM     92  C   UNL A   1      47.495  34.947  30.095  1.00  0.00     0.091 A 
ATOM     93  F   UNL A   1      47.004  32.704  30.743  1.00  0.00    -0.205 F 
ATOM     94  C   UNL A   1      47.349  35.988  29.165  1.00  0.00     0.022 A 
BRANCH  92  95
ATOM     95  S   UNL A   1      48.471  35.287  31.565  1.00  0.00     0.127 S 
ATOM     96  O   UNL A   1      48.971  36.631  31.285  1.00  0.00    -0.237 OA
ATOM     97  O   UNL A   1      47.467  35.219  32.628  1.00  0.00    -0.237 OA
ATOM     98  O   UNL A   1      49.484  34.242  31.624  1.00  0.00    -0.744 OA
ENDBRANCH  92  95
ENDBRANCH  65  88
ENDBRANCH  39  40
ENDBRANCH  32  34
ENDBRANCH  31  32
ENDBRANCH  30  31
ENDBRANCH  29  30
ENDBRANCH  28  29
ENDBRANCH  27  28
ENDBRANCH  26  27
ENDBRANCH   1  26
TORSDOF 27
ENDMDL
