MODEL 1
REMARK VINA RESULT:      -7.2      0.000      0.000
REMARK SMILES C[C@@H](C(=O)OCCOCCOCCOCCOC(=O)c1ccc(-c2c3nc(c(-c4cccc(S(=O)(=O)[O-])c4F)c4ccc([nH]4)c(-c4cccc(S(=O)(=O)[O-])c4F)c4nc(c(-c5cccc(S(=O)(=O)[O-])c5F)c5ccc2[nH]5)C=C4)C=C3)cc1)c1ccc(C[C@H]2CCCC2=O)cc1I
REMARK SMILES IDX 11 1 10 2 9 3 8 4 7 5 6 6 5 7 3 8 4 9 2 10 1 11 83 12 84 13
REMARK SMILES IDX 95 14 85 15 94 16 96 17 86 18 87 19 88 20 89 21 92 22 90 23
REMARK SMILES IDX 91 24 93 25 12 26 13 27 14 28 15 29 16 30 17 31 18 32 19 33
REMARK SMILES IDX 20 34 21 35 82 36 22 37 81 38 23 39 24 40 25 41 75 42 26 43
REMARK SMILES IDX 80 44 74 45 76 46 27 47 79 48 73 49 72 50 28 52 60 53 40 54
REMARK SMILES IDX 59 55 41 56 44 57 58 58 77 59 42 60 43 61 57 63 78 64 45 65
REMARK SMILES IDX 29 66 30 67 38 68 31 69 33 70 39 71 32 72 34 73 35 74 36 75
REMARK SMILES IDX 37 76 61 77 62 78 70 79 63 80 65 81 71 82 64 83 66 84 67 85
REMARK SMILES IDX 68 86 69 87 46 88 47 89 55 90 48 91 50 92 56 93 49 94 51 95
REMARK SMILES IDX 52 96 53 97 54 98
REMARK H PARENT 76 51 44 62
REMARK Flexibility Score: inf
ROOT
ATOM      1  O   UNL A   1      53.084  42.106  28.949  1.00  0.00    -0.377 OA
ENDROOT
BRANCH   1   2
ATOM      2  C   UNL A   1      51.750  41.692  29.143  1.00  0.00     0.188 C 
BRANCH   2   3
ATOM      3  C   UNL A   1      50.713  42.566  28.428  1.00  0.00     0.188 C 
BRANCH   3   4
ATOM      4  O   UNL A   1      49.335  42.270  28.541  1.00  0.00    -0.376 OA
BRANCH   4   5
ATOM      5  C   UNL A   1      48.360  43.095  27.911  1.00  0.00     0.202 C 
BRANCH   5   6
ATOM      6  C   UNL A   1      47.831  42.918  26.469  1.00  0.00     0.261 C 
BRANCH   6   7
ATOM      7  O   UNL A   1      47.349  41.617  26.111  1.00  0.00    -0.463 OA
BRANCH   7   8
ATOM      8  C   UNL A   1      46.392  41.518  25.154  1.00  0.00     0.313 C 
ATOM      9  O   UNL A   1      46.319  40.593  24.351  1.00  0.00    -0.252 OA
BRANCH   8  10
ATOM     10  C   UNL A   1      45.309  42.615  25.266  1.00  0.00     0.127 C 
ATOM     11  C   UNL A   1      44.422  42.440  26.517  1.00  0.00     0.025 C 
BRANCH  10  12
ATOM     12  C   UNL A   1      44.537  42.867  23.951  1.00  0.00    -0.021 A 
ATOM     13  C   UNL A   1      43.215  42.393  23.819  1.00  0.00     0.006 A 
ATOM     14  C   UNL A   1      45.076  43.489  22.808  1.00  0.00     0.017 A 
ATOM     15  C   UNL A   1      42.439  42.587  22.677  1.00  0.00     0.004 A 
ATOM     16  C   UNL A   1      44.322  43.608  21.619  1.00  0.00     0.018 A 
ATOM     17  I   UNL A   1      47.063  44.167  22.643  1.00  0.00    -0.044 I 
ATOM     18  C   UNL A   1      43.013  43.126  21.535  1.00  0.00    -0.046 A 
BRANCH  18  19
ATOM     19  C   UNL A   1      42.279  43.053  20.216  1.00  0.00     0.047 C 
BRANCH  19  20
ATOM     20  C   UNL A   1      42.050  44.411  19.525  1.00  0.00     0.060 C 
ATOM     21  C   UNL A   1      43.176  44.923  18.620  1.00  0.00     0.012 C 
ATOM     22  C   UNL A   1      40.872  44.398  18.577  1.00  0.00     0.136 C 
ATOM     23  C   UNL A   1      42.793  44.555  17.189  1.00  0.00     0.009 C 
ATOM     24  C   UNL A   1      41.273  44.606  17.138  1.00  0.00     0.076 C 
ATOM     25  O   UNL A   1      39.711  44.241  18.939  1.00  0.00    -0.299 OA
ENDBRANCH  19  20
ENDBRANCH  18  19
ENDBRANCH  10  12
ENDBRANCH   8  10
ENDBRANCH   7   8
ENDBRANCH   6   7
ENDBRANCH   5   6
ENDBRANCH   4   5
ENDBRANCH   3   4
ENDBRANCH   2   3
ENDBRANCH   1   2
BRANCH   1  26
ATOM     26  C   UNL A   1      54.073  41.094  28.806  1.00  0.00     0.188 C 
BRANCH  26  27
ATOM     27  C   UNL A   1      54.078  40.173  27.563  1.00  0.00     0.188 C 
BRANCH  27  28
ATOM     28  O   UNL A   1      54.690  40.722  26.403  1.00  0.00    -0.376 OA
BRANCH  28  29
ATOM     29  C   UNL A   1      54.846  39.897  25.258  1.00  0.00     0.202 C 
BRANCH  29  30
ATOM     30  C   UNL A   1      53.634  39.063  24.812  1.00  0.00     0.261 C 
BRANCH  30  31
ATOM     31  O   UNL A   1      53.615  37.693  25.236  1.00  0.00    -0.460 OA
BRANCH  31  32
ATOM     32  C   UNL A   1      53.040  36.787  24.412  1.00  0.00     0.338 C 
ATOM     33  O   UNL A   1      53.548  36.241  23.456  1.00  0.00    -0.246 OA
BRANCH  32  34
ATOM     34  C   UNL A   1      51.740  36.407  25.009  1.00  0.00     0.060 A 
ATOM     35  C   UNL A   1      51.634  36.330  26.404  1.00  0.00     0.016 A 
ATOM     36  C   UNL A   1      50.633  36.143  24.199  1.00  0.00     0.016 A 
ATOM     37  C   UNL A   1      50.431  35.944  26.993  1.00  0.00     0.010 A 
ATOM     38  C   UNL A   1      49.436  35.733  24.791  1.00  0.00     0.010 A 
ATOM     39  C   UNL A   1      49.342  35.594  26.188  1.00  0.00    -0.014 A 
BRANCH  39  40
ATOM     40  C   UNL A   1      48.189  34.880  26.786  1.00  0.00     0.031 A 
ATOM     41  C   UNL A   1      46.960  35.679  27.126  1.00  0.00     0.074 A 
ATOM     42  C   UNL A   1      48.222  33.556  27.016  1.00  0.00     0.049 A 
ATOM     43  N   UNL A   1      45.849  35.292  27.694  1.00  0.00    -0.248 NA
ATOM     44  C   UNL A   1      46.992  37.111  26.782  1.00  0.00     0.031 C 
ATOM     45  C   UNL A   1      49.346  32.671  26.712  1.00  0.00     0.029 A 
ATOM     46  N   UNL A   1      47.286  32.730  27.587  1.00  0.00    -0.354 N 
ATOM     47  C   UNL A   1      45.065  36.433  27.807  1.00  0.00     0.074 A 
ATOM     48  C   UNL A   1      45.830  37.531  27.257  1.00  0.00     0.031 C 
ATOM     49  C   UNL A   1      49.045  31.429  27.131  1.00  0.00     0.029 A 
ATOM     50  C   UNL A   1      47.723  31.438  27.758  1.00  0.00     0.049 A 
ATOM     51  H   UNL A   1      46.387  33.034  27.849  1.00  0.00     0.167 HD
ATOM     52  C   UNL A   1      43.816  36.558  28.312  1.00  0.00     0.034 A 
ATOM     53  C   UNL A   1      47.136  30.394  28.376  1.00  0.00     0.034 A 
ATOM     54  C   UNL A   1      43.053  35.464  28.848  1.00  0.00     0.049 A 
ATOM     55  C   UNL A   1      45.759  30.567  28.968  1.00  0.00     0.074 A 
ATOM     56  C   UNL A   1      41.763  35.478  29.345  1.00  0.00     0.029 A 
ATOM     57  N   UNL A   1      43.518  34.165  28.977  1.00  0.00    -0.354 N 
ATOM     58  N   UNL A   1      44.986  31.627  28.972  1.00  0.00    -0.248 NA
ATOM     59  C   UNL A   1      45.160  29.389  29.615  1.00  0.00     0.031 C 
ATOM     60  C   UNL A   1      41.462  34.197  29.814  1.00  0.00     0.029 A 
ATOM     61  C   UNL A   1      42.547  33.371  29.562  1.00  0.00     0.049 A 
ATOM     62  H   UNL A   1      44.407  33.851  28.693  1.00  0.00     0.167 HD
ATOM     63  C   UNL A   1      43.799  31.233  29.581  1.00  0.00     0.074 A 
ATOM     64  C   UNL A   1      43.947  29.833  29.917  1.00  0.00     0.031 C 
ATOM     65  C   UNL A   1      42.688  31.966  29.846  1.00  0.00     0.034 A 
BRANCH  52  66
ATOM     66  C   UNL A   1      43.193  37.929  28.306  1.00  0.00     0.023 A 
ATOM     67  C   UNL A   1      42.391  38.335  27.219  1.00  0.00     0.012 A 
ATOM     68  C   UNL A   1      43.364  38.797  29.401  1.00  0.00     0.148 A 
ATOM     69  C   UNL A   1      41.797  39.596  27.208  1.00  0.00     0.002 A 
ATOM     70  C   UNL A   1      42.729  40.033  29.406  1.00  0.00     0.091 A 
ATOM     71  F   UNL A   1      44.149  38.403  30.414  1.00  0.00    -0.205 F 
ATOM     72  C   UNL A   1      41.957  40.440  28.305  1.00  0.00     0.022 A 
BRANCH  70  73
ATOM     73  S   UNL A   1      42.806  41.157  30.804  1.00  0.00     0.127 S 
ATOM     74  O   UNL A   1      41.621  41.984  30.584  1.00  0.00    -0.237 OA
ATOM     75  O   UNL A   1      42.708  40.239  31.939  1.00  0.00    -0.237 OA
ATOM     76  O   UNL A   1      44.081  41.853  30.692  1.00  0.00    -0.744 OA
ENDBRANCH  70  73
ENDBRANCH  52  66
BRANCH  53  77
ATOM     77  C   UNL A   1      47.837  29.081  28.460  1.00  0.00     0.023 A 
ATOM     78  C   UNL A   1      48.662  28.797  29.565  1.00  0.00     0.012 A 
ATOM     79  C   UNL A   1      47.691  28.113  27.447  1.00  0.00     0.148 A 
ATOM     80  C   UNL A   1      49.358  27.589  29.643  1.00  0.00     0.002 A 
ATOM     81  C   UNL A   1      48.340  26.890  27.558  1.00  0.00     0.091 A 
ATOM     82  F   UNL A   1      46.914  28.408  26.395  1.00  0.00    -0.205 F 
ATOM     83  C   UNL A   1      49.190  26.634  28.645  1.00  0.00     0.022 A 
BRANCH  81  84
ATOM     84  S   UNL A   1      48.088  25.552  26.387  1.00  0.00     0.127 S 
ATOM     85  O   UNL A   1      49.246  25.698  25.510  1.00  0.00    -0.237 OA
ATOM     86  O   UNL A   1      48.120  24.379  27.262  1.00  0.00    -0.237 OA
ATOM     87  O   UNL A   1      46.793  25.806  25.769  1.00  0.00    -0.744 OA
ENDBRANCH  81  84
ENDBRANCH  53  77
BRANCH  65  88
ATOM     88  C   UNL A   1      41.516  31.264  30.483  1.00  0.00     0.023 A 
ATOM     89  C   UNL A   1      40.642  30.487  29.698  1.00  0.00     0.012 A 
ATOM     90  C   UNL A   1      41.330  31.312  31.880  1.00  0.00     0.148 A 
ATOM     91  C   UNL A   1      39.579  29.801  30.287  1.00  0.00     0.002 A 
ATOM     92  C   UNL A   1      40.303  30.583  32.466  1.00  0.00     0.091 A 
ATOM     93  F   UNL A   1      42.164  32.068  32.609  1.00  0.00    -0.205 F 
ATOM     94  C   UNL A   1      39.418  29.839  31.670  1.00  0.00     0.022 A 
BRANCH  92  95
ATOM     95  S   UNL A   1      40.079  30.490  34.246  1.00  0.00     0.127 S 
ATOM     96  O   UNL A   1      39.763  31.878  34.579  1.00  0.00    -0.237 OA
ATOM     97  O   UNL A   1      38.956  29.562  34.368  1.00  0.00    -0.237 OA
ATOM     98  O   UNL A   1      41.338  29.992  34.786  1.00  0.00    -0.744 OA
ENDBRANCH  92  95
ENDBRANCH  65  88
ENDBRANCH  39  40
ENDBRANCH  32  34
ENDBRANCH  31  32
ENDBRANCH  30  31
ENDBRANCH  29  30
ENDBRANCH  28  29
ENDBRANCH  27  28
ENDBRANCH  26  27
ENDBRANCH   1  26
TORSDOF 26
ENDMDL
MODEL 2
REMARK VINA RESULT:      -7.1      5.108     11.349
REMARK SMILES C[C@@H](C(=O)OCCOCCOCCOCCOC(=O)c1ccc(-c2c3nc(c(-c4cccc(S(=O)(=O)[O-])c4F)c4ccc([nH]4)c(-c4cccc(S(=O)(=O)[O-])c4F)c4nc(c(-c5cccc(S(=O)(=O)[O-])c5F)c5ccc2[nH]5)C=C4)C=C3)cc1)c1ccc(C[C@H]2CCCC2=O)cc1I
REMARK SMILES IDX 11 1 10 2 9 3 8 4 7 5 6 6 5 7 3 8 4 9 2 10 1 11 83 12 84 13
REMARK SMILES IDX 95 14 85 15 94 16 96 17 86 18 87 19 88 20 89 21 92 22 90 23
REMARK SMILES IDX 91 24 93 25 12 26 13 27 14 28 15 29 16 30 17 31 18 32 19 33
REMARK SMILES IDX 20 34 21 35 82 36 22 37 81 38 23 39 24 40 25 41 75 42 26 43
REMARK SMILES IDX 80 44 74 45 76 46 27 47 79 48 73 49 72 50 28 52 60 53 40 54
REMARK SMILES IDX 59 55 41 56 44 57 58 58 77 59 42 60 43 61 57 63 78 64 45 65
REMARK SMILES IDX 29 66 30 67 38 68 31 69 33 70 39 71 32 72 34 73 35 74 36 75
REMARK SMILES IDX 37 76 61 77 62 78 70 79 63 80 65 81 71 82 64 83 66 84 67 85
REMARK SMILES IDX 68 86 69 87 46 88 47 89 55 90 48 91 50 92 56 93 49 94 51 95
REMARK SMILES IDX 52 96 53 97 54 98
REMARK H PARENT 76 51 44 62
REMARK Flexibility Score: inf
ROOT
ATOM      1  O   UNL A   1      47.283  36.418  26.487  1.00  0.00    -0.377 OA
ENDROOT
BRANCH   1   2
ATOM      2  C   UNL A   1      47.186  35.180  25.819  1.00  0.00     0.188 C 
BRANCH   2   3
ATOM      3  C   UNL A   1      45.748  34.737  25.527  1.00  0.00     0.188 C 
BRANCH   3   4
ATOM      4  O   UNL A   1      45.058  33.912  26.446  1.00  0.00    -0.376 OA
BRANCH   4   5
ATOM      5  C   UNL A   1      44.491  32.674  26.028  1.00  0.00     0.202 C 
BRANCH   5   6
ATOM      6  C   UNL A   1      44.856  31.283  26.597  1.00  0.00     0.261 C 
BRANCH   6   7
ATOM      7  O   UNL A   1      43.818  30.297  26.612  1.00  0.00    -0.463 OA
BRANCH   7   8
ATOM      8  C   UNL A   1      44.164  28.986  26.559  1.00  0.00     0.313 C 
ATOM      9  O   UNL A   1      45.239  28.578  26.130  1.00  0.00    -0.252 OA
BRANCH   8  10
ATOM     10  C   UNL A   1      43.128  28.059  27.234  1.00  0.00     0.127 C 
ATOM     11  C   UNL A   1      43.086  28.240  28.766  1.00  0.00     0.025 C 
BRANCH  10  12
ATOM     12  C   UNL A   1      43.198  26.591  26.754  1.00  0.00    -0.021 A 
ATOM     13  C   UNL A   1      44.373  26.117  26.133  1.00  0.00     0.006 A 
ATOM     14  C   UNL A   1      42.134  25.671  26.822  1.00  0.00     0.017 A 
ATOM     15  C   UNL A   1      44.530  24.807  25.683  1.00  0.00     0.004 A 
ATOM     16  C   UNL A   1      42.261  24.369  26.287  1.00  0.00     0.018 A 
ATOM     17  I   UNL A   1      40.212  26.121  27.555  1.00  0.00    -0.044 I 
ATOM     18  C   UNL A   1      43.447  23.942  25.682  1.00  0.00    -0.046 A 
BRANCH  18  19
ATOM     19  C   UNL A   1      43.522  22.640  24.921  1.00  0.00     0.047 C 
BRANCH  19  20
ATOM     20  C   UNL A   1      44.107  21.456  25.715  1.00  0.00     0.060 C 
ATOM     21  C   UNL A   1      43.398  20.105  25.561  1.00  0.00     0.012 C 
ATOM     22  C   UNL A   1      45.520  21.111  25.304  1.00  0.00     0.136 C 
ATOM     23  C   UNL A   1      44.185  19.310  24.523  1.00  0.00     0.009 C 
ATOM     24  C   UNL A   1      45.635  19.746  24.675  1.00  0.00     0.076 C 
ATOM     25  O   UNL A   1      46.477  21.861  25.469  1.00  0.00    -0.299 OA
ENDBRANCH  19  20
ENDBRANCH  18  19
ENDBRANCH  10  12
ENDBRANCH   8  10
ENDBRANCH   7   8
ENDBRANCH   6   7
ENDBRANCH   5   6
ENDBRANCH   4   5
ENDBRANCH   3   4
ENDBRANCH   2   3
ENDBRANCH   1   2
BRANCH   1  26
ATOM     26  C   UNL A   1      47.068  37.598  25.722  1.00  0.00     0.188 C 
BRANCH  26  27
ATOM     27  C   UNL A   1      46.674  38.922  26.417  1.00  0.00     0.188 C 
BRANCH  27  28
ATOM     28  O   UNL A   1      45.602  39.630  25.810  1.00  0.00    -0.376 OA
BRANCH  28  29
ATOM     29  C   UNL A   1      45.095  40.788  26.456  1.00  0.00     0.202 C 
BRANCH  29  30
ATOM     30  C   UNL A   1      43.579  41.035  26.386  1.00  0.00     0.261 C 
BRANCH  30  31
ATOM     31  O   UNL A   1      42.744  40.037  26.989  1.00  0.00    -0.460 OA
BRANCH  31  32
ATOM     32  C   UNL A   1      42.714  39.972  28.340  1.00  0.00     0.338 C 
ATOM     33  O   UNL A   1      42.238  40.786  29.102  1.00  0.00    -0.246 OA
BRANCH  32  34
ATOM     34  C   UNL A   1      43.176  38.621  28.730  1.00  0.00     0.060 A 
ATOM     35  C   UNL A   1      43.123  37.590  27.781  1.00  0.00     0.016 A 
ATOM     36  C   UNL A   1      43.667  38.376  30.014  1.00  0.00     0.016 A 
ATOM     37  C   UNL A   1      43.521  36.300  28.128  1.00  0.00     0.010 A 
ATOM     38  C   UNL A   1      44.042  37.078  30.367  1.00  0.00     0.010 A 
ATOM     39  C   UNL A   1      43.933  36.028  29.438  1.00  0.00    -0.014 A 
BRANCH  39  40
ATOM     40  C   UNL A   1      44.040  34.621  29.893  1.00  0.00     0.031 A 
ATOM     41  C   UNL A   1      42.787  33.929  30.357  1.00  0.00     0.074 A 
ATOM     42  C   UNL A   1      45.215  33.967  29.892  1.00  0.00     0.049 A 
ATOM     43  N   UNL A   1      42.634  32.724  30.839  1.00  0.00    -0.248 NA
ATOM     44  C   UNL A   1      41.537  34.703  30.265  1.00  0.00     0.031 C 
ATOM     45  C   UNL A   1      46.493  34.523  29.449  1.00  0.00     0.029 A 
ATOM     46  N   UNL A   1      45.523  32.694  30.303  1.00  0.00    -0.354 N 
ATOM     47  C   UNL A   1      41.283  32.608  31.141  1.00  0.00     0.074 A 
ATOM     48  C   UNL A   1      40.660  33.866  30.796  1.00  0.00     0.031 C 
ATOM     49  C   UNL A   1      47.455  33.604  29.644  1.00  0.00     0.029 A 
ATOM     50  C   UNL A   1      46.867  32.410  30.251  1.00  0.00     0.049 A 
ATOM     51  H   UNL A   1      44.847  32.047  30.606  1.00  0.00     0.167 HD
ATOM     52  C   UNL A   1      40.616  31.545  31.649  1.00  0.00     0.034 A 
ATOM     53  C   UNL A   1      47.545  31.325  30.675  1.00  0.00     0.034 A 
ATOM     54  C   UNL A   1      41.235  30.292  31.981  1.00  0.00     0.049 A 
ATOM     55  C   UNL A   1      46.785  30.169  31.276  1.00  0.00     0.074 A 
ATOM     56  C   UNL A   1      40.640  29.141  32.463  1.00  0.00     0.029 A 
ATOM     57  N   UNL A   1      42.593  30.032  31.888  1.00  0.00    -0.354 N 
ATOM     58  N   UNL A   1      45.493  30.032  31.457  1.00  0.00    -0.248 NA
ATOM     59  C   UNL A   1      47.575  29.004  31.704  1.00  0.00     0.031 C 
ATOM     60  C   UNL A   1      41.643  28.197  32.701  1.00  0.00     0.029 A 
ATOM     61  C   UNL A   1      42.859  28.744  32.318  1.00  0.00     0.049 A 
ATOM     62  H   UNL A   1      43.270  30.669  31.561  1.00  0.00     0.167 HD
ATOM     63  C   UNL A   1      45.313  28.754  31.978  1.00  0.00     0.074 A 
ATOM     64  C   UNL A   1      46.626  28.151  32.068  1.00  0.00     0.031 C 
ATOM     65  C   UNL A   1      44.164  28.138  32.356  1.00  0.00     0.034 A 
BRANCH  52  66
ATOM     66  C   UNL A   1      39.134  31.694  31.876  1.00  0.00     0.023 A 
ATOM     67  C   UNL A   1      38.221  31.054  31.011  1.00  0.00     0.012 A 
ATOM     68  C   UNL A   1      38.648  32.428  32.974  1.00  0.00     0.148 A 
ATOM     69  C   UNL A   1      36.848  31.172  31.218  1.00  0.00     0.002 A 
ATOM     70  C   UNL A   1      37.279  32.500  33.202  1.00  0.00     0.091 A 
ATOM     71  F   UNL A   1      39.530  33.048  33.770  1.00  0.00    -0.205 F 
ATOM     72  C   UNL A   1      36.378  31.885  32.318  1.00  0.00     0.022 A 
BRANCH  70  73
ATOM     73  S   UNL A   1      36.578  33.325  34.635  1.00  0.00     0.127 S 
ATOM     74  O   UNL A   1      36.967  32.420  35.716  1.00  0.00    -0.237 OA
ATOM     75  O   UNL A   1      37.287  34.605  34.626  1.00  0.00    -0.237 OA
ATOM     76  O   UNL A   1      35.147  33.418  34.386  1.00  0.00    -0.744 OA
ENDBRANCH  70  73
ENDBRANCH  52  66
BRANCH  53  77
ATOM     77  C   UNL A   1      49.029  31.265  30.536  1.00  0.00     0.023 A 
ATOM     78  C   UNL A   1      49.602  30.643  29.411  1.00  0.00     0.012 A 
ATOM     79  C   UNL A   1      49.874  31.821  31.517  1.00  0.00     0.148 A 
ATOM     80  C   UNL A   1      50.989  30.542  29.282  1.00  0.00     0.002 A 
ATOM     81  C   UNL A   1      51.252  31.769  31.356  1.00  0.00     0.091 A 
ATOM     82  F   UNL A   1      49.309  32.395  32.589  1.00  0.00    -0.205 F 
ATOM     83  C   UNL A   1      51.812  31.112  30.248  1.00  0.00     0.022 A 
BRANCH  81  84
ATOM     84  S   UNL A   1      52.389  32.581  32.483  1.00  0.00     0.127 S 
ATOM     85  O   UNL A   1      51.909  33.959  32.451  1.00  0.00    -0.237 OA
ATOM     86  O   UNL A   1      52.132  31.866  33.733  1.00  0.00    -0.237 OA
ATOM     87  O   UNL A   1      53.719  32.364  31.928  1.00  0.00    -0.744 OA
ENDBRANCH  81  84
ENDBRANCH  53  77
BRANCH  65  88
ATOM     88  C   UNL A   1      44.258  26.717  32.852  1.00  0.00     0.023 A 
ATOM     89  C   UNL A   1      44.409  25.655  31.939  1.00  0.00     0.012 A 
ATOM     90  C   UNL A   1      44.276  26.445  34.236  1.00  0.00     0.148 A 
ATOM     91  C   UNL A   1      44.538  24.342  32.394  1.00  0.00     0.002 A 
ATOM     92  C   UNL A   1      44.459  25.143  34.682  1.00  0.00     0.091 A 
ATOM     93  F   UNL A   1      44.117  27.467  35.089  1.00  0.00    -0.205 F 
ATOM     94  C   UNL A   1      44.575  24.088  33.763  1.00  0.00     0.022 A 
BRANCH  92  95
ATOM     95  S   UNL A   1      44.621  24.732  36.423  1.00  0.00     0.127 S 
ATOM     96  O   UNL A   1      45.771  25.545  36.815  1.00  0.00    -0.237 OA
ATOM     97  O   UNL A   1      43.341  25.184  36.967  1.00  0.00    -0.237 OA
ATOM     98  O   UNL A   1      44.829  23.291  36.481  1.00  0.00    -0.744 OA
ENDBRANCH  92  95
ENDBRANCH  65  88
ENDBRANCH  39  40
ENDBRANCH  32  34
ENDBRANCH  31  32
ENDBRANCH  30  31
ENDBRANCH  29  30
ENDBRANCH  28  29
ENDBRANCH  27  28
ENDBRANCH  26  27
ENDBRANCH   1  26
TORSDOF 26
ENDMDL
MODEL 3
REMARK VINA RESULT:      -7.1      4.964     11.407
REMARK SMILES C[C@@H](C(=O)OCCOCCOCCOCCOC(=O)c1ccc(-c2c3nc(c(-c4cccc(S(=O)(=O)[O-])c4F)c4ccc([nH]4)c(-c4cccc(S(=O)(=O)[O-])c4F)c4nc(c(-c5cccc(S(=O)(=O)[O-])c5F)c5ccc2[nH]5)C=C4)C=C3)cc1)c1ccc(C[C@H]2CCCC2=O)cc1I
REMARK SMILES IDX 11 1 10 2 9 3 8 4 7 5 6 6 5 7 3 8 4 9 2 10 1 11 83 12 84 13
REMARK SMILES IDX 95 14 85 15 94 16 96 17 86 18 87 19 88 20 89 21 92 22 90 23
REMARK SMILES IDX 91 24 93 25 12 26 13 27 14 28 15 29 16 30 17 31 18 32 19 33
REMARK SMILES IDX 20 34 21 35 82 36 22 37 81 38 23 39 24 40 25 41 75 42 26 43
REMARK SMILES IDX 80 44 74 45 76 46 27 47 79 48 73 49 72 50 28 52 60 53 40 54
REMARK SMILES IDX 59 55 41 56 44 57 58 58 77 59 42 60 43 61 57 63 78 64 45 65
REMARK SMILES IDX 29 66 30 67 38 68 31 69 33 70 39 71 32 72 34 73 35 74 36 75
REMARK SMILES IDX 37 76 61 77 62 78 70 79 63 80 65 81 71 82 64 83 66 84 67 85
REMARK SMILES IDX 68 86 69 87 46 88 47 89 55 90 48 91 50 92 56 93 49 94 51 95
REMARK SMILES IDX 52 96 53 97 54 98
REMARK H PARENT 76 51 44 62
REMARK Flexibility Score: inf
ROOT
ATOM      1  O   UNL A   1      47.510  36.578  26.598  1.00  0.00    -0.377 OA
ENDROOT
BRANCH   1   2
ATOM      2  C   UNL A   1      47.514  35.344  25.914  1.00  0.00     0.188 C 
BRANCH   2   3
ATOM      3  C   UNL A   1      46.153  34.640  25.885  1.00  0.00     0.188 C 
BRANCH   3   4
ATOM      4  O   UNL A   1      45.912  33.523  26.718  1.00  0.00    -0.376 OA
BRANCH   4   5
ATOM      5  C   UNL A   1      45.287  32.353  26.202  1.00  0.00     0.202 C 
BRANCH   5   6
ATOM      6  C   UNL A   1      45.941  30.954  26.105  1.00  0.00     0.261 C 
BRANCH   6   7
ATOM      7  O   UNL A   1      45.199  29.854  26.645  1.00  0.00    -0.463 OA
BRANCH   7   8
ATOM      8  C   UNL A   1      45.561  28.593  26.298  1.00  0.00     0.313 C 
ATOM      9  O   UNL A   1      46.412  28.332  25.453  1.00  0.00    -0.252 OA
BRANCH   8  10
ATOM     10  C   UNL A   1      44.901  27.510  27.181  1.00  0.00     0.127 C 
ATOM     11  C   UNL A   1      45.338  27.609  28.658  1.00  0.00     0.025 C 
BRANCH  10  12
ATOM     12  C   UNL A   1      44.964  26.089  26.577  1.00  0.00    -0.021 A 
ATOM     13  C   UNL A   1      46.188  25.387  26.576  1.00  0.00     0.006 A 
ATOM     14  C   UNL A   1      43.888  25.434  25.946  1.00  0.00     0.017 A 
ATOM     15  C   UNL A   1      46.333  24.097  26.067  1.00  0.00     0.004 A 
ATOM     16  C   UNL A   1      44.056  24.163  25.351  1.00  0.00     0.018 A 
ATOM     17  I   UNL A   1      41.981  26.280  25.657  1.00  0.00    -0.044 I 
ATOM     18  C   UNL A   1      45.288  23.504  25.376  1.00  0.00    -0.046 A 
BRANCH  18  19
ATOM     19  C   UNL A   1      45.533  22.255  24.563  1.00  0.00     0.047 C 
BRANCH  19  20
ATOM     20  C   UNL A   1      45.536  20.943  25.373  1.00  0.00     0.060 C 
ATOM     21  C   UNL A   1      44.168  20.322  25.684  1.00  0.00     0.012 C 
ATOM     22  C   UNL A   1      46.234  19.810  24.656  1.00  0.00     0.136 C 
ATOM     23  C   UNL A   1      43.930  19.237  24.639  1.00  0.00     0.009 C 
ATOM     24  C   UNL A   1      45.303  18.681  24.292  1.00  0.00     0.076 C 
ATOM     25  O   UNL A   1      47.433  19.805  24.401  1.00  0.00    -0.299 OA
ENDBRANCH  19  20
ENDBRANCH  18  19
ENDBRANCH  10  12
ENDBRANCH   8  10
ENDBRANCH   7   8
ENDBRANCH   6   7
ENDBRANCH   5   6
ENDBRANCH   4   5
ENDBRANCH   3   4
ENDBRANCH   2   3
ENDBRANCH   1   2
BRANCH   1  26
ATOM     26  C   UNL A   1      47.320  37.757  25.826  1.00  0.00     0.188 C 
BRANCH  26  27
ATOM     27  C   UNL A   1      46.812  39.057  26.492  1.00  0.00     0.188 C 
BRANCH  27  28
ATOM     28  O   UNL A   1      45.918  39.834  25.705  1.00  0.00    -0.376 OA
BRANCH  28  29
ATOM     29  C   UNL A   1      45.177  40.868  26.333  1.00  0.00     0.202 C 
BRANCH  29  30
ATOM     30  C   UNL A   1      43.818  41.242  25.719  1.00  0.00     0.261 C 
BRANCH  30  31
ATOM     31  O   UNL A   1      42.766  40.278  25.867  1.00  0.00    -0.460 OA
BRANCH  31  32
ATOM     32  C   UNL A   1      42.168  40.178  27.077  1.00  0.00     0.338 C 
ATOM     33  O   UNL A   1      41.277  40.875  27.513  1.00  0.00    -0.246 OA
BRANCH  32  34
ATOM     34  C   UNL A   1      42.644  38.925  27.705  1.00  0.00     0.060 A 
ATOM     35  C   UNL A   1      42.835  37.796  26.897  1.00  0.00     0.016 A 
ATOM     36  C   UNL A   1      42.910  38.869  29.075  1.00  0.00     0.016 A 
ATOM     37  C   UNL A   1      43.250  36.593  27.466  1.00  0.00     0.010 A 
ATOM     38  C   UNL A   1      43.303  37.657  29.646  1.00  0.00     0.010 A 
ATOM     39  C   UNL A   1      43.437  36.504  28.850  1.00  0.00    -0.014 A 
BRANCH  39  40
ATOM     40  C   UNL A   1      43.556  35.172  29.489  1.00  0.00     0.031 A 
ATOM     41  C   UNL A   1      42.290  34.431  29.824  1.00  0.00     0.074 A 
ATOM     42  C   UNL A   1      44.754  34.625  29.760  1.00  0.00     0.049 A 
ATOM     43  N   UNL A   1      42.136  33.280  30.422  1.00  0.00    -0.248 NA
ATOM     44  C   UNL A   1      41.026  35.081  29.435  1.00  0.00     0.031 C 
ATOM     45  C   UNL A   1      46.050  35.235  29.465  1.00  0.00     0.029 A 
ATOM     46  N   UNL A   1      45.070  33.437  30.371  1.00  0.00    -0.354 N 
ATOM     47  C   UNL A   1      40.764  33.082  30.512  1.00  0.00     0.074 A 
ATOM     48  C   UNL A   1      40.128  34.236  29.916  1.00  0.00     0.031 C 
ATOM     49  C   UNL A   1      47.023  34.430  29.927  1.00  0.00     0.029 A 
ATOM     50  C   UNL A   1      46.418  33.265  30.574  1.00  0.00     0.049 A 
ATOM     51  H   UNL A   1      44.396  32.772  30.639  1.00  0.00     0.167 HD
ATOM     52  C   UNL A   1      40.090  32.030  31.034  1.00  0.00     0.034 A 
ATOM     53  C   UNL A   1      47.083  32.296  31.234  1.00  0.00     0.034 A 
ATOM     54  C   UNL A   1      40.724  30.879  31.616  1.00  0.00     0.049 A 
ATOM     55  C   UNL A   1      46.309  31.154  31.843  1.00  0.00     0.074 A 
ATOM     56  C   UNL A   1      40.132  29.742  32.133  1.00  0.00     0.029 A 
ATOM     57  N   UNL A   1      42.092  30.728  31.777  1.00  0.00    -0.354 N 
ATOM     58  N   UNL A   1      45.017  30.928  31.827  1.00  0.00    -0.248 NA
ATOM     59  C   UNL A   1      47.088  30.116  32.536  1.00  0.00     0.031 C 
ATOM     60  C   UNL A   1      41.139  28.921  32.647  1.00  0.00     0.029 A 
ATOM     61  C   UNL A   1      42.364  29.523  32.402  1.00  0.00     0.049 A 
ATOM     62  H   UNL A   1      42.772  31.380  31.488  1.00  0.00     0.167 HD
ATOM     63  C   UNL A   1      44.834  29.706  32.467  1.00  0.00     0.074 A 
ATOM     64  C   UNL A   1      46.148  29.231  32.844  1.00  0.00     0.031 C 
ATOM     65  C   UNL A   1      43.681  29.040  32.727  1.00  0.00     0.034 A 
BRANCH  52  66
ATOM     66  C   UNL A   1      38.585  32.075  30.995  1.00  0.00     0.023 A 
ATOM     67  C   UNL A   1      37.860  32.414  32.156  1.00  0.00     0.012 A 
ATOM     68  C   UNL A   1      37.893  31.829  29.794  1.00  0.00     0.148 A 
ATOM     69  C   UNL A   1      36.467  32.472  32.131  1.00  0.00     0.002 A 
ATOM     70  C   UNL A   1      36.508  31.938  29.764  1.00  0.00     0.091 A 
ATOM     71  F   UNL A   1      38.598  31.486  28.707  1.00  0.00    -0.205 F 
ATOM     72  C   UNL A   1      35.793  32.245  30.934  1.00  0.00     0.022 A 
BRANCH  70  73
ATOM     73  S   UNL A   1      35.553  31.744  28.256  1.00  0.00     0.127 S 
ATOM     74  O   UNL A   1      36.141  30.532  27.688  1.00  0.00    -0.237 OA
ATOM     75  O   UNL A   1      34.195  31.579  28.774  1.00  0.00    -0.237 OA
ATOM     76  O   UNL A   1      35.768  32.960  27.484  1.00  0.00    -0.744 OA
ENDBRANCH  70  73
ENDBRANCH  52  66
BRANCH  53  77
ATOM     77  C   UNL A   1      48.570  32.349  31.348  1.00  0.00     0.023 A 
ATOM     78  C   UNL A   1      49.166  33.057  32.408  1.00  0.00     0.012 A 
ATOM     79  C   UNL A   1      49.394  31.702  30.406  1.00  0.00     0.148 A 
ATOM     80  C   UNL A   1      50.555  33.152  32.509  1.00  0.00     0.002 A 
ATOM     81  C   UNL A   1      50.775  31.750  30.544  1.00  0.00     0.091 A 
ATOM     82  F   UNL A   1      48.807  31.046  29.394  1.00  0.00    -0.205 F 
ATOM     83  C   UNL A   1      51.358  32.492  31.584  1.00  0.00     0.022 A 
BRANCH  81  84
ATOM     84  S   UNL A   1      51.886  30.831  29.476  1.00  0.00     0.127 S 
ATOM     85  O   UNL A   1      51.246  30.985  28.173  1.00  0.00    -0.237 OA
ATOM     86  O   UNL A   1      53.138  31.571  29.639  1.00  0.00    -0.237 OA
ATOM     87  O   UNL A   1      51.915  29.474  30.007  1.00  0.00    -0.744 OA
ENDBRANCH  81  84
ENDBRANCH  53  77
BRANCH  65  88
ATOM     88  C   UNL A   1      43.781  27.696  33.406  1.00  0.00     0.023 A 
ATOM     89  C   UNL A   1      43.913  26.522  32.638  1.00  0.00     0.012 A 
ATOM     90  C   UNL A   1      43.823  27.610  34.813  1.00  0.00     0.148 A 
ATOM     91  C   UNL A   1      44.048  25.280  33.260  1.00  0.00     0.002 A 
ATOM     92  C   UNL A   1      44.012  26.377  35.423  1.00  0.00     0.091 A 
ATOM     93  F   UNL A   1      43.681  28.736  35.526  1.00  0.00    -0.205 F 
ATOM     94  C   UNL A   1      44.109  25.209  34.650  1.00  0.00     0.022 A 
BRANCH  92  95
ATOM     95  S   UNL A   1      44.204  26.199  37.200  1.00  0.00     0.127 S 
ATOM     96  O   UNL A   1      45.566  26.690  37.403  1.00  0.00    -0.237 OA
ATOM     97  O   UNL A   1      43.156  27.080  37.714  1.00  0.00    -0.237 OA
ATOM     98  O   UNL A   1      44.003  24.785  37.490  1.00  0.00    -0.744 OA
ENDBRANCH  92  95
ENDBRANCH  65  88
ENDBRANCH  39  40
ENDBRANCH  32  34
ENDBRANCH  31  32
ENDBRANCH  30  31
ENDBRANCH  29  30
ENDBRANCH  28  29
ENDBRANCH  27  28
ENDBRANCH  26  27
ENDBRANCH   1  26
TORSDOF 26
ENDMDL
