MODEL 1
REMARK VINA RESULT:      -8.9      0.000      0.000
REMARK SMILES C[NH2+][C@@]1(C(=O)OCCOCCOCCOCCOC(=O)c2ccc(-c3c4nc(c(-c5cccc(S(=O)(=O)[O-])c5F)c5ccc([nH]5)c(-c5cccc(S(=O)(=O)[O-])c5F)c5nc(c(-c6cccc(S(=O)(=O)[O-])c6F)c6ccc3[nH]6)C=C5)C=C4)cc2)CC[C@H]([NH+]2CC[NH+](C)CC2)C1
REMARK SMILES IDX 13 1 12 2 11 3 10 4 9 5 8 6 7 7 6 8 4 9 5 10 3 11 84 12
REMARK SMILES IDX 94 13 85 14 86 15 2 16 1 17 87 20 88 21 93 22 89 24 92 25
REMARK SMILES IDX 90 26 91 27 14 29 15 30 16 31 17 32 18 33 19 34 20 35 21 36
REMARK SMILES IDX 22 37 83 38 23 39 82 40 24 41 25 42 26 43 76 44 27 45 81 46
REMARK SMILES IDX 75 47 77 48 28 49 80 50 74 51 73 52 29 54 61 55 41 56 60 57
REMARK SMILES IDX 42 58 45 59 59 60 78 61 43 62 44 63 58 65 79 66 46 67 30 68
REMARK SMILES IDX 31 69 39 70 32 71 34 72 40 73 33 74 35 75 36 76 37 77 38 78
REMARK SMILES IDX 62 79 63 80 71 81 64 82 66 83 72 84 65 85 67 86 68 87 69 88
REMARK SMILES IDX 70 89 47 90 48 91 56 92 49 93 51 94 57 95 50 96 52 97 53 98
REMARK SMILES IDX 54 99 55 100
REMARK H PARENT 2 18 2 19 87 23 90 28 77 53 45 64
REMARK Flexibility Score: inf
ROOT
ATOM      1  C   UNL A   1      32.292  28.881  24.246  1.00  0.00     0.188 C 
ENDROOT
BRANCH   1   2
ATOM      2  O   UNL A   1      31.852  29.312  22.981  1.00  0.00    -0.377 OA
BRANCH   2   3
ATOM      3  C   UNL A   1      30.758  28.659  22.385  1.00  0.00     0.188 C 
BRANCH   3   4
ATOM      4  C   UNL A   1      29.559  28.102  23.159  1.00  0.00     0.188 C 
BRANCH   4   5
ATOM      5  O   UNL A   1      29.448  26.713  23.387  1.00  0.00    -0.376 OA
BRANCH   5   6
ATOM      6  C   UNL A   1      29.283  26.124  24.665  1.00  0.00     0.202 C 
BRANCH   6   7
ATOM      7  C   UNL A   1      30.441  25.854  25.633  1.00  0.00     0.261 C 
BRANCH   7   8
ATOM      8  O   UNL A   1      31.704  25.558  25.011  1.00  0.00    -0.459 OA
BRANCH   8   9
ATOM      9  C   UNL A   1      31.794  24.330  24.424  1.00  0.00     0.368 C 
ATOM     10  O   UNL A   1      31.250  23.334  24.899  1.00  0.00    -0.245 OA
BRANCH   9  11
ATOM     11  C   UNL A   1      32.522  24.301  23.027  1.00  0.00     0.200 C 
ATOM     12  C   UNL A   1      32.546  22.819  22.577  1.00  0.00     0.087 C 
ATOM     13  C   UNL A   1      34.028  24.625  22.898  1.00  0.00     0.146 C 
ATOM     14  C   UNL A   1      33.776  22.224  23.248  1.00  0.00     0.072 C 
ATOM     15  C   UNL A   1      34.827  23.340  23.227  1.00  0.00     0.191 C 
BRANCH  11  16
ATOM     16  N   UNL A   1      31.730  25.045  21.990  1.00  0.00    -0.334 N 
ATOM     17  C   UNL A   1      32.455  25.579  20.848  1.00  0.00     0.331 C 
ATOM     18  H   UNL A   1      31.021  24.405  21.630  1.00  0.00     0.347 HD
ATOM     19  H   UNL A   1      31.370  25.866  22.477  1.00  0.00     0.347 HD
ENDBRANCH  11  16
BRANCH  15  20
ATOM     20  N   UNL A   1      35.816  23.459  24.304  1.00  0.00    -0.323 N 
ATOM     21  C   UNL A   1      36.414  22.187  24.763  1.00  0.00     0.324 C 
ATOM     22  C   UNL A   1      35.459  24.237  25.495  1.00  0.00     0.324 C 
ATOM     23  H   UNL A   1      36.501  24.008  23.786  1.00  0.00     0.348 HD
ATOM     24  C   UNL A   1      35.594  21.401  25.818  1.00  0.00     0.324 C 
ATOM     25  C   UNL A   1      34.522  23.515  26.477  1.00  0.00     0.324 C 
ATOM     26  N   UNL A   1      35.024  22.214  26.913  1.00  0.00    -0.328 N 
ATOM     27  C   UNL A   1      33.990  21.456  27.616  1.00  0.00     0.333 C 
ATOM     28  H   UNL A   1      35.792  22.418  27.554  1.00  0.00     0.348 HD
ENDBRANCH  15  20
ENDBRANCH   9  11
ENDBRANCH   8   9
ENDBRANCH   7   8
ENDBRANCH   6   7
ENDBRANCH   5   6
ENDBRANCH   4   5
ENDBRANCH   3   4
ENDBRANCH   2   3
ENDBRANCH   1   2
BRANCH   1  29
ATOM     29  C   UNL A   1      31.428  29.404  25.401  1.00  0.00     0.188 C 
BRANCH  29  30
ATOM     30  O   UNL A   1      31.417  30.784  25.760  1.00  0.00    -0.376 OA
BRANCH  30  31
ATOM     31  C   UNL A   1      32.162  31.261  26.867  1.00  0.00     0.202 C 
BRANCH  31  32
ATOM     32  C   UNL A   1      33.625  30.826  27.064  1.00  0.00     0.261 C 
BRANCH  32  33
ATOM     33  O   UNL A   1      34.248  31.182  28.300  1.00  0.00    -0.460 OA
BRANCH  33  34
ATOM     34  C   UNL A   1      35.288  32.034  28.197  1.00  0.00     0.338 C 
ATOM     35  O   UNL A   1      35.303  33.120  27.623  1.00  0.00    -0.246 OA
BRANCH  34  36
ATOM     36  C   UNL A   1      36.414  31.527  28.999  1.00  0.00     0.060 A 
ATOM     37  C   UNL A   1      37.676  32.115  28.832  1.00  0.00     0.016 A 
ATOM     38  C   UNL A   1      36.248  30.435  29.853  1.00  0.00     0.016 A 
ATOM     39  C   UNL A   1      38.782  31.591  29.489  1.00  0.00     0.010 A 
ATOM     40  C   UNL A   1      37.367  29.888  30.486  1.00  0.00     0.010 A 
ATOM     41  C   UNL A   1      38.642  30.440  30.272  1.00  0.00    -0.014 A 
BRANCH  41  42
ATOM     42  C   UNL A   1      39.857  29.700  30.675  1.00  0.00     0.031 A 
ATOM     43  C   UNL A   1      40.564  30.125  31.933  1.00  0.00     0.074 A 
ATOM     44  C   UNL A   1      40.304  28.657  29.956  1.00  0.00     0.049 A 
ATOM     45  N   UNL A   1      41.660  29.656  32.468  1.00  0.00    -0.248 NA
ATOM     46  C   UNL A   1      39.951  31.231  32.691  1.00  0.00     0.031 C 
ATOM     47  C   UNL A   1      39.680  28.143  28.739  1.00  0.00     0.029 A 
ATOM     48  N   UNL A   1      41.404  27.859  30.138  1.00  0.00    -0.354 N 
ATOM     49  C   UNL A   1      41.888  30.430  33.600  1.00  0.00     0.074 A 
ATOM     50  C   UNL A   1      40.820  31.401  33.675  1.00  0.00     0.031 C 
ATOM     51  C   UNL A   1      40.429  27.133  28.260  1.00  0.00     0.029 A 
ATOM     52  C   UNL A   1      41.597  26.955  29.121  1.00  0.00     0.049 A 
ATOM     53  H   UNL A   1      41.998  27.928  30.920  1.00  0.00     0.167 HD
ATOM     54  C   UNL A   1      42.893  30.333  34.502  1.00  0.00     0.034 A 
ATOM     55  C   UNL A   1      42.620  26.106  28.898  1.00  0.00     0.034 A 
ATOM     56  C   UNL A   1      43.943  29.354  34.424  1.00  0.00     0.049 A 
ATOM     57  C   UNL A   1      43.746  26.041  29.898  1.00  0.00     0.074 A 
ATOM     58  C   UNL A   1      44.989  29.144  35.305  1.00  0.00     0.029 A 
ATOM     59  N   UNL A   1      44.091  28.433  33.398  1.00  0.00    -0.354 N 
ATOM     60  N   UNL A   1      43.901  26.709  31.016  1.00  0.00    -0.248 NA
ATOM     61  C   UNL A   1      44.826  25.083  29.622  1.00  0.00     0.031 C 
ATOM     62  C   UNL A   1      45.793  28.122  34.789  1.00  0.00     0.029 A 
ATOM     63  C   UNL A   1      45.220  27.663  33.612  1.00  0.00     0.049 A 
ATOM     64  H   UNL A   1      43.481  28.342  32.631  1.00  0.00     0.167 HD
ATOM     65  C   UNL A   1      45.070  26.227  31.594  1.00  0.00     0.074 A 
ATOM     66  C   UNL A   1      45.574  25.196  30.711  1.00  0.00     0.031 C 
ATOM     67  C   UNL A   1      45.679  26.607  32.746  1.00  0.00     0.034 A 
BRANCH  54  68
ATOM     68  C   UNL A   1      42.904  31.310  35.647  1.00  0.00     0.023 A 
ATOM     69  C   UNL A   1      42.273  30.978  36.864  1.00  0.00     0.012 A 
ATOM     70  C   UNL A   1      43.577  32.542  35.532  1.00  0.00     0.148 A 
ATOM     71  C   UNL A   1      42.283  31.871  37.935  1.00  0.00     0.002 A 
ATOM     72  C   UNL A   1      43.625  33.405  36.620  1.00  0.00     0.091 A 
ATOM     73  F   UNL A   1      44.149  32.849  34.360  1.00  0.00    -0.205 F 
ATOM     74  C   UNL A   1      42.969  33.078  37.817  1.00  0.00     0.022 A 
BRANCH  72  75
ATOM     75  S   UNL A   1      44.549  34.945  36.595  1.00  0.00     0.127 S 
ATOM     76  O   UNL A   1      45.877  34.486  36.187  1.00  0.00    -0.237 OA
ATOM     77  O   UNL A   1      43.832  35.715  35.580  1.00  0.00    -0.237 OA
ATOM     78  O   UNL A   1      44.465  35.488  37.944  1.00  0.00    -0.744 OA
ENDBRANCH  72  75
ENDBRANCH  54  68
BRANCH  55  79
ATOM     79  C   UNL A   1      42.616  25.237  27.687  1.00  0.00     0.023 A 
ATOM     80  C   UNL A   1      43.150  25.723  26.478  1.00  0.00     0.012 A 
ATOM     81  C   UNL A   1      42.101  23.925  27.731  1.00  0.00     0.148 A 
ATOM     82  C   UNL A   1      43.139  24.935  25.327  1.00  0.00     0.002 A 
ATOM     83  C   UNL A   1      42.147  23.124  26.597  1.00  0.00     0.091 A 
ATOM     84  F   UNL A   1      41.581  23.487  28.886  1.00  0.00    -0.205 F 
ATOM     85  C   UNL A   1      42.647  23.634  25.389  1.00  0.00     0.022 A 
BRANCH  83  86
ATOM     86  S   UNL A   1      41.652  21.397  26.612  1.00  0.00     0.127 S 
ATOM     87  O   UNL A   1      42.251  20.904  25.374  1.00  0.00    -0.237 OA
ATOM     88  O   UNL A   1      42.288  20.911  27.838  1.00  0.00    -0.237 OA
ATOM     89  O   UNL A   1      40.196  21.398  26.650  1.00  0.00    -0.744 OA
ENDBRANCH  83  86
ENDBRANCH  55  79
BRANCH  67  90
ATOM     90  C   UNL A   1      46.933  25.875  33.151  1.00  0.00     0.023 A 
ATOM     91  C   UNL A   1      48.198  26.402  32.823  1.00  0.00     0.012 A 
ATOM     92  C   UNL A   1      46.854  24.702  33.929  1.00  0.00     0.148 A 
ATOM     93  C   UNL A   1      49.363  25.752  33.230  1.00  0.00     0.002 A 
ATOM     94  C   UNL A   1      48.018  24.091  34.377  1.00  0.00     0.091 A 
ATOM     95  F   UNL A   1      45.641  24.208  34.220  1.00  0.00    -0.205 F 
ATOM     96  C   UNL A   1      49.274  24.606  34.017  1.00  0.00     0.022 A 
BRANCH  94  97
ATOM     97  S   UNL A   1      48.000  22.671  35.477  1.00  0.00     0.127 S 
ATOM     98  O   UNL A   1      46.986  23.065  36.454  1.00  0.00    -0.237 OA
ATOM     99  O   UNL A   1      47.594  21.589  34.580  1.00  0.00    -0.237 OA
ATOM    100  O   UNL A   1      49.354  22.549  36.000  1.00  0.00    -0.744 OA
ENDBRANCH  94  97
ENDBRANCH  67  90
ENDBRANCH  41  42
ENDBRANCH  34  36
ENDBRANCH  33  34
ENDBRANCH  32  33
ENDBRANCH  31  32
ENDBRANCH  30  31
ENDBRANCH  29  30
ENDBRANCH   1  29
TORSDOF 25
ENDMDL
MODEL 2
REMARK VINA RESULT:      -8.6      3.440      9.231
REMARK SMILES C[NH2+][C@@]1(C(=O)OCCOCCOCCOCCOC(=O)c2ccc(-c3c4nc(c(-c5cccc(S(=O)(=O)[O-])c5F)c5ccc([nH]5)c(-c5cccc(S(=O)(=O)[O-])c5F)c5nc(c(-c6cccc(S(=O)(=O)[O-])c6F)c6ccc3[nH]6)C=C5)C=C4)cc2)CC[C@H]([NH+]2CC[NH+](C)CC2)C1
REMARK SMILES IDX 13 1 12 2 11 3 10 4 9 5 8 6 7 7 6 8 4 9 5 10 3 11 84 12
REMARK SMILES IDX 94 13 85 14 86 15 2 16 1 17 87 20 88 21 93 22 89 24 92 25
REMARK SMILES IDX 90 26 91 27 14 29 15 30 16 31 17 32 18 33 19 34 20 35 21 36
REMARK SMILES IDX 22 37 83 38 23 39 82 40 24 41 25 42 26 43 76 44 27 45 81 46
REMARK SMILES IDX 75 47 77 48 28 49 80 50 74 51 73 52 29 54 61 55 41 56 60 57
REMARK SMILES IDX 42 58 45 59 59 60 78 61 43 62 44 63 58 65 79 66 46 67 30 68
REMARK SMILES IDX 31 69 39 70 32 71 34 72 40 73 33 74 35 75 36 76 37 77 38 78
REMARK SMILES IDX 62 79 63 80 71 81 64 82 66 83 72 84 65 85 67 86 68 87 69 88
REMARK SMILES IDX 70 89 47 90 48 91 56 92 49 93 51 94 57 95 50 96 52 97 53 98
REMARK SMILES IDX 54 99 55 100
REMARK H PARENT 2 18 2 19 87 23 90 28 77 53 45 64
REMARK Flexibility Score: inf
ROOT
ATOM      1  C   UNL A   1      42.068  20.349  26.075  1.00  0.00     0.188 C 
ENDROOT
BRANCH   1   2
ATOM      2  O   UNL A   1      40.756  20.269  26.576  1.00  0.00    -0.377 OA
BRANCH   2   3
ATOM      3  C   UNL A   1      40.040  21.460  26.794  1.00  0.00     0.188 C 
BRANCH   3   4
ATOM      4  C   UNL A   1      38.961  22.003  25.851  1.00  0.00     0.188 C 
BRANCH   4   5
ATOM      5  O   UNL A   1      37.751  21.296  25.679  1.00  0.00    -0.376 OA
BRANCH   5   6
ATOM      6  C   UNL A   1      36.872  21.474  24.582  1.00  0.00     0.202 C 
BRANCH   6   7
ATOM      7  C   UNL A   1      37.005  22.610  23.561  1.00  0.00     0.261 C 
BRANCH   7   8
ATOM      8  O   UNL A   1      35.763  23.184  23.116  1.00  0.00    -0.459 OA
BRANCH   8   9
ATOM      9  C   UNL A   1      34.986  23.728  24.095  1.00  0.00     0.368 C 
ATOM     10  O   UNL A   1      35.464  24.353  25.041  1.00  0.00    -0.245 OA
BRANCH   9  11
ATOM     11  C   UNL A   1      33.431  23.623  23.861  1.00  0.00     0.200 C 
ATOM     12  C   UNL A   1      33.198  23.875  22.351  1.00  0.00     0.087 C 
ATOM     13  C   UNL A   1      32.457  24.673  24.443  1.00  0.00     0.146 C 
ATOM     14  C   UNL A   1      33.132  25.390  22.210  1.00  0.00     0.072 C 
ATOM     15  C   UNL A   1      32.418  25.881  23.475  1.00  0.00     0.191 C 
BRANCH  11  16
ATOM     16  N   UNL A   1      32.937  22.232  24.138  1.00  0.00    -0.334 N 
ATOM     17  C   UNL A   1      32.942  21.782  25.521  1.00  0.00     0.331 C 
ATOM     18  H   UNL A   1      31.975  22.176  23.802  1.00  0.00     0.347 HD
ATOM     19  H   UNL A   1      33.602  21.620  23.664  1.00  0.00     0.347 HD
ENDBRANCH  11  16
BRANCH  15  20
ATOM     20  N   UNL A   1      32.748  27.184  24.065  1.00  0.00    -0.323 N 
ATOM     21  C   UNL A   1      31.712  27.763  24.947  1.00  0.00     0.324 C 
ATOM     22  C   UNL A   1      33.222  28.251  23.177  1.00  0.00     0.324 C 
ATOM     23  H   UNL A   1      33.550  26.875  24.612  1.00  0.00     0.348 HD
ATOM     24  C   UNL A   1      30.583  28.550  24.232  1.00  0.00     0.324 C 
ATOM     25  C   UNL A   1      32.121  28.937  22.351  1.00  0.00     0.324 C 
ATOM     26  N   UNL A   1      31.028  29.468  23.164  1.00  0.00    -0.328 N 
ATOM     27  C   UNL A   1      29.892  29.859  22.330  1.00  0.00     0.333 C 
ATOM     28  H   UNL A   1      31.410  30.293  23.628  1.00  0.00     0.348 HD
ENDBRANCH  15  20
ENDBRANCH   9  11
ENDBRANCH   8   9
ENDBRANCH   7   8
ENDBRANCH   6   7
ENDBRANCH   5   6
ENDBRANCH   4   5
ENDBRANCH   3   4
ENDBRANCH   2   3
ENDBRANCH   1   2
BRANCH   1  29
ATOM     29  C   UNL A   1      42.595  21.787  25.977  1.00  0.00     0.188 C 
BRANCH  29  30
ATOM     30  O   UNL A   1      43.992  22.068  25.930  1.00  0.00    -0.376 OA
BRANCH  30  31
ATOM     31  C   UNL A   1      44.664  22.252  24.696  1.00  0.00     0.202 C 
BRANCH  31  32
ATOM     32  C   UNL A   1      45.967  23.066  24.635  1.00  0.00     0.261 C 
BRANCH  32  33
ATOM     33  O   UNL A   1      46.161  24.061  25.643  1.00  0.00    -0.460 OA
BRANCH  33  34
ATOM     34  C   UNL A   1      46.077  25.337  25.218  1.00  0.00     0.338 C 
ATOM     35  O   UNL A   1      46.636  25.832  24.243  1.00  0.00    -0.246 OA
BRANCH  34  36
ATOM     36  C   UNL A   1      45.089  26.060  26.037  1.00  0.00     0.060 A 
ATOM     37  C   UNL A   1      45.104  27.461  26.025  1.00  0.00     0.016 A 
ATOM     38  C   UNL A   1      44.206  25.366  26.867  1.00  0.00     0.016 A 
ATOM     39  C   UNL A   1      44.262  28.176  26.868  1.00  0.00     0.010 A 
ATOM     40  C   UNL A   1      43.384  26.085  27.739  1.00  0.00     0.010 A 
ATOM     41  C   UNL A   1      43.441  27.490  27.770  1.00  0.00    -0.014 A 
BRANCH  41  42
ATOM     42  C   UNL A   1      42.820  28.241  28.883  1.00  0.00     0.031 A 
ATOM     43  C   UNL A   1      43.612  28.422  30.148  1.00  0.00     0.074 A 
ATOM     44  C   UNL A   1      41.593  28.773  28.760  1.00  0.00     0.049 A 
ATOM     45  N   UNL A   1      43.270  29.007  31.265  1.00  0.00    -0.248 NA
ATOM     46  C   UNL A   1      44.978  27.866  30.155  1.00  0.00     0.031 C 
ATOM     47  C   UNL A   1      40.750  28.683  27.569  1.00  0.00     0.029 A 
ATOM     48  N   UNL A   1      40.835  29.476  29.660  1.00  0.00    -0.354 N 
ATOM     49  C   UNL A   1      44.358  28.858  32.117  1.00  0.00     0.074 A 
ATOM     50  C   UNL A   1      45.371  28.125  31.392  1.00  0.00     0.031 C 
ATOM     51  C   UNL A   1      39.572  29.280  27.825  1.00  0.00     0.029 A 
ATOM     52  C   UNL A   1      39.571  29.762  29.205  1.00  0.00     0.049 A 
ATOM     53  H   UNL A   1      41.165  29.748  30.548  1.00  0.00     0.167 HD
ATOM     54  C   UNL A   1      44.503  29.302  33.388  1.00  0.00     0.034 A 
ATOM     55  C   UNL A   1      38.525  30.321  29.845  1.00  0.00     0.034 A 
ATOM     56  C   UNL A   1      43.494  30.042  34.095  1.00  0.00     0.049 A 
ATOM     57  C   UNL A   1      38.699  30.775  31.272  1.00  0.00     0.074 A 
ATOM     58  C   UNL A   1      43.553  30.571  35.372  1.00  0.00     0.029 A 
ATOM     59  N   UNL A   1      42.237  30.343  33.593  1.00  0.00    -0.354 N 
ATOM     60  N   UNL A   1      39.764  30.717  32.035  1.00  0.00    -0.248 NA
ATOM     61  C   UNL A   1      37.535  31.399  31.918  1.00  0.00     0.031 C 
ATOM     62  C   UNL A   1      42.314  31.156  35.656  1.00  0.00     0.029 A 
ATOM     63  C   UNL A   1      41.503  31.034  34.539  1.00  0.00     0.049 A 
ATOM     64  H   UNL A   1      41.916  30.098  32.695  1.00  0.00     0.167 HD
ATOM     65  C   UNL A   1      39.413  31.330  33.233  1.00  0.00     0.074 A 
ATOM     66  C   UNL A   1      38.041  31.768  33.088  1.00  0.00     0.031 C 
ATOM     67  C   UNL A   1      40.153  31.506  34.357  1.00  0.00     0.034 A 
BRANCH  54  68
ATOM     68  C   UNL A   1      45.799  28.998  34.093  1.00  0.00     0.023 A 
ATOM     69  C   UNL A   1      45.935  27.811  34.840  1.00  0.00     0.012 A 
ATOM     70  C   UNL A   1      46.899  29.871  33.977  1.00  0.00     0.148 A 
ATOM     71  C   UNL A   1      47.132  27.514  35.490  1.00  0.00     0.002 A 
ATOM     72  C   UNL A   1      48.104  29.545  34.586  1.00  0.00     0.091 A 
ATOM     73  F   UNL A   1      46.742  31.007  33.282  1.00  0.00    -0.205 F 
ATOM     74  C   UNL A   1      48.220  28.374  35.353  1.00  0.00     0.022 A 
BRANCH  72  75
ATOM     75  S   UNL A   1      49.585  30.545  34.403  1.00  0.00     0.127 S 
ATOM     76  O   UNL A   1      50.557  29.778  35.181  1.00  0.00    -0.237 OA
ATOM     77  O   UNL A   1      49.799  30.512  32.957  1.00  0.00    -0.237 OA
ATOM     78  O   UNL A   1      49.254  31.857  34.940  1.00  0.00    -0.744 OA
ENDBRANCH  72  75
ENDBRANCH  54  68
BRANCH  55  79
ATOM     79  C   UNL A   1      37.225  30.499  29.136  1.00  0.00     0.023 A 
ATOM     80  C   UNL A   1      36.543  29.372  28.637  1.00  0.00     0.012 A 
ATOM     81  C   UNL A   1      36.654  31.777  28.966  1.00  0.00     0.148 A 
ATOM     82  C   UNL A   1      35.336  29.516  27.952  1.00  0.00     0.002 A 
ATOM     83  C   UNL A   1      35.424  31.908  28.336  1.00  0.00     0.091 A 
ATOM     84  F   UNL A   1      37.327  32.838  29.432  1.00  0.00    -0.205 F 
ATOM     85  C   UNL A   1      34.772  30.782  27.810  1.00  0.00     0.022 A 
BRANCH  83  86
ATOM     86  S   UNL A   1      34.561  33.479  28.217  1.00  0.00     0.127 S 
ATOM     87  O   UNL A   1      35.379  34.196  27.242  1.00  0.00    -0.237 OA
ATOM     88  O   UNL A   1      33.244  33.065  27.728  1.00  0.00    -0.237 OA
ATOM     89  O   UNL A   1      34.554  34.036  29.563  1.00  0.00    -0.744 OA
ENDBRANCH  83  86
ENDBRANCH  55  79
BRANCH  67  90
ATOM     90  C   UNL A   1      39.518  32.247  35.506  1.00  0.00     0.023 A 
ATOM     91  C   UNL A   1      38.587  31.598  36.340  1.00  0.00     0.012 A 
ATOM     92  C   UNL A   1      39.909  33.569  35.805  1.00  0.00     0.148 A 
ATOM     93  C   UNL A   1      38.027  32.264  37.429  1.00  0.00     0.002 A 
ATOM     94  C   UNL A   1      39.388  34.206  36.923  1.00  0.00     0.091 A 
ATOM     95  F   UNL A   1      40.787  34.175  34.992  1.00  0.00    -0.205 F 
ATOM     96  C   UNL A   1      38.435  33.562  37.729  1.00  0.00     0.022 A 
BRANCH  94  97
ATOM     97  S   UNL A   1      39.931  35.838  37.444  1.00  0.00     0.127 S 
ATOM     98  O   UNL A   1      39.096  36.066  38.623  1.00  0.00    -0.237 OA
ATOM     99  O   UNL A   1      41.347  35.615  37.735  1.00  0.00    -0.237 OA
ATOM    100  O   UNL A   1      39.676  36.726  36.319  1.00  0.00    -0.744 OA
ENDBRANCH  94  97
ENDBRANCH  67  90
ENDBRANCH  41  42
ENDBRANCH  34  36
ENDBRANCH  33  34
ENDBRANCH  32  33
ENDBRANCH  31  32
ENDBRANCH  30  31
ENDBRANCH  29  30
ENDBRANCH   1  29
TORSDOF 25
ENDMDL
MODEL 3
REMARK VINA RESULT:      -8.1      3.048      9.300
REMARK SMILES C[NH2+][C@@]1(C(=O)OCCOCCOCCOCCOC(=O)c2ccc(-c3c4nc(c(-c5cccc(S(=O)(=O)[O-])c5F)c5ccc([nH]5)c(-c5cccc(S(=O)(=O)[O-])c5F)c5nc(c(-c6cccc(S(=O)(=O)[O-])c6F)c6ccc3[nH]6)C=C5)C=C4)cc2)CC[C@H]([NH+]2CC[NH+](C)CC2)C1
REMARK SMILES IDX 13 1 12 2 11 3 10 4 9 5 8 6 7 7 6 8 4 9 5 10 3 11 84 12
REMARK SMILES IDX 94 13 85 14 86 15 2 16 1 17 87 20 88 21 93 22 89 24 92 25
REMARK SMILES IDX 90 26 91 27 14 29 15 30 16 31 17 32 18 33 19 34 20 35 21 36
REMARK SMILES IDX 22 37 83 38 23 39 82 40 24 41 25 42 26 43 76 44 27 45 81 46
REMARK SMILES IDX 75 47 77 48 28 49 80 50 74 51 73 52 29 54 61 55 41 56 60 57
REMARK SMILES IDX 42 58 45 59 59 60 78 61 43 62 44 63 58 65 79 66 46 67 30 68
REMARK SMILES IDX 31 69 39 70 32 71 34 72 40 73 33 74 35 75 36 76 37 77 38 78
REMARK SMILES IDX 62 79 63 80 71 81 64 82 66 83 72 84 65 85 67 86 68 87 69 88
REMARK SMILES IDX 70 89 47 90 48 91 56 92 49 93 51 94 57 95 50 96 52 97 53 98
REMARK SMILES IDX 54 99 55 100
REMARK H PARENT 2 18 2 19 87 23 90 28 77 53 45 64
REMARK Flexibility Score: inf
ROOT
ATOM      1  C   UNL A   1      42.169  20.529  26.126  1.00  0.00     0.188 C 
ENDROOT
BRANCH   1   2
ATOM      2  O   UNL A   1      40.877  20.480  26.681  1.00  0.00    -0.377 OA
BRANCH   2   3
ATOM      3  C   UNL A   1      40.152  21.679  26.817  1.00  0.00     0.188 C 
BRANCH   3   4
ATOM      4  C   UNL A   1      38.988  22.091  25.910  1.00  0.00     0.188 C 
BRANCH   4   5
ATOM      5  O   UNL A   1      37.866  21.247  25.773  1.00  0.00    -0.376 OA
BRANCH   5   6
ATOM      6  C   UNL A   1      37.056  21.177  24.612  1.00  0.00     0.202 C 
BRANCH   6   7
ATOM      7  C   UNL A   1      36.735  22.387  23.725  1.00  0.00     0.261 C 
BRANCH   7   8
ATOM      8  O   UNL A   1      35.336  22.607  23.472  1.00  0.00    -0.459 OA
BRANCH   8   9
ATOM      9  C   UNL A   1      34.779  23.658  24.139  1.00  0.00     0.368 C 
ATOM     10  O   UNL A   1      35.460  24.505  24.716  1.00  0.00    -0.245 OA
BRANCH   9  11
ATOM     11  C   UNL A   1      33.215  23.792  24.003  1.00  0.00     0.200 C 
ATOM     12  C   UNL A   1      32.913  23.888  22.487  1.00  0.00     0.087 C 
ATOM     13  C   UNL A   1      32.470  25.058  24.486  1.00  0.00     0.146 C 
ATOM     14  C   UNL A   1      33.084  25.362  22.144  1.00  0.00     0.072 C 
ATOM     15  C   UNL A   1      32.556  26.123  23.365  1.00  0.00     0.191 C 
BRANCH  11  16
ATOM     16  N   UNL A   1      32.523  22.552  24.494  1.00  0.00    -0.334 N 
ATOM     17  C   UNL A   1      31.620  22.691  25.625  1.00  0.00     0.331 C 
ATOM     18  H   UNL A   1      31.981  22.175  23.715  1.00  0.00     0.347 HD
ATOM     19  H   UNL A   1      33.275  21.952  24.834  1.00  0.00     0.347 HD
ENDBRANCH  11  16
BRANCH  15  20
ATOM     20  N   UNL A   1      33.137  27.414  23.753  1.00  0.00    -0.323 N 
ATOM     21  C   UNL A   1      34.013  27.386  24.942  1.00  0.00     0.324 C 
ATOM     22  C   UNL A   1      32.242  28.568  23.888  1.00  0.00     0.324 C 
ATOM     23  H   UNL A   1      33.688  27.563  22.907  1.00  0.00     0.348 HD
ATOM     24  C   UNL A   1      33.292  27.479  26.312  1.00  0.00     0.324 C 
ATOM     25  C   UNL A   1      31.410  28.589  25.181  1.00  0.00     0.324 C 
ATOM     26  N   UNL A   1      32.217  28.489  26.395  1.00  0.00    -0.328 N 
ATOM     27  C   UNL A   1      31.380  28.238  27.567  1.00  0.00     0.333 C 
ATOM     28  H   UNL A   1      32.676  29.396  26.493  1.00  0.00     0.348 HD
ENDBRANCH  15  20
ENDBRANCH   9  11
ENDBRANCH   8   9
ENDBRANCH   7   8
ENDBRANCH   6   7
ENDBRANCH   5   6
ENDBRANCH   4   5
ENDBRANCH   3   4
ENDBRANCH   2   3
ENDBRANCH   1   2
BRANCH   1  29
ATOM     29  C   UNL A   1      42.823  21.914  26.226  1.00  0.00     0.188 C 
BRANCH  29  30
ATOM     30  O   UNL A   1      44.228  22.090  26.057  1.00  0.00    -0.376 OA
BRANCH  30  31
ATOM     31  C   UNL A   1      44.784  22.377  24.786  1.00  0.00     0.202 C 
BRANCH  31  32
ATOM     32  C   UNL A   1      45.880  23.446  24.642  1.00  0.00     0.261 C 
BRANCH  32  33
ATOM     33  O   UNL A   1      45.962  24.436  25.671  1.00  0.00    -0.460 OA
BRANCH  33  34
ATOM     34  C   UNL A   1      45.760  25.705  25.266  1.00  0.00     0.338 C 
ATOM     35  O   UNL A   1      46.232  26.252  24.273  1.00  0.00    -0.246 OA
BRANCH  34  36
ATOM     36  C   UNL A   1      44.761  26.342  26.141  1.00  0.00     0.060 A 
ATOM     37  C   UNL A   1      44.759  27.739  26.252  1.00  0.00     0.016 A 
ATOM     38  C   UNL A   1      43.882  25.568  26.902  1.00  0.00     0.016 A 
ATOM     39  C   UNL A   1      43.904  28.367  27.151  1.00  0.00     0.010 A 
ATOM     40  C   UNL A   1      43.048  26.198  27.829  1.00  0.00     0.010 A 
ATOM     41  C   UNL A   1      43.088  27.595  27.984  1.00  0.00    -0.014 A 
BRANCH  41  42
ATOM     42  C   UNL A   1      42.453  28.237  29.155  1.00  0.00     0.031 A 
ATOM     43  C   UNL A   1      43.199  28.230  30.461  1.00  0.00     0.074 A 
ATOM     44  C   UNL A   1      41.256  28.838  29.052  1.00  0.00     0.049 A 
ATOM     45  N   UNL A   1      42.835  28.696  31.627  1.00  0.00    -0.248 NA
ATOM     46  C   UNL A   1      44.538  27.614  30.451  1.00  0.00     0.031 C 
ATOM     47  C   UNL A   1      40.460  28.929  27.829  1.00  0.00     0.029 A 
ATOM     48  N   UNL A   1      40.491  29.464  30.002  1.00  0.00    -0.354 N 
ATOM     49  C   UNL A   1      43.879  28.396  32.494  1.00  0.00     0.074 A 
ATOM     50  C   UNL A   1      44.889  27.706  31.724  1.00  0.00     0.031 C 
ATOM     51  C   UNL A   1      39.299  29.546  28.112  1.00  0.00     0.029 A 
ATOM     52  C   UNL A   1      39.261  29.861  29.539  1.00  0.00     0.049 A 
ATOM     53  H   UNL A   1      40.795  29.614  30.927  1.00  0.00     0.167 HD
ATOM     54  C   UNL A   1      43.990  28.680  33.814  1.00  0.00     0.034 A 
ATOM     55  C   UNL A   1      38.213  30.390  30.202  1.00  0.00     0.034 A 
ATOM     56  C   UNL A   1      42.984  29.378  34.567  1.00  0.00     0.049 A 
ATOM     57  C   UNL A   1      38.347  30.663  31.678  1.00  0.00     0.074 A 
ATOM     58  C   UNL A   1      43.011  29.749  35.899  1.00  0.00     0.029 A 
ATOM     59  N   UNL A   1      41.763  29.794  34.058  1.00  0.00    -0.354 N 
ATOM     60  N   UNL A   1      39.376  30.466  32.468  1.00  0.00    -0.248 NA
ATOM     61  C   UNL A   1      37.185  31.261  32.352  1.00  0.00     0.031 C 
ATOM     62  C   UNL A   1      41.788  30.354  36.206  1.00  0.00     0.029 A 
ATOM     63  C   UNL A   1      41.019  30.403  35.053  1.00  0.00     0.049 A 
ATOM     64  H   UNL A   1      41.469  29.673  33.127  1.00  0.00     0.167 HD
ATOM     65  C   UNL A   1      39.001  30.949  33.717  1.00  0.00     0.074 A 
ATOM     66  C   UNL A   1      37.656  31.466  33.575  1.00  0.00     0.031 C 
ATOM     67  C   UNL A   1      39.700  30.956  34.880  1.00  0.00     0.034 A 
BRANCH  54  68
ATOM     68  C   UNL A   1      45.241  28.234  34.524  1.00  0.00     0.023 A 
ATOM     69  C   UNL A   1      46.419  29.004  34.429  1.00  0.00     0.012 A 
ATOM     70  C   UNL A   1      45.237  27.074  35.323  1.00  0.00     0.148 A 
ATOM     71  C   UNL A   1      47.581  28.606  35.089  1.00  0.00     0.002 A 
ATOM     72  C   UNL A   1      46.384  26.711  36.017  1.00  0.00     0.091 A 
ATOM     73  F   UNL A   1      44.114  26.343  35.381  1.00  0.00    -0.205 F 
ATOM     74  C   UNL A   1      47.560  27.468  35.891  1.00  0.00     0.022 A 
BRANCH  72  75
ATOM     75  S   UNL A   1      46.436  25.310  37.139  1.00  0.00     0.127 S 
ATOM     76  O   UNL A   1      47.864  25.227  37.442  1.00  0.00    -0.237 OA
ATOM     77  O   UNL A   1      45.603  25.775  38.247  1.00  0.00    -0.237 OA
ATOM     78  O   UNL A   1      45.891  24.181  36.399  1.00  0.00    -0.744 OA
ENDBRANCH  72  75
ENDBRANCH  54  68
BRANCH  55  79
ATOM     79  C   UNL A   1      36.954  30.710  29.472  1.00  0.00     0.023 A 
ATOM     80  C   UNL A   1      36.245  29.683  28.818  1.00  0.00     0.012 A 
ATOM     81  C   UNL A   1      36.445  32.025  29.435  1.00  0.00     0.148 A 
ATOM     82  C   UNL A   1      35.075  29.964  28.112  1.00  0.00     0.002 A 
ATOM     83  C   UNL A   1      35.249  32.288  28.780  1.00  0.00     0.091 A 
ATOM     84  F   UNL A   1      37.143  32.992  30.048  1.00  0.00    -0.205 F 
ATOM     85  C   UNL A   1      34.572  31.263  28.101  1.00  0.00     0.022 A 
BRANCH  83  86
ATOM     86  S   UNL A   1      34.459  33.901  28.818  1.00  0.00     0.127 S 
ATOM     87  O   UNL A   1      33.542  33.811  27.685  1.00  0.00    -0.237 OA
ATOM     88  O   UNL A   1      33.815  33.892  30.133  1.00  0.00    -0.237 OA
ATOM     89  O   UNL A   1      35.533  34.876  28.682  1.00  0.00    -0.744 OA
ENDBRANCH  83  86
ENDBRANCH  55  79
BRANCH  67  90
ATOM     90  C   UNL A   1      39.050  31.586  36.085  1.00  0.00     0.023 A 
ATOM     91  C   UNL A   1      38.065  30.882  36.807  1.00  0.00     0.012 A 
ATOM     92  C   UNL A   1      39.475  32.848  36.547  1.00  0.00     0.148 A 
ATOM     93  C   UNL A   1      37.489  31.441  37.948  1.00  0.00     0.002 A 
ATOM     94  C   UNL A   1      38.936  33.374  37.714  1.00  0.00     0.091 A 
ATOM     95  F   UNL A   1      40.403  33.509  35.839  1.00  0.00    -0.205 F 
ATOM     96  C   UNL A   1      37.932  32.679  38.408  1.00  0.00     0.022 A 
BRANCH  94  97
ATOM     97  S   UNL A   1      39.516  34.912  38.437  1.00  0.00     0.127 S 
ATOM     98  O   UNL A   1      40.904  34.583  38.761  1.00  0.00    -0.237 OA
ATOM     99  O   UNL A   1      39.356  35.855  37.330  1.00  0.00    -0.237 OA
ATOM    100  O   UNL A   1      38.654  35.171  39.582  1.00  0.00    -0.744 OA
ENDBRANCH  94  97
ENDBRANCH  67  90
ENDBRANCH  41  42
ENDBRANCH  34  36
ENDBRANCH  33  34
ENDBRANCH  32  33
ENDBRANCH  31  32
ENDBRANCH  30  31
ENDBRANCH  29  30
ENDBRANCH   1  29
TORSDOF 25
ENDMDL
