MODEL 1
REMARK VINA RESULT:      -8.5      0.000      0.000
REMARK SMILES C[NH+]1CCN(C(=O)c2ccc3c(c2)N(CC(=O)OCCOCCOCCOCCOC(=O)c2ccc(-c4c5nc(c(-c6cccc(S(=O)(=O)[O-])c6F)c6ccc([nH]6)c(-c6cccc(S(=O)(=O)[O-])c6F)c6nc(c(-c7cccc(S(=O)(=O)[O-])c7F)c7ccc4[nH]7)C=C6)C=C5)cc2)C(=O)CO3)CC1
REMARK SMILES IDX 25 1 24 2 23 3 22 4 21 5 20 6 19 7 18 8 16 9 17 10 15 11
REMARK SMILES IDX 14 12 8 13 9 14 13 15 10 16 12 17 11 18 99 19 96 20 98 21
REMARK SMILES IDX 97 22 6 23 1 24 2 25 3 26 101 27 4 29 100 30 5 31 7 32 26 33
REMARK SMILES IDX 27 34 28 35 29 36 30 37 31 38 32 39 33 40 34 41 95 42 35 43
REMARK SMILES IDX 94 44 36 45 37 46 38 47 88 48 39 49 93 50 87 51 89 52 40 53
REMARK SMILES IDX 92 54 86 55 85 56 41 58 73 59 53 60 72 61 54 62 57 63 71 64
REMARK SMILES IDX 90 65 55 66 56 67 70 69 91 70 58 71 42 72 43 73 51 74 44 75
REMARK SMILES IDX 46 76 52 77 45 78 47 79 48 80 49 81 50 82 74 83 75 84 83 85
REMARK SMILES IDX 76 86 78 87 84 88 77 89 79 90 80 91 81 92 82 93 59 94 60 95
REMARK SMILES IDX 68 96 61 97 63 98 69 99 62 100 64 101 65 102 66 103 67 104
REMARK H PARENT 2 28 89 57 57 68
REMARK Flexibility Score: inf
ROOT
ATOM      1  C   UNL A   1      44.948  23.057  26.479  1.00  0.00     0.188 C 
ENDROOT
BRANCH   1   2
ATOM      2  O   UNL A   1      46.367  23.152  26.472  1.00  0.00    -0.377 OA
BRANCH   2   3
ATOM      3  C   UNL A   1      46.861  24.206  27.267  1.00  0.00     0.188 C 
BRANCH   3   4
ATOM      4  C   UNL A   1      45.946  24.443  28.455  1.00  0.00     0.188 C 
BRANCH   4   5
ATOM      5  O   UNL A   1      45.739  25.723  29.002  1.00  0.00    -0.376 OA
BRANCH   5   6
ATOM      6  C   UNL A   1      46.060  25.917  30.368  1.00  0.00     0.202 C 
BRANCH   6   7
ATOM      7  C   UNL A   1      47.535  25.964  30.831  1.00  0.00     0.261 C 
BRANCH   7   8
ATOM      8  O   UNL A   1      47.850  25.191  32.011  1.00  0.00    -0.462 OA
BRANCH   8   9
ATOM      9  C   UNL A   1      48.387  25.814  33.084  1.00  0.00     0.326 C 
ATOM     10  O   UNL A   1      48.510  27.032  33.173  1.00  0.00    -0.250 OA
BRANCH   9  11
ATOM     11  C   UNL A   1      48.788  24.850  34.241  1.00  0.00     0.248 C 
BRANCH  11  12
ATOM     12  N   UNL A   1      48.297  23.457  34.350  1.00  0.00    -0.295 N 
ATOM     13  C   UNL A   1      44.512  23.593  34.951  1.00  0.00     0.042 A 
ATOM     14  C   UNL A   1      44.253  22.227  35.102  1.00  0.00     0.018 A 
ATOM     15  C   UNL A   1      45.855  24.022  34.804  1.00  0.00     0.044 A 
ATOM     16  C   UNL A   1      45.292  21.303  35.004  1.00  0.00     0.049 A 
ATOM     17  C   UNL A   1      46.931  23.090  34.672  1.00  0.00     0.087 A 
ATOM     18  C   UNL A   1      46.606  21.725  34.765  1.00  0.00     0.143 A 
ATOM     19  O   UNL A   1      47.474  20.689  34.581  1.00  0.00    -0.482 OA
ATOM     20  C   UNL A   1      49.267  22.466  34.199  1.00  0.00     0.265 C 
ATOM     21  C   UNL A   1      48.835  21.033  34.482  1.00  0.00     0.330 C 
ATOM     22  O   UNL A   1      50.437  22.725  33.913  1.00  0.00    -0.270 OA
BRANCH  13  23
ATOM     23  C   UNL A   1      43.335  24.515  35.110  1.00  0.00     0.254 C 
ATOM     24  C   UNL A   1      44.011  29.935  34.465  1.00  0.00     0.332 C 
ATOM     25  N   UNL A   1      43.544  28.621  34.030  1.00  0.00    -0.334 N 
ATOM     26  C   UNL A   1      42.493  28.082  34.925  1.00  0.00     0.283 C 
ATOM     27  C   UNL A   1      44.676  27.680  33.931  1.00  0.00     0.283 C 
ATOM     28  H   UNL A   1      43.125  28.735  33.106  1.00  0.00     0.347 HD
ATOM     29  C   UNL A   1      42.076  26.612  34.628  1.00  0.00     0.181 C 
ATOM     30  C   UNL A   1      44.155  26.316  33.481  1.00  0.00     0.181 C 
ATOM     31  N   UNL A   1      43.244  25.747  34.458  1.00  0.00    -0.327 N 
ATOM     32  O   UNL A   1      42.418  24.080  35.810  1.00  0.00    -0.269 OA
ENDBRANCH  13  23
ENDBRANCH  11  12
ENDBRANCH   9  11
ENDBRANCH   8   9
ENDBRANCH   7   8
ENDBRANCH   6   7
ENDBRANCH   5   6
ENDBRANCH   4   5
ENDBRANCH   3   4
ENDBRANCH   2   3
ENDBRANCH   1   2
BRANCH   1  33
ATOM     33  C   UNL A   1      44.376  21.826  25.751  1.00  0.00     0.188 C 
BRANCH  33  34
ATOM     34  O   UNL A   1      43.420  20.979  26.401  1.00  0.00    -0.376 OA
BRANCH  34  35
ATOM     35  C   UNL A   1      42.764  19.936  25.698  1.00  0.00     0.202 C 
BRANCH  35  36
ATOM     36  C   UNL A   1      41.348  19.674  26.202  1.00  0.00     0.261 C 
BRANCH  36  37
ATOM     37  O   UNL A   1      40.901  20.766  26.994  1.00  0.00    -0.460 OA
BRANCH  37  38
ATOM     38  C   UNL A   1      39.948  21.529  26.406  1.00  0.00     0.338 C 
ATOM     39  O   UNL A   1      38.981  21.159  25.757  1.00  0.00    -0.246 OA
BRANCH  38  40
ATOM     40  C   UNL A   1      40.164  22.900  26.882  1.00  0.00     0.060 A 
ATOM     41  C   UNL A   1      39.421  23.935  26.298  1.00  0.00     0.016 A 
ATOM     42  C   UNL A   1      41.012  23.134  27.970  1.00  0.00     0.016 A 
ATOM     43  C   UNL A   1      39.541  25.225  26.795  1.00  0.00     0.010 A 
ATOM     44  C   UNL A   1      41.155  24.424  28.449  1.00  0.00     0.010 A 
ATOM     45  C   UNL A   1      40.453  25.469  27.827  1.00  0.00    -0.014 A 
BRANCH  45  46
ATOM     46  C   UNL A   1      40.957  26.833  28.018  1.00  0.00     0.031 A 
ATOM     47  C   UNL A   1      42.304  27.121  27.423  1.00  0.00     0.074 A 
ATOM     48  C   UNL A   1      40.262  27.733  28.728  1.00  0.00     0.049 A 
ATOM     49  N   UNL A   1      43.053  28.180  27.544  1.00  0.00    -0.248 NA
ATOM     50  C   UNL A   1      42.899  26.056  26.586  1.00  0.00     0.031 C 
ATOM     51  C   UNL A   1      38.942  27.515  29.318  1.00  0.00     0.029 A 
ATOM     52  N   UNL A   1      40.597  29.005  29.101  1.00  0.00    -0.354 N 
ATOM     53  C   UNL A   1      44.207  27.898  26.824  1.00  0.00     0.074 A 
ATOM     54  C   UNL A   1      44.079  26.569  26.284  1.00  0.00     0.031 C 
ATOM     55  C   UNL A   1      38.594  28.610  30.018  1.00  0.00     0.029 A 
ATOM     56  C   UNL A   1      39.682  29.581  29.948  1.00  0.00     0.049 A 
ATOM     57  H   UNL A   1      41.412  29.463  28.793  1.00  0.00     0.167 HD
ATOM     58  C   UNL A   1      45.278  28.695  26.624  1.00  0.00     0.034 A 
ATOM     59  C   UNL A   1      39.756  30.750  30.613  1.00  0.00     0.034 A 
ATOM     60  C   UNL A   1      45.376  30.009  27.185  1.00  0.00     0.049 A 
ATOM     61  C   UNL A   1      40.985  31.601  30.410  1.00  0.00     0.074 A 
ATOM     62  C   UNL A   1      46.399  30.926  27.057  1.00  0.00     0.029 A 
ATOM     63  N   UNL A   1      44.406  30.586  27.992  1.00  0.00    -0.354 N 
ATOM     64  N   UNL A   1      42.041  31.363  29.667  1.00  0.00    -0.248 NA
ATOM     65  C   UNL A   1      41.023  32.893  31.108  1.00  0.00     0.031 C 
ATOM     66  C   UNL A   1      46.061  32.049  27.815  1.00  0.00     0.029 A 
ATOM     67  C   UNL A   1      44.804  31.851  28.370  1.00  0.00     0.049 A 
ATOM     68  H   UNL A   1      43.561  30.156  28.256  1.00  0.00     0.167 HD
ATOM     69  C   UNL A   1      42.838  32.496  29.759  1.00  0.00     0.074 A 
ATOM     70  C   UNL A   1      42.143  33.421  30.633  1.00  0.00     0.031 C 
ATOM     71  C   UNL A   1      44.036  32.759  29.181  1.00  0.00     0.034 A 
BRANCH  58  72
ATOM     72  C   UNL A   1      46.395  28.172  25.768  1.00  0.00     0.023 A 
ATOM     73  C   UNL A   1      46.272  28.199  24.363  1.00  0.00     0.012 A 
ATOM     74  C   UNL A   1      47.583  27.691  26.350  1.00  0.00     0.148 A 
ATOM     75  C   UNL A   1      47.306  27.736  23.551  1.00  0.00     0.002 A 
ATOM     76  C   UNL A   1      48.628  27.276  25.533  1.00  0.00     0.091 A 
ATOM     77  F   UNL A   1      47.663  27.641  27.686  1.00  0.00    -0.205 F 
ATOM     78  C   UNL A   1      48.488  27.287  24.136  1.00  0.00     0.022 A 
BRANCH  76  79
ATOM     79  S   UNL A   1      50.216  26.752  26.184  1.00  0.00     0.127 S 
ATOM     80  O   UNL A   1      50.709  27.986  26.793  1.00  0.00    -0.237 OA
ATOM     81  O   UNL A   1      49.825  25.714  27.138  1.00  0.00    -0.237 OA
ATOM     82  O   UNL A   1      50.986  26.276  25.043  1.00  0.00    -0.744 OA
ENDBRANCH  76  79
ENDBRANCH  58  72
BRANCH  59  83
ATOM     83  C   UNL A   1      38.646  31.192  31.502  1.00  0.00     0.023 A 
ATOM     84  C   UNL A   1      38.666  30.841  32.866  1.00  0.00     0.012 A 
ATOM     85  C   UNL A   1      37.568  31.952  31.006  1.00  0.00     0.148 A 
ATOM     86  C   UNL A   1      37.610  31.194  33.708  1.00  0.00     0.002 A 
ATOM     87  C   UNL A   1      36.546  32.346  31.862  1.00  0.00     0.091 A 
ATOM     88  F   UNL A   1      37.560  32.270  29.705  1.00  0.00    -0.205 F 
ATOM     89  C   UNL A   1      36.555  31.951  33.208  1.00  0.00     0.022 A 
BRANCH  87  90
ATOM     90  S   UNL A   1      35.208  33.420  31.332  1.00  0.00     0.127 S 
ATOM     91  O   UNL A   1      34.040  32.733  31.874  1.00  0.00    -0.237 OA
ATOM     92  O   UNL A   1      35.549  34.678  31.998  1.00  0.00    -0.237 OA
ATOM     93  O   UNL A   1      35.297  33.469  29.878  1.00  0.00    -0.744 OA
ENDBRANCH  87  90
ENDBRANCH  59  83
BRANCH  71  94
ATOM     94  C   UNL A   1      44.627  34.124  29.387  1.00  0.00     0.023 A 
ATOM     95  C   UNL A   1      45.324  34.428  30.570  1.00  0.00     0.012 A 
ATOM     96  C   UNL A   1      44.595  35.059  28.333  1.00  0.00     0.148 A 
ATOM     97  C   UNL A   1      45.964  35.657  30.710  1.00  0.00     0.002 A 
ATOM     98  C   UNL A   1      45.282  36.256  28.456  1.00  0.00     0.091 A 
ATOM     99  F   UNL A   1      43.912  34.745  27.221  1.00  0.00    -0.205 F 
ATOM    100  C   UNL A   1      45.957  36.563  29.649  1.00  0.00     0.022 A 
BRANCH  98 101
ATOM    101  S   UNL A   1      45.426  37.427  27.105  1.00  0.00     0.127 S 
ATOM    102  O   UNL A   1      46.027  36.601  26.058  1.00  0.00    -0.237 OA
ATOM    103  O   UNL A   1      44.030  37.794  26.868  1.00  0.00    -0.237 OA
ATOM    104  O   UNL A   1      46.265  38.513  27.595  1.00  0.00    -0.744 OA
ENDBRANCH  98 101
ENDBRANCH  71  94
ENDBRANCH  45  46
ENDBRANCH  38  40
ENDBRANCH  37  38
ENDBRANCH  36  37
ENDBRANCH  35  36
ENDBRANCH  34  35
ENDBRANCH  33  34
ENDBRANCH   1  33
TORSDOF 25
ENDMDL
MODEL 2
REMARK VINA RESULT:      -8.3      2.577      3.655
REMARK SMILES C[NH+]1CCN(C(=O)c2ccc3c(c2)N(CC(=O)OCCOCCOCCOCCOC(=O)c2ccc(-c4c5nc(c(-c6cccc(S(=O)(=O)[O-])c6F)c6ccc([nH]6)c(-c6cccc(S(=O)(=O)[O-])c6F)c6nc(c(-c7cccc(S(=O)(=O)[O-])c7F)c7ccc4[nH]7)C=C6)C=C5)cc2)C(=O)CO3)CC1
REMARK SMILES IDX 25 1 24 2 23 3 22 4 21 5 20 6 19 7 18 8 16 9 17 10 15 11
REMARK SMILES IDX 14 12 8 13 9 14 13 15 10 16 12 17 11 18 99 19 96 20 98 21
REMARK SMILES IDX 97 22 6 23 1 24 2 25 3 26 101 27 4 29 100 30 5 31 7 32 26 33
REMARK SMILES IDX 27 34 28 35 29 36 30 37 31 38 32 39 33 40 34 41 95 42 35 43
REMARK SMILES IDX 94 44 36 45 37 46 38 47 88 48 39 49 93 50 87 51 89 52 40 53
REMARK SMILES IDX 92 54 86 55 85 56 41 58 73 59 53 60 72 61 54 62 57 63 71 64
REMARK SMILES IDX 90 65 55 66 56 67 70 69 91 70 58 71 42 72 43 73 51 74 44 75
REMARK SMILES IDX 46 76 52 77 45 78 47 79 48 80 49 81 50 82 74 83 75 84 83 85
REMARK SMILES IDX 76 86 78 87 84 88 77 89 79 90 80 91 81 92 82 93 59 94 60 95
REMARK SMILES IDX 68 96 61 97 63 98 69 99 62 100 64 101 65 102 66 103 67 104
REMARK H PARENT 2 28 89 57 57 68
REMARK Flexibility Score: inf
ROOT
ATOM      1  C   UNL A   1      44.421  23.635  25.056  1.00  0.00     0.188 C 
ENDROOT
BRANCH   1   2
ATOM      2  O   UNL A   1      45.576  23.920  24.276  1.00  0.00    -0.377 OA
BRANCH   2   3
ATOM      3  C   UNL A   1      46.639  24.462  25.027  1.00  0.00     0.188 C 
BRANCH   3   4
ATOM      4  C   UNL A   1      46.583  23.959  26.458  1.00  0.00     0.188 C 
BRANCH   4   5
ATOM      5  O   UNL A   1      47.525  24.345  27.429  1.00  0.00    -0.376 OA
BRANCH   5   6
ATOM      6  C   UNL A   1      47.090  25.209  28.464  1.00  0.00     0.202 C 
BRANCH   6   7
ATOM      7  C   UNL A   1      45.943  24.788  29.412  1.00  0.00     0.261 C 
BRANCH   7   8
ATOM      8  O   UNL A   1      45.166  25.867  29.980  1.00  0.00    -0.462 OA
BRANCH   8   9
ATOM      9  C   UNL A   1      44.638  25.720  31.216  1.00  0.00     0.326 C 
ATOM     10  O   UNL A   1      44.531  24.639  31.786  1.00  0.00    -0.250 OA
BRANCH   9  11
ATOM     11  C   UNL A   1      44.223  27.062  31.892  1.00  0.00     0.248 C 
BRANCH  11  12
ATOM     12  N   UNL A   1      44.965  27.670  33.022  1.00  0.00    -0.295 N 
ATOM     13  C   UNL A   1      42.418  29.441  35.276  1.00  0.00     0.042 A 
ATOM     14  C   UNL A   1      43.290  30.002  36.213  1.00  0.00     0.018 A 
ATOM     15  C   UNL A   1      42.962  28.754  34.161  1.00  0.00     0.044 A 
ATOM     16  C   UNL A   1      44.664  29.797  36.101  1.00  0.00     0.049 A 
ATOM     17  C   UNL A   1      44.364  28.507  34.042  1.00  0.00     0.087 A 
ATOM     18  C   UNL A   1      45.192  29.039  35.047  1.00  0.00     0.143 A 
ATOM     19  O   UNL A   1      46.536  28.840  35.155  1.00  0.00    -0.482 OA
ATOM     20  C   UNL A   1      46.343  27.456  33.018  1.00  0.00     0.265 C 
ATOM     21  C   UNL A   1      47.158  28.213  34.059  1.00  0.00     0.330 C 
ATOM     22  O   UNL A   1      46.899  26.743  32.182  1.00  0.00    -0.270 OA
BRANCH  13  23
ATOM     23  C   UNL A   1      40.957  29.747  35.459  1.00  0.00     0.254 C 
ATOM     24  C   UNL A   1      39.106  34.847  34.553  1.00  0.00     0.332 C 
ATOM     25  N   UNL A   1      39.267  33.439  34.199  1.00  0.00    -0.334 N 
ATOM     26  C   UNL A   1      38.597  32.542  35.171  1.00  0.00     0.283 C 
ATOM     27  C   UNL A   1      40.698  33.099  34.079  1.00  0.00     0.283 C 
ATOM     28  H   UNL A   1      38.815  33.296  33.295  1.00  0.00     0.347 HD
ATOM     29  C   UNL A   1      38.877  31.026  34.958  1.00  0.00     0.181 C 
ATOM     30  C   UNL A   1      40.832  31.621  33.714  1.00  0.00     0.181 C 
ATOM     31  N   UNL A   1      40.303  30.766  34.761  1.00  0.00    -0.327 N 
ATOM     32  O   UNL A   1      40.354  28.992  36.224  1.00  0.00    -0.269 OA
ENDBRANCH  13  23
ENDBRANCH  11  12
ENDBRANCH   9  11
ENDBRANCH   8   9
ENDBRANCH   7   8
ENDBRANCH   6   7
ENDBRANCH   5   6
ENDBRANCH   4   5
ENDBRANCH   3   4
ENDBRANCH   2   3
ENDBRANCH   1   2
BRANCH   1  33
ATOM     33  C   UNL A   1      43.801  22.246  24.812  1.00  0.00     0.188 C 
BRANCH  33  34
ATOM     34  O   UNL A   1      43.700  21.299  25.883  1.00  0.00    -0.376 OA
BRANCH  34  35
ATOM     35  C   UNL A   1      42.676  20.319  25.903  1.00  0.00     0.202 C 
BRANCH  35  36
ATOM     36  C   UNL A   1      41.687  20.511  27.048  1.00  0.00     0.261 C 
BRANCH  36  37
ATOM     37  O   UNL A   1      41.532  21.894  27.334  1.00  0.00    -0.460 OA
BRANCH  37  38
ATOM     38  C   UNL A   1      40.455  22.469  26.746  1.00  0.00     0.338 C 
ATOM     39  O   UNL A   1      39.556  21.925  26.124  1.00  0.00    -0.246 OA
BRANCH  38  40
ATOM     40  C   UNL A   1      40.444  23.869  27.185  1.00  0.00     0.060 A 
ATOM     41  C   UNL A   1      39.841  24.825  26.355  1.00  0.00     0.016 A 
ATOM     42  C   UNL A   1      40.928  24.206  28.455  1.00  0.00     0.016 A 
ATOM     43  C   UNL A   1      39.737  26.138  26.792  1.00  0.00     0.010 A 
ATOM     44  C   UNL A   1      40.850  25.520  28.880  1.00  0.00     0.010 A 
ATOM     45  C   UNL A   1      40.296  26.486  28.025  1.00  0.00    -0.014 A 
BRANCH  45  46
ATOM     46  C   UNL A   1      40.643  27.890  28.274  1.00  0.00     0.031 A 
ATOM     47  C   UNL A   1      42.098  28.235  28.152  1.00  0.00     0.074 A 
ATOM     48  C   UNL A   1      39.706  28.779  28.636  1.00  0.00     0.049 A 
ATOM     49  N   UNL A   1      42.711  29.347  28.441  1.00  0.00    -0.248 NA
ATOM     50  C   UNL A   1      42.991  27.169  27.649  1.00  0.00     0.031 C 
ATOM     51  C   UNL A   1      38.275  28.504  28.757  1.00  0.00     0.029 A 
ATOM     52  N   UNL A   1      39.836  30.089  29.004  1.00  0.00    -0.354 N 
ATOM     53  C   UNL A   1      44.054  29.105  28.179  1.00  0.00     0.074 A 
ATOM     54  C   UNL A   1      44.179  27.742  27.728  1.00  0.00     0.031 C 
ATOM     55  C   UNL A   1      37.659  29.610  29.214  1.00  0.00     0.029 A 
ATOM     56  C   UNL A   1      38.660  30.647  29.445  1.00  0.00     0.049 A 
ATOM     57  H   UNL A   1      40.686  30.583  28.959  1.00  0.00     0.167 HD
ATOM     58  C   UNL A   1      45.091  29.960  28.297  1.00  0.00     0.034 A 
ATOM     59  C   UNL A   1      38.449  31.853  30.006  1.00  0.00     0.034 A 
ATOM     60  C   UNL A   1      44.932  31.307  28.757  1.00  0.00     0.049 A 
ATOM     61  C   UNL A   1      39.634  32.772  30.170  1.00  0.00     0.074 A 
ATOM     62  C   UNL A   1      45.895  32.282  28.917  1.00  0.00     0.029 A 
ATOM     63  N   UNL A   1      43.719  31.860  29.142  1.00  0.00    -0.354 N 
ATOM     64  N   UNL A   1      40.890  32.566  29.850  1.00  0.00    -0.248 NA
ATOM     65  C   UNL A   1      39.372  34.101  30.741  1.00  0.00     0.031 C 
ATOM     66  C   UNL A   1      45.267  33.420  29.428  1.00  0.00     0.029 A 
ATOM     67  C   UNL A   1      43.906  33.168  29.537  1.00  0.00     0.049 A 
ATOM     68  H   UNL A   1      42.855  31.389  29.134  1.00  0.00     0.167 HD
ATOM     69  C   UNL A   1      41.556  33.754  30.123  1.00  0.00     0.074 A 
ATOM     70  C   UNL A   1      40.562  34.676  30.637  1.00  0.00     0.031 C 
ATOM     71  C   UNL A   1      42.866  34.065  29.968  1.00  0.00     0.034 A 
BRANCH  58  72
ATOM     72  C   UNL A   1      46.457  29.468  27.912  1.00  0.00     0.023 A 
ATOM     73  C   UNL A   1      46.828  29.424  26.552  1.00  0.00     0.012 A 
ATOM     74  C   UNL A   1      47.387  29.086  28.897  1.00  0.00     0.148 A 
ATOM     75  C   UNL A   1      48.098  28.988  26.177  1.00  0.00     0.002 A 
ATOM     76  C   UNL A   1      48.667  28.699  28.518  1.00  0.00     0.091 A 
ATOM     77  F   UNL A   1      47.001  29.102  30.180  1.00  0.00    -0.205 F 
ATOM     78  C   UNL A   1      49.021  28.639  27.160  1.00  0.00     0.022 A 
BRANCH  76  79
ATOM     79  S   UNL A   1      49.950  28.302  29.708  1.00  0.00     0.127 S 
ATOM     80  O   UNL A   1      49.474  27.026  30.243  1.00  0.00    -0.237 OA
ATOM     81  O   UNL A   1      51.134  28.202  28.855  1.00  0.00    -0.237 OA
ATOM     82  O   UNL A   1      49.974  29.401  30.663  1.00  0.00    -0.744 OA
ENDBRANCH  76  79
ENDBRANCH  58  72
BRANCH  59  83
ATOM     83  C   UNL A   1      37.083  32.267  30.430  1.00  0.00     0.023 A 
ATOM     84  C   UNL A   1      36.659  32.021  31.751  1.00  0.00     0.012 A 
ATOM     85  C   UNL A   1      36.196  32.897  29.533  1.00  0.00     0.148 A 
ATOM     86  C   UNL A   1      35.364  32.347  32.156  1.00  0.00     0.002 A 
ATOM     87  C   UNL A   1      34.927  33.268  29.959  1.00  0.00     0.091 A 
ATOM     88  F   UNL A   1      36.612  33.117  28.278  1.00  0.00    -0.205 F 
ATOM     89  C   UNL A   1      34.501  32.976  31.264  1.00  0.00     0.022 A 
BRANCH  87  90
ATOM     90  S   UNL A   1      33.792  34.187  28.914  1.00  0.00     0.127 S 
ATOM     91  O   UNL A   1      32.801  34.649  29.882  1.00  0.00    -0.237 OA
ATOM     92  O   UNL A   1      34.660  35.233  28.371  1.00  0.00    -0.237 OA
ATOM     93  O   UNL A   1      33.312  33.233  27.923  1.00  0.00    -0.744 OA
ENDBRANCH  87  90
ENDBRANCH  59  83
BRANCH  71  94
ATOM     94  C   UNL A   1      43.289  35.476  30.260  1.00  0.00     0.023 A 
ATOM     95  C   UNL A   1      43.826  35.814  31.516  1.00  0.00     0.012 A 
ATOM     96  C   UNL A   1      43.268  36.433  29.226  1.00  0.00     0.148 A 
ATOM     97  C   UNL A   1      44.317  37.096  31.745  1.00  0.00     0.002 A 
ATOM     98  C   UNL A   1      43.813  37.689  29.443  1.00  0.00     0.091 A 
ATOM     99  F   UNL A   1      42.740  36.084  28.043  1.00  0.00    -0.205 F 
ATOM    100  C   UNL A   1      44.326  38.028  30.706  1.00  0.00     0.022 A 
BRANCH  98 101
ATOM    101  S   UNL A   1      43.973  38.908  28.136  1.00  0.00     0.127 S 
ATOM    102  O   UNL A   1      44.794  38.192  27.161  1.00  0.00    -0.237 OA
ATOM    103  O   UNL A   1      42.582  39.109  27.734  1.00  0.00    -0.237 OA
ATOM    104  O   UNL A   1      44.604  40.073  28.742  1.00  0.00    -0.744 OA
ENDBRANCH  98 101
ENDBRANCH  71  94
ENDBRANCH  45  46
ENDBRANCH  38  40
ENDBRANCH  37  38
ENDBRANCH  36  37
ENDBRANCH  35  36
ENDBRANCH  34  35
ENDBRANCH  33  34
ENDBRANCH   1  33
TORSDOF 25
ENDMDL
MODEL 3
REMARK VINA RESULT:      -7.8      2.317      3.958
REMARK SMILES C[NH+]1CCN(C(=O)c2ccc3c(c2)N(CC(=O)OCCOCCOCCOCCOC(=O)c2ccc(-c4c5nc(c(-c6cccc(S(=O)(=O)[O-])c6F)c6ccc([nH]6)c(-c6cccc(S(=O)(=O)[O-])c6F)c6nc(c(-c7cccc(S(=O)(=O)[O-])c7F)c7ccc4[nH]7)C=C6)C=C5)cc2)C(=O)CO3)CC1
REMARK SMILES IDX 25 1 24 2 23 3 22 4 21 5 20 6 19 7 18 8 16 9 17 10 15 11
REMARK SMILES IDX 14 12 8 13 9 14 13 15 10 16 12 17 11 18 99 19 96 20 98 21
REMARK SMILES IDX 97 22 6 23 1 24 2 25 3 26 101 27 4 29 100 30 5 31 7 32 26 33
REMARK SMILES IDX 27 34 28 35 29 36 30 37 31 38 32 39 33 40 34 41 95 42 35 43
REMARK SMILES IDX 94 44 36 45 37 46 38 47 88 48 39 49 93 50 87 51 89 52 40 53
REMARK SMILES IDX 92 54 86 55 85 56 41 58 73 59 53 60 72 61 54 62 57 63 71 64
REMARK SMILES IDX 90 65 55 66 56 67 70 69 91 70 58 71 42 72 43 73 51 74 44 75
REMARK SMILES IDX 46 76 52 77 45 78 47 79 48 80 49 81 50 82 74 83 75 84 83 85
REMARK SMILES IDX 76 86 78 87 84 88 77 89 79 90 80 91 81 92 82 93 59 94 60 95
REMARK SMILES IDX 68 96 61 97 63 98 69 99 62 100 64 101 65 102 66 103 67 104
REMARK H PARENT 2 28 89 57 57 68
REMARK Flexibility Score: inf
ROOT
ATOM      1  C   UNL A   1      44.885  24.227  25.998  1.00  0.00     0.188 C 
ENDROOT
BRANCH   1   2
ATOM      2  O   UNL A   1      46.108  24.838  25.601  1.00  0.00    -0.377 OA
BRANCH   2   3
ATOM      3  C   UNL A   1      46.785  25.474  26.661  1.00  0.00     0.188 C 
BRANCH   3   4
ATOM      4  C   UNL A   1      46.521  24.746  27.967  1.00  0.00     0.188 C 
BRANCH   4   5
ATOM      5  O   UNL A   1      45.964  25.388  29.088  1.00  0.00    -0.376 OA
BRANCH   5   6
ATOM      6  C   UNL A   1      45.113  24.629  29.929  1.00  0.00     0.202 C 
BRANCH   6   7
ATOM      7  C   UNL A   1      44.789  25.111  31.363  1.00  0.00     0.261 C 
BRANCH   7   8
ATOM      8  O   UNL A   1      45.475  24.419  32.430  1.00  0.00    -0.462 OA
BRANCH   8   9
ATOM      9  C   UNL A   1      44.767  23.986  33.498  1.00  0.00     0.326 C 
ATOM     10  O   UNL A   1      43.552  23.815  33.485  1.00  0.00    -0.250 OA
BRANCH   9  11
ATOM     11  C   UNL A   1      45.640  23.660  34.747  1.00  0.00     0.248 C 
BRANCH  11  12
ATOM     12  N   UNL A   1      46.599  22.532  34.801  1.00  0.00    -0.295 N 
ATOM     13  C   UNL A   1      50.128  24.009  35.065  1.00  0.00     0.042 A 
ATOM     14  C   UNL A   1      50.876  22.828  35.024  1.00  0.00     0.018 A 
ATOM     15  C   UNL A   1      48.723  23.934  34.890  1.00  0.00     0.044 A 
ATOM     16  C   UNL A   1      50.233  21.596  34.917  1.00  0.00     0.049 A 
ATOM     17  C   UNL A   1      48.042  22.681  34.809  1.00  0.00     0.087 A 
ATOM     18  C   UNL A   1      48.836  21.521  34.838  1.00  0.00     0.143 A 
ATOM     19  O   UNL A   1      48.369  20.240  34.857  1.00  0.00    -0.482 OA
ATOM     20  C   UNL A   1      46.030  21.259  34.763  1.00  0.00     0.265 C 
ATOM     21  C   UNL A   1      46.989  20.082  34.634  1.00  0.00     0.330 C 
ATOM     22  O   UNL A   1      44.811  21.080  34.768  1.00  0.00    -0.270 OA
BRANCH  13  23
ATOM     23  C   UNL A   1      50.911  25.290  35.145  1.00  0.00     0.254 C 
ATOM     24  C   UNL A   1      54.825  26.331  31.424  1.00  0.00     0.332 C 
ATOM     25  N   UNL A   1      53.504  26.531  32.013  1.00  0.00    -0.334 N 
ATOM     26  C   UNL A   1      53.587  27.083  33.386  1.00  0.00     0.283 C 
ATOM     27  C   UNL A   1      52.741  25.268  32.006  1.00  0.00     0.283 C 
ATOM     28  H   UNL A   1      53.014  27.218  31.440  1.00  0.00     0.347 HD
ATOM     29  C   UNL A   1      52.228  27.154  34.142  1.00  0.00     0.181 C 
ATOM     30  C   UNL A   1      51.368  25.509  32.633  1.00  0.00     0.181 C 
ATOM     31  N   UNL A   1      51.483  25.900  34.026  1.00  0.00    -0.327 N 
ATOM     32  O   UNL A   1      50.962  25.805  36.264  1.00  0.00    -0.269 OA
ENDBRANCH  13  23
ENDBRANCH  11  12
ENDBRANCH   9  11
ENDBRANCH   8   9
ENDBRANCH   7   8
ENDBRANCH   6   7
ENDBRANCH   5   6
ENDBRANCH   4   5
ENDBRANCH   3   4
ENDBRANCH   2   3
ENDBRANCH   1   2
BRANCH   1  33
ATOM     33  C   UNL A   1      43.870  24.010  24.860  1.00  0.00     0.188 C 
BRANCH  33  34
ATOM     34  O   UNL A   1      43.131  22.785  24.772  1.00  0.00    -0.376 OA
BRANCH  34  35
ATOM     35  C   UNL A   1      43.282  21.765  25.746  1.00  0.00     0.202 C 
BRANCH  35  36
ATOM     36  C   UNL A   1      41.951  21.183  26.212  1.00  0.00     0.261 C 
BRANCH  36  37
ATOM     37  O   UNL A   1      41.333  22.060  27.143  1.00  0.00    -0.460 OA
BRANCH  37  38
ATOM     38  C   UNL A   1      40.137  22.554  26.737  1.00  0.00     0.338 C 
ATOM     39  O   UNL A   1      39.156  21.933  26.356  1.00  0.00    -0.246 OA
BRANCH  38  40
ATOM     40  C   UNL A   1      40.153  23.986  27.052  1.00  0.00     0.060 A 
ATOM     41  C   UNL A   1      40.521  24.888  26.043  1.00  0.00     0.016 A 
ATOM     42  C   UNL A   1      39.702  24.432  28.300  1.00  0.00     0.016 A 
ATOM     43  C   UNL A   1      40.455  26.252  26.290  1.00  0.00     0.010 A 
ATOM     44  C   UNL A   1      39.662  25.790  28.557  1.00  0.00     0.010 A 
ATOM     45  C   UNL A   1      40.084  26.690  27.565  1.00  0.00    -0.014 A 
BRANCH  45  46
ATOM     46  C   UNL A   1      40.479  28.036  27.995  1.00  0.00     0.031 A 
ATOM     47  C   UNL A   1      41.955  28.300  28.040  1.00  0.00     0.074 A 
ATOM     48  C   UNL A   1      39.561  28.939  28.367  1.00  0.00     0.049 A 
ATOM     49  N   UNL A   1      42.597  29.335  28.500  1.00  0.00    -0.248 NA
ATOM     50  C   UNL A   1      42.834  27.237  27.505  1.00  0.00     0.031 C 
ATOM     51  C   UNL A   1      38.112  28.744  28.331  1.00  0.00     0.029 A 
ATOM     52  N   UNL A   1      39.724  30.194  28.885  1.00  0.00    -0.354 N 
ATOM     53  C   UNL A   1      43.944  29.038  28.333  1.00  0.00     0.074 A 
ATOM     54  C   UNL A   1      44.038  27.724  27.751  1.00  0.00     0.031 C 
ATOM     55  C   UNL A   1      37.515  29.833  28.848  1.00  0.00     0.029 A 
ATOM     56  C   UNL A   1      38.544  30.777  29.278  1.00  0.00     0.049 A 
ATOM     57  H   UNL A   1      40.600  30.636  28.968  1.00  0.00     0.167 HD
ATOM     58  C   UNL A   1      45.009  29.810  28.634  1.00  0.00     0.034 A 
ATOM     59  C   UNL A   1      38.345  31.929  29.945  1.00  0.00     0.034 A 
ATOM     60  C   UNL A   1      44.879  31.109  29.222  1.00  0.00     0.049 A 
ATOM     61  C   UNL A   1      39.556  32.751  30.311  1.00  0.00     0.074 A 
ATOM     62  C   UNL A   1      45.872  32.000  29.571  1.00  0.00     0.029 A 
ATOM     63  N   UNL A   1      43.666  31.695  29.556  1.00  0.00    -0.354 N 
ATOM     64  N   UNL A   1      40.824  32.500  30.084  1.00  0.00    -0.248 NA
ATOM     65  C   UNL A   1      39.312  34.027  30.998  1.00  0.00     0.031 C 
ATOM     66  C   UNL A   1      45.260  33.116  30.145  1.00  0.00     0.029 A 
ATOM     67  C   UNL A   1      43.884  32.940  30.105  1.00  0.00     0.049 A 
ATOM     68  H   UNL A   1      42.782  31.282  29.421  1.00  0.00     0.167 HD
ATOM     69  C   UNL A   1      41.523  33.610  30.541  1.00  0.00     0.074 A 
ATOM     70  C   UNL A   1      40.536  34.534  31.062  1.00  0.00     0.031 C 
ATOM     71  C   UNL A   1      42.857  33.852  30.538  1.00  0.00     0.034 A 
BRANCH  58  72
ATOM     72  C   UNL A   1      46.377  29.275  28.321  1.00  0.00     0.023 A 
ATOM     73  C   UNL A   1      46.953  29.523  27.057  1.00  0.00     0.012 A 
ATOM     74  C   UNL A   1      47.109  28.561  29.288  1.00  0.00     0.148 A 
ATOM     75  C   UNL A   1      48.230  29.051  26.755  1.00  0.00     0.002 A 
ATOM     76  C   UNL A   1      48.399  28.136  28.996  1.00  0.00     0.091 A 
ATOM     77  F   UNL A   1      46.528  28.306  30.468  1.00  0.00    -0.205 F 
ATOM     78  C   UNL A   1      48.957  28.370  27.728  1.00  0.00     0.022 A 
BRANCH  76  79
ATOM     79  S   UNL A   1      49.446  27.317  30.202  1.00  0.00     0.127 S 
ATOM     80  O   UNL A   1      48.498  26.414  30.853  1.00  0.00    -0.237 OA
ATOM     81  O   UNL A   1      50.432  26.656  29.349  1.00  0.00    -0.237 OA
ATOM     82  O   UNL A   1      49.981  28.369  31.056  1.00  0.00    -0.744 OA
ENDBRANCH  76  79
ENDBRANCH  58  72
BRANCH  59  83
ATOM     83  C   UNL A   1      36.969  32.383  30.289  1.00  0.00     0.023 A 
ATOM     84  C   UNL A   1      36.440  32.097  31.563  1.00  0.00     0.012 A 
ATOM     85  C   UNL A   1      36.176  33.088  29.362  1.00  0.00     0.148 A 
ATOM     86  C   UNL A   1      35.132  32.460  31.890  1.00  0.00     0.002 A 
ATOM     87  C   UNL A   1      34.894  33.494  29.713  1.00  0.00     0.091 A 
ATOM     88  F   UNL A   1      36.691  33.345  28.152  1.00  0.00    -0.205 F 
ATOM     89  C   UNL A   1      34.363  33.164  30.969  1.00  0.00     0.022 A 
BRANCH  87  90
ATOM     90  S   UNL A   1      33.877  34.506  28.633  1.00  0.00     0.127 S 
ATOM     91  O   UNL A   1      34.689  35.712  28.500  1.00  0.00    -0.237 OA
ATOM     92  O   UNL A   1      33.797  33.679  27.429  1.00  0.00    -0.237 OA
ATOM     93  O   UNL A   1      32.608  34.672  29.332  1.00  0.00    -0.744 OA
ENDBRANCH  87  90
ENDBRANCH  59  83
BRANCH  71  94
ATOM     94  C   UNL A   1      43.325  35.196  31.017  1.00  0.00     0.023 A 
ATOM     95  C   UNL A   1      43.799  35.358  32.331  1.00  0.00     0.012 A 
ATOM     96  C   UNL A   1      43.410  36.266  30.103  1.00  0.00     0.148 A 
ATOM     97  C   UNL A   1      44.333  36.579  32.736  1.00  0.00     0.002 A 
ATOM     98  C   UNL A   1      43.996  37.458  30.497  1.00  0.00     0.091 A 
ATOM     99  F   UNL A   1      42.939  36.083  28.860  1.00  0.00    -0.205 F 
ATOM    100  C   UNL A   1      44.447  37.622  31.817  1.00  0.00     0.022 A 
BRANCH  98 101
ATOM    101  S   UNL A   1      44.289  38.810  29.353  1.00  0.00     0.127 S 
ATOM    102  O   UNL A   1      43.021  39.534  29.418  1.00  0.00    -0.237 OA
ATOM    103  O   UNL A   1      45.420  39.497  29.975  1.00  0.00    -0.237 OA
ATOM    104  O   UNL A   1      44.586  38.195  28.066  1.00  0.00    -0.744 OA
ENDBRANCH  98 101
ENDBRANCH  71  94
ENDBRANCH  45  46
ENDBRANCH  38  40
ENDBRANCH  37  38
ENDBRANCH  36  37
ENDBRANCH  35  36
ENDBRANCH  34  35
ENDBRANCH  33  34
ENDBRANCH   1  33
TORSDOF 25
ENDMDL
