MODEL 1
REMARK VINA RESULT:      -9.1      0.000      0.000
REMARK SMILES O=C(OCCOCCOCCOCCOC(=O)c1sccc1[S@](=O)[O-])c1ccc(-c2c3nc(c(-c4cccc(S(=O)(=O)[O-])c4F)c4ccc([nH]4)c(-c4cccc(S(=O)(=O)[O-])c4F)c4nc(c(-c5cccc(S(=O)(=O)[O-])c5F)c5ccc2[nH]5)C=C4)C=C3)cc1
REMARK SMILES IDX 8 1 7 2 6 3 5 4 4 5 3 6 2 7 1 8 26 9 27 10 88 11 28 12 87 13
REMARK SMILES IDX 29 14 30 15 31 16 81 17 32 18 86 19 80 20 82 21 33 22 85 23
REMARK SMILES IDX 79 24 78 25 34 27 66 28 46 29 65 30 47 31 50 32 64 33 83 34
REMARK SMILES IDX 48 35 49 36 63 38 84 39 51 40 35 41 36 42 44 43 37 44 39 45
REMARK SMILES IDX 45 46 38 47 40 48 41 49 42 50 43 51 67 52 68 53 76 54 69 55
REMARK SMILES IDX 71 56 77 57 70 58 72 59 73 60 74 61 75 62 52 63 53 64 61 65
REMARK SMILES IDX 54 66 56 67 62 68 55 69 57 70 58 71 59 72 60 73 9 74 10 75
REMARK SMILES IDX 11 76 12 77 13 78 14 79 15 80 16 81 17 82 18 83 19 84 22 85
REMARK SMILES IDX 20 86 21 87 23 88 25 89 24 90
REMARK H PARENT 82 26 50 37
REMARK Flexibility Score: inf
ROOT
ATOM      1  C   UNL A   1      32.601  29.343  24.930  1.00  0.00     0.188 C 
ENDROOT
BRANCH   1   2
ATOM      2  C   UNL A   1      32.830  28.703  26.298  1.00  0.00     0.188 C 
BRANCH   2   3
ATOM      3  O   UNL A   1      32.679  29.655  27.353  1.00  0.00    -0.376 OA
BRANCH   3   4
ATOM      4  C   UNL A   1      33.222  30.949  27.094  1.00  0.00     0.202 C 
BRANCH   4   5
ATOM      5  C   UNL A   1      32.214  32.100  27.169  1.00  0.00     0.261 C 
BRANCH   5   6
ATOM      6  O   UNL A   1      32.848  33.386  27.231  1.00  0.00    -0.460 OA
BRANCH   6   7
ATOM      7  C   UNL A   1      33.188  34.087  28.344  1.00  0.00     0.338 C 
ATOM      8  O   UNL A   1      32.495  35.058  28.646  1.00  0.00    -0.246 OA
BRANCH   7   9
ATOM      9  C   UNL A   1      34.351  33.749  29.226  1.00  0.00     0.060 A 
ATOM     10  C   UNL A   1      35.652  34.235  29.074  1.00  0.00     0.016 A 
ATOM     11  C   UNL A   1      34.093  32.921  30.332  1.00  0.00     0.016 A 
ATOM     12  C   UNL A   1      36.682  33.855  29.919  1.00  0.00     0.010 A 
ATOM     13  C   UNL A   1      35.118  32.552  31.210  1.00  0.00     0.010 A 
ATOM     14  C   UNL A   1      36.424  32.994  30.977  1.00  0.00    -0.014 A 
BRANCH  14  15
ATOM     15  C   UNL A   1      37.584  32.435  31.689  1.00  0.00     0.031 A 
ATOM     16  C   UNL A   1      38.364  31.355  31.003  1.00  0.00     0.074 A 
ATOM     17  C   UNL A   1      37.994  32.984  32.847  1.00  0.00     0.049 A 
ATOM     18  N   UNL A   1      39.393  30.680  31.430  1.00  0.00    -0.248 NA
ATOM     19  C   UNL A   1      37.933  30.998  29.637  1.00  0.00     0.031 C 
ATOM     20  C   UNL A   1      37.355  34.122  33.513  1.00  0.00     0.029 A 
ATOM     21  N   UNL A   1      39.048  32.669  33.659  1.00  0.00    -0.354 N 
ATOM     22  C   UNL A   1      39.693  29.780  30.416  1.00  0.00     0.074 A 
ATOM     23  C   UNL A   1      38.757  30.007  29.341  1.00  0.00     0.031 C 
ATOM     24  C   UNL A   1      38.028  34.403  34.641  1.00  0.00     0.029 A 
ATOM     25  C   UNL A   1      39.100  33.428  34.805  1.00  0.00     0.049 A 
ATOM     26  H   UNL A   1      39.705  31.967  33.446  1.00  0.00     0.167 HD
ATOM     27  C   UNL A   1      40.665  28.841  30.397  1.00  0.00     0.034 A 
ATOM     28  C   UNL A   1      39.903  33.307  35.879  1.00  0.00     0.034 A 
ATOM     29  C   UNL A   1      41.589  28.654  31.478  1.00  0.00     0.049 A 
ATOM     30  C   UNL A   1      40.940  32.214  35.856  1.00  0.00     0.074 A 
ATOM     31  C   UNL A   1      42.594  27.716  31.605  1.00  0.00     0.029 A 
ATOM     32  N   UNL A   1      41.611  29.433  32.628  1.00  0.00    -0.354 N 
ATOM     33  N   UNL A   1      41.222  31.366  34.893  1.00  0.00    -0.248 NA
ATOM     34  C   UNL A   1      41.775  32.065  37.054  1.00  0.00     0.031 C 
ATOM     35  C   UNL A   1      43.205  27.909  32.848  1.00  0.00     0.029 A 
ATOM     36  C   UNL A   1      42.607  28.992  33.477  1.00  0.00     0.049 A 
ATOM     37  H   UNL A   1      41.006  30.187  32.812  1.00  0.00     0.167 HD
ATOM     38  C   UNL A   1      42.284  30.602  35.356  1.00  0.00     0.074 A 
ATOM     39  C   UNL A   1      42.610  31.105  36.677  1.00  0.00     0.031 C 
ATOM     40  C   UNL A   1      42.925  29.566  34.761  1.00  0.00     0.034 A 
BRANCH  27  41
ATOM     41  C   UNL A   1      40.728  27.935  29.199  1.00  0.00     0.023 A 
ATOM     42  C   UNL A   1      39.938  26.769  29.147  1.00  0.00     0.012 A 
ATOM     43  C   UNL A   1      41.587  28.239  28.126  1.00  0.00     0.148 A 
ATOM     44  C   UNL A   1      40.029  25.901  28.058  1.00  0.00     0.002 A 
ATOM     45  C   UNL A   1      41.642  27.392  27.026  1.00  0.00     0.091 A 
ATOM     46  F   UNL A   1      42.351  29.337  28.212  1.00  0.00    -0.205 F 
ATOM     47  C   UNL A   1      40.874  26.216  26.995  1.00  0.00     0.022 A 
BRANCH  45  48
ATOM     48  S   UNL A   1      42.656  27.736  25.584  1.00  0.00     0.127 S 
ATOM     49  O   UNL A   1      44.003  27.666  26.147  1.00  0.00    -0.237 OA
ATOM     50  O   UNL A   1      42.307  26.627  24.697  1.00  0.00    -0.237 OA
ATOM     51  O   UNL A   1      42.249  29.051  25.110  1.00  0.00    -0.744 OA
ENDBRANCH  45  48
ENDBRANCH  27  41
BRANCH  28  52
ATOM     52  C   UNL A   1      39.747  34.215  37.053  1.00  0.00     0.023 A 
ATOM     53  C   UNL A   1      40.209  35.542  36.984  1.00  0.00     0.012 A 
ATOM     54  C   UNL A   1      39.137  33.766  38.244  1.00  0.00     0.148 A 
ATOM     55  C   UNL A   1      40.097  36.396  38.085  1.00  0.00     0.002 A 
ATOM     56  C   UNL A   1      38.978  34.638  39.317  1.00  0.00     0.091 A 
ATOM     57  F   UNL A   1      38.725  32.492  38.307  1.00  0.00    -0.205 F 
ATOM     58  C   UNL A   1      39.473  35.947  39.247  1.00  0.00     0.022 A 
BRANCH  56  59
ATOM     59  S   UNL A   1      38.076  34.175  40.800  1.00  0.00     0.127 S 
ATOM     60  O   UNL A   1      36.900  33.515  40.241  1.00  0.00    -0.237 OA
ATOM     61  O   UNL A   1      39.024  33.282  41.467  1.00  0.00    -0.237 OA
ATOM     62  O   UNL A   1      37.828  35.422  41.511  1.00  0.00    -0.744 OA
ENDBRANCH  56  59
ENDBRANCH  28  52
BRANCH  40  63
ATOM     63  C   UNL A   1      44.068  28.942  35.510  1.00  0.00     0.023 A 
ATOM     64  C   UNL A   1      45.346  29.530  35.456  1.00  0.00     0.012 A 
ATOM     65  C   UNL A   1      43.843  27.833  36.347  1.00  0.00     0.148 A 
ATOM     66  C   UNL A   1      46.395  29.002  36.207  1.00  0.00     0.002 A 
ATOM     67  C   UNL A   1      44.878  27.347  37.133  1.00  0.00     0.091 A 
ATOM     68  F   UNL A   1      42.621  27.282  36.364  1.00  0.00    -0.205 F 
ATOM     69  C   UNL A   1      46.157  27.922  37.055  1.00  0.00     0.022 A 
BRANCH  67  70
ATOM     70  S   UNL A   1      44.631  26.037  38.335  1.00  0.00     0.127 S 
ATOM     71  O   UNL A   1      46.006  25.628  38.615  1.00  0.00    -0.237 OA
ATOM     72  O   UNL A   1      43.968  26.743  39.431  1.00  0.00    -0.237 OA
ATOM     73  O   UNL A   1      43.803  25.037  37.674  1.00  0.00    -0.744 OA
ENDBRANCH  67  70
ENDBRANCH  40  63
ENDBRANCH  14  15
ENDBRANCH   7   9
ENDBRANCH   6   7
ENDBRANCH   5   6
ENDBRANCH   4   5
ENDBRANCH   3   4
ENDBRANCH   2   3
ENDBRANCH   1   2
BRANCH   1  74
ATOM     74  O   UNL A   1      31.240  29.610  24.608  1.00  0.00    -0.377 OA
BRANCH  74  75
ATOM     75  C   UNL A   1      30.736  29.041  23.406  1.00  0.00     0.188 C 
BRANCH  75  76
ATOM     76  C   UNL A   1      30.610  27.506  23.273  1.00  0.00     0.188 C 
BRANCH  76  77
ATOM     77  O   UNL A   1      31.222  26.936  22.126  1.00  0.00    -0.376 OA
BRANCH  77  78
ATOM     78  C   UNL A   1      31.773  25.633  22.317  1.00  0.00     0.202 C 
BRANCH  78  79
ATOM     79  C   UNL A   1      33.284  25.614  22.579  1.00  0.00     0.261 C 
BRANCH  79  80
ATOM     80  O   UNL A   1      33.634  25.776  23.964  1.00  0.00    -0.459 OA
BRANCH  80  81
ATOM     81  C   UNL A   1      34.093  24.699  24.653  1.00  0.00     0.349 C 
ATOM     82  O   UNL A   1      35.274  24.457  24.864  1.00  0.00    -0.245 OA
BRANCH  81  83
ATOM     83  C   UNL A   1      32.961  24.039  25.274  1.00  0.00     0.127 A 
ATOM     84  S   UNL A   1      31.860  25.010  26.183  1.00  0.00    -0.136 S 
ATOM     85  C   UNL A   1      32.517  22.733  25.222  1.00  0.00     0.050 A 
ATOM     86  C   UNL A   1      30.695  23.759  26.242  1.00  0.00     0.067 A 
ATOM     87  C   UNL A   1      31.195  22.577  25.746  1.00  0.00     0.029 A 
BRANCH  85  88
ATOM     88  S   UNL A   1      33.404  21.362  24.632  1.00  0.00    -0.020 S 
ATOM     89  O   UNL A   1      33.355  20.593  26.036  1.00  0.00    -0.768 OA
ATOM     90  O   UNL A   1      32.568  20.626  23.639  1.00  0.00    -0.269 OA
ENDBRANCH  85  88
ENDBRANCH  81  83
ENDBRANCH  80  81
ENDBRANCH  79  80
ENDBRANCH  78  79
ENDBRANCH  77  78
ENDBRANCH  76  77
ENDBRANCH  75  76
ENDBRANCH  74  75
ENDBRANCH   1  74
TORSDOF 24
ENDMDL
MODEL 2
REMARK VINA RESULT:      -7.9      1.995      2.336
REMARK SMILES O=C(OCCOCCOCCOCCOC(=O)c1sccc1[S@](=O)[O-])c1ccc(-c2c3nc(c(-c4cccc(S(=O)(=O)[O-])c4F)c4ccc([nH]4)c(-c4cccc(S(=O)(=O)[O-])c4F)c4nc(c(-c5cccc(S(=O)(=O)[O-])c5F)c5ccc2[nH]5)C=C4)C=C3)cc1
REMARK SMILES IDX 8 1 7 2 6 3 5 4 4 5 3 6 2 7 1 8 26 9 27 10 88 11 28 12 87 13
REMARK SMILES IDX 29 14 30 15 31 16 81 17 32 18 86 19 80 20 82 21 33 22 85 23
REMARK SMILES IDX 79 24 78 25 34 27 66 28 46 29 65 30 47 31 50 32 64 33 83 34
REMARK SMILES IDX 48 35 49 36 63 38 84 39 51 40 35 41 36 42 44 43 37 44 39 45
REMARK SMILES IDX 45 46 38 47 40 48 41 49 42 50 43 51 67 52 68 53 76 54 69 55
REMARK SMILES IDX 71 56 77 57 70 58 72 59 73 60 74 61 75 62 52 63 53 64 61 65
REMARK SMILES IDX 54 66 56 67 62 68 55 69 57 70 58 71 59 72 60 73 9 74 10 75
REMARK SMILES IDX 11 76 12 77 13 78 14 79 15 80 16 81 17 82 18 83 19 84 22 85
REMARK SMILES IDX 20 86 21 87 23 88 25 89 24 90
REMARK H PARENT 82 26 50 37
REMARK Flexibility Score: inf
ROOT
ATOM      1  C   UNL A   1      32.513  29.521  24.870  1.00  0.00     0.188 C 
ENDROOT
BRANCH   1   2
ATOM      2  C   UNL A   1      33.161  29.166  26.207  1.00  0.00     0.188 C 
BRANCH   2   3
ATOM      3  O   UNL A   1      32.684  30.007  27.259  1.00  0.00    -0.376 OA
BRANCH   3   4
ATOM      4  C   UNL A   1      33.387  31.237  27.428  1.00  0.00     0.202 C 
BRANCH   4   5
ATOM      5  C   UNL A   1      32.534  32.498  27.255  1.00  0.00     0.261 C 
BRANCH   5   6
ATOM      6  O   UNL A   1      33.248  33.698  27.587  1.00  0.00    -0.460 OA
BRANCH   6   7
ATOM      7  C   UNL A   1      33.527  34.178  28.827  1.00  0.00     0.338 C 
ATOM      8  O   UNL A   1      32.749  34.997  29.315  1.00  0.00    -0.246 OA
BRANCH   7   9
ATOM      9  C   UNL A   1      34.719  33.769  29.636  1.00  0.00     0.060 A 
ATOM     10  C   UNL A   1      36.044  34.109  29.355  1.00  0.00     0.016 A 
ATOM     11  C   UNL A   1      34.473  33.032  30.807  1.00  0.00     0.016 A 
ATOM     12  C   UNL A   1      37.098  33.671  30.141  1.00  0.00     0.010 A 
ATOM     13  C   UNL A   1      35.526  32.607  31.625  1.00  0.00     0.010 A 
ATOM     14  C   UNL A   1      36.845  32.898  31.266  1.00  0.00    -0.014 A 
BRANCH  14  15
ATOM     15  C   UNL A   1      37.999  32.261  31.920  1.00  0.00     0.031 A 
ATOM     16  C   UNL A   1      38.739  31.210  31.149  1.00  0.00     0.074 A 
ATOM     17  C   UNL A   1      38.440  32.719  33.106  1.00  0.00     0.049 A 
ATOM     18  N   UNL A   1      39.755  30.481  31.513  1.00  0.00    -0.248 NA
ATOM     19  C   UNL A   1      38.280  30.960  29.770  1.00  0.00     0.031 C 
ATOM     20  C   UNL A   1      37.842  33.825  33.858  1.00  0.00     0.029 A 
ATOM     21  N   UNL A   1      39.496  32.321  33.878  1.00  0.00    -0.354 N 
ATOM     22  C   UNL A   1      40.017  29.644  30.436  1.00  0.00     0.074 A 
ATOM     23  C   UNL A   1      39.072  29.969  29.394  1.00  0.00     0.031 C 
ATOM     24  C   UNL A   1      38.538  34.011  34.991  1.00  0.00     0.029 A 
ATOM     25  C   UNL A   1      39.585  32.998  35.072  1.00  0.00     0.049 A 
ATOM     26  H   UNL A   1      40.130  31.618  33.607  1.00  0.00     0.167 HD
ATOM     27  C   UNL A   1      40.961  28.684  30.338  1.00  0.00     0.034 A 
ATOM     28  C   UNL A   1      40.399  32.783  36.122  1.00  0.00     0.034 A 
ATOM     29  C   UNL A   1      41.895  28.399  31.389  1.00  0.00     0.049 A 
ATOM     30  C   UNL A   1      41.405  31.667  36.009  1.00  0.00     0.074 A 
ATOM     31  C   UNL A   1      42.875  27.428  31.435  1.00  0.00     0.029 A 
ATOM     32  N   UNL A   1      41.955  29.096  32.589  1.00  0.00    -0.354 N 
ATOM     33  N   UNL A   1      41.650  30.880  34.986  1.00  0.00    -0.248 NA
ATOM     34  C   UNL A   1      42.253  31.414  37.180  1.00  0.00     0.031 C 
ATOM     35  C   UNL A   1      43.509  27.519  32.679  1.00  0.00     0.029 A 
ATOM     36  C   UNL A   1      42.949  28.572  33.390  1.00  0.00     0.049 A 
ATOM     37  H   UNL A   1      41.373  29.852  32.833  1.00  0.00     0.167 HD
ATOM     38  C   UNL A   1      42.698  30.058  35.379  1.00  0.00     0.074 A 
ATOM     39  C   UNL A   1      43.055  30.460  36.726  1.00  0.00     0.031 C 
ATOM     40  C   UNL A   1      43.302  29.048  34.704  1.00  0.00     0.034 A 
BRANCH  27  41
ATOM     41  C   UNL A   1      40.983  27.860  29.080  1.00  0.00     0.023 A 
ATOM     42  C   UNL A   1      40.063  26.808  28.903  1.00  0.00     0.012 A 
ATOM     43  C   UNL A   1      41.932  28.128  28.075  1.00  0.00     0.148 A 
ATOM     44  C   UNL A   1      40.110  26.012  27.758  1.00  0.00     0.002 A 
ATOM     45  C   UNL A   1      41.947  27.357  26.919  1.00  0.00     0.091 A 
ATOM     46  F   UNL A   1      42.817  29.114  28.279  1.00  0.00    -0.205 F 
ATOM     47  C   UNL A   1      41.046  26.291  26.764  1.00  0.00     0.022 A 
BRANCH  45  48
ATOM     48  S   UNL A   1      43.075  27.670  25.557  1.00  0.00     0.127 S 
ATOM     49  O   UNL A   1      42.211  28.378  24.615  1.00  0.00    -0.237 OA
ATOM     50  O   UNL A   1      44.095  28.503  26.194  1.00  0.00    -0.237 OA
ATOM     51  O   UNL A   1      43.542  26.364  25.112  1.00  0.00    -0.744 OA
ENDBRANCH  45  48
ENDBRANCH  27  41
BRANCH  28  52
ATOM     52  C   UNL A   1      40.285  33.611  37.358  1.00  0.00     0.023 A 
ATOM     53  C   UNL A   1      39.211  33.407  38.245  1.00  0.00     0.012 A 
ATOM     54  C   UNL A   1      41.240  34.604  37.660  1.00  0.00     0.148 A 
ATOM     55  C   UNL A   1      39.074  34.194  39.392  1.00  0.00     0.002 A 
ATOM     56  C   UNL A   1      41.129  35.345  38.833  1.00  0.00     0.091 A 
ATOM     57  F   UNL A   1      42.243  34.807  36.795  1.00  0.00    -0.205 F 
ATOM     58  C   UNL A   1      40.037  35.155  39.690  1.00  0.00     0.022 A 
BRANCH  56  59
ATOM     59  S   UNL A   1      42.391  36.514  39.350  1.00  0.00     0.127 S 
ATOM     60  O   UNL A   1      42.558  37.326  38.147  1.00  0.00    -0.237 OA
ATOM     61  O   UNL A   1      41.737  37.196  40.467  1.00  0.00    -0.237 OA
ATOM     62  O   UNL A   1      43.540  35.704  39.734  1.00  0.00    -0.744 OA
ENDBRANCH  56  59
ENDBRANCH  28  52
BRANCH  40  63
ATOM     63  C   UNL A   1      44.437  28.344  35.392  1.00  0.00     0.023 A 
ATOM     64  C   UNL A   1      44.171  27.289  36.284  1.00  0.00     0.012 A 
ATOM     65  C   UNL A   1      45.768  28.669  35.070  1.00  0.00     0.148 A 
ATOM     66  C   UNL A   1      45.219  26.581  36.869  1.00  0.00     0.002 A 
ATOM     67  C   UNL A   1      46.805  27.924  35.613  1.00  0.00     0.091 A 
ATOM     68  F   UNL A   1      45.993  29.691  34.232  1.00  0.00    -0.205 F 
ATOM     69  C   UNL A   1      46.533  26.888  36.522  1.00  0.00     0.022 A 
BRANCH  67  70
ATOM     70  S   UNL A   1      48.517  28.177  35.133  1.00  0.00     0.127 S 
ATOM     71  O   UNL A   1      49.221  27.325  36.089  1.00  0.00    -0.237 OA
ATOM     72  O   UNL A   1      48.527  27.687  33.755  1.00  0.00    -0.237 OA
ATOM     73  O   UNL A   1      48.764  29.606  35.267  1.00  0.00    -0.744 OA
ENDBRANCH  67  70
ENDBRANCH  40  63
ENDBRANCH  14  15
ENDBRANCH   7   9
ENDBRANCH   6   7
ENDBRANCH   5   6
ENDBRANCH   4   5
ENDBRANCH   3   4
ENDBRANCH   2   3
ENDBRANCH   1   2
BRANCH   1  74
ATOM     74  O   UNL A   1      31.104  29.325  24.811  1.00  0.00    -0.377 OA
BRANCH  74  75
ATOM     75  C   UNL A   1      30.610  28.489  23.771  1.00  0.00     0.188 C 
BRANCH  75  76
ATOM     76  C   UNL A   1      31.599  27.717  22.868  1.00  0.00     0.188 C 
BRANCH  76  77
ATOM     77  O   UNL A   1      31.042  26.644  22.124  1.00  0.00    -0.376 OA
BRANCH  77  78
ATOM     78  C   UNL A   1      31.827  26.203  21.016  1.00  0.00     0.202 C 
BRANCH  78  79
ATOM     79  C   UNL A   1      32.897  25.163  21.371  1.00  0.00     0.261 C 
BRANCH  79  80
ATOM     80  O   UNL A   1      32.566  24.357  22.514  1.00  0.00    -0.459 OA
BRANCH  80  81
ATOM     81  C   UNL A   1      33.456  23.423  22.936  1.00  0.00     0.349 C 
ATOM     82  O   UNL A   1      34.458  23.084  22.319  1.00  0.00    -0.245 OA
BRANCH  81  83
ATOM     83  C   UNL A   1      33.144  23.083  24.310  1.00  0.00     0.127 A 
ATOM     84  S   UNL A   1      31.825  23.904  25.065  1.00  0.00    -0.136 S 
ATOM     85  C   UNL A   1      33.666  22.132  25.164  1.00  0.00     0.050 A 
ATOM     86  C   UNL A   1      31.794  22.801  26.371  1.00  0.00     0.067 A 
ATOM     87  C   UNL A   1      32.867  21.941  26.335  1.00  0.00     0.029 A 
BRANCH  85  88
ATOM     88  S   UNL A   1      35.136  21.236  24.938  1.00  0.00    -0.020 S 
ATOM     89  O   UNL A   1      35.650  21.501  26.432  1.00  0.00    -0.768 OA
ATOM     90  O   UNL A   1      34.811  19.789  24.779  1.00  0.00    -0.269 OA
ENDBRANCH  85  88
ENDBRANCH  81  83
ENDBRANCH  80  81
ENDBRANCH  79  80
ENDBRANCH  78  79
ENDBRANCH  77  78
ENDBRANCH  76  77
ENDBRANCH  75  76
ENDBRANCH  74  75
ENDBRANCH   1  74
TORSDOF 24
ENDMDL
MODEL 3
REMARK VINA RESULT:      -7.8      5.060     10.368
REMARK SMILES O=C(OCCOCCOCCOCCOC(=O)c1sccc1[S@](=O)[O-])c1ccc(-c2c3nc(c(-c4cccc(S(=O)(=O)[O-])c4F)c4ccc([nH]4)c(-c4cccc(S(=O)(=O)[O-])c4F)c4nc(c(-c5cccc(S(=O)(=O)[O-])c5F)c5ccc2[nH]5)C=C4)C=C3)cc1
REMARK SMILES IDX 8 1 7 2 6 3 5 4 4 5 3 6 2 7 1 8 26 9 27 10 88 11 28 12 87 13
REMARK SMILES IDX 29 14 30 15 31 16 81 17 32 18 86 19 80 20 82 21 33 22 85 23
REMARK SMILES IDX 79 24 78 25 34 27 66 28 46 29 65 30 47 31 50 32 64 33 83 34
REMARK SMILES IDX 48 35 49 36 63 38 84 39 51 40 35 41 36 42 44 43 37 44 39 45
REMARK SMILES IDX 45 46 38 47 40 48 41 49 42 50 43 51 67 52 68 53 76 54 69 55
REMARK SMILES IDX 71 56 77 57 70 58 72 59 73 60 74 61 75 62 52 63 53 64 61 65
REMARK SMILES IDX 54 66 56 67 62 68 55 69 57 70 58 71 59 72 60 73 9 74 10 75
REMARK SMILES IDX 11 76 12 77 13 78 14 79 15 80 16 81 17 82 18 83 19 84 22 85
REMARK SMILES IDX 20 86 21 87 23 88 25 89 24 90
REMARK H PARENT 82 26 50 37
REMARK Flexibility Score: inf
ROOT
ATOM      1  C   UNL A   1      36.665  32.678  38.864  1.00  0.00     0.188 C 
ENDROOT
BRANCH   1   2
ATOM      2  C   UNL A   1      37.741  32.180  39.826  1.00  0.00     0.188 C 
BRANCH   2   3
ATOM      3  O   UNL A   1      38.918  32.986  39.758  1.00  0.00    -0.376 OA
BRANCH   3   4
ATOM      4  C   UNL A   1      38.738  34.365  40.078  1.00  0.00     0.202 C 
BRANCH   4   5
ATOM      5  C   UNL A   1      39.905  35.012  40.830  1.00  0.00     0.261 C 
BRANCH   5   6
ATOM      6  O   UNL A   1      40.810  35.704  39.956  1.00  0.00    -0.460 OA
BRANCH   6   7
ATOM      7  C   UNL A   1      40.571  36.131  38.689  1.00  0.00     0.338 C 
ATOM      8  O   UNL A   1      39.999  37.211  38.544  1.00  0.00    -0.246 OA
BRANCH   7   9
ATOM      9  C   UNL A   1      40.965  35.371  37.459  1.00  0.00     0.060 A 
ATOM     10  C   UNL A   1      40.081  34.786  36.550  1.00  0.00     0.016 A 
ATOM     11  C   UNL A   1      42.338  35.296  37.169  1.00  0.00     0.016 A 
ATOM     12  C   UNL A   1      40.524  34.077  35.445  1.00  0.00     0.010 A 
ATOM     13  C   UNL A   1      42.798  34.607  36.041  1.00  0.00     0.010 A 
ATOM     14  C   UNL A   1      41.886  33.964  35.199  1.00  0.00    -0.014 A 
BRANCH  14  15
ATOM     15  C   UNL A   1      42.307  33.007  34.164  1.00  0.00     0.031 A 
ATOM     16  C   UNL A   1      42.606  33.550  32.799  1.00  0.00     0.074 A 
ATOM     17  C   UNL A   1      42.545  31.724  34.489  1.00  0.00     0.049 A 
ATOM     18  N   UNL A   1      42.956  32.916  31.717  1.00  0.00    -0.248 NA
ATOM     19  C   UNL A   1      42.516  35.014  32.638  1.00  0.00     0.031 C 
ATOM     20  C   UNL A   1      42.395  31.151  35.829  1.00  0.00     0.029 A 
ATOM     21  N   UNL A   1      42.972  30.675  33.722  1.00  0.00    -0.354 N 
ATOM     22  C   UNL A   1      43.065  33.891  30.734  1.00  0.00     0.074 A 
ATOM     23  C   UNL A   1      42.771  35.163  31.349  1.00  0.00     0.031 C 
ATOM     24  C   UNL A   1      42.717  29.848  35.787  1.00  0.00     0.029 A 
ATOM     25  C   UNL A   1      43.033  29.485  34.410  1.00  0.00     0.049 A 
ATOM     26  H   UNL A   1      43.213  30.762  32.772  1.00  0.00     0.167 HD
ATOM     27  C   UNL A   1      43.377  33.727  29.430  1.00  0.00     0.034 A 
ATOM     28  C   UNL A   1      43.274  28.242  33.955  1.00  0.00     0.034 A 
ATOM     29  C   UNL A   1      43.680  32.448  28.855  1.00  0.00     0.049 A 
ATOM     30  C   UNL A   1      43.561  28.080  32.484  1.00  0.00     0.074 A 
ATOM     31  C   UNL A   1      43.971  32.137  27.543  1.00  0.00     0.029 A 
ATOM     32  N   UNL A   1      43.724  31.261  29.576  1.00  0.00    -0.354 N 
ATOM     33  N   UNL A   1      43.666  29.007  31.559  1.00  0.00    -0.248 NA
ATOM     34  C   UNL A   1      43.774  26.713  31.995  1.00  0.00     0.031 C 
ATOM     35  C   UNL A   1      44.164  30.754  27.463  1.00  0.00     0.029 A 
ATOM     36  C   UNL A   1      44.029  30.211  28.734  1.00  0.00     0.049 A 
ATOM     37  H   UNL A   1      43.560  31.180  30.543  1.00  0.00     0.167 HD
ATOM     38  C   UNL A   1      43.985  28.339  30.384  1.00  0.00     0.074 A 
ATOM     39  C   UNL A   1      44.079  26.932  30.722  1.00  0.00     0.031 C 
ATOM     40  C   UNL A   1      44.166  28.832  29.134  1.00  0.00     0.034 A 
BRANCH  27  41
ATOM     41  C   UNL A   1      43.351  34.949  28.553  1.00  0.00     0.023 A 
ATOM     42  C   UNL A   1      42.133  35.421  28.026  1.00  0.00     0.012 A 
ATOM     43  C   UNL A   1      44.548  35.623  28.244  1.00  0.00     0.148 A 
ATOM     44  C   UNL A   1      42.111  36.527  27.175  1.00  0.00     0.002 A 
ATOM     45  C   UNL A   1      44.514  36.747  27.429  1.00  0.00     0.091 A 
ATOM     46  F   UNL A   1      45.698  35.137  28.731  1.00  0.00    -0.205 F 
ATOM     47  C   UNL A   1      43.300  37.194  26.883  1.00  0.00     0.022 A 
BRANCH  45  48
ATOM     48  S   UNL A   1      45.980  37.708  27.037  1.00  0.00     0.127 S 
ATOM     49  O   UNL A   1      46.567  36.922  25.954  1.00  0.00    -0.237 OA
ATOM     50  O   UNL A   1      45.403  38.986  26.621  1.00  0.00    -0.237 OA
ATOM     51  O   UNL A   1      46.767  37.761  28.262  1.00  0.00    -0.744 OA
ENDBRANCH  45  48
ENDBRANCH  27  41
BRANCH  28  52
ATOM     52  C   UNL A   1      43.232  27.070  34.878  1.00  0.00     0.023 A 
ATOM     53  C   UNL A   1      42.026  26.373  35.077  1.00  0.00     0.012 A 
ATOM     54  C   UNL A   1      44.389  26.639  35.560  1.00  0.00     0.148 A 
ATOM     55  C   UNL A   1      41.964  25.292  35.961  1.00  0.00     0.002 A 
ATOM     56  C   UNL A   1      44.334  25.527  36.394  1.00  0.00     0.091 A 
ATOM     57  F   UNL A   1      45.526  27.327  35.382  1.00  0.00    -0.205 F 
ATOM     58  C   UNL A   1      43.118  24.864  36.611  1.00  0.00     0.022 A 
BRANCH  56  59
ATOM     59  S   UNL A   1      45.800  24.838  37.170  1.00  0.00     0.127 S 
ATOM     60  O   UNL A   1      45.227  23.801  38.024  1.00  0.00    -0.237 OA
ATOM     61  O   UNL A   1      46.551  24.341  36.017  1.00  0.00    -0.237 OA
ATOM     62  O   UNL A   1      46.436  25.952  37.862  1.00  0.00    -0.744 OA
ENDBRANCH  56  59
ENDBRANCH  28  52
BRANCH  40  63
ATOM     63  C   UNL A   1      44.529  27.852  28.054  1.00  0.00     0.023 A 
ATOM     64  C   UNL A   1      45.883  27.568  27.791  1.00  0.00     0.012 A 
ATOM     65  C   UNL A   1      43.521  27.143  27.375  1.00  0.00     0.148 A 
ATOM     66  C   UNL A   1      46.228  26.606  26.844  1.00  0.00     0.002 A 
ATOM     67  C   UNL A   1      43.872  26.148  26.474  1.00  0.00     0.091 A 
ATOM     68  F   UNL A   1      42.241  27.447  27.631  1.00  0.00    -0.205 F 
ATOM     69  C   UNL A   1      45.224  25.887  26.198  1.00  0.00     0.022 A 
BRANCH  67  70
ATOM     70  S   UNL A   1      42.648  25.098  25.685  1.00  0.00     0.127 S 
ATOM     71  O   UNL A   1      41.829  26.079  24.976  1.00  0.00    -0.237 OA
ATOM     72  O   UNL A   1      43.475  24.255  24.822  1.00  0.00    -0.237 OA
ATOM     73  O   UNL A   1      41.978  24.384  26.763  1.00  0.00    -0.744 OA
ENDBRANCH  67  70
ENDBRANCH  40  63
ENDBRANCH  14  15
ENDBRANCH   7   9
ENDBRANCH   6   7
ENDBRANCH   5   6
ENDBRANCH   4   5
ENDBRANCH   3   4
ENDBRANCH   2   3
ENDBRANCH   1   2
BRANCH   1  74
ATOM     74  O   UNL A   1      36.970  32.520  37.482  1.00  0.00    -0.377 OA
BRANCH  74  75
ATOM     75  C   UNL A   1      36.796  33.659  36.647  1.00  0.00     0.188 C 
BRANCH  75  76
ATOM     76  C   UNL A   1      36.803  33.496  35.110  1.00  0.00     0.188 C 
BRANCH  76  77
ATOM     77  O   UNL A   1      36.567  34.682  34.366  1.00  0.00    -0.376 OA
BRANCH  77  78
ATOM     78  C   UNL A   1      36.795  34.571  32.961  1.00  0.00     0.202 C 
BRANCH  78  79
ATOM     79  C   UNL A   1      38.249  34.276  32.575  1.00  0.00     0.261 C 
BRANCH  79  80
ATOM     80  O   UNL A   1      38.391  33.208  31.622  1.00  0.00    -0.459 OA
BRANCH  80  81
ATOM     81  C   UNL A   1      38.597  31.947  32.080  1.00  0.00     0.349 C 
ATOM     82  O   UNL A   1      39.051  31.669  33.183  1.00  0.00    -0.245 OA
BRANCH  81  83
ATOM     83  C   UNL A   1      37.984  31.018  31.150  1.00  0.00     0.127 A 
ATOM     84  S   UNL A   1      36.299  31.204  30.819  1.00  0.00    -0.136 S 
ATOM     85  C   UNL A   1      38.514  30.006  30.376  1.00  0.00     0.050 A 
ATOM     86  C   UNL A   1      36.376  30.152  29.473  1.00  0.00     0.067 A 
ATOM     87  C   UNL A   1      37.601  29.533  29.383  1.00  0.00     0.029 A 
BRANCH  85  88
ATOM     88  S   UNL A   1      40.094  29.304  30.535  1.00  0.00    -0.020 S 
ATOM     89  O   UNL A   1      40.851  30.657  30.137  1.00  0.00    -0.768 OA
ATOM     90  O   UNL A   1      40.354  28.998  31.972  1.00  0.00    -0.269 OA
ENDBRANCH  85  88
ENDBRANCH  81  83
ENDBRANCH  80  81
ENDBRANCH  79  80
ENDBRANCH  78  79
ENDBRANCH  77  78
ENDBRANCH  76  77
ENDBRANCH  75  76
ENDBRANCH  74  75
ENDBRANCH   1  74
TORSDOF 24
ENDMDL
