MODEL 1
REMARK VINA RESULT:      -9.7      0.000      0.000
REMARK SMILES O=C(Cn1cc(S(=O)(=O)NC2COC2)cn1)OCCOCCOCCOCCOC(=O)c1ccc(-c2c3nc(c(-c4cccc(S(=O)(=O)[O-])c4F)c4ccc([nH]4)c(-c4cccc(S(=O)(=O)[O-])c4F)c4nc(c(-c5cccc(S(=O)(=O)[O-])c5F)c5ccc2[nH]5)C=C4)C=C3)cc1
REMARK SMILES IDX 22 1 21 2 20 3 19 4 18 5 17 6 2 7 1 8 3 9 4 10 5 11 16 12
REMARK SMILES IDX 6 13 15 14 7 15 8 16 9 17 10 18 11 20 12 21 14 22 13 23
REMARK SMILES IDX 23 24 24 25 25 26 26 27 27 28 28 29 29 30 30 31 31 32 32 33
REMARK SMILES IDX 33 34 94 35 34 36 93 37 35 38 36 39 37 40 87 41 38 42 92 43
REMARK SMILES IDX 86 44 88 45 39 46 91 47 85 48 84 49 40 51 72 52 52 53 71 54
REMARK SMILES IDX 53 55 56 56 70 57 89 58 54 59 55 60 69 62 90 63 57 64 41 65
REMARK SMILES IDX 42 66 50 67 43 68 45 69 51 70 44 71 46 72 47 73 48 74 49 75
REMARK SMILES IDX 73 76 74 77 82 78 75 79 77 80 83 81 76 82 78 83 79 84 80 85
REMARK SMILES IDX 81 86 58 87 59 88 67 89 60 90 62 91 68 92 61 93 63 94 64 95
REMARK SMILES IDX 65 96 66 97
REMARK H PARENT 10 19 88 50 56 61
REMARK Flexibility Score: inf
ROOT
ATOM      1  C   UNL A   1      40.916  20.245  26.238  1.00  0.00     0.188 C 
ENDROOT
BRANCH   1   2
ATOM      2  C   UNL A   1      39.448  20.454  25.838  1.00  0.00     0.188 C 
BRANCH   2   3
ATOM      3  O   UNL A   1      39.002  21.792  25.797  1.00  0.00    -0.376 OA
BRANCH   3   4
ATOM      4  C   UNL A   1      37.652  22.192  25.705  1.00  0.00     0.202 C 
BRANCH   4   5
ATOM      5  C   UNL A   1      37.289  23.633  25.372  1.00  0.00     0.261 C 
BRANCH   5   6
ATOM      6  O   UNL A   1      36.240  23.872  24.408  1.00  0.00    -0.462 OA
BRANCH   6   7
ATOM      7  C   UNL A   1      34.974  24.295  24.620  1.00  0.00     0.327 C 
ATOM      8  O   UNL A   1      34.759  25.154  25.474  1.00  0.00    -0.250 OA
BRANCH   7   9
ATOM      9  C   UNL A   1      33.842  23.705  23.827  1.00  0.00     0.266 C 
BRANCH   9  10
ATOM     10  N   UNL A   1      33.414  22.463  24.418  1.00  0.00    -0.260 N 
ATOM     11  C   UNL A   1      32.811  21.442  23.746  1.00  0.00     0.131 A 
ATOM     12  N   UNL A   1      33.809  22.123  25.662  1.00  0.00    -0.180 NA
ATOM     13  C   UNL A   1      33.021  20.333  24.526  1.00  0.00     0.120 A 
ATOM     14  C   UNL A   1      33.572  20.806  25.722  1.00  0.00     0.156 A 
BRANCH  13  15
ATOM     15  S   UNL A   1      32.741  18.719  24.071  1.00  0.00     0.244 S 
ATOM     16  O   UNL A   1      31.739  18.245  25.011  1.00  0.00    -0.207 OA
ATOM     17  O   UNL A   1      32.530  18.763  22.655  1.00  0.00    -0.207 OA
BRANCH  15  18
ATOM     18  N   UNL A   1      34.171  17.861  24.343  1.00  0.00    -0.203 NA
ATOM     19  H   UNL A   1      34.866  18.563  24.598  1.00  0.00     0.141 HD
BRANCH  18  20
ATOM     20  C   UNL A   1      34.333  16.753  25.349  1.00  0.00     0.121 C 
ATOM     21  C   UNL A   1      33.511  15.469  25.135  1.00  0.00     0.182 C 
ATOM     22  C   UNL A   1      35.528  15.792  25.229  1.00  0.00     0.182 C 
ATOM     23  O   UNL A   1      34.667  14.641  25.409  1.00  0.00    -0.378 OA
ENDBRANCH  18  20
ENDBRANCH  15  18
ENDBRANCH  13  15
ENDBRANCH   9  10
ENDBRANCH   7   9
ENDBRANCH   6   7
ENDBRANCH   5   6
ENDBRANCH   4   5
ENDBRANCH   3   4
ENDBRANCH   2   3
ENDBRANCH   1   2
BRANCH   1  24
ATOM     24  O   UNL A   1      41.637  19.173  25.658  1.00  0.00    -0.377 OA
BRANCH  24  25
ATOM     25  C   UNL A   1      42.960  18.950  26.090  1.00  0.00     0.188 C 
BRANCH  25  26
ATOM     26  C   UNL A   1      44.043  19.272  25.033  1.00  0.00     0.188 C 
BRANCH  26  27
ATOM     27  O   UNL A   1      44.878  20.427  25.017  1.00  0.00    -0.376 OA
BRANCH  27  28
ATOM     28  C   UNL A   1      44.501  21.745  24.642  1.00  0.00     0.202 C 
BRANCH  28  29
ATOM     29  C   UNL A   1      44.176  22.883  25.608  1.00  0.00     0.261 C 
BRANCH  29  30
ATOM     30  O   UNL A   1      42.801  23.106  25.750  1.00  0.00    -0.460 OA
BRANCH  30  31
ATOM     31  C   UNL A   1      42.511  24.412  25.856  1.00  0.00     0.338 C 
ATOM     32  O   UNL A   1      42.879  25.311  25.115  1.00  0.00    -0.246 OA
BRANCH  31  33
ATOM     33  C   UNL A   1      41.706  24.615  27.072  1.00  0.00     0.060 A 
ATOM     34  C   UNL A   1      40.538  25.316  26.799  1.00  0.00     0.016 A 
ATOM     35  C   UNL A   1      42.396  24.714  28.289  1.00  0.00     0.016 A 
ATOM     36  C   UNL A   1      40.373  26.472  27.500  1.00  0.00     0.010 A 
ATOM     37  C   UNL A   1      42.232  25.870  28.994  1.00  0.00     0.010 A 
ATOM     38  C   UNL A   1      41.311  26.781  28.495  1.00  0.00    -0.014 A 
BRANCH  38  39
ATOM     39  C   UNL A   1      41.218  28.093  29.065  1.00  0.00     0.031 A 
ATOM     40  C   UNL A   1      42.238  28.977  28.488  1.00  0.00     0.074 A 
ATOM     41  C   UNL A   1      40.299  28.419  29.986  1.00  0.00     0.049 A 
ATOM     42  N   UNL A   1      43.332  29.370  29.045  1.00  0.00    -0.248 NA
ATOM     43  C   UNL A   1      42.167  29.205  27.037  1.00  0.00     0.031 C 
ATOM     44  C   UNL A   1      39.099  27.679  30.381  1.00  0.00     0.029 A 
ATOM     45  N   UNL A   1      40.185  29.589  30.661  1.00  0.00    -0.354 N 
ATOM     46  C   UNL A   1      43.964  30.125  28.067  1.00  0.00     0.074 A 
ATOM     47  C   UNL A   1      43.361  29.751  26.818  1.00  0.00     0.031 C 
ATOM     48  C   UNL A   1      38.252  28.533  31.003  1.00  0.00     0.029 A 
ATOM     49  C   UNL A   1      38.910  29.823  31.150  1.00  0.00     0.049 A 
ATOM     50  H   UNL A   1      40.936  30.213  30.789  1.00  0.00     0.167 HD
ATOM     51  C   UNL A   1      44.677  31.228  28.411  1.00  0.00     0.034 A 
ATOM     52  C   UNL A   1      38.424  31.033  31.515  1.00  0.00     0.034 A 
ATOM     53  C   UNL A   1      45.033  31.196  29.811  1.00  0.00     0.049 A 
ATOM     54  C   UNL A   1      39.589  31.928  31.743  1.00  0.00     0.074 A 
ATOM     55  C   UNL A   1      45.736  30.327  30.621  1.00  0.00     0.029 A 
ATOM     56  N   UNL A   1      44.292  31.990  30.655  1.00  0.00    -0.354 N 
ATOM     57  N   UNL A   1      40.443  31.773  32.717  1.00  0.00    -0.248 NA
ATOM     58  C   UNL A   1      40.057  32.742  30.630  1.00  0.00     0.031 C 
ATOM     59  C   UNL A   1      45.066  30.359  31.879  1.00  0.00     0.029 A 
ATOM     60  C   UNL A   1      44.017  31.277  31.789  1.00  0.00     0.049 A 
ATOM     61  H   UNL A   1      44.007  32.916  30.474  1.00  0.00     0.167 HD
ATOM     62  C   UNL A   1      41.677  32.072  32.149  1.00  0.00     0.074 A 
ATOM     63  C   UNL A   1      41.363  32.778  30.910  1.00  0.00     0.031 C 
ATOM     64  C   UNL A   1      42.819  31.458  32.584  1.00  0.00     0.034 A 
BRANCH  51  65
ATOM     65  C   UNL A   1      44.648  32.524  27.625  1.00  0.00     0.023 A 
ATOM     66  C   UNL A   1      45.773  32.783  26.812  1.00  0.00     0.012 A 
ATOM     67  C   UNL A   1      43.771  33.612  27.859  1.00  0.00     0.148 A 
ATOM     68  C   UNL A   1      46.069  34.070  26.358  1.00  0.00     0.002 A 
ATOM     69  C   UNL A   1      44.035  34.877  27.352  1.00  0.00     0.091 A 
ATOM     70  F   UNL A   1      42.720  33.487  28.667  1.00  0.00    -0.205 F 
ATOM     71  C   UNL A   1      45.205  35.121  26.634  1.00  0.00     0.022 A 
BRANCH  69  72
ATOM     72  S   UNL A   1      42.928  36.261  27.660  1.00  0.00     0.127 S 
ATOM     73  O   UNL A   1      43.063  36.422  29.105  1.00  0.00    -0.237 OA
ATOM     74  O   UNL A   1      43.541  37.316  26.855  1.00  0.00    -0.237 OA
ATOM     75  O   UNL A   1      41.616  35.837  27.186  1.00  0.00    -0.744 OA
ENDBRANCH  69  72
ENDBRANCH  51  65
BRANCH  52  76
ATOM     76  C   UNL A   1      37.045  31.554  31.382  1.00  0.00     0.023 A 
ATOM     77  C   UNL A   1      36.406  32.105  32.508  1.00  0.00     0.012 A 
ATOM     78  C   UNL A   1      36.454  31.756  30.113  1.00  0.00     0.148 A 
ATOM     79  C   UNL A   1      35.232  32.857  32.374  1.00  0.00     0.002 A 
ATOM     80  C   UNL A   1      35.279  32.490  29.986  1.00  0.00     0.091 A 
ATOM     81  F   UNL A   1      37.090  31.312  29.022  1.00  0.00    -0.205 F 
ATOM     82  C   UNL A   1      34.672  33.053  31.115  1.00  0.00     0.022 A 
BRANCH  80  83
ATOM     83  S   UNL A   1      34.507  32.791  28.390  1.00  0.00     0.127 S 
ATOM     84  O   UNL A   1      34.359  31.433  27.863  1.00  0.00    -0.237 OA
ATOM     85  O   UNL A   1      33.255  33.437  28.778  1.00  0.00    -0.237 OA
ATOM     86  O   UNL A   1      35.444  33.622  27.644  1.00  0.00    -0.744 OA
ENDBRANCH  80  83
ENDBRANCH  52  76
BRANCH  64  87
ATOM     87  C   UNL A   1      42.757  30.677  33.873  1.00  0.00     0.023 A 
ATOM     88  C   UNL A   1      42.857  31.298  35.135  1.00  0.00     0.012 A 
ATOM     89  C   UNL A   1      42.412  29.317  33.809  1.00  0.00     0.148 A 
ATOM     90  C   UNL A   1      42.638  30.571  36.309  1.00  0.00     0.002 A 
ATOM     91  C   UNL A   1      42.147  28.609  34.976  1.00  0.00     0.091 A 
ATOM     92  F   UNL A   1      42.318  28.742  32.600  1.00  0.00    -0.205 F 
ATOM     93  C   UNL A   1      42.269  29.230  36.228  1.00  0.00     0.022 A 
BRANCH  91  94
ATOM     94  S   UNL A   1      41.537  26.922  34.926  1.00  0.00     0.127 S 
ATOM     95  O   UNL A   1      40.418  27.029  33.992  1.00  0.00    -0.237 OA
ATOM     96  O   UNL A   1      42.692  26.182  34.414  1.00  0.00    -0.237 OA
ATOM     97  O   UNL A   1      41.181  26.586  36.300  1.00  0.00    -0.744 OA
ENDBRANCH  91  94
ENDBRANCH  64  87
ENDBRANCH  38  39
ENDBRANCH  31  33
ENDBRANCH  30  31
ENDBRANCH  29  30
ENDBRANCH  28  29
ENDBRANCH  27  28
ENDBRANCH  26  27
ENDBRANCH  25  26
ENDBRANCH  24  25
ENDBRANCH   1  24
TORSDOF 27
ENDMDL
MODEL 2
REMARK VINA RESULT:      -9.2      2.567      4.406
REMARK SMILES O=C(Cn1cc(S(=O)(=O)NC2COC2)cn1)OCCOCCOCCOCCOC(=O)c1ccc(-c2c3nc(c(-c4cccc(S(=O)(=O)[O-])c4F)c4ccc([nH]4)c(-c4cccc(S(=O)(=O)[O-])c4F)c4nc(c(-c5cccc(S(=O)(=O)[O-])c5F)c5ccc2[nH]5)C=C4)C=C3)cc1
REMARK SMILES IDX 22 1 21 2 20 3 19 4 18 5 17 6 2 7 1 8 3 9 4 10 5 11 16 12
REMARK SMILES IDX 6 13 15 14 7 15 8 16 9 17 10 18 11 20 12 21 14 22 13 23
REMARK SMILES IDX 23 24 24 25 25 26 26 27 27 28 28 29 29 30 30 31 31 32 32 33
REMARK SMILES IDX 33 34 94 35 34 36 93 37 35 38 36 39 37 40 87 41 38 42 92 43
REMARK SMILES IDX 86 44 88 45 39 46 91 47 85 48 84 49 40 51 72 52 52 53 71 54
REMARK SMILES IDX 53 55 56 56 70 57 89 58 54 59 55 60 69 62 90 63 57 64 41 65
REMARK SMILES IDX 42 66 50 67 43 68 45 69 51 70 44 71 46 72 47 73 48 74 49 75
REMARK SMILES IDX 73 76 74 77 82 78 75 79 77 80 83 81 76 82 78 83 79 84 80 85
REMARK SMILES IDX 81 86 58 87 59 88 67 89 60 90 62 91 68 92 61 93 63 94 64 95
REMARK SMILES IDX 65 96 66 97
REMARK H PARENT 10 19 88 50 56 61
REMARK Flexibility Score: inf
ROOT
ATOM      1  C   UNL A   1      40.083  20.232  25.943  1.00  0.00     0.188 C 
ENDROOT
BRANCH   1   2
ATOM      2  C   UNL A   1      38.675  20.103  25.347  1.00  0.00     0.188 C 
BRANCH   2   3
ATOM      3  O   UNL A   1      37.926  21.296  25.263  1.00  0.00    -0.376 OA
BRANCH   3   4
ATOM      4  C   UNL A   1      36.517  21.367  25.241  1.00  0.00     0.202 C 
BRANCH   4   5
ATOM      5  C   UNL A   1      35.809  22.627  24.758  1.00  0.00     0.261 C 
BRANCH   5   6
ATOM      6  O   UNL A   1      34.464  22.504  24.246  1.00  0.00    -0.462 OA
BRANCH   6   7
ATOM      7  C   UNL A   1      33.828  23.282  23.342  1.00  0.00     0.327 C 
ATOM      8  O   UNL A   1      34.404  23.593  22.301  1.00  0.00    -0.250 OA
BRANCH   7   9
ATOM      9  C   UNL A   1      32.434  23.769  23.620  1.00  0.00     0.266 C 
BRANCH   9  10
ATOM     10  N   UNL A   1      32.474  25.085  24.206  1.00  0.00    -0.260 N 
ATOM     11  C   UNL A   1      32.970  26.199  23.598  1.00  0.00     0.131 A 
ATOM     12  N   UNL A   1      31.785  25.354  25.334  1.00  0.00    -0.180 NA
ATOM     13  C   UNL A   1      32.388  27.251  24.260  1.00  0.00     0.120 A 
ATOM     14  C   UNL A   1      31.727  26.692  25.359  1.00  0.00     0.156 A 
BRANCH  13  15
ATOM     15  S   UNL A   1      32.410  28.878  23.771  1.00  0.00     0.244 S 
ATOM     16  O   UNL A   1      33.055  29.580  24.869  1.00  0.00    -0.207 OA
ATOM     17  O   UNL A   1      32.931  28.859  22.437  1.00  0.00    -0.207 OA
BRANCH  15  18
ATOM     18  N   UNL A   1      30.806  29.401  23.680  1.00  0.00    -0.203 NA
ATOM     19  H   UNL A   1      30.836  30.406  23.851  1.00  0.00     0.141 HD
BRANCH  18  20
ATOM     20  C   UNL A   1      29.907  29.225  22.485  1.00  0.00     0.121 C 
ATOM     21  C   UNL A   1      28.412  28.974  22.747  1.00  0.00     0.182 C 
ATOM     22  C   UNL A   1      29.384  30.466  21.743  1.00  0.00     0.182 C 
ATOM     23  O   UNL A   1      28.036  29.935  21.733  1.00  0.00    -0.378 OA
ENDBRANCH  18  20
ENDBRANCH  15  18
ENDBRANCH  13  15
ENDBRANCH   9  10
ENDBRANCH   7   9
ENDBRANCH   6   7
ENDBRANCH   5   6
ENDBRANCH   4   5
ENDBRANCH   3   4
ENDBRANCH   2   3
ENDBRANCH   1   2
BRANCH   1  24
ATOM     24  O   UNL A   1      41.022  19.198  25.711  1.00  0.00    -0.377 OA
BRANCH  24  25
ATOM     25  C   UNL A   1      42.295  19.307  26.306  1.00  0.00     0.188 C 
BRANCH  25  26
ATOM     26  C   UNL A   1      43.479  19.182  25.318  1.00  0.00     0.188 C 
BRANCH  26  27
ATOM     27  O   UNL A   1      44.602  20.056  25.245  1.00  0.00    -0.376 OA
BRANCH  27  28
ATOM     28  C   UNL A   1      44.626  21.370  24.702  1.00  0.00     0.202 C 
BRANCH  28  29
ATOM     29  C   UNL A   1      44.284  22.649  25.465  1.00  0.00     0.261 C 
BRANCH  29  30
ATOM     30  O   UNL A   1      42.906  22.875  25.568  1.00  0.00    -0.460 OA
BRANCH  30  31
ATOM     31  C   UNL A   1      42.614  24.182  25.653  1.00  0.00     0.338 C 
ATOM     32  O   UNL A   1      43.065  25.083  24.963  1.00  0.00    -0.246 OA
BRANCH  31  33
ATOM     33  C   UNL A   1      41.686  24.381  26.777  1.00  0.00     0.060 A 
ATOM     34  C   UNL A   1      40.602  25.170  26.411  1.00  0.00     0.016 A 
ATOM     35  C   UNL A   1      42.233  24.377  28.069  1.00  0.00     0.016 A 
ATOM     36  C   UNL A   1      40.426  26.301  27.149  1.00  0.00     0.010 A 
ATOM     37  C   UNL A   1      42.057  25.508  28.811  1.00  0.00     0.010 A 
ATOM     38  C   UNL A   1      41.257  26.500  28.260  1.00  0.00    -0.014 A 
BRANCH  38  39
ATOM     39  C   UNL A   1      41.177  27.788  28.885  1.00  0.00     0.031 A 
ATOM     40  C   UNL A   1      42.232  28.672  28.375  1.00  0.00     0.074 A 
ATOM     41  C   UNL A   1      40.240  28.095  29.794  1.00  0.00     0.049 A 
ATOM     42  N   UNL A   1      43.318  29.015  28.979  1.00  0.00    -0.248 NA
ATOM     43  C   UNL A   1      42.208  28.965  26.935  1.00  0.00     0.031 C 
ATOM     44  C   UNL A   1      39.013  27.366  30.123  1.00  0.00     0.029 A 
ATOM     45  N   UNL A   1      40.133  29.236  30.517  1.00  0.00    -0.354 N 
ATOM     46  C   UNL A   1      43.994  29.797  28.053  1.00  0.00     0.074 A 
ATOM     47  C   UNL A   1      43.419  29.493  26.773  1.00  0.00     0.031 C 
ATOM     48  C   UNL A   1      38.168  28.212  30.759  1.00  0.00     0.029 A 
ATOM     49  C   UNL A   1      38.850  29.478  30.981  1.00  0.00     0.049 A 
ATOM     50  H   UNL A   1      40.893  29.836  30.693  1.00  0.00     0.167 HD
ATOM     51  C   UNL A   1      44.721  30.868  28.465  1.00  0.00     0.034 A 
ATOM     52  C   UNL A   1      38.381  30.682  31.386  1.00  0.00     0.034 A 
ATOM     53  C   UNL A   1      45.037  30.766  29.872  1.00  0.00     0.049 A 
ATOM     54  C   UNL A   1      39.558  31.539  31.685  1.00  0.00     0.074 A 
ATOM     55  C   UNL A   1      45.698  29.846  30.661  1.00  0.00     0.029 A 
ATOM     56  N   UNL A   1      44.290  31.539  30.730  1.00  0.00    -0.354 N 
ATOM     57  N   UNL A   1      40.380  31.321  32.674  1.00  0.00    -0.248 NA
ATOM     58  C   UNL A   1      40.075  32.390  30.623  1.00  0.00     0.031 C 
ATOM     59  C   UNL A   1      44.993  29.838  31.901  1.00  0.00     0.029 A 
ATOM     60  C   UNL A   1      43.967  30.784  31.823  1.00  0.00     0.049 A 
ATOM     61  H   UNL A   1      44.031  32.478  30.582  1.00  0.00     0.167 HD
ATOM     62  C   UNL A   1      41.637  31.617  32.154  1.00  0.00     0.074 A 
ATOM     63  C   UNL A   1      41.373  32.383  30.939  1.00  0.00     0.031 C 
ATOM     64  C   UNL A   1      42.751  30.957  32.592  1.00  0.00     0.034 A 
BRANCH  51  65
ATOM     65  C   UNL A   1      44.743  32.197  27.738  1.00  0.00     0.023 A 
ATOM     66  C   UNL A   1      45.868  32.438  26.918  1.00  0.00     0.012 A 
ATOM     67  C   UNL A   1      43.922  33.314  28.033  1.00  0.00     0.148 A 
ATOM     68  C   UNL A   1      46.219  33.729  26.516  1.00  0.00     0.002 A 
ATOM     69  C   UNL A   1      44.240  34.586  27.577  1.00  0.00     0.091 A 
ATOM     70  F   UNL A   1      42.878  33.202  28.851  1.00  0.00    -0.205 F 
ATOM     71  C   UNL A   1      45.409  34.806  26.852  1.00  0.00     0.022 A 
BRANCH  69  72
ATOM     72  S   UNL A   1      43.204  36.005  27.964  1.00  0.00     0.127 S 
ATOM     73  O   UNL A   1      41.896  35.540  27.510  1.00  0.00    -0.237 OA
ATOM     74  O   UNL A   1      43.362  36.101  29.414  1.00  0.00    -0.237 OA
ATOM     75  O   UNL A   1      43.772  37.128  27.228  1.00  0.00    -0.744 OA
ENDBRANCH  69  72
ENDBRANCH  51  65
BRANCH  52  76
ATOM     76  C   UNL A   1      37.018  31.240  31.239  1.00  0.00     0.023 A 
ATOM     77  C   UNL A   1      36.356  31.748  32.372  1.00  0.00     0.012 A 
ATOM     78  C   UNL A   1      36.471  31.520  29.965  1.00  0.00     0.148 A 
ATOM     79  C   UNL A   1      35.203  32.533  32.241  1.00  0.00     0.002 A 
ATOM     80  C   UNL A   1      35.316  32.286  29.841  1.00  0.00     0.091 A 
ATOM     81  F   UNL A   1      37.131  31.117  28.872  1.00  0.00    -0.205 F 
ATOM     82  C   UNL A   1      34.687  32.805  30.978  1.00  0.00     0.022 A 
BRANCH  80  83
ATOM     83  S   UNL A   1      34.601  32.685  28.240  1.00  0.00     0.127 S 
ATOM     84  O   UNL A   1      33.514  33.593  28.611  1.00  0.00    -0.237 OA
ATOM     85  O   UNL A   1      35.724  33.323  27.558  1.00  0.00    -0.237 OA
ATOM     86  O   UNL A   1      34.154  31.418  27.675  1.00  0.00    -0.744 OA
ENDBRANCH  80  83
ENDBRANCH  52  76
BRANCH  64  87
ATOM     87  C   UNL A   1      42.637  30.123  33.843  1.00  0.00     0.023 A 
ATOM     88  C   UNL A   1      42.115  28.813  33.830  1.00  0.00     0.012 A 
ATOM     89  C   UNL A   1      43.234  30.606  35.019  1.00  0.00     0.148 A 
ATOM     90  C   UNL A   1      42.169  28.010  34.973  1.00  0.00     0.002 A 
ATOM     91  C   UNL A   1      43.329  29.788  36.139  1.00  0.00     0.091 A 
ATOM     92  F   UNL A   1      43.728  31.853  35.015  1.00  0.00    -0.205 F 
ATOM     93  C   UNL A   1      42.790  28.493  36.123  1.00  0.00     0.022 A 
BRANCH  91  94
ATOM     94  S   UNL A   1      44.235  30.306  37.600  1.00  0.00     0.127 S 
ATOM     95  O   UNL A   1      43.269  31.179  38.264  1.00  0.00    -0.237 OA
ATOM     96  O   UNL A   1      44.483  29.036  38.285  1.00  0.00    -0.237 OA
ATOM     97  O   UNL A   1      45.442  30.960  37.110  1.00  0.00    -0.744 OA
ENDBRANCH  91  94
ENDBRANCH  64  87
ENDBRANCH  38  39
ENDBRANCH  31  33
ENDBRANCH  30  31
ENDBRANCH  29  30
ENDBRANCH  28  29
ENDBRANCH  27  28
ENDBRANCH  26  27
ENDBRANCH  25  26
ENDBRANCH  24  25
ENDBRANCH   1  24
TORSDOF 27
ENDMDL
MODEL 3
REMARK VINA RESULT:      -8.9      2.530      3.340
REMARK SMILES O=C(Cn1cc(S(=O)(=O)NC2COC2)cn1)OCCOCCOCCOCCOC(=O)c1ccc(-c2c3nc(c(-c4cccc(S(=O)(=O)[O-])c4F)c4ccc([nH]4)c(-c4cccc(S(=O)(=O)[O-])c4F)c4nc(c(-c5cccc(S(=O)(=O)[O-])c5F)c5ccc2[nH]5)C=C4)C=C3)cc1
REMARK SMILES IDX 22 1 21 2 20 3 19 4 18 5 17 6 2 7 1 8 3 9 4 10 5 11 16 12
REMARK SMILES IDX 6 13 15 14 7 15 8 16 9 17 10 18 11 20 12 21 14 22 13 23
REMARK SMILES IDX 23 24 24 25 25 26 26 27 27 28 28 29 29 30 30 31 31 32 32 33
REMARK SMILES IDX 33 34 94 35 34 36 93 37 35 38 36 39 37 40 87 41 38 42 92 43
REMARK SMILES IDX 86 44 88 45 39 46 91 47 85 48 84 49 40 51 72 52 52 53 71 54
REMARK SMILES IDX 53 55 56 56 70 57 89 58 54 59 55 60 69 62 90 63 57 64 41 65
REMARK SMILES IDX 42 66 50 67 43 68 45 69 51 70 44 71 46 72 47 73 48 74 49 75
REMARK SMILES IDX 73 76 74 77 82 78 75 79 77 80 83 81 76 82 78 83 79 84 80 85
REMARK SMILES IDX 81 86 58 87 59 88 67 89 60 90 62 91 68 92 61 93 63 94 64 95
REMARK SMILES IDX 65 96 66 97
REMARK H PARENT 10 19 88 50 56 61
REMARK Flexibility Score: inf
ROOT
ATOM      1  C   UNL A   1      37.662  22.007  25.718  1.00  0.00     0.188 C 
ENDROOT
BRANCH   1   2
ATOM      2  C   UNL A   1      37.592  23.526  25.512  1.00  0.00     0.188 C 
BRANCH   2   3
ATOM      3  O   UNL A   1      36.521  23.995  24.722  1.00  0.00    -0.376 OA
BRANCH   3   4
ATOM      4  C   UNL A   1      35.647  23.176  23.975  1.00  0.00     0.202 C 
BRANCH   4   5
ATOM      5  C   UNL A   1      34.293  23.700  23.515  1.00  0.00     0.261 C 
BRANCH   5   6
ATOM      6  O   UNL A   1      34.260  24.661  22.436  1.00  0.00    -0.462 OA
BRANCH   6   7
ATOM      7  C   UNL A   1      33.303  25.567  22.137  1.00  0.00     0.327 C 
ATOM      8  O   UNL A   1      33.624  26.731  21.903  1.00  0.00    -0.250 OA
BRANCH   7   9
ATOM      9  C   UNL A   1      31.860  25.151  22.106  1.00  0.00     0.266 C 
BRANCH   9  10
ATOM     10  N   UNL A   1      31.323  25.116  23.443  1.00  0.00    -0.260 N 
ATOM     11  C   UNL A   1      30.660  24.060  23.994  1.00  0.00     0.131 A 
ATOM     12  N   UNL A   1      31.660  26.063  24.342  1.00  0.00    -0.180 NA
ATOM     13  C   UNL A   1      30.766  24.246  25.350  1.00  0.00     0.120 A 
ATOM     14  C   UNL A   1      31.322  25.518  25.518  1.00  0.00     0.156 A 
BRANCH  13  15
ATOM     15  S   UNL A   1      30.374  23.108  26.550  1.00  0.00     0.244 S 
ATOM     16  O   UNL A   1      29.476  23.820  27.446  1.00  0.00    -0.207 OA
ATOM     17  O   UNL A   1      29.995  21.928  25.835  1.00  0.00    -0.207 OA
BRANCH  15  18
ATOM     18  N   UNL A   1      31.793  22.756  27.395  1.00  0.00    -0.203 NA
ATOM     19  H   UNL A   1      31.569  21.952  27.983  1.00  0.00     0.141 HD
BRANCH  18  20
ATOM     20  C   UNL A   1      33.117  22.429  26.758  1.00  0.00     0.121 C 
ATOM     21  C   UNL A   1      34.393  22.886  27.487  1.00  0.00     0.182 C 
ATOM     22  C   UNL A   1      33.725  21.028  26.953  1.00  0.00     0.182 C 
ATOM     23  O   UNL A   1      35.017  21.596  27.280  1.00  0.00    -0.378 OA
ENDBRANCH  18  20
ENDBRANCH  15  18
ENDBRANCH  13  15
ENDBRANCH   9  10
ENDBRANCH   7   9
ENDBRANCH   6   7
ENDBRANCH   5   6
ENDBRANCH   4   5
ENDBRANCH   3   4
ENDBRANCH   2   3
ENDBRANCH   1   2
BRANCH   1  24
ATOM     24  O   UNL A   1      37.987  21.180  24.615  1.00  0.00    -0.377 OA
BRANCH  24  25
ATOM     25  C   UNL A   1      37.856  19.785  24.766  1.00  0.00     0.188 C 
BRANCH  25  26
ATOM     26  C   UNL A   1      38.902  19.140  25.705  1.00  0.00     0.188 C 
BRANCH  26  27
ATOM     27  O   UNL A   1      40.317  19.288  25.607  1.00  0.00    -0.376 OA
BRANCH  27  28
ATOM     28  C   UNL A   1      41.124  20.233  26.296  1.00  0.00     0.202 C 
BRANCH  28  29
ATOM     29  C   UNL A   1      41.390  21.668  25.843  1.00  0.00     0.261 C 
BRANCH  29  30
ATOM     30  O   UNL A   1      42.363  22.315  26.614  1.00  0.00    -0.460 OA
BRANCH  30  31
ATOM     31  C   UNL A   1      41.834  23.268  27.397  1.00  0.00     0.338 C 
ATOM     32  O   UNL A   1      41.163  23.104  28.405  1.00  0.00    -0.246 OA
BRANCH  31  33
ATOM     33  C   UNL A   1      42.142  24.581  26.808  1.00  0.00     0.060 A 
ATOM     34  C   UNL A   1      43.286  25.136  27.370  1.00  0.00     0.016 A 
ATOM     35  C   UNL A   1      41.062  25.347  26.348  1.00  0.00     0.016 A 
ATOM     36  C   UNL A   1      43.120  26.361  27.943  1.00  0.00     0.010 A 
ATOM     37  C   UNL A   1      40.894  26.574  26.919  1.00  0.00     0.010 A 
ATOM     38  C   UNL A   1      41.874  26.988  27.812  1.00  0.00    -0.014 A 
BRANCH  38  39
ATOM     39  C   UNL A   1      41.677  28.172  28.596  1.00  0.00     0.031 A 
ATOM     40  C   UNL A   1      42.700  29.175  28.275  1.00  0.00     0.074 A 
ATOM     41  C   UNL A   1      40.674  28.300  29.477  1.00  0.00     0.049 A 
ATOM     42  N   UNL A   1      43.727  29.493  28.986  1.00  0.00    -0.248 NA
ATOM     43  C   UNL A   1      42.736  29.659  26.888  1.00  0.00     0.031 C 
ATOM     44  C   UNL A   1      39.480  27.465  29.628  1.00  0.00     0.029 A 
ATOM     45  N   UNL A   1      40.454  29.324  30.335  1.00  0.00    -0.354 N 
ATOM     46  C   UNL A   1      44.402  30.430  28.217  1.00  0.00     0.074 A 
ATOM     47  C   UNL A   1      43.919  30.271  26.874  1.00  0.00     0.031 C 
ATOM     48  C   UNL A   1      38.549  28.168  30.315  1.00  0.00     0.029 A 
ATOM     49  C   UNL A   1      39.135  29.428  30.746  1.00  0.00     0.049 A 
ATOM     50  H   UNL A   1      41.164  29.936  30.638  1.00  0.00     0.167 HD
ATOM     51  C   UNL A   1      45.035  31.473  28.812  1.00  0.00     0.034 A 
ATOM     52  C   UNL A   1      38.568  30.538  31.277  1.00  0.00     0.034 A 
ATOM     53  C   UNL A   1      45.278  31.199  30.210  1.00  0.00     0.049 A 
ATOM     54  C   UNL A   1      39.671  31.411  31.760  1.00  0.00     0.074 A 
ATOM     55  C   UNL A   1      45.953  30.219  30.910  1.00  0.00     0.029 A 
ATOM     56  N   UNL A   1      44.438  31.806  31.114  1.00  0.00    -0.354 N 
ATOM     57  N   UNL A   1      40.449  31.107  32.761  1.00  0.00    -0.248 NA
ATOM     58  C   UNL A   1      40.190  32.426  30.855  1.00  0.00     0.031 C 
ATOM     59  C   UNL A   1      45.183  30.003  32.091  1.00  0.00     0.029 A 
ATOM     60  C   UNL A   1      44.104  30.892  32.075  1.00  0.00     0.049 A 
ATOM     61  H   UNL A   1      44.128  32.740  31.075  1.00  0.00     0.167 HD
ATOM     62  C   UNL A   1      41.711  31.540  32.366  1.00  0.00     0.074 A 
ATOM     63  C   UNL A   1      41.466  32.449  31.249  1.00  0.00     0.031 C 
ATOM     64  C   UNL A   1      42.840  30.891  32.782  1.00  0.00     0.034 A 
BRANCH  51  65
ATOM     65  C   UNL A   1      45.012  32.889  28.270  1.00  0.00     0.023 A 
ATOM     66  C   UNL A   1      43.735  33.443  28.034  1.00  0.00     0.012 A 
ATOM     67  C   UNL A   1      46.116  33.574  27.703  1.00  0.00     0.148 A 
ATOM     68  C   UNL A   1      43.557  34.542  27.190  1.00  0.00     0.002 A 
ATOM     69  C   UNL A   1      45.939  34.704  26.917  1.00  0.00     0.091 A 
ATOM     70  F   UNL A   1      47.353  33.093  27.811  1.00  0.00    -0.205 F 
ATOM     71  C   UNL A   1      44.659  35.169  26.623  1.00  0.00     0.022 A 
BRANCH  69  72
ATOM     72  S   UNL A   1      47.340  35.565  26.186  1.00  0.00     0.127 S 
ATOM     73  O   UNL A   1      47.678  34.678  25.078  1.00  0.00    -0.237 OA
ATOM     74  O   UNL A   1      46.737  36.840  25.802  1.00  0.00    -0.237 OA
ATOM     75  O   UNL A   1      48.339  35.674  27.243  1.00  0.00    -0.744 OA
ENDBRANCH  69  72
ENDBRANCH  51  65
BRANCH  52  76
ATOM     76  C   UNL A   1      37.183  31.034  31.119  1.00  0.00     0.023 A 
ATOM     77  C   UNL A   1      36.464  31.444  32.258  1.00  0.00     0.012 A 
ATOM     78  C   UNL A   1      36.657  31.357  29.846  1.00  0.00     0.148 A 
ATOM     79  C   UNL A   1      35.276  32.175  32.135  1.00  0.00     0.002 A 
ATOM     80  C   UNL A   1      35.468  32.069  29.729  1.00  0.00     0.091 A 
ATOM     81  F   UNL A   1      37.367  31.050  28.753  1.00  0.00    -0.205 F 
ATOM     82  C   UNL A   1      34.781  32.491  30.874  1.00  0.00     0.022 A 
BRANCH  80  83
ATOM     83  S   UNL A   1      34.777  32.521  28.132  1.00  0.00     0.127 S 
ATOM     84  O   UNL A   1      33.592  33.288  28.520  1.00  0.00    -0.237 OA
ATOM     85  O   UNL A   1      35.856  33.315  27.549  1.00  0.00    -0.237 OA
ATOM     86  O   UNL A   1      34.479  31.264  27.456  1.00  0.00    -0.744 OA
ENDBRANCH  80  83
ENDBRANCH  52  76
BRANCH  64  87
ATOM     87  C   UNL A   1      42.710  29.889  33.901  1.00  0.00     0.023 A 
ATOM     88  C   UNL A   1      42.091  28.634  33.723  1.00  0.00     0.012 A 
ATOM     89  C   UNL A   1      43.386  30.149  35.105  1.00  0.00     0.148 A 
ATOM     90  C   UNL A   1      42.127  27.669  34.732  1.00  0.00     0.002 A 
ATOM     91  C   UNL A   1      43.461  29.168  36.088  1.00  0.00     0.091 A 
ATOM     92  F   UNL A   1      43.972  31.345  35.259  1.00  0.00    -0.205 F 
ATOM     93  C   UNL A   1      42.826  27.931  35.909  1.00  0.00     0.022 A 
BRANCH  91  94
ATOM     94  S   UNL A   1      44.459  29.399  37.562  1.00  0.00     0.127 S 
ATOM     95  O   UNL A   1      44.359  28.090  38.205  1.00  0.00    -0.237 OA
ATOM     96  O   UNL A   1      45.778  29.708  37.007  1.00  0.00    -0.237 OA
ATOM     97  O   UNL A   1      43.848  30.505  38.288  1.00  0.00    -0.744 OA
ENDBRANCH  91  94
ENDBRANCH  64  87
ENDBRANCH  38  39
ENDBRANCH  31  33
ENDBRANCH  30  31
ENDBRANCH  29  30
ENDBRANCH  28  29
ENDBRANCH  27  28
ENDBRANCH  26  27
ENDBRANCH  25  26
ENDBRANCH  24  25
ENDBRANCH   1  24
TORSDOF 27
ENDMDL
