MODEL 1
REMARK VINA RESULT:      -7.1      0.000      0.000
REMARK SMILES C[C@@H](C(=O)OCCOCCOCCOCCOC(=O)c1ccc(-c2c3nc(c(-c4cccc(S(=O)(=O)[O-])c4F)c4ccc([nH]4)c(-c4cccc(S(=O)(=O)[O-])c4F)c4nc(c(-c5cccc(S(=O)(=O)[O-])c5F)c5ccc2[nH]5)C=C4)C=C3)cc1)c1ccc(-c2cccc(OC(=O)NCCC3CCCCC3)c2)c(F)c1
REMARK SMILES IDX 9 1 8 2 7 3 6 4 5 5 3 6 4 7 2 8 1 9 83 10 84 11 107 12 85 13
REMARK SMILES IDX 105 14 86 15 106 16 87 17 88 18 104 19 89 20 91 21 90 22
REMARK SMILES IDX 92 23 93 24 94 25 95 26 96 28 97 29 98 30 99 31 103 32
REMARK SMILES IDX 100 33 102 34 101 35 10 36 11 37 12 38 13 39 14 40 15 41
REMARK SMILES IDX 16 42 17 43 18 44 19 45 20 46 21 47 82 48 22 49 81 50 23 51
REMARK SMILES IDX 24 52 25 53 75 54 26 55 80 56 74 57 76 58 27 59 79 60 73 61
REMARK SMILES IDX 72 62 28 64 60 65 40 66 59 67 41 68 44 69 58 70 77 71 42 72
REMARK SMILES IDX 43 73 57 75 78 76 45 77 29 78 30 79 38 80 31 81 33 82 39 83
REMARK SMILES IDX 32 84 34 85 35 86 36 87 37 88 61 89 62 90 70 91 63 92 65 93
REMARK SMILES IDX 71 94 64 95 66 96 67 97 68 98 69 99 46 100 47 101 55 102
REMARK SMILES IDX 48 103 50 104 56 105 49 106 51 107 52 108 53 109 54 110
REMARK H PARENT 95 27 76 63 44 74
REMARK Flexibility Score: inf
ROOT
ATOM      1  C   UNL A   1      45.148  41.955  37.307  1.00  0.00     0.188 C 
ENDROOT
BRANCH   1   2
ATOM      2  O   UNL A   1      44.038  42.596  36.697  1.00  0.00    -0.376 OA
BRANCH   2   3
ATOM      3  C   UNL A   1      43.599  42.173  35.413  1.00  0.00     0.202 C 
BRANCH   3   4
ATOM      4  C   UNL A   1      43.751  43.062  34.159  1.00  0.00     0.261 C 
BRANCH   4   5
ATOM      5  O   UNL A   1      43.800  42.405  32.875  1.00  0.00    -0.463 OA
BRANCH   5   6
ATOM      6  C   UNL A   1      43.385  43.121  31.800  1.00  0.00     0.313 C 
ATOM      7  O   UNL A   1      42.382  43.831  31.804  1.00  0.00    -0.252 OA
BRANCH   6   8
ATOM      8  C   UNL A   1      44.292  42.987  30.556  1.00  0.00     0.126 C 
ATOM      9  C   UNL A   1      44.599  44.228  29.711  1.00  0.00     0.025 C 
BRANCH   8  10
ATOM     10  C   UNL A   1      43.868  41.787  29.704  1.00  0.00    -0.031 A 
ATOM     11  C   UNL A   1      42.784  40.950  30.021  1.00  0.00     0.005 A 
ATOM     12  C   UNL A   1      44.659  41.432  28.610  1.00  0.00     0.044 A 
ATOM     13  C   UNL A   1      42.562  39.746  29.338  1.00  0.00     0.012 A 
ATOM     14  C   UNL A   1      44.411  40.256  27.910  1.00  0.00     0.131 A 
ATOM     15  C   UNL A   1      43.393  39.362  28.281  1.00  0.00     0.018 A 
ATOM     16  F   UNL A   1      45.213  39.973  26.871  1.00  0.00    -0.206 F 
BRANCH  15  17
ATOM     17  C   UNL A   1      43.280  38.035  27.650  1.00  0.00    -0.012 A 
ATOM     18  C   UNL A   1      42.055  37.473  27.265  1.00  0.00     0.009 A 
ATOM     19  C   UNL A   1      44.449  37.282  27.441  1.00  0.00     0.056 A 
ATOM     20  C   UNL A   1      42.009  36.209  26.662  1.00  0.00     0.004 A 
ATOM     21  C   UNL A   1      44.405  36.019  26.861  1.00  0.00     0.133 A 
ATOM     22  C   UNL A   1      43.184  35.484  26.454  1.00  0.00     0.047 A 
BRANCH  21  23
ATOM     23  O   UNL A   1      45.552  35.220  26.626  1.00  0.00    -0.410 OA
BRANCH  23  24
ATOM     24  C   UNL A   1      45.915  34.722  25.377  1.00  0.00     0.412 C 
ATOM     25  O   UNL A   1      45.202  34.105  24.590  1.00  0.00    -0.224 OA
ATOM     26  N   UNL A   1      47.201  34.991  25.022  1.00  0.00    -0.321 N 
ATOM     27  H   UNL A   1      47.478  34.677  24.131  1.00  0.00     0.167 HD
BRANCH  26  28
ATOM     28  C   UNL A   1      48.211  35.681  25.791  1.00  0.00     0.119 C 
BRANCH  28  29
ATOM     29  C   UNL A   1      49.320  36.224  24.886  1.00  0.00     0.025 C 
BRANCH  29  30
ATOM     30  C   UNL A   1      50.139  37.381  25.500  1.00  0.00    -0.009 C 
ATOM     31  C   UNL A   1      49.592  37.809  26.872  1.00  0.00     0.003 C 
ATOM     32  C   UNL A   1      51.618  36.976  25.604  1.00  0.00     0.003 C 
ATOM     33  C   UNL A   1      50.456  38.887  27.527  1.00  0.00     0.000 C 
ATOM     34  C   UNL A   1      52.463  38.072  26.247  1.00  0.00     0.000 C 
ATOM     35  C   UNL A   1      51.918  38.464  27.615  1.00  0.00     0.000 C 
ENDBRANCH  29  30
ENDBRANCH  28  29
ENDBRANCH  26  28
ENDBRANCH  23  24
ENDBRANCH  21  23
ENDBRANCH  15  17
ENDBRANCH   8  10
ENDBRANCH   6   8
ENDBRANCH   5   6
ENDBRANCH   4   5
ENDBRANCH   3   4
ENDBRANCH   2   3
ENDBRANCH   1   2
BRANCH   1  36
ATOM     36  C   UNL A   1      46.517  41.940  36.599  1.00  0.00     0.188 C 
BRANCH  36  37
ATOM     37  O   UNL A   1      46.811  43.099  35.852  1.00  0.00    -0.377 OA
BRANCH  37  38
ATOM     38  C   UNL A   1      47.819  42.974  34.864  1.00  0.00     0.188 C 
BRANCH  38  39
ATOM     39  C   UNL A   1      47.384  43.022  33.387  1.00  0.00     0.188 C 
BRANCH  39  40
ATOM     40  O   UNL A   1      48.249  42.318  32.499  1.00  0.00    -0.376 OA
BRANCH  40  41
ATOM     41  C   UNL A   1      47.960  42.327  31.109  1.00  0.00     0.202 C 
BRANCH  41  42
ATOM     42  C   UNL A   1      47.706  40.976  30.420  1.00  0.00     0.261 C 
BRANCH  42  43
ATOM     43  O   UNL A   1      46.693  40.141  30.996  1.00  0.00    -0.460 OA
BRANCH  43  44
ATOM     44  C   UNL A   1      46.798  38.805  30.822  1.00  0.00     0.338 C 
ATOM     45  O   UNL A   1      47.675  38.214  30.220  1.00  0.00    -0.246 OA
BRANCH  44  46
ATOM     46  C   UNL A   1      45.778  38.161  31.679  1.00  0.00     0.060 A 
ATOM     47  C   UNL A   1      44.655  38.906  32.066  1.00  0.00     0.016 A 
ATOM     48  C   UNL A   1      45.911  36.826  32.070  1.00  0.00     0.016 A 
ATOM     49  C   UNL A   1      43.679  38.329  32.877  1.00  0.00     0.010 A 
ATOM     50  C   UNL A   1      44.946  36.259  32.907  1.00  0.00     0.010 A 
ATOM     51  C   UNL A   1      43.847  37.020  33.343  1.00  0.00    -0.014 A 
BRANCH  51  52
ATOM     52  C   UNL A   1      42.997  36.528  34.454  1.00  0.00     0.031 A 
ATOM     53  C   UNL A   1      43.354  36.946  35.855  1.00  0.00     0.074 A 
ATOM     54  C   UNL A   1      41.933  35.738  34.232  1.00  0.00     0.049 A 
ATOM     55  N   UNL A   1      42.792  36.618  36.988  1.00  0.00    -0.248 NA
ATOM     56  C   UNL A   1      44.503  37.858  35.995  1.00  0.00     0.031 C 
ATOM     57  C   UNL A   1      41.473  35.283  32.920  1.00  0.00     0.029 A 
ATOM     58  N   UNL A   1      41.058  35.157  35.117  1.00  0.00    -0.354 N 
ATOM     59  C   UNL A   1      43.539  37.250  37.975  1.00  0.00     0.074 A 
ATOM     60  C   UNL A   1      44.598  37.976  37.310  1.00  0.00     0.031 C 
ATOM     61  C   UNL A   1      40.416  34.469  33.088  1.00  0.00     0.029 A 
ATOM     62  C   UNL A   1      40.145  34.321  34.518  1.00  0.00     0.049 A 
ATOM     63  H   UNL A   1      41.081  35.323  36.087  1.00  0.00     0.167 HD
ATOM     64  C   UNL A   1      43.356  37.233  39.315  1.00  0.00     0.034 A 
ATOM     65  C   UNL A   1      39.217  33.510  35.067  1.00  0.00     0.034 A 
ATOM     66  C   UNL A   1      42.297  36.519  39.973  1.00  0.00     0.049 A 
ATOM     67  C   UNL A   1      39.061  33.478  36.567  1.00  0.00     0.074 A 
ATOM     68  C   UNL A   1      41.998  36.478  41.323  1.00  0.00     0.029 A 
ATOM     69  N   UNL A   1      41.376  35.703  39.333  1.00  0.00    -0.354 N 
ATOM     70  N   UNL A   1      39.703  34.165  37.481  1.00  0.00    -0.248 NA
ATOM     71  C   UNL A   1      38.029  32.580  37.110  1.00  0.00     0.031 C 
ATOM     72  C   UNL A   1      40.925  35.600  41.504  1.00  0.00     0.029 A 
ATOM     73  C   UNL A   1      40.522  35.136  40.262  1.00  0.00     0.049 A 
ATOM     74  H   UNL A   1      41.337  35.550  38.362  1.00  0.00     0.167 HD
ATOM     75  C   UNL A   1      39.126  33.815  38.699  1.00  0.00     0.074 A 
ATOM     76  C   UNL A   1      38.071  32.869  38.403  1.00  0.00     0.031 C 
ATOM     77  C   UNL A   1      39.444  34.235  39.949  1.00  0.00     0.034 A 
BRANCH  64  78
ATOM     78  C   UNL A   1      44.329  38.008  40.164  1.00  0.00     0.023 A 
ATOM     79  C   UNL A   1      45.487  37.379  40.665  1.00  0.00     0.012 A 
ATOM     80  C   UNL A   1      44.119  39.376  40.422  1.00  0.00     0.148 A 
ATOM     81  C   UNL A   1      46.403  38.093  41.439  1.00  0.00     0.002 A 
ATOM     82  C   UNL A   1      45.061  40.093  41.149  1.00  0.00     0.091 A 
ATOM     83  F   UNL A   1      43.000  39.949  39.956  1.00  0.00    -0.205 F 
ATOM     84  C   UNL A   1      46.195  39.450  41.671  1.00  0.00     0.022 A 
BRANCH  82  85
ATOM     85  S   UNL A   1      44.926  41.861  41.430  1.00  0.00     0.127 S 
ATOM     86  O   UNL A   1      46.232  42.332  40.969  1.00  0.00    -0.237 OA
ATOM     87  O   UNL A   1      43.805  42.224  40.564  1.00  0.00    -0.237 OA
ATOM     88  O   UNL A   1      44.675  42.026  42.855  1.00  0.00    -0.744 OA
ENDBRANCH  82  85
ENDBRANCH  64  78
BRANCH  65  89
ATOM     89  C   UNL A   1      38.346  32.668  34.197  1.00  0.00     0.023 A 
ATOM     90  C   UNL A   1      38.570  31.279  34.122  1.00  0.00     0.012 A 
ATOM     91  C   UNL A   1      37.304  33.236  33.440  1.00  0.00     0.148 A 
ATOM     92  C   UNL A   1      37.797  30.478  33.280  1.00  0.00     0.002 A 
ATOM     93  C   UNL A   1      36.500  32.424  32.649  1.00  0.00     0.091 A 
ATOM     94  F   UNL A   1      37.116  34.561  33.513  1.00  0.00    -0.205 F 
ATOM     95  C   UNL A   1      36.757  31.048  32.551  1.00  0.00     0.022 A 
BRANCH  93  96
ATOM     96  S   UNL A   1      35.065  33.050  31.769  1.00  0.00     0.127 S 
ATOM     97  O   UNL A   1      35.166  32.347  30.492  1.00  0.00    -0.237 OA
ATOM     98  O   UNL A   1      33.970  32.607  32.633  1.00  0.00    -0.237 OA
ATOM     99  O   UNL A   1      35.238  34.494  31.708  1.00  0.00    -0.744 OA
ENDBRANCH  93  96
ENDBRANCH  65  89
BRANCH  77 100
ATOM    100  C   UNL A   1      38.611  33.723  41.098  1.00  0.00     0.023 A 
ATOM    101  C   UNL A   1      37.498  34.457  41.551  1.00  0.00     0.012 A 
ATOM    102  C   UNL A   1      38.892  32.467  41.675  1.00  0.00     0.148 A 
ATOM    103  C   UNL A   1      36.701  33.969  42.587  1.00  0.00     0.002 A 
ATOM    104  C   UNL A   1      38.061  31.962  42.667  1.00  0.00     0.091 A 
ATOM    105  F   UNL A   1      39.963  31.789  41.239  1.00  0.00    -0.205 F 
ATOM    106  C   UNL A   1      36.974  32.718  43.136  1.00  0.00     0.022 A 
BRANCH 104 107
ATOM    107  S   UNL A   1      38.274  30.318  43.360  1.00  0.00     0.127 S 
ATOM    108  O   UNL A   1      38.225  29.482  42.161  1.00  0.00    -0.237 OA
ATOM    109  O   UNL A   1      39.594  30.415  43.982  1.00  0.00    -0.237 OA
ATOM    110  O   UNL A   1      37.175  30.129  44.297  1.00  0.00    -0.744 OA
ENDBRANCH 104 107
ENDBRANCH  77 100
ENDBRANCH  51  52
ENDBRANCH  44  46
ENDBRANCH  43  44
ENDBRANCH  42  43
ENDBRANCH  41  42
ENDBRANCH  40  41
ENDBRANCH  39  40
ENDBRANCH  38  39
ENDBRANCH  37  38
ENDBRANCH  36  37
ENDBRANCH   1  36
TORSDOF 30
ENDMDL
MODEL 2
REMARK VINA RESULT:      -7.0      6.067     13.265
REMARK SMILES C[C@@H](C(=O)OCCOCCOCCOCCOC(=O)c1ccc(-c2c3nc(c(-c4cccc(S(=O)(=O)[O-])c4F)c4ccc([nH]4)c(-c4cccc(S(=O)(=O)[O-])c4F)c4nc(c(-c5cccc(S(=O)(=O)[O-])c5F)c5ccc2[nH]5)C=C4)C=C3)cc1)c1ccc(-c2cccc(OC(=O)NCCC3CCCCC3)c2)c(F)c1
REMARK SMILES IDX 9 1 8 2 7 3 6 4 5 5 3 6 4 7 2 8 1 9 83 10 84 11 107 12 85 13
REMARK SMILES IDX 105 14 86 15 106 16 87 17 88 18 104 19 89 20 91 21 90 22
REMARK SMILES IDX 92 23 93 24 94 25 95 26 96 28 97 29 98 30 99 31 103 32
REMARK SMILES IDX 100 33 102 34 101 35 10 36 11 37 12 38 13 39 14 40 15 41
REMARK SMILES IDX 16 42 17 43 18 44 19 45 20 46 21 47 82 48 22 49 81 50 23 51
REMARK SMILES IDX 24 52 25 53 75 54 26 55 80 56 74 57 76 58 27 59 79 60 73 61
REMARK SMILES IDX 72 62 28 64 60 65 40 66 59 67 41 68 44 69 58 70 77 71 42 72
REMARK SMILES IDX 43 73 57 75 78 76 45 77 29 78 30 79 38 80 31 81 33 82 39 83
REMARK SMILES IDX 32 84 34 85 35 86 36 87 37 88 61 89 62 90 70 91 63 92 65 93
REMARK SMILES IDX 71 94 64 95 66 96 67 97 68 98 69 99 46 100 47 101 55 102
REMARK SMILES IDX 48 103 50 104 56 105 49 106 51 107 52 108 53 109 54 110
REMARK H PARENT 95 27 76 63 44 74
REMARK Flexibility Score: inf
ROOT
ATOM      1  C   UNL A   1      41.498  19.877  26.176  1.00  0.00     0.188 C 
ENDROOT
BRANCH   1   2
ATOM      2  O   UNL A   1      42.798  19.318  26.285  1.00  0.00    -0.376 OA
BRANCH   2   3
ATOM      3  C   UNL A   1      43.710  19.439  25.202  1.00  0.00     0.202 C 
BRANCH   3   4
ATOM      4  C   UNL A   1      44.517  20.731  24.945  1.00  0.00     0.261 C 
BRANCH   4   5
ATOM      5  O   UNL A   1      44.198  21.889  25.745  1.00  0.00    -0.463 OA
BRANCH   5   6
ATOM      6  C   UNL A   1      45.205  22.764  25.991  1.00  0.00     0.313 C 
ATOM      7  O   UNL A   1      46.122  22.538  26.778  1.00  0.00    -0.252 OA
BRANCH   6   8
ATOM      8  C   UNL A   1      45.119  24.079  25.185  1.00  0.00     0.126 C 
ATOM      9  C   UNL A   1      46.409  24.808  24.793  1.00  0.00     0.025 C 
BRANCH   8  10
ATOM     10  C   UNL A   1      44.075  25.020  25.794  1.00  0.00    -0.031 A 
ATOM     11  C   UNL A   1      43.217  25.830  25.029  1.00  0.00     0.005 A 
ATOM     12  C   UNL A   1      44.038  25.169  27.181  1.00  0.00     0.044 A 
ATOM     13  C   UNL A   1      42.429  26.828  25.621  1.00  0.00     0.012 A 
ATOM     14  C   UNL A   1      43.226  26.135  27.767  1.00  0.00     0.131 A 
ATOM     15  C   UNL A   1      42.440  27.017  27.007  1.00  0.00     0.018 A 
ATOM     16  F   UNL A   1      43.243  26.228  29.106  1.00  0.00    -0.206 F 
BRANCH  15  17
ATOM     17  C   UNL A   1      41.747  28.153  27.638  1.00  0.00    -0.012 A 
ATOM     18  C   UNL A   1      42.301  28.901  28.687  1.00  0.00     0.009 A 
ATOM     19  C   UNL A   1      40.460  28.498  27.188  1.00  0.00     0.056 A 
ATOM     20  C   UNL A   1      41.598  29.978  29.244  1.00  0.00     0.004 A 
ATOM     21  C   UNL A   1      39.752  29.553  27.751  1.00  0.00     0.133 A 
ATOM     22  C   UNL A   1      40.325  30.307  28.772  1.00  0.00     0.047 A 
BRANCH  21  23
ATOM     23  O   UNL A   1      38.454  29.943  27.333  1.00  0.00    -0.410 OA
BRANCH  23  24
ATOM     24  C   UNL A   1      37.293  29.708  28.066  1.00  0.00     0.412 C 
ATOM     25  O   UNL A   1      36.714  28.634  28.211  1.00  0.00    -0.224 OA
ATOM     26  N   UNL A   1      36.796  30.810  28.690  1.00  0.00    -0.321 N 
ATOM     27  H   UNL A   1      35.992  30.668  29.241  1.00  0.00     0.167 HD
BRANCH  26  28
ATOM     28  C   UNL A   1      37.301  32.163  28.646  1.00  0.00     0.119 C 
BRANCH  28  29
ATOM     29  C   UNL A   1      36.784  32.985  29.828  1.00  0.00     0.025 C 
BRANCH  29  30
ATOM     30  C   UNL A   1      35.298  33.396  29.724  1.00  0.00    -0.009 C 
ATOM     31  C   UNL A   1      34.906  34.415  30.806  1.00  0.00     0.003 C 
ATOM     32  C   UNL A   1      35.008  33.952  28.320  1.00  0.00     0.003 C 
ATOM     33  C   UNL A   1      33.465  34.898  30.649  1.00  0.00     0.000 C 
ATOM     34  C   UNL A   1      33.560  34.414  28.181  1.00  0.00     0.000 C 
ATOM     35  C   UNL A   1      33.200  35.440  29.248  1.00  0.00     0.000 C 
ENDBRANCH  29  30
ENDBRANCH  28  29
ENDBRANCH  26  28
ENDBRANCH  23  24
ENDBRANCH  21  23
ENDBRANCH  15  17
ENDBRANCH   8  10
ENDBRANCH   6   8
ENDBRANCH   5   6
ENDBRANCH   4   5
ENDBRANCH   3   4
ENDBRANCH   2   3
ENDBRANCH   1   2
BRANCH   1  36
ATOM     36  C   UNL A   1      41.028  20.944  27.184  1.00  0.00     0.188 C 
BRANCH  36  37
ATOM     37  O   UNL A   1      40.848  22.233  26.643  1.00  0.00    -0.377 OA
BRANCH  37  38
ATOM     38  C   UNL A   1      39.845  23.035  27.243  1.00  0.00     0.188 C 
BRANCH  38  39
ATOM     39  C   UNL A   1      40.302  24.190  28.154  1.00  0.00     0.188 C 
BRANCH  39  40
ATOM     40  O   UNL A   1      39.526  25.379  28.025  1.00  0.00    -0.376 OA
BRANCH  40  41
ATOM     41  C   UNL A   1      38.697  25.778  29.106  1.00  0.00     0.202 C 
BRANCH  41  42
ATOM     42  C   UNL A   1      39.270  26.785  30.117  1.00  0.00     0.261 C 
BRANCH  42  43
ATOM     43  O   UNL A   1      38.340  27.700  30.711  1.00  0.00    -0.460 OA
BRANCH  43  44
ATOM     44  C   UNL A   1      38.468  27.968  32.029  1.00  0.00     0.338 C 
ATOM     45  O   UNL A   1      38.177  27.235  32.955  1.00  0.00    -0.246 OA
BRANCH  44  46
ATOM     46  C   UNL A   1      39.234  29.228  32.157  1.00  0.00     0.060 A 
ATOM     47  C   UNL A   1      40.595  29.159  32.487  1.00  0.00     0.016 A 
ATOM     48  C   UNL A   1      38.625  30.463  31.923  1.00  0.00     0.016 A 
ATOM     49  C   UNL A   1      41.343  30.328  32.619  1.00  0.00     0.010 A 
ATOM     50  C   UNL A   1      39.369  31.635  32.084  1.00  0.00     0.010 A 
ATOM     51  C   UNL A   1      40.720  31.572  32.470  1.00  0.00    -0.014 A 
BRANCH  51  52
ATOM     52  C   UNL A   1      41.418  32.797  32.930  1.00  0.00     0.031 A 
ATOM     53  C   UNL A   1      41.420  33.097  34.404  1.00  0.00     0.074 A 
ATOM     54  C   UNL A   1      42.042  33.620  32.069  1.00  0.00     0.049 A 
ATOM     55  N   UNL A   1      41.925  34.118  35.043  1.00  0.00    -0.248 NA
ATOM     56  C   UNL A   1      40.759  32.109  35.276  1.00  0.00     0.031 C 
ATOM     57  C   UNL A   1      42.128  33.425  30.622  1.00  0.00     0.029 A 
ATOM     58  N   UNL A   1      42.702  34.803  32.292  1.00  0.00    -0.354 N 
ATOM     59  C   UNL A   1      41.612  33.917  36.382  1.00  0.00     0.074 A 
ATOM     60  C   UNL A   1      40.868  32.680  36.465  1.00  0.00     0.031 C 
ATOM     61  C   UNL A   1      42.780  34.471  30.082  1.00  0.00     0.029 A 
ATOM     62  C   UNL A   1      43.127  35.420  31.138  1.00  0.00     0.049 A 
ATOM     63  H   UNL A   1      42.856  35.174  33.190  1.00  0.00     0.167 HD
ATOM     64  C   UNL A   1      41.922  34.689  37.449  1.00  0.00     0.034 A 
ATOM     65  C   UNL A   1      43.704  36.626  30.959  1.00  0.00     0.034 A 
ATOM     66  C   UNL A   1      42.670  35.913  37.365  1.00  0.00     0.049 A 
ATOM     67  C   UNL A   1      44.002  37.487  32.162  1.00  0.00     0.074 A 
ATOM     68  C   UNL A   1      43.077  36.742  38.394  1.00  0.00     0.029 A 
ATOM     69  N   UNL A   1      43.106  36.494  36.184  1.00  0.00    -0.354 N 
ATOM     70  N   UNL A   1      43.797  37.233  33.433  1.00  0.00    -0.248 NA
ATOM     71  C   UNL A   1      44.638  38.789  31.908  1.00  0.00     0.031 C 
ATOM     72  C   UNL A   1      43.717  37.851  37.831  1.00  0.00     0.029 A 
ATOM     73  C   UNL A   1      43.758  37.684  36.456  1.00  0.00     0.049 A 
ATOM     74  H   UNL A   1      42.970  36.117  35.286  1.00  0.00     0.167 HD
ATOM     75  C   UNL A   1      44.318  38.321  34.129  1.00  0.00     0.074 A 
ATOM     76  C   UNL A   1      44.862  39.227  33.139  1.00  0.00     0.031 C 
ATOM     77  C   UNL A   1      44.338  38.552  35.465  1.00  0.00     0.034 A 
BRANCH  64  78
ATOM     78  C   UNL A   1      41.445  34.235  38.803  1.00  0.00     0.023 A 
ATOM     79  C   UNL A   1      40.182  34.640  39.281  1.00  0.00     0.012 A 
ATOM     80  C   UNL A   1      42.232  33.363  39.581  1.00  0.00     0.148 A 
ATOM     81  C   UNL A   1      39.725  34.211  40.528  1.00  0.00     0.002 A 
ATOM     82  C   UNL A   1      41.748  32.900  40.798  1.00  0.00     0.091 A 
ATOM     83  F   UNL A   1      43.440  33.009  39.119  1.00  0.00    -0.205 F 
ATOM     84  C   UNL A   1      40.502  33.334  41.279  1.00  0.00     0.022 A 
BRANCH  82  85
ATOM     85  S   UNL A   1      42.636  31.703  41.800  1.00  0.00     0.127 S 
ATOM     86  O   UNL A   1      43.227  32.560  42.827  1.00  0.00    -0.237 OA
ATOM     87  O   UNL A   1      41.555  30.840  42.274  1.00  0.00    -0.237 OA
ATOM     88  O   UNL A   1      43.588  31.056  40.908  1.00  0.00    -0.744 OA
ENDBRANCH  82  85
ENDBRANCH  64  78
BRANCH  65  89
ATOM     89  C   UNL A   1      44.058  37.094  29.588  1.00  0.00     0.023 A 
ATOM     90  C   UNL A   1      43.114  37.815  28.832  1.00  0.00     0.012 A 
ATOM     91  C   UNL A   1      45.321  36.821  29.028  1.00  0.00     0.148 A 
ATOM     92  C   UNL A   1      43.407  38.223  27.530  1.00  0.00     0.002 A 
ATOM     93  C   UNL A   1      45.628  37.281  27.753  1.00  0.00     0.091 A 
ATOM     94  F   UNL A   1      46.201  36.120  29.757  1.00  0.00    -0.205 F 
ATOM     95  C   UNL A   1      44.666  37.965  26.994  1.00  0.00     0.022 A 
BRANCH  93  96
ATOM     96  S   UNL A   1      47.261  37.100  27.028  1.00  0.00     0.127 S 
ATOM     97  O   UNL A   1      47.383  35.648  26.924  1.00  0.00    -0.237 OA
ATOM     98  O   UNL A   1      47.099  37.799  25.753  1.00  0.00    -0.237 OA
ATOM     99  O   UNL A   1      48.179  37.744  27.957  1.00  0.00    -0.744 OA
ENDBRANCH  93  96
ENDBRANCH  65  89
BRANCH  77 100
ATOM    100  C   UNL A   1      45.018  39.807  35.954  1.00  0.00     0.023 A 
ATOM    101  C   UNL A   1      44.274  40.987  36.151  1.00  0.00     0.012 A 
ATOM    102  C   UNL A   1      46.387  39.789  36.291  1.00  0.00     0.148 A 
ATOM    103  C   UNL A   1      44.890  42.139  36.640  1.00  0.00     0.002 A 
ATOM    104  C   UNL A   1      46.980  40.923  36.831  1.00  0.00     0.091 A 
ATOM    105  F   UNL A   1      47.081  38.660  36.084  1.00  0.00    -0.205 F 
ATOM    106  C   UNL A   1      46.237  42.104  36.992  1.00  0.00     0.022 A 
BRANCH 104 107
ATOM    107  S   UNL A   1      48.682  40.940  37.407  1.00  0.00     0.127 S 
ATOM    108  O   UNL A   1      48.987  42.370  37.390  1.00  0.00    -0.237 OA
ATOM    109  O   UNL A   1      48.560  40.359  38.744  1.00  0.00    -0.237 OA
ATOM    110  O   UNL A   1      49.437  40.130  36.460  1.00  0.00    -0.744 OA
ENDBRANCH 104 107
ENDBRANCH  77 100
ENDBRANCH  51  52
ENDBRANCH  44  46
ENDBRANCH  43  44
ENDBRANCH  42  43
ENDBRANCH  41  42
ENDBRANCH  40  41
ENDBRANCH  39  40
ENDBRANCH  38  39
ENDBRANCH  37  38
ENDBRANCH  36  37
ENDBRANCH   1  36
TORSDOF 30
ENDMDL
MODEL 3
REMARK VINA RESULT:      -6.9      1.599      3.168
REMARK SMILES C[C@@H](C(=O)OCCOCCOCCOCCOC(=O)c1ccc(-c2c3nc(c(-c4cccc(S(=O)(=O)[O-])c4F)c4ccc([nH]4)c(-c4cccc(S(=O)(=O)[O-])c4F)c4nc(c(-c5cccc(S(=O)(=O)[O-])c5F)c5ccc2[nH]5)C=C4)C=C3)cc1)c1ccc(-c2cccc(OC(=O)NCCC3CCCCC3)c2)c(F)c1
REMARK SMILES IDX 9 1 8 2 7 3 6 4 5 5 3 6 4 7 2 8 1 9 83 10 84 11 107 12 85 13
REMARK SMILES IDX 105 14 86 15 106 16 87 17 88 18 104 19 89 20 91 21 90 22
REMARK SMILES IDX 92 23 93 24 94 25 95 26 96 28 97 29 98 30 99 31 103 32
REMARK SMILES IDX 100 33 102 34 101 35 10 36 11 37 12 38 13 39 14 40 15 41
REMARK SMILES IDX 16 42 17 43 18 44 19 45 20 46 21 47 82 48 22 49 81 50 23 51
REMARK SMILES IDX 24 52 25 53 75 54 26 55 80 56 74 57 76 58 27 59 79 60 73 61
REMARK SMILES IDX 72 62 28 64 60 65 40 66 59 67 41 68 44 69 58 70 77 71 42 72
REMARK SMILES IDX 43 73 57 75 78 76 45 77 29 78 30 79 38 80 31 81 33 82 39 83
REMARK SMILES IDX 32 84 34 85 35 86 36 87 37 88 61 89 62 90 70 91 63 92 65 93
REMARK SMILES IDX 71 94 64 95 66 96 67 97 68 98 69 99 46 100 47 101 55 102
REMARK SMILES IDX 48 103 50 104 56 105 49 106 51 107 52 108 53 109 54 110
REMARK H PARENT 95 27 76 63 44 74
REMARK Flexibility Score: inf
ROOT
ATOM      1  C   UNL A   1      45.142  41.998  37.328  1.00  0.00     0.188 C 
ENDROOT
BRANCH   1   2
ATOM      2  O   UNL A   1      44.001  42.656  36.799  1.00  0.00    -0.376 OA
BRANCH   2   3
ATOM      3  C   UNL A   1      43.509  42.293  35.517  1.00  0.00     0.202 C 
BRANCH   3   4
ATOM      4  C   UNL A   1      43.636  43.226  34.292  1.00  0.00     0.261 C 
BRANCH   4   5
ATOM      5  O   UNL A   1      43.648  42.617  32.985  1.00  0.00    -0.463 OA
BRANCH   5   6
ATOM      6  C   UNL A   1      43.261  43.391  31.941  1.00  0.00     0.313 C 
ATOM      7  O   UNL A   1      42.279  44.130  31.972  1.00  0.00    -0.252 OA
BRANCH   6   8
ATOM      8  C   UNL A   1      44.169  43.283  30.695  1.00  0.00     0.126 C 
ATOM      9  C   UNL A   1      44.457  44.538  29.863  1.00  0.00     0.025 C 
BRANCH   8  10
ATOM     10  C   UNL A   1      43.763  42.086  29.831  1.00  0.00    -0.031 A 
ATOM     11  C   UNL A   1      42.582  41.349  30.026  1.00  0.00     0.005 A 
ATOM     12  C   UNL A   1      44.658  41.628  28.863  1.00  0.00     0.044 A 
ATOM     13  C   UNL A   1      42.353  40.139  29.356  1.00  0.00     0.012 A 
ATOM     14  C   UNL A   1      44.408  40.446  28.171  1.00  0.00     0.131 A 
ATOM     15  C   UNL A   1      43.280  39.649  28.430  1.00  0.00     0.018 A 
ATOM     16  F   UNL A   1      45.313  40.060  27.257  1.00  0.00    -0.206 F 
BRANCH  15  17
ATOM     17  C   UNL A   1      43.142  38.311  27.831  1.00  0.00    -0.012 A 
ATOM     18  C   UNL A   1      41.957  37.858  27.234  1.00  0.00     0.009 A 
ATOM     19  C   UNL A   1      44.239  37.432  27.873  1.00  0.00     0.056 A 
ATOM     20  C   UNL A   1      41.886  36.577  26.672  1.00  0.00     0.004 A 
ATOM     21  C   UNL A   1      44.166  36.153  27.334  1.00  0.00     0.133 A 
ATOM     22  C   UNL A   1      42.992  35.726  26.716  1.00  0.00     0.047 A 
BRANCH  21  23
ATOM     23  O   UNL A   1      45.242  35.229  27.348  1.00  0.00    -0.410 OA
BRANCH  23  24
ATOM     24  C   UNL A   1      45.388  34.185  26.438  1.00  0.00     0.412 C 
ATOM     25  O   UNL A   1      45.891  34.243  25.318  1.00  0.00    -0.224 OA
ATOM     26  N   UNL A   1      44.933  32.985  26.889  1.00  0.00    -0.321 N 
ATOM     27  H   UNL A   1      45.051  32.221  26.280  1.00  0.00     0.167 HD
BRANCH  26  28
ATOM     28  C   UNL A   1      44.298  32.691  28.153  1.00  0.00     0.119 C 
BRANCH  28  29
ATOM     29  C   UNL A   1      44.218  31.183  28.396  1.00  0.00     0.025 C 
BRANCH  29  30
ATOM     30  C   UNL A   1      43.048  30.739  29.302  1.00  0.00    -0.009 C 
ATOM     31  C   UNL A   1      42.335  31.938  29.950  1.00  0.00     0.003 C 
ATOM     32  C   UNL A   1      42.056  29.887  28.493  1.00  0.00     0.003 C 
ATOM     33  C   UNL A   1      41.118  31.512  30.769  1.00  0.00     0.000 C 
ATOM     34  C   UNL A   1      40.856  29.460  29.335  1.00  0.00     0.000 C 
ATOM     35  C   UNL A   1      40.152  30.664  29.948  1.00  0.00     0.000 C 
ENDBRANCH  29  30
ENDBRANCH  28  29
ENDBRANCH  26  28
ENDBRANCH  23  24
ENDBRANCH  21  23
ENDBRANCH  15  17
ENDBRANCH   8  10
ENDBRANCH   6   8
ENDBRANCH   5   6
ENDBRANCH   4   5
ENDBRANCH   3   4
ENDBRANCH   2   3
ENDBRANCH   1   2
BRANCH   1  36
ATOM     36  C   UNL A   1      46.481  42.038  36.566  1.00  0.00     0.188 C 
BRANCH  36  37
ATOM     37  O   UNL A   1      46.721  43.230  35.852  1.00  0.00    -0.377 OA
BRANCH  37  38
ATOM     38  C   UNL A   1      47.741  43.183  34.870  1.00  0.00     0.188 C 
BRANCH  38  39
ATOM     39  C   UNL A   1      47.317  43.268  33.391  1.00  0.00     0.188 C 
BRANCH  39  40
ATOM     40  O   UNL A   1      48.227  42.651  32.484  1.00  0.00    -0.376 OA
BRANCH  40  41
ATOM     41  C   UNL A   1      47.944  42.691  31.094  1.00  0.00     0.202 C 
BRANCH  41  42
ATOM     42  C   UNL A   1      47.750  41.351  30.363  1.00  0.00     0.261 C 
BRANCH  42  43
ATOM     43  O   UNL A   1      46.760  40.464  30.898  1.00  0.00    -0.460 OA
BRANCH  43  44
ATOM     44  C   UNL A   1      46.979  39.134  30.799  1.00  0.00     0.338 C 
ATOM     45  O   UNL A   1      47.937  38.589  30.283  1.00  0.00    -0.246 OA
BRANCH  44  46
ATOM     46  C   UNL A   1      45.958  38.450  31.623  1.00  0.00     0.060 A 
ATOM     47  C   UNL A   1      44.757  39.118  31.898  1.00  0.00     0.016 A 
ATOM     48  C   UNL A   1      46.170  37.151  32.092  1.00  0.00     0.016 A 
ATOM     49  C   UNL A   1      43.777  38.501  32.676  1.00  0.00     0.010 A 
ATOM     50  C   UNL A   1      45.199  36.547  32.895  1.00  0.00     0.010 A 
ATOM     51  C   UNL A   1      44.016  37.235  33.220  1.00  0.00    -0.014 A 
BRANCH  51  52
ATOM     52  C   UNL A   1      43.136  36.727  34.300  1.00  0.00     0.031 A 
ATOM     53  C   UNL A   1      43.414  37.177  35.709  1.00  0.00     0.074 A 
ATOM     54  C   UNL A   1      42.111  35.896  34.043  1.00  0.00     0.049 A 
ATOM     55  N   UNL A   1      42.815  36.845  36.820  1.00  0.00    -0.248 NA
ATOM     56  C   UNL A   1      44.523  38.132  35.885  1.00  0.00     0.031 C 
ATOM     57  C   UNL A   1      41.727  35.408  32.719  1.00  0.00     0.029 A 
ATOM     58  N   UNL A   1      41.218  35.297  34.897  1.00  0.00    -0.354 N 
ATOM     59  C   UNL A   1      43.494  37.516  37.830  1.00  0.00     0.074 A 
ATOM     60  C   UNL A   1      44.555  38.271  37.201  1.00  0.00     0.031 C 
ATOM     61  C   UNL A   1      40.692  34.559  32.853  1.00  0.00     0.029 A 
ATOM     62  C   UNL A   1      40.363  34.420  34.271  1.00  0.00     0.049 A 
ATOM     63  H   UNL A   1      41.193  35.477  35.865  1.00  0.00     0.167 HD
ATOM     64  C   UNL A   1      43.252  37.511  39.161  1.00  0.00     0.034 A 
ATOM     65  C   UNL A   1      39.441  33.584  34.791  1.00  0.00     0.034 A 
ATOM     66  C   UNL A   1      42.190  36.769  39.782  1.00  0.00     0.049 A 
ATOM     67  C   UNL A   1      39.219  33.567  36.283  1.00  0.00     0.074 A 
ATOM     68  C   UNL A   1      41.833  36.736  41.118  1.00  0.00     0.029 A 
ATOM     69  N   UNL A   1      41.329  35.912  39.115  1.00  0.00    -0.354 N 
ATOM     70  N   UNL A   1      39.796  34.289  37.215  1.00  0.00    -0.248 NA
ATOM     71  C   UNL A   1      38.197  32.640  36.794  1.00  0.00     0.031 C 
ATOM     72  C   UNL A   1      40.785  35.822  41.265  1.00  0.00     0.029 A 
ATOM     73  C   UNL A   1      40.454  35.327  40.014  1.00  0.00     0.049 A 
ATOM     74  H   UNL A   1      41.339  35.744  38.146  1.00  0.00     0.167 HD
ATOM     75  C   UNL A   1      39.177  33.936  38.411  1.00  0.00     0.074 A 
ATOM     76  C   UNL A   1      38.170  32.948  38.083  1.00  0.00     0.031 C 
ATOM     77  C   UNL A   1      39.424  34.383  39.667  1.00  0.00     0.034 A 
BRANCH  64  78
ATOM     78  C   UNL A   1      44.159  38.332  40.040  1.00  0.00     0.023 A 
ATOM     79  C   UNL A   1      45.310  37.750  40.608  1.00  0.00     0.012 A 
ATOM     80  C   UNL A   1      43.893  39.698  40.260  1.00  0.00     0.148 A 
ATOM     81  C   UNL A   1      46.164  38.507  41.411  1.00  0.00     0.002 A 
ATOM     82  C   UNL A   1      44.776  40.457  41.018  1.00  0.00     0.091 A 
ATOM     83  F   UNL A   1      42.781  40.225  39.731  1.00  0.00    -0.205 F 
ATOM     84  C   UNL A   1      45.903  39.860  41.605  1.00  0.00     0.022 A 
BRANCH  82  85
ATOM     85  S   UNL A   1      44.573  42.225  41.258  1.00  0.00     0.127 S 
ATOM     86  O   UNL A   1      45.860  42.736  40.787  1.00  0.00    -0.237 OA
ATOM     87  O   UNL A   1      43.440  42.524  40.382  1.00  0.00    -0.237 OA
ATOM     88  O   UNL A   1      44.313  42.413  42.678  1.00  0.00    -0.744 OA
ENDBRANCH  82  85
ENDBRANCH  64  78
BRANCH  65  89
ATOM     89  C   UNL A   1      38.640  32.699  33.897  1.00  0.00     0.023 A 
ATOM     90  C   UNL A   1      38.910  31.317  33.860  1.00  0.00     0.012 A 
ATOM     91  C   UNL A   1      37.620  33.220  33.079  1.00  0.00     0.148 A 
ATOM     92  C   UNL A   1      38.204  30.477  32.998  1.00  0.00     0.002 A 
ATOM     93  C   UNL A   1      36.881  32.370  32.265  1.00  0.00     0.091 A 
ATOM     94  F   UNL A   1      37.388  34.540  33.116  1.00  0.00    -0.205 F 
ATOM     95  C   UNL A   1      37.184  31.000  32.208  1.00  0.00     0.022 A 
BRANCH  93  96
ATOM     96  S   UNL A   1      35.472  32.934  31.305  1.00  0.00     0.127 S 
ATOM     97  O   UNL A   1      35.928  32.697  29.937  1.00  0.00    -0.237 OA
ATOM     98  O   UNL A   1      34.416  32.033  31.769  1.00  0.00    -0.237 OA
ATOM     99  O   UNL A   1      35.278  34.330  31.671  1.00  0.00    -0.744 OA
ENDBRANCH  93  96
ENDBRANCH  65  89
BRANCH  77 100
ATOM    100  C   UNL A   1      38.559  33.857  40.786  1.00  0.00     0.023 A 
ATOM    101  C   UNL A   1      37.408  34.564  41.186  1.00  0.00     0.012 A 
ATOM    102  C   UNL A   1      38.851  32.615  41.386  1.00  0.00     0.148 A 
ATOM    103  C   UNL A   1      36.583  34.062  42.193  1.00  0.00     0.002 A 
ATOM    104  C   UNL A   1      37.995  32.095  42.348  1.00  0.00     0.091 A 
ATOM    105  F   UNL A   1      39.959  31.964  41.001  1.00  0.00    -0.205 F 
ATOM    106  C   UNL A   1      36.868  32.823  42.764  1.00  0.00     0.022 A 
BRANCH 104 107
ATOM    107  S   UNL A   1      38.226  30.464  43.064  1.00  0.00     0.127 S 
ATOM    108  O   UNL A   1      39.539  30.598  43.693  1.00  0.00    -0.237 OA
ATOM    109  O   UNL A   1      37.106  30.378  44.003  1.00  0.00    -0.237 OA
ATOM    110  O   UNL A   1      38.159  29.522  41.954  1.00  0.00    -0.744 OA
ENDBRANCH 104 107
ENDBRANCH  77 100
ENDBRANCH  51  52
ENDBRANCH  44  46
ENDBRANCH  43  44
ENDBRANCH  42  43
ENDBRANCH  41  42
ENDBRANCH  40  41
ENDBRANCH  39  40
ENDBRANCH  38  39
ENDBRANCH  37  38
ENDBRANCH  36  37
ENDBRANCH   1  36
TORSDOF 30
ENDMDL
