MODEL 1
REMARK VINA RESULT:     -10.4      0.000      0.000
REMARK SMILES Cc1cccc(N2C(=O)/C(=C/c3ccc(C(=O)OCCOCCOCCOCCOC(=O)c4ccc(-c5c6nc(c(-c7cccc(S(=O)(=O)[O-])c7F)c7ccc([nH]7)c(-c7cccc(S(=O)(=O)[O-])c7F)c7nc(c(-c8cccc(S(=O)(=O)[O-])c8F)c8ccc5[nH]8)C=C7)C=C6)cc4)cc3)c3ccccc3C2=O)c1
REMARK SMILES IDX 25 1 24 2 23 3 22 4 21 5 20 6 19 7 18 8 16 9 17 10 15 11
REMARK SMILES IDX 12 12 13 13 97 14 14 15 96 16 11 17 7 18 8 19 104 20 9 21
REMARK SMILES IDX 10 22 103 23 105 24 98 25 102 26 99 27 101 28 100 29 6 30
REMARK SMILES IDX 1 31 2 32 3 33 106 34 4 35 5 36 26 37 27 38 28 39 29 40
REMARK SMILES IDX 30 41 31 42 32 43 33 44 34 45 95 46 35 47 94 48 36 49 37 50
REMARK SMILES IDX 38 51 88 52 39 53 93 54 87 55 89 56 40 57 92 58 86 59 85 60
REMARK SMILES IDX 41 62 73 63 53 64 72 65 54 66 57 67 71 68 90 69 55 70 56 71
REMARK SMILES IDX 70 73 91 74 58 75 42 76 43 77 51 78 44 79 46 80 52 81 45 82
REMARK SMILES IDX 47 83 48 84 49 85 50 86 74 87 75 88 83 89 76 90 78 91 84 92
REMARK SMILES IDX 77 93 79 94 80 95 81 96 82 97 59 98 60 99 68 100 61 101
REMARK SMILES IDX 63 102 69 103 62 104 64 105 65 106 66 107 67 108
REMARK H PARENT 89 61 57 72
REMARK Flexibility Score: inf
ROOT
ATOM      1  C   UNL A   1      42.347  25.382  28.414  1.00  0.00     0.188 C 
ENDROOT
BRANCH   1   2
ATOM      2  O   UNL A   1      42.657  24.021  28.594  1.00  0.00    -0.377 OA
BRANCH   2   3
ATOM      3  C   UNL A   1      44.019  23.655  28.499  1.00  0.00     0.188 C 
BRANCH   3   4
ATOM      4  C   UNL A   1      44.667  23.830  27.119  1.00  0.00     0.188 C 
BRANCH   4   5
ATOM      5  O   UNL A   1      44.434  22.907  26.058  1.00  0.00    -0.376 OA
BRANCH   5   6
ATOM      6  C   UNL A   1      43.167  22.914  25.423  1.00  0.00     0.202 C 
BRANCH   6   7
ATOM      7  C   UNL A   1      42.195  21.868  25.886  1.00  0.00     0.261 C 
BRANCH   7   8
ATOM      8  O   UNL A   1      40.944  22.433  26.197  1.00  0.00    -0.460 OA
BRANCH   8   9
ATOM      9  C   UNL A   1      40.054  21.533  26.598  1.00  0.00     0.338 C 
ATOM     10  O   UNL A   1      40.115  20.732  27.509  1.00  0.00    -0.246 OA
BRANCH   9  11
ATOM     11  C   UNL A   1      38.832  21.990  25.967  1.00  0.00     0.060 A 
ATOM     12  C   UNL A   1      36.765  23.213  24.666  1.00  0.00    -0.025 A 
ATOM     13  C   UNL A   1      37.543  23.939  25.574  1.00  0.00     0.009 A 
ATOM     14  C   UNL A   1      37.033  21.864  24.397  1.00  0.00     0.009 A 
ATOM     15  C   UNL A   1      38.560  23.321  26.245  1.00  0.00     0.016 A 
ATOM     16  C   UNL A   1      38.110  21.252  25.018  1.00  0.00     0.016 A 
BRANCH  12  17
ATOM     17  C   UNL A   1      35.636  23.953  24.144  1.00  0.00     0.022 C 
ATOM     18  N   UNL A   1      32.415  24.987  24.277  1.00  0.00    -0.242 N 
ATOM     19  C   UNL A   1      33.549  24.740  23.494  1.00  0.00     0.265 C 
ATOM     20  C   UNL A   1      31.894  23.961  25.108  1.00  0.00     0.265 C 
ATOM     21  O   UNL A   1      33.965  25.335  22.503  1.00  0.00    -0.268 OA
ATOM     22  C   UNL A   1      34.357  23.597  23.973  1.00  0.00     0.049 C 
ATOM     23  C   UNL A   1      32.413  22.571  24.906  1.00  0.00     0.048 A 
ATOM     24  O   UNL A   1      31.030  24.072  25.974  1.00  0.00    -0.268 OA
ATOM     25  C   UNL A   1      33.657  22.380  24.313  1.00  0.00    -0.000 A 
ATOM     26  C   UNL A   1      31.667  21.461  25.322  1.00  0.00     0.014 A 
ATOM     27  C   UNL A   1      34.133  21.087  24.069  1.00  0.00     0.010 A 
ATOM     28  C   UNL A   1      32.162  20.171  25.121  1.00  0.00     0.001 A 
ATOM     29  C   UNL A   1      33.391  19.983  24.491  1.00  0.00     0.001 A 
BRANCH  18  30
ATOM     30  C   UNL A   1      31.768  26.297  24.189  1.00  0.00     0.053 A 
ATOM     31  C   UNL A   1      32.047  29.716  25.903  1.00  0.00     0.044 C 
ATOM     32  C   UNL A   1      31.569  28.646  24.966  1.00  0.00    -0.049 A 
ATOM     33  C   UNL A   1      30.629  28.910  23.979  1.00  0.00     0.003 A 
ATOM     34  C   UNL A   1      32.109  27.353  25.058  1.00  0.00     0.030 A 
ATOM     35  C   UNL A   1      30.225  27.884  23.131  1.00  0.00     0.002 A 
ATOM     36  C   UNL A   1      30.782  26.600  23.241  1.00  0.00     0.027 A 
ENDBRANCH  18  30
ENDBRANCH  12  17
ENDBRANCH   9  11
ENDBRANCH   8   9
ENDBRANCH   7   8
ENDBRANCH   6   7
ENDBRANCH   5   6
ENDBRANCH   4   5
ENDBRANCH   3   4
ENDBRANCH   2   3
ENDBRANCH   1   2
BRANCH   1  37
ATOM     37  C   UNL A   1      40.982  25.766  27.774  1.00  0.00     0.188 C 
BRANCH  37  38
ATOM     38  O   UNL A   1      40.429  27.004  28.122  1.00  0.00    -0.376 OA
BRANCH  38  39
ATOM     39  C   UNL A   1      39.376  26.813  29.034  1.00  0.00     0.202 C 
BRANCH  39  40
ATOM     40  C   UNL A   1      39.341  27.658  30.364  1.00  0.00     0.261 C 
BRANCH  40  41
ATOM     41  O   UNL A   1      38.773  29.108  30.607  1.00  0.00    -0.460 OA
BRANCH  41  42
ATOM     42  C   UNL A   1      38.234  30.346  30.771  1.00  0.00     0.338 C 
ATOM     43  O   UNL A   1      37.850  30.913  29.752  1.00  0.00    -0.246 OA
BRANCH  42  44
ATOM     44  C   UNL A   1      38.217  31.206  32.051  1.00  0.00     0.060 A 
ATOM     45  C   UNL A   1      37.568  32.432  32.059  1.00  0.00     0.016 A 
ATOM     46  C   UNL A   1      38.877  30.993  33.236  1.00  0.00     0.016 A 
ATOM     47  C   UNL A   1      38.146  33.534  32.724  1.00  0.00     0.010 A 
ATOM     48  C   UNL A   1      39.585  32.075  33.771  1.00  0.00     0.010 A 
ATOM     49  C   UNL A   1      39.375  33.376  33.308  1.00  0.00    -0.014 A 
BRANCH  49  50
ATOM     50  C   UNL A   1      40.470  34.395  33.457  1.00  0.00     0.031 A 
ATOM     51  C   UNL A   1      40.408  35.211  34.763  1.00  0.00     0.074 A 
ATOM     52  C   UNL A   1      41.602  34.191  32.687  1.00  0.00     0.049 A 
ATOM     53  N   UNL A   1      41.281  36.040  35.239  1.00  0.00    -0.248 NA
ATOM     54  C   UNL A   1      39.265  35.108  35.691  1.00  0.00     0.031 C 
ATOM     55  C   UNL A   1      43.012  34.166  33.081  1.00  0.00     0.029 A 
ATOM     56  N   UNL A   1      41.764  33.828  31.339  1.00  0.00    -0.354 N 
ATOM     57  C   UNL A   1      41.033  36.224  36.620  1.00  0.00     0.074 A 
ATOM     58  C   UNL A   1      39.721  35.672  36.816  1.00  0.00     0.031 C 
ATOM     59  C   UNL A   1      43.874  33.961  32.086  1.00  0.00     0.029 A 
ATOM     60  C   UNL A   1      43.102  34.083  30.915  1.00  0.00     0.049 A 
ATOM     61  H   UNL A   1      41.056  33.452  30.769  1.00  0.00     0.167 HD
ATOM     62  C   UNL A   1      42.025  36.671  37.471  1.00  0.00     0.034 A 
ATOM     63  C   UNL A   1      43.442  35.071  30.039  1.00  0.00     0.034 A 
ATOM     64  C   UNL A   1      43.235  37.082  36.699  1.00  0.00     0.049 A 
ATOM     65  C   UNL A   1      43.863  36.406  30.716  1.00  0.00     0.074 A 
ATOM     66  C   UNL A   1      44.597  36.828  36.791  1.00  0.00     0.029 A 
ATOM     67  N   UNL A   1      43.082  37.752  35.490  1.00  0.00    -0.354 N 
ATOM     68  N   UNL A   1      43.964  36.612  32.020  1.00  0.00    -0.248 NA
ATOM     69  C   UNL A   1      44.291  37.592  29.970  1.00  0.00     0.031 C 
ATOM     70  C   UNL A   1      45.195  37.122  35.528  1.00  0.00     0.029 A 
ATOM     71  C   UNL A   1      44.231  37.705  34.723  1.00  0.00     0.049 A 
ATOM     72  H   UNL A   1      42.253  38.207  35.212  1.00  0.00     0.167 HD
ATOM     73  C   UNL A   1      44.294  37.928  32.285  1.00  0.00     0.074 A 
ATOM     74  C   UNL A   1      44.568  38.462  30.960  1.00  0.00     0.031 C 
ATOM     75  C   UNL A   1      44.300  38.529  33.527  1.00  0.00     0.034 A 
BRANCH  62  76
ATOM     76  C   UNL A   1      42.089  36.568  39.041  1.00  0.00     0.023 A 
ATOM     77  C   UNL A   1      41.471  37.627  39.765  1.00  0.00     0.012 A 
ATOM     78  C   UNL A   1      42.752  35.614  39.870  1.00  0.00     0.148 A 
ATOM     79  C   UNL A   1      41.549  37.786  41.160  1.00  0.00     0.002 A 
ATOM     80  C   UNL A   1      42.753  35.725  41.285  1.00  0.00     0.091 A 
ATOM     81  F   UNL A   1      43.429  34.607  39.311  1.00  0.00    -0.205 F 
ATOM     82  C   UNL A   1      42.179  36.828  41.925  1.00  0.00     0.022 A 
BRANCH  80  83
ATOM     83  S   UNL A   1      43.418  34.473  42.417  1.00  0.00     0.127 S 
ATOM     84  O   UNL A   1      43.113  35.034  43.734  1.00  0.00    -0.237 OA
ATOM     85  O   UNL A   1      42.625  33.291  42.074  1.00  0.00    -0.237 OA
ATOM     86  O   UNL A   1      44.838  34.363  42.111  1.00  0.00    -0.744 OA
ENDBRANCH  80  83
ENDBRANCH  62  76
BRANCH  63  87
ATOM     87  C   UNL A   1      42.833  34.691  28.716  1.00  0.00     0.023 A 
ATOM     88  C   UNL A   1      42.152  35.791  28.091  1.00  0.00     0.012 A 
ATOM     89  C   UNL A   1      43.627  33.868  27.913  1.00  0.00     0.148 A 
ATOM     90  C   UNL A   1      42.561  36.259  26.835  1.00  0.00     0.002 A 
ATOM     91  C   UNL A   1      44.047  34.354  26.675  1.00  0.00     0.091 A 
ATOM     92  F   UNL A   1      44.147  32.761  28.461  1.00  0.00    -0.205 F 
ATOM     93  C   UNL A   1      43.559  35.573  26.158  1.00  0.00     0.022 A 
BRANCH  91  94
ATOM     94  S   UNL A   1      45.523  33.665  25.931  1.00  0.00     0.127 S 
ATOM     95  O   UNL A   1      45.094  32.339  25.509  1.00  0.00    -0.237 OA
ATOM     96  O   UNL A   1      45.755  34.592  24.829  1.00  0.00    -0.237 OA
ATOM     97  O   UNL A   1      46.521  33.705  26.990  1.00  0.00    -0.744 OA
ENDBRANCH  91  94
ENDBRANCH  63  87
BRANCH  75  98
ATOM     98  C   UNL A   1      44.316  40.045  33.812  1.00  0.00     0.023 A 
ATOM     99  C   UNL A   1      45.277  40.627  34.650  1.00  0.00     0.012 A 
ATOM    100  C   UNL A   1      43.499  40.960  33.066  1.00  0.00     0.148 A 
ATOM    101  C   UNL A   1      45.385  42.015  34.801  1.00  0.00     0.002 A 
ATOM    102  C   UNL A   1      43.709  42.334  33.113  1.00  0.00     0.091 A 
ATOM    103  F   UNL A   1      42.485  40.515  32.315  1.00  0.00    -0.205 F 
ATOM    104  C   UNL A   1      44.624  42.868  34.014  1.00  0.00     0.022 A 
BRANCH 102 105
ATOM    105  S   UNL A   1      42.949  43.460  31.925  1.00  0.00     0.127 S 
ATOM    106  O   UNL A   1      42.060  44.244  32.781  1.00  0.00    -0.237 OA
ATOM    107  O   UNL A   1      44.110  44.195  31.418  1.00  0.00    -0.237 OA
ATOM    108  O   UNL A   1      42.295  42.617  30.934  1.00  0.00    -0.744 OA
ENDBRANCH 102 105
ENDBRANCH  75  98
ENDBRANCH  49  50
ENDBRANCH  42  44
ENDBRANCH  41  42
ENDBRANCH  40  41
ENDBRANCH  39  40
ENDBRANCH  38  39
ENDBRANCH  37  38
ENDBRANCH   1  37
TORSDOF 25
ENDMDL
MODEL 2
REMARK VINA RESULT:      -9.7      4.969     11.366
REMARK SMILES Cc1cccc(N2C(=O)/C(=C/c3ccc(C(=O)OCCOCCOCCOCCOC(=O)c4ccc(-c5c6nc(c(-c7cccc(S(=O)(=O)[O-])c7F)c7ccc([nH]7)c(-c7cccc(S(=O)(=O)[O-])c7F)c7nc(c(-c8cccc(S(=O)(=O)[O-])c8F)c8ccc5[nH]8)C=C7)C=C6)cc4)cc3)c3ccccc3C2=O)c1
REMARK SMILES IDX 25 1 24 2 23 3 22 4 21 5 20 6 19 7 18 8 16 9 17 10 15 11
REMARK SMILES IDX 12 12 13 13 97 14 14 15 96 16 11 17 7 18 8 19 104 20 9 21
REMARK SMILES IDX 10 22 103 23 105 24 98 25 102 26 99 27 101 28 100 29 6 30
REMARK SMILES IDX 1 31 2 32 3 33 106 34 4 35 5 36 26 37 27 38 28 39 29 40
REMARK SMILES IDX 30 41 31 42 32 43 33 44 34 45 95 46 35 47 94 48 36 49 37 50
REMARK SMILES IDX 38 51 88 52 39 53 93 54 87 55 89 56 40 57 92 58 86 59 85 60
REMARK SMILES IDX 41 62 73 63 53 64 72 65 54 66 57 67 71 68 90 69 55 70 56 71
REMARK SMILES IDX 70 73 91 74 58 75 42 76 43 77 51 78 44 79 46 80 52 81 45 82
REMARK SMILES IDX 47 83 48 84 49 85 50 86 74 87 75 88 83 89 76 90 78 91 84 92
REMARK SMILES IDX 77 93 79 94 80 95 81 96 82 97 59 98 60 99 68 100 61 101
REMARK SMILES IDX 63 102 69 103 62 104 64 105 65 106 66 107 67 108
REMARK H PARENT 89 61 57 72
REMARK Flexibility Score: inf
ROOT
ATOM      1  C   UNL A   1      36.894  22.253  24.996  1.00  0.00     0.188 C 
ENDROOT
BRANCH   1   2
ATOM      2  O   UNL A   1      36.201  23.447  25.268  1.00  0.00    -0.377 OA
BRANCH   2   3
ATOM      3  C   UNL A   1      35.251  23.871  24.311  1.00  0.00     0.188 C 
BRANCH   3   4
ATOM      4  C   UNL A   1      34.138  24.790  24.832  1.00  0.00     0.188 C 
BRANCH   4   5
ATOM      5  O   UNL A   1      34.023  26.145  24.406  1.00  0.00    -0.376 OA
BRANCH   5   6
ATOM      6  C   UNL A   1      33.282  27.045  25.211  1.00  0.00     0.202 C 
BRANCH   6   7
ATOM      7  C   UNL A   1      33.690  28.487  25.130  1.00  0.00     0.261 C 
BRANCH   7   8
ATOM      8  O   UNL A   1      34.129  28.967  26.378  1.00  0.00    -0.460 OA
BRANCH   8   9
ATOM      9  C   UNL A   1      33.270  29.807  26.942  1.00  0.00     0.338 C 
ATOM     10  O   UNL A   1      32.088  29.664  27.185  1.00  0.00    -0.246 OA
BRANCH   9  11
ATOM     11  C   UNL A   1      34.141  30.779  27.573  1.00  0.00     0.060 A 
ATOM     12  C   UNL A   1      36.096  32.454  28.484  1.00  0.00    -0.025 A 
ATOM     13  C   UNL A   1      36.371  31.093  28.313  1.00  0.00     0.009 A 
ATOM     14  C   UNL A   1      34.834  32.984  28.184  1.00  0.00     0.009 A 
ATOM     15  C   UNL A   1      35.385  30.249  27.882  1.00  0.00     0.016 A 
ATOM     16  C   UNL A   1      33.854  32.147  27.676  1.00  0.00     0.016 A 
BRANCH  12  17
ATOM     17  C   UNL A   1      37.185  33.196  29.084  1.00  0.00     0.022 C 
ATOM     18  N   UNL A   1      39.354  33.810  31.610  1.00  0.00    -0.242 N 
ATOM     19  C   UNL A   1      38.670  34.298  30.490  1.00  0.00     0.265 C 
ATOM     20  C   UNL A   1      38.630  33.200  32.668  1.00  0.00     0.265 C 
ATOM     21  O   UNL A   1      39.027  35.116  29.646  1.00  0.00    -0.268 OA
ATOM     22  C   UNL A   1      37.327  33.702  30.315  1.00  0.00     0.049 C 
ATOM     23  C   UNL A   1      37.141  33.350  32.669  1.00  0.00     0.048 A 
ATOM     24  O   UNL A   1      39.090  32.572  33.619  1.00  0.00    -0.268 OA
ATOM     25  C   UNL A   1      36.475  33.623  31.478  1.00  0.00    -0.000 A 
ATOM     26  C   UNL A   1      36.408  33.202  33.854  1.00  0.00     0.014 A 
ATOM     27  C   UNL A   1      35.089  33.818  31.472  1.00  0.00     0.010 A 
ATOM     28  C   UNL A   1      35.019  33.351  33.841  1.00  0.00     0.001 A 
ATOM     29  C   UNL A   1      34.361  33.664  32.652  1.00  0.00     0.001 A 
BRANCH  18  30
ATOM     30  C   UNL A   1      40.806  33.978  31.679  1.00  0.00     0.053 A 
ATOM     31  C   UNL A   1      43.349  35.792  33.904  1.00  0.00     0.044 C 
ATOM     32  C   UNL A   1      42.803  34.936  32.798  1.00  0.00    -0.049 A 
ATOM     33  C   UNL A   1      43.640  34.239  31.938  1.00  0.00     0.003 A 
ATOM     34  C   UNL A   1      41.414  34.802  32.648  1.00  0.00     0.030 A 
ATOM     35  C   UNL A   1      43.085  33.454  30.934  1.00  0.00     0.002 A 
ATOM     36  C   UNL A   1      41.692  33.332  30.805  1.00  0.00     0.027 A 
ENDBRANCH  18  30
ENDBRANCH  12  17
ENDBRANCH   9  11
ENDBRANCH   8   9
ENDBRANCH   7   8
ENDBRANCH   6   7
ENDBRANCH   5   6
ENDBRANCH   4   5
ENDBRANCH   3   4
ENDBRANCH   2   3
ENDBRANCH   1   2
BRANCH   1  37
ATOM     37  C   UNL A   1      38.236  21.976  25.732  1.00  0.00     0.188 C 
BRANCH  37  38
ATOM     38  O   UNL A   1      38.733  22.980  26.571  1.00  0.00    -0.376 OA
BRANCH  38  39
ATOM     39  C   UNL A   1      40.050  22.669  26.954  1.00  0.00     0.202 C 
BRANCH  39  40
ATOM     40  C   UNL A   1      41.245  23.517  26.376  1.00  0.00     0.261 C 
BRANCH  40  41
ATOM     41  O   UNL A   1      42.590  23.023  25.721  1.00  0.00    -0.460 OA
BRANCH  41  42
ATOM     42  C   UNL A   1      43.768  22.568  25.215  1.00  0.00     0.338 C 
ATOM     43  O   UNL A   1      43.711  21.544  24.538  1.00  0.00    -0.246 OA
BRANCH  42  44
ATOM     44  C   UNL A   1      45.191  23.066  25.539  1.00  0.00     0.060 A 
ATOM     45  C   UNL A   1      45.664  23.026  26.842  1.00  0.00     0.016 A 
ATOM     46  C   UNL A   1      46.091  23.686  24.708  1.00  0.00     0.016 A 
ATOM     47  C   UNL A   1      46.432  24.097  27.348  1.00  0.00     0.010 A 
ATOM     48  C   UNL A   1      46.701  24.850  25.191  1.00  0.00     0.010 A 
ATOM     49  C   UNL A   1      46.648  25.186  26.545  1.00  0.00    -0.014 A 
BRANCH  49  50
ATOM     50  C   UNL A   1      46.788  26.626  26.953  1.00  0.00     0.031 A 
ATOM     51  C   UNL A   1      45.450  27.369  27.137  1.00  0.00     0.074 A 
ATOM     52  C   UNL A   1      47.994  26.980  27.532  1.00  0.00     0.049 A 
ATOM     53  N   UNL A   1      45.244  28.552  27.622  1.00  0.00    -0.248 NA
ATOM     54  C   UNL A   1      44.161  26.754  26.768  1.00  0.00     0.031 C 
ATOM     55  C   UNL A   1      48.259  27.695  28.782  1.00  0.00     0.029 A 
ATOM     56  N   UNL A   1      49.322  26.676  27.191  1.00  0.00    -0.354 N 
ATOM     57  C   UNL A   1      43.885  28.662  27.999  1.00  0.00     0.074 A 
ATOM     58  C   UNL A   1      43.255  27.533  27.372  1.00  0.00     0.031 C 
ATOM     59  C   UNL A   1      49.546  27.900  29.055  1.00  0.00     0.029 A 
ATOM     60  C   UNL A   1      50.223  27.549  27.871  1.00  0.00     0.049 A 
ATOM     61  H   UNL A   1      49.593  25.960  26.572  1.00  0.00     0.167 HD
ATOM     62  C   UNL A   1      43.475  29.596  28.929  1.00  0.00     0.034 A 
ATOM     63  C   UNL A   1      50.946  28.522  27.248  1.00  0.00     0.034 A 
ATOM     64  C   UNL A   1      44.595  30.520  29.277  1.00  0.00     0.049 A 
ATOM     65  C   UNL A   1      50.268  29.921  27.252  1.00  0.00     0.074 A 
ATOM     66  C   UNL A   1      45.150  30.997  30.457  1.00  0.00     0.029 A 
ATOM     67  N   UNL A   1      45.463  30.951  28.279  1.00  0.00    -0.354 N 
ATOM     68  N   UNL A   1      49.123  30.224  27.844  1.00  0.00    -0.248 NA
ATOM     69  C   UNL A   1      50.877  31.117  26.663  1.00  0.00     0.031 C 
ATOM     70  C   UNL A   1      46.463  31.482  30.172  1.00  0.00     0.029 A 
ATOM     71  C   UNL A   1      46.643  31.450  28.799  1.00  0.00     0.049 A 
ATOM     72  H   UNL A   1      45.261  30.907  27.316  1.00  0.00     0.167 HD
ATOM     73  C   UNL A   1      48.773  31.537  27.595  1.00  0.00     0.074 A 
ATOM     74  C   UNL A   1      49.954  32.061  26.926  1.00  0.00     0.031 C 
ATOM     75  C   UNL A   1      47.564  32.127  27.900  1.00  0.00     0.034 A 
BRANCH  62  76
ATOM     76  C   UNL A   1      42.139  29.628  29.764  1.00  0.00     0.023 A 
ATOM     77  C   UNL A   1      40.971  30.042  29.063  1.00  0.00     0.012 A 
ATOM     78  C   UNL A   1      41.922  29.389  31.154  1.00  0.00     0.148 A 
ATOM     79  C   UNL A   1      39.722  30.271  29.666  1.00  0.00     0.002 A 
ATOM     80  C   UNL A   1      40.640  29.533  31.746  1.00  0.00     0.091 A 
ATOM     81  F   UNL A   1      42.952  29.061  31.940  1.00  0.00    -0.205 F 
ATOM     82  C   UNL A   1      39.550  30.004  31.008  1.00  0.00     0.022 A 
BRANCH  80  83
ATOM     83  S   UNL A   1      40.239  29.085  33.458  1.00  0.00     0.127 S 
ATOM     84  O   UNL A   1      41.081  29.995  34.235  1.00  0.00    -0.237 OA
ATOM     85  O   UNL A   1      38.808  29.387  33.531  1.00  0.00    -0.237 OA
ATOM     86  O   UNL A   1      40.571  27.673  33.596  1.00  0.00    -0.744 OA
ENDBRANCH  80  83
ENDBRANCH  62  76
BRANCH  63  87
ATOM     87  C   UNL A   1      51.924  27.812  26.350  1.00  0.00     0.023 A 
ATOM     88  C   UNL A   1      51.474  27.757  24.987  1.00  0.00     0.012 A 
ATOM     89  C   UNL A   1      53.269  28.109  26.587  1.00  0.00     0.148 A 
ATOM     90  C   UNL A   1      52.229  28.350  23.965  1.00  0.00     0.002 A 
ATOM     91  C   UNL A   1      54.002  28.720  25.571  1.00  0.00     0.091 A 
ATOM     92  F   UNL A   1      53.724  28.021  27.845  1.00  0.00    -0.205 F 
ATOM     93  C   UNL A   1      53.468  28.890  24.276  1.00  0.00     0.022 A 
BRANCH  91  94
ATOM     94  S   UNL A   1      55.453  29.677  26.006  1.00  0.00     0.127 S 
ATOM     95  O   UNL A   1      55.950  30.131  24.715  1.00  0.00    -0.237 OA
ATOM     96  O   UNL A   1      54.870  30.736  26.823  1.00  0.00    -0.237 OA
ATOM     97  O   UNL A   1      56.306  28.743  26.726  1.00  0.00    -0.744 OA
ENDBRANCH  91  94
ENDBRANCH  63  87
BRANCH  75  98
ATOM     98  C   UNL A   1      47.022  33.455  27.333  1.00  0.00     0.023 A 
ATOM     99  C   UNL A   1      46.060  33.482  26.313  1.00  0.00     0.012 A 
ATOM    100  C   UNL A   1      47.301  34.713  27.964  1.00  0.00     0.148 A 
ATOM    101  C   UNL A   1      45.462  34.676  25.891  1.00  0.00     0.002 A 
ATOM    102  C   UNL A   1      46.599  35.868  27.638  1.00  0.00     0.091 A 
ATOM    103  F   UNL A   1      48.274  34.819  28.878  1.00  0.00    -0.205 F 
ATOM    104  C   UNL A   1      45.707  35.862  26.569  1.00  0.00     0.022 A 
BRANCH 102 105
ATOM    105  S   UNL A   1      46.676  37.356  28.655  1.00  0.00     0.127 S 
ATOM    106  O   UNL A   1      48.035  37.284  29.188  1.00  0.00    -0.237 OA
ATOM    107  O   UNL A   1      46.466  38.413  27.663  1.00  0.00    -0.237 OA
ATOM    108  O   UNL A   1      45.603  37.231  29.632  1.00  0.00    -0.744 OA
ENDBRANCH 102 105
ENDBRANCH  75  98
ENDBRANCH  49  50
ENDBRANCH  42  44
ENDBRANCH  41  42
ENDBRANCH  40  41
ENDBRANCH  39  40
ENDBRANCH  38  39
ENDBRANCH  37  38
ENDBRANCH   1  37
TORSDOF 25
ENDMDL
MODEL 3
REMARK VINA RESULT:      -9.6      5.051      9.639
REMARK SMILES Cc1cccc(N2C(=O)/C(=C/c3ccc(C(=O)OCCOCCOCCOCCOC(=O)c4ccc(-c5c6nc(c(-c7cccc(S(=O)(=O)[O-])c7F)c7ccc([nH]7)c(-c7cccc(S(=O)(=O)[O-])c7F)c7nc(c(-c8cccc(S(=O)(=O)[O-])c8F)c8ccc5[nH]8)C=C7)C=C6)cc4)cc3)c3ccccc3C2=O)c1
REMARK SMILES IDX 25 1 24 2 23 3 22 4 21 5 20 6 19 7 18 8 16 9 17 10 15 11
REMARK SMILES IDX 12 12 13 13 97 14 14 15 96 16 11 17 7 18 8 19 104 20 9 21
REMARK SMILES IDX 10 22 103 23 105 24 98 25 102 26 99 27 101 28 100 29 6 30
REMARK SMILES IDX 1 31 2 32 3 33 106 34 4 35 5 36 26 37 27 38 28 39 29 40
REMARK SMILES IDX 30 41 31 42 32 43 33 44 34 45 95 46 35 47 94 48 36 49 37 50
REMARK SMILES IDX 38 51 88 52 39 53 93 54 87 55 89 56 40 57 92 58 86 59 85 60
REMARK SMILES IDX 41 62 73 63 53 64 72 65 54 66 57 67 71 68 90 69 55 70 56 71
REMARK SMILES IDX 70 73 91 74 58 75 42 76 43 77 51 78 44 79 46 80 52 81 45 82
REMARK SMILES IDX 47 83 48 84 49 85 50 86 74 87 75 88 83 89 76 90 78 91 84 92
REMARK SMILES IDX 77 93 79 94 80 95 81 96 82 97 59 98 60 99 68 100 61 101
REMARK SMILES IDX 63 102 69 103 62 104 64 105 65 106 66 107 67 108
REMARK H PARENT 89 61 57 72
REMARK Flexibility Score: inf
ROOT
ATOM      1  C   UNL A   1      45.252  26.898  27.714  1.00  0.00     0.188 C 
ENDROOT
BRANCH   1   2
ATOM      2  O   UNL A   1      44.292  26.404  28.617  1.00  0.00    -0.377 OA
BRANCH   2   3
ATOM      3  C   UNL A   1      43.302  25.542  28.094  1.00  0.00     0.188 C 
BRANCH   3   4
ATOM      4  C   UNL A   1      42.841  25.840  26.661  1.00  0.00     0.188 C 
BRANCH   4   5
ATOM      5  O   UNL A   1      42.111  27.020  26.338  1.00  0.00    -0.376 OA
BRANCH   5   6
ATOM      6  C   UNL A   1      41.473  27.727  27.386  1.00  0.00     0.202 C 
BRANCH   6   7
ATOM      7  C   UNL A   1      39.982  27.866  27.273  1.00  0.00     0.261 C 
BRANCH   7   8
ATOM      8  O   UNL A   1      39.426  28.394  28.454  1.00  0.00    -0.460 OA
BRANCH   8   9
ATOM      9  C   UNL A   1      39.266  27.483  29.404  1.00  0.00     0.338 C 
ATOM     10  O   UNL A   1      39.270  26.270  29.327  1.00  0.00    -0.246 OA
BRANCH   9  11
ATOM     11  C   UNL A   1      39.489  28.243  30.617  1.00  0.00     0.060 A 
ATOM     12  C   UNL A   1      39.665  29.360  33.104  1.00  0.00    -0.025 A 
ATOM     13  C   UNL A   1      38.426  28.921  32.625  1.00  0.00     0.009 A 
ATOM     14  C   UNL A   1      40.829  29.226  32.336  1.00  0.00     0.009 A 
ATOM     15  C   UNL A   1      38.332  28.387  31.370  1.00  0.00     0.016 A 
ATOM     16  C   UNL A   1      40.753  28.616  31.094  1.00  0.00     0.016 A 
BRANCH  12  17
ATOM     17  C   UNL A   1      39.588  30.036  34.382  1.00  0.00     0.022 C 
ATOM     18  N   UNL A   1      38.112  32.174  36.552  1.00  0.00    -0.242 N 
ATOM     19  C   UNL A   1      39.279  31.516  36.145  1.00  0.00     0.265 C 
ATOM     20  C   UNL A   1      37.383  32.957  35.619  1.00  0.00     0.265 C 
ATOM     21  O   UNL A   1      40.206  31.073  36.818  1.00  0.00    -0.268 OA
ATOM     22  C   UNL A   1      39.364  31.321  34.682  1.00  0.00     0.049 C 
ATOM     23  C   UNL A   1      38.039  33.272  34.311  1.00  0.00     0.048 A 
ATOM     24  O   UNL A   1      36.263  33.442  35.770  1.00  0.00    -0.268 OA
ATOM     25  C   UNL A   1      39.059  32.453  33.838  1.00  0.00    -0.000 A 
ATOM     26  C   UNL A   1      37.625  34.372  33.549  1.00  0.00     0.014 A 
ATOM     27  C   UNL A   1      39.718  32.763  32.643  1.00  0.00     0.010 A 
ATOM     28  C   UNL A   1      38.251  34.657  32.334  1.00  0.00     0.001 A 
ATOM     29  C   UNL A   1      39.300  33.856  31.883  1.00  0.00     0.001 A 
BRANCH  18  30
ATOM     30  C   UNL A   1      37.692  32.068  37.950  1.00  0.00     0.053 A 
ATOM     31  C   UNL A   1      37.747  34.253  41.101  1.00  0.00     0.044 C 
ATOM     32  C   UNL A   1      37.488  33.073  40.210  1.00  0.00    -0.049 A 
ATOM     33  C   UNL A   1      36.781  31.966  40.657  1.00  0.00     0.003 A 
ATOM     34  C   UNL A   1      37.935  33.100  38.880  1.00  0.00     0.030 A 
ATOM     35  C   UNL A   1      36.561  30.902  39.789  1.00  0.00     0.002 A 
ATOM     36  C   UNL A   1      37.016  30.952  38.462  1.00  0.00     0.027 A 
ENDBRANCH  18  30
ENDBRANCH  12  17
ENDBRANCH   9  11
ENDBRANCH   8   9
ENDBRANCH   7   8
ENDBRANCH   6   7
ENDBRANCH   5   6
ENDBRANCH   4   5
ENDBRANCH   3   4
ENDBRANCH   2   3
ENDBRANCH   1   2
BRANCH   1  37
ATOM     37  C   UNL A   1      45.327  28.431  27.458  1.00  0.00     0.188 C 
BRANCH  37  38
ATOM     38  O   UNL A   1      44.963  29.281  28.509  1.00  0.00    -0.376 OA
BRANCH  38  39
ATOM     39  C   UNL A   1      44.051  30.245  28.045  1.00  0.00     0.202 C 
BRANCH  39  40
ATOM     40  C   UNL A   1      43.972  30.556  26.502  1.00  0.00     0.261 C 
BRANCH  40  41
ATOM     41  O   UNL A   1      43.957  31.950  25.768  1.00  0.00    -0.460 OA
BRANCH  41  42
ATOM     42  C   UNL A   1      43.901  33.127  25.088  1.00  0.00     0.338 C 
ATOM     43  O   UNL A   1      44.111  33.070  23.880  1.00  0.00    -0.246 OA
BRANCH  42  44
ATOM     44  C   UNL A   1      43.793  34.551  25.672  1.00  0.00     0.060 A 
ATOM     45  C   UNL A   1      44.938  35.243  26.037  1.00  0.00     0.016 A 
ATOM     46  C   UNL A   1      42.664  35.253  26.014  1.00  0.00     0.016 A 
ATOM     47  C   UNL A   1      44.949  36.018  27.217  1.00  0.00     0.010 A 
ATOM     48  C   UNL A   1      42.655  35.863  27.274  1.00  0.00     0.010 A 
ATOM     49  C   UNL A   1      43.831  36.023  28.009  1.00  0.00    -0.014 A 
BRANCH  49  50
ATOM     50  C   UNL A   1      43.755  36.141  29.505  1.00  0.00     0.031 A 
ATOM     51  C   UNL A   1      43.263  34.867  30.220  1.00  0.00     0.074 A 
ATOM     52  C   UNL A   1      44.519  37.143  30.078  1.00  0.00     0.049 A 
ATOM     53  N   UNL A   1      43.237  34.613  31.490  1.00  0.00    -0.248 NA
ATOM     54  C   UNL A   1      42.748  33.705  29.472  1.00  0.00     0.031 C 
ATOM     55  C   UNL A   1      45.475  37.076  31.185  1.00  0.00     0.029 A 
ATOM     56  N   UNL A   1      44.721  38.486  29.721  1.00  0.00    -0.354 N 
ATOM     57  C   UNL A   1      43.123  33.215  31.675  1.00  0.00     0.074 A 
ATOM     58  C   UNL A   1      42.751  32.720  30.379  1.00  0.00     0.031 C 
ATOM     59  C   UNL A   1      46.041  38.236  31.515  1.00  0.00     0.029 A 
ATOM     60  C   UNL A   1      45.308  39.205  30.804  1.00  0.00     0.049 A 
ATOM     61  H   UNL A   1      44.491  38.876  28.847  1.00  0.00     0.167 HD
ATOM     62  C   UNL A   1      43.515  32.616  32.856  1.00  0.00     0.034 A 
ATOM     63  C   UNL A   1      44.647  40.150  31.530  1.00  0.00     0.034 A 
ATOM     64  C   UNL A   1      43.856  33.647  33.881  1.00  0.00     0.049 A 
ATOM     65  C   UNL A   1      43.976  39.606  32.823  1.00  0.00     0.074 A 
ATOM     66  C   UNL A   1      44.917  33.860  34.751  1.00  0.00     0.029 A 
ATOM     67  N   UNL A   1      43.085  34.801  33.975  1.00  0.00    -0.354 N 
ATOM     68  N   UNL A   1      44.054  38.362  33.269  1.00  0.00    -0.248 NA
ATOM     69  C   UNL A   1      43.235  40.448  33.766  1.00  0.00     0.031 C 
ATOM     70  C   UNL A   1      44.899  35.230  35.154  1.00  0.00     0.029 A 
ATOM     71  C   UNL A   1      43.741  35.806  34.662  1.00  0.00     0.049 A 
ATOM     72  H   UNL A   1      42.179  34.892  33.598  1.00  0.00     0.167 HD
ATOM     73  C   UNL A   1      43.285  38.199  34.406  1.00  0.00     0.074 A 
ATOM     74  C   UNL A   1      42.872  39.560  34.711  1.00  0.00     0.031 C 
ATOM     75  C   UNL A   1      42.992  37.000  35.023  1.00  0.00     0.034 A 
BRANCH  62  76
ATOM     76  C   UNL A   1      43.842  31.099  33.125  1.00  0.00     0.023 A 
ATOM     77  C   UNL A   1      44.340  30.358  32.016  1.00  0.00     0.012 A 
ATOM     78  C   UNL A   1      43.637  30.313  34.298  1.00  0.00     0.148 A 
ATOM     79  C   UNL A   1      44.552  28.969  32.020  1.00  0.00     0.002 A 
ATOM     80  C   UNL A   1      43.937  28.925  34.330  1.00  0.00     0.091 A 
ATOM     81  F   UNL A   1      43.109  30.874  35.390  1.00  0.00    -0.205 F 
ATOM     82  C   UNL A   1      44.363  28.250  33.182  1.00  0.00     0.022 A 
BRANCH  80  83
ATOM     83  S   UNL A   1      43.871  27.890  35.819  1.00  0.00     0.127 S 
ATOM     84  O   UNL A   1      42.766  28.482  36.574  1.00  0.00    -0.237 OA
ATOM     85  O   UNL A   1      43.573  26.567  35.265  1.00  0.00    -0.237 OA
ATOM     86  O   UNL A   1      45.179  28.005  36.451  1.00  0.00    -0.744 OA
ENDBRANCH  80  83
ENDBRANCH  62  76
BRANCH  63  87
ATOM     87  C   UNL A   1      44.381  41.296  30.591  1.00  0.00     0.023 A 
ATOM     88  C   UNL A   1      45.573  41.749  29.929  1.00  0.00     0.012 A 
ATOM     89  C   UNL A   1      43.211  41.182  29.834  1.00  0.00     0.148 A 
ATOM     90  C   UNL A   1      45.671  41.704  28.531  1.00  0.00     0.002 A 
ATOM     91  C   UNL A   1      43.324  41.114  28.446  1.00  0.00     0.091 A 
ATOM     92  F   UNL A   1      42.069  40.899  30.474  1.00  0.00    -0.205 F 
ATOM     93  C   UNL A   1      44.559  41.321  27.795  1.00  0.00     0.022 A 
BRANCH  91  94
ATOM     94  S   UNL A   1      42.007  40.343  27.508  1.00  0.00     0.127 S 
ATOM     95  O   UNL A   1      41.970  38.988  28.039  1.00  0.00    -0.237 OA
ATOM     96  O   UNL A   1      40.860  41.161  27.887  1.00  0.00    -0.237 OA
ATOM     97  O   UNL A   1      42.423  40.472  26.118  1.00  0.00    -0.744 OA
ENDBRANCH  91  94
ENDBRANCH  63  87
BRANCH  75  98
ATOM     98  C   UNL A   1      41.876  36.750  36.058  1.00  0.00     0.023 A 
ATOM     99  C   UNL A   1      40.623  36.247  35.682  1.00  0.00     0.012 A 
ATOM    100  C   UNL A   1      42.132  36.803  37.469  1.00  0.00     0.148 A 
ATOM    101  C   UNL A   1      39.656  35.886  36.629  1.00  0.00     0.002 A 
ATOM    102  C   UNL A   1      41.223  36.308  38.398  1.00  0.00     0.091 A 
ATOM    103  F   UNL A   1      43.255  37.359  37.939  1.00  0.00    -0.205 F 
ATOM    104  C   UNL A   1      39.963  35.888  37.982  1.00  0.00     0.022 A 
BRANCH 102 105
ATOM    105  S   UNL A   1      41.671  36.035  40.124  1.00  0.00     0.127 S 
ATOM    106  O   UNL A   1      42.535  34.860  40.027  1.00  0.00    -0.237 OA
ATOM    107  O   UNL A   1      42.369  37.279  40.457  1.00  0.00    -0.237 OA
ATOM    108  O   UNL A   1      40.416  35.844  40.839  1.00  0.00    -0.744 OA
ENDBRANCH 102 105
ENDBRANCH  75  98
ENDBRANCH  49  50
ENDBRANCH  42  44
ENDBRANCH  41  42
ENDBRANCH  40  41
ENDBRANCH  39  40
ENDBRANCH  38  39
ENDBRANCH  37  38
ENDBRANCH   1  37
TORSDOF 25
ENDMDL
