MODEL 1
REMARK VINA RESULT:      -8.2      0.000      0.000
REMARK SMILES O=C(OCCOCCOCCOCCOC(=O)[C@@H]1C[C@@H]1C(=O)N1CC2(CCCC2)c2c(F)cccc21)c1ccc(-c2c3nc(c(-c4cccc(S(=O)(=O)[O-])c4F)c4ccc([nH]4)c(-c4cccc(S(=O)(=O)[O-])c4F)c4nc(c(-c5cccc(S(=O)(=O)[O-])c5F)c5ccc2[nH]5)C=C4)C=C3)cc1
REMARK SMILES IDX 8 1 7 2 6 3 5 4 4 5 3 6 2 7 1 8 37 9 38 10 99 11 39 12 98 13
REMARK SMILES IDX 40 14 41 15 42 16 92 17 43 18 97 19 91 20 93 21 44 22 96 23
REMARK SMILES IDX 90 24 89 25 45 27 77 28 57 29 76 30 58 31 61 32 75 33 94 34
REMARK SMILES IDX 59 35 60 36 74 38 95 39 62 40 46 41 47 42 55 43 48 44 50 45
REMARK SMILES IDX 56 46 49 47 51 48 52 49 53 50 54 51 78 52 79 53 87 54 80 55
REMARK SMILES IDX 82 56 88 57 81 58 83 59 84 60 85 61 86 62 63 63 64 64 72 65
REMARK SMILES IDX 65 66 67 67 73 68 66 69 68 70 69 71 70 72 71 73 9 74 10 75
REMARK SMILES IDX 11 76 12 77 13 78 14 79 15 80 16 81 17 82 18 83 19 84 20 85
REMARK SMILES IDX 21 86 22 87 23 88 24 89 36 90 25 91 30 92 35 93 26 94 29 95
REMARK SMILES IDX 31 96 34 97 27 98 28 99 32 100 33 101
REMARK H PARENT 93 26 61 37
REMARK Flexibility Score: inf
ROOT
ATOM      1  C   UNL A   1      34.065  34.843  29.944  1.00  0.00     0.188 C 
ENDROOT
BRANCH   1   2
ATOM      2  C   UNL A   1      32.963  35.870  30.248  1.00  0.00     0.188 C 
BRANCH   2   3
ATOM      3  O   UNL A   1      33.039  36.472  31.533  1.00  0.00    -0.376 OA
BRANCH   3   4
ATOM      4  C   UNL A   1      33.253  35.575  32.613  1.00  0.00     0.202 C 
BRANCH   4   5
ATOM      5  C   UNL A   1      34.276  36.150  33.588  1.00  0.00     0.261 C 
BRANCH   5   6
ATOM      6  O   UNL A   1      35.541  35.479  33.453  1.00  0.00    -0.460 OA
BRANCH   6   7
ATOM      7  C   UNL A   1      36.120  34.494  34.175  1.00  0.00     0.338 C 
ATOM      8  O   UNL A   1      35.487  34.080  35.149  1.00  0.00    -0.246 OA
BRANCH   7   9
ATOM      9  C   UNL A   1      37.466  33.872  33.915  1.00  0.00     0.060 A 
ATOM     10  C   UNL A   1      38.717  34.444  34.157  1.00  0.00     0.016 A 
ATOM     11  C   UNL A   1      37.453  32.562  33.390  1.00  0.00     0.016 A 
ATOM     12  C   UNL A   1      39.902  33.753  33.902  1.00  0.00     0.010 A 
ATOM     13  C   UNL A   1      38.635  31.874  33.091  1.00  0.00     0.010 A 
ATOM     14  C   UNL A   1      39.864  32.486  33.327  1.00  0.00    -0.014 A 
BRANCH  14  15
ATOM     15  C   UNL A   1      41.120  31.940  32.785  1.00  0.00     0.031 A 
ATOM     16  C   UNL A   1      41.685  30.718  33.447  1.00  0.00     0.074 A 
ATOM     17  C   UNL A   1      41.691  32.468  31.690  1.00  0.00     0.049 A 
ATOM     18  N   UNL A   1      42.679  29.963  33.071  1.00  0.00    -0.248 NA
ATOM     19  C   UNL A   1      41.013  30.266  34.680  1.00  0.00     0.031 C 
ATOM     20  C   UNL A   1      41.190  33.626  30.951  1.00  0.00     0.029 A 
ATOM     21  N   UNL A   1      42.819  32.091  31.011  1.00  0.00    -0.354 N 
ATOM     22  C   UNL A   1      42.743  28.942  34.009  1.00  0.00     0.074 A 
ATOM     23  C   UNL A   1      41.690  29.166  34.971  1.00  0.00     0.031 C 
ATOM     24  C   UNL A   1      42.026  33.881  29.929  1.00  0.00     0.029 A 
ATOM     25  C   UNL A   1      43.117  32.908  29.949  1.00  0.00     0.049 A 
ATOM     26  H   UNL A   1      43.364  31.310  31.260  1.00  0.00     0.167 HD
ATOM     27  C   UNL A   1      43.607  27.907  34.058  1.00  0.00     0.034 A 
ATOM     28  C   UNL A   1      44.161  32.872  29.096  1.00  0.00     0.034 A 
ATOM     29  C   UNL A   1      44.678  27.721  33.126  1.00  0.00     0.049 A 
ATOM     30  C   UNL A   1      45.169  31.763  29.227  1.00  0.00     0.074 A 
ATOM     31  C   UNL A   1      45.618  26.710  33.091  1.00  0.00     0.029 A 
ATOM     32  N   UNL A   1      44.973  28.593  32.090  1.00  0.00    -0.354 N 
ATOM     33  N   UNL A   1      45.160  30.742  30.051  1.00  0.00    -0.248 NA
ATOM     34  C   UNL A   1      46.315  31.780  28.307  1.00  0.00     0.031 C 
ATOM     35  C   UNL A   1      46.504  26.988  32.047  1.00  0.00     0.029 A 
ATOM     36  C   UNL A   1      46.101  28.160  31.422  1.00  0.00     0.049 A 
ATOM     37  H   UNL A   1      44.458  29.400  31.864  1.00  0.00     0.167 HD
ATOM     38  C   UNL A   1      46.282  29.985  29.739  1.00  0.00     0.074 A 
ATOM     39  C   UNL A   1      46.950  30.662  28.645  1.00  0.00     0.031 C 
ATOM     40  C   UNL A   1      46.722  28.837  30.311  1.00  0.00     0.034 A 
BRANCH  27  41
ATOM     41  C   UNL A   1      43.425  26.907  35.160  1.00  0.00     0.023 A 
ATOM     42  C   UNL A   1      42.488  25.868  35.004  1.00  0.00     0.012 A 
ATOM     43  C   UNL A   1      44.197  26.984  36.334  1.00  0.00     0.148 A 
ATOM     44  C   UNL A   1      42.315  24.919  36.010  1.00  0.00     0.002 A 
ATOM     45  C   UNL A   1      44.036  26.020  37.321  1.00  0.00     0.091 A 
ATOM     46  F   UNL A   1      45.057  28.002  36.465  1.00  0.00    -0.205 F 
ATOM     47  C   UNL A   1      43.092  24.990  37.162  1.00  0.00     0.022 A 
BRANCH  45  48
ATOM     48  S   UNL A   1      45.010  26.006  38.828  1.00  0.00     0.127 S 
ATOM     49  O   UNL A   1      44.768  24.650  39.321  1.00  0.00    -0.237 OA
ATOM     50  O   UNL A   1      46.361  26.238  38.320  1.00  0.00    -0.237 OA
ATOM     51  O   UNL A   1      44.477  27.072  39.663  1.00  0.00    -0.744 OA
ENDBRANCH  45  48
ENDBRANCH  27  41
BRANCH  28  52
ATOM     52  C   UNL A   1      44.259  33.908  28.033  1.00  0.00     0.023 A 
ATOM     53  C   UNL A   1      43.678  33.670  26.774  1.00  0.00     0.012 A 
ATOM     54  C   UNL A   1      44.829  35.168  28.304  1.00  0.00     0.148 A 
ATOM     55  C   UNL A   1      43.656  34.673  25.803  1.00  0.00     0.002 A 
ATOM     56  C   UNL A   1      44.772  36.173  27.346  1.00  0.00     0.091 A 
ATOM     57  F   UNL A   1      45.377  35.366  29.510  1.00  0.00    -0.205 F 
ATOM     58  C   UNL A   1      44.192  35.926  26.092  1.00  0.00     0.022 A 
BRANCH  56  59
ATOM     59  S   UNL A   1      45.338  37.849  27.661  1.00  0.00     0.127 S 
ATOM     60  O   UNL A   1      44.240  38.392  28.457  1.00  0.00    -0.237 OA
ATOM     61  O   UNL A   1      46.577  37.608  28.401  1.00  0.00    -0.237 OA
ATOM     62  O   UNL A   1      45.518  38.463  26.352  1.00  0.00    -0.744 OA
ENDBRANCH  56  59
ENDBRANCH  28  52
BRANCH  40  63
ATOM     63  C   UNL A   1      47.984  28.211  29.789  1.00  0.00     0.023 A 
ATOM     64  C   UNL A   1      49.192  28.427  30.478  1.00  0.00     0.012 A 
ATOM     65  C   UNL A   1      47.925  27.249  28.762  1.00  0.00     0.148 A 
ATOM     66  C   UNL A   1      50.325  27.682  30.160  1.00  0.00     0.002 A 
ATOM     67  C   UNL A   1      49.048  26.484  28.477  1.00  0.00     0.091 A 
ATOM     68  F   UNL A   1      46.757  27.065  28.129  1.00  0.00    -0.205 F 
ATOM     69  C   UNL A   1      50.249  26.700  29.172  1.00  0.00     0.022 A 
BRANCH  67  70
ATOM     70  S   UNL A   1      49.023  25.132  27.294  1.00  0.00     0.127 S 
ATOM     71  O   UNL A   1      50.269  24.436  27.611  1.00  0.00    -0.237 OA
ATOM     72  O   UNL A   1      47.808  24.413  27.675  1.00  0.00    -0.237 OA
ATOM     73  O   UNL A   1      48.982  25.748  25.974  1.00  0.00    -0.744 OA
ENDBRANCH  67  70
ENDBRANCH  40  63
ENDBRANCH  14  15
ENDBRANCH   7   9
ENDBRANCH   6   7
ENDBRANCH   5   6
ENDBRANCH   4   5
ENDBRANCH   3   4
ENDBRANCH   2   3
ENDBRANCH   1   2
BRANCH   1  74
ATOM     74  O   UNL A   1      33.719  33.473  29.746  1.00  0.00    -0.377 OA
BRANCH  74  75
ATOM     75  C   UNL A   1      34.409  32.715  28.753  1.00  0.00     0.188 C 
BRANCH  75  76
ATOM     76  C   UNL A   1      33.664  31.806  27.752  1.00  0.00     0.188 C 
BRANCH  76  77
ATOM     77  O   UNL A   1      34.483  30.818  27.161  1.00  0.00    -0.376 OA
BRANCH  77  78
ATOM     78  C   UNL A   1      35.543  30.245  27.927  1.00  0.00     0.202 C 
BRANCH  78  79
ATOM     79  C   UNL A   1      36.986  30.230  27.387  1.00  0.00     0.261 C 
BRANCH  79  80
ATOM     80  O   UNL A   1      37.836  29.383  28.159  1.00  0.00    -0.463 OA
BRANCH  80  81
ATOM     81  C   UNL A   1      38.069  29.771  29.442  1.00  0.00     0.309 C 
ATOM     82  O   UNL A   1      38.450  30.859  29.820  1.00  0.00    -0.252 OA
BRANCH  81  83
ATOM     83  C   UNL A   1      37.569  28.745  30.393  1.00  0.00     0.112 C 
ATOM     84  C   UNL A   1      37.826  28.797  31.868  1.00  0.00     0.030 C 
ATOM     85  C   UNL A   1      38.505  27.731  31.026  1.00  0.00     0.094 C 
BRANCH  85  86
ATOM     86  C   UNL A   1      39.986  27.848  30.919  1.00  0.00     0.231 C 
ATOM     87  O   UNL A   1      40.689  27.814  31.925  1.00  0.00    -0.274 OA
BRANCH  86  88
ATOM     88  N   UNL A   1      40.525  27.657  29.669  1.00  0.00    -0.311 N 
ATOM     89  C   UNL A   1      41.407  28.683  29.130  1.00  0.00     0.137 C 
ATOM     90  C   UNL A   1      40.265  26.694  28.691  1.00  0.00     0.050 A 
ATOM     91  C   UNL A   1      41.924  28.166  27.768  1.00  0.00     0.018 C 
ATOM     92  C   UNL A   1      41.038  26.968  27.559  1.00  0.00     0.020 A 
ATOM     93  C   UNL A   1      39.332  25.669  28.687  1.00  0.00     0.027 A 
ATOM     94  C   UNL A   1      41.807  29.274  26.712  1.00  0.00     0.014 C 
ATOM     95  C   UNL A   1      43.424  27.801  27.812  1.00  0.00     0.014 C 
ATOM     96  C   UNL A   1      40.921  26.177  26.429  1.00  0.00     0.129 A 
ATOM     97  C   UNL A   1      39.205  24.883  27.534  1.00  0.00     0.005 A 
ATOM     98  C   UNL A   1      43.147  29.986  26.816  1.00  0.00     0.001 C 
ATOM     99  C   UNL A   1      44.126  28.829  26.924  1.00  0.00     0.001 C 
ATOM    100  F   UNL A   1      41.677  26.414  25.350  1.00  0.00    -0.207 F 
ATOM    101  C   UNL A   1      40.004  25.131  26.409  1.00  0.00     0.040 A 
ENDBRANCH  86  88
ENDBRANCH  85  86
ENDBRANCH  81  83
ENDBRANCH  80  81
ENDBRANCH  79  80
ENDBRANCH  78  79
ENDBRANCH  77  78
ENDBRANCH  76  77
ENDBRANCH  75  76
ENDBRANCH  74  75
ENDBRANCH   1  74
TORSDOF 25
ENDMDL
MODEL 2
REMARK VINA RESULT:      -7.9      4.482      6.962
REMARK SMILES O=C(OCCOCCOCCOCCOC(=O)[C@@H]1C[C@@H]1C(=O)N1CC2(CCCC2)c2c(F)cccc21)c1ccc(-c2c3nc(c(-c4cccc(S(=O)(=O)[O-])c4F)c4ccc([nH]4)c(-c4cccc(S(=O)(=O)[O-])c4F)c4nc(c(-c5cccc(S(=O)(=O)[O-])c5F)c5ccc2[nH]5)C=C4)C=C3)cc1
REMARK SMILES IDX 8 1 7 2 6 3 5 4 4 5 3 6 2 7 1 8 37 9 38 10 99 11 39 12 98 13
REMARK SMILES IDX 40 14 41 15 42 16 92 17 43 18 97 19 91 20 93 21 44 22 96 23
REMARK SMILES IDX 90 24 89 25 45 27 77 28 57 29 76 30 58 31 61 32 75 33 94 34
REMARK SMILES IDX 59 35 60 36 74 38 95 39 62 40 46 41 47 42 55 43 48 44 50 45
REMARK SMILES IDX 56 46 49 47 51 48 52 49 53 50 54 51 78 52 79 53 87 54 80 55
REMARK SMILES IDX 82 56 88 57 81 58 83 59 84 60 85 61 86 62 63 63 64 64 72 65
REMARK SMILES IDX 65 66 67 67 73 68 66 69 68 70 69 71 70 72 71 73 9 74 10 75
REMARK SMILES IDX 11 76 12 77 13 78 14 79 15 80 16 81 17 82 18 83 19 84 20 85
REMARK SMILES IDX 21 86 22 87 23 88 24 89 36 90 25 91 30 92 35 93 26 94 29 95
REMARK SMILES IDX 31 96 34 97 27 98 28 99 32 100 33 101
REMARK H PARENT 93 26 61 37
REMARK Flexibility Score: inf
ROOT
ATOM      1  C   UNL A   1      33.733  35.318  28.897  1.00  0.00     0.188 C 
ENDROOT
BRANCH   1   2
ATOM      2  C   UNL A   1      33.104  36.613  29.437  1.00  0.00     0.188 C 
BRANCH   2   3
ATOM      3  O   UNL A   1      33.203  36.788  30.844  1.00  0.00    -0.376 OA
BRANCH   3   4
ATOM      4  C   UNL A   1      32.823  35.664  31.625  1.00  0.00     0.202 C 
BRANCH   4   5
ATOM      5  C   UNL A   1      34.007  35.156  32.440  1.00  0.00     0.261 C 
BRANCH   5   6
ATOM      6  O   UNL A   1      34.878  34.351  31.626  1.00  0.00    -0.460 OA
BRANCH   6   7
ATOM      7  C   UNL A   1      35.267  33.061  31.725  1.00  0.00     0.338 C 
ATOM      8  O   UNL A   1      34.369  32.218  31.782  1.00  0.00    -0.246 OA
BRANCH   7   9
ATOM      9  C   UNL A   1      36.685  32.560  31.792  1.00  0.00     0.060 A 
ATOM     10  C   UNL A   1      37.795  33.092  31.133  1.00  0.00     0.016 A 
ATOM     11  C   UNL A   1      36.911  31.447  32.630  1.00  0.00     0.016 A 
ATOM     12  C   UNL A   1      39.074  32.557  31.298  1.00  0.00     0.010 A 
ATOM     13  C   UNL A   1      38.181  30.875  32.772  1.00  0.00     0.010 A 
ATOM     14  C   UNL A   1      39.261  31.421  32.082  1.00  0.00    -0.014 A 
BRANCH  14  15
ATOM     15  C   UNL A   1      40.547  30.713  31.967  1.00  0.00     0.031 A 
ATOM     16  C   UNL A   1      41.597  31.017  32.994  1.00  0.00     0.074 A 
ATOM     17  C   UNL A   1      40.741  29.772  31.028  1.00  0.00     0.049 A 
ATOM     18  N   UNL A   1      42.739  30.425  33.205  1.00  0.00    -0.248 NA
ATOM     19  C   UNL A   1      41.301  32.115  33.935  1.00  0.00     0.031 C 
ATOM     20  C   UNL A   1      39.763  29.375  30.017  1.00  0.00     0.029 A 
ATOM     21  N   UNL A   1      41.830  28.980  30.780  1.00  0.00    -0.354 N 
ATOM     22  C   UNL A   1      43.291  31.065  34.306  1.00  0.00     0.074 A 
ATOM     23  C   UNL A   1      42.363  32.088  34.727  1.00  0.00     0.031 C 
ATOM     24  C   UNL A   1      40.309  28.425  29.237  1.00  0.00     0.029 A 
ATOM     25  C   UNL A   1      41.671  28.155  29.695  1.00  0.00     0.049 A 
ATOM     26  H   UNL A   1      42.648  28.999  31.328  1.00  0.00     0.167 HD
ATOM     27  C   UNL A   1      44.469  30.815  34.914  1.00  0.00     0.034 A 
ATOM     28  C   UNL A   1      42.537  27.285  29.135  1.00  0.00     0.034 A 
ATOM     29  C   UNL A   1      45.403  29.830  34.459  1.00  0.00     0.049 A 
ATOM     30  C   UNL A   1      43.885  27.090  29.772  1.00  0.00     0.074 A 
ATOM     31  C   UNL A   1      46.633  29.502  34.997  1.00  0.00     0.029 A 
ATOM     32  N   UNL A   1      45.226  29.044  33.331  1.00  0.00    -0.354 N 
ATOM     33  N   UNL A   1      44.354  27.623  30.876  1.00  0.00    -0.248 NA
ATOM     34  C   UNL A   1      44.817  26.166  29.110  1.00  0.00     0.031 C 
ATOM     35  C   UNL A   1      47.214  28.535  34.173  1.00  0.00     0.029 A 
ATOM     36  C   UNL A   1      46.336  28.248  33.136  1.00  0.00     0.049 A 
ATOM     37  H   UNL A   1      44.428  29.052  32.755  1.00  0.00     0.167 HD
ATOM     38  C   UNL A   1      45.624  27.088  31.053  1.00  0.00     0.074 A 
ATOM     39  C   UNL A   1      45.852  26.183  29.944  1.00  0.00     0.031 C 
ATOM     40  C   UNL A   1      46.520  27.328  32.042  1.00  0.00     0.034 A 
BRANCH  27  41
ATOM     41  C   UNL A   1      44.807  31.628  36.127  1.00  0.00     0.023 A 
ATOM     42  C   UNL A   1      45.553  32.813  35.980  1.00  0.00     0.012 A 
ATOM     43  C   UNL A   1      44.366  31.232  37.402  1.00  0.00     0.148 A 
ATOM     44  C   UNL A   1      45.864  33.592  37.092  1.00  0.00     0.002 A 
ATOM     45  C   UNL A   1      44.658  32.027  38.503  1.00  0.00     0.091 A 
ATOM     46  F   UNL A   1      43.685  30.084  37.513  1.00  0.00    -0.205 F 
ATOM     47  C   UNL A   1      45.411  33.204  38.350  1.00  0.00     0.022 A 
BRANCH  45  48
ATOM     48  S   UNL A   1      44.095  31.631  40.161  1.00  0.00     0.127 S 
ATOM     49  O   UNL A   1      44.699  32.711  40.941  1.00  0.00    -0.237 OA
ATOM     50  O   UNL A   1      42.642  31.720  40.018  1.00  0.00    -0.237 OA
ATOM     51  O   UNL A   1      44.601  30.298  40.451  1.00  0.00    -0.744 OA
ENDBRANCH  45  48
ENDBRANCH  27  41
BRANCH  28  52
ATOM     52  C   UNL A   1      42.113  26.523  27.930  1.00  0.00     0.023 A 
ATOM     53  C   UNL A   1      42.091  27.159  26.676  1.00  0.00     0.012 A 
ATOM     54  C   UNL A   1      41.841  25.142  28.009  1.00  0.00     0.148 A 
ATOM     55  C   UNL A   1      41.810  26.432  25.518  1.00  0.00     0.002 A 
ATOM     56  C   UNL A   1      41.598  24.417  26.849  1.00  0.00     0.091 A 
ATOM     57  F   UNL A   1      41.867  24.562  29.217  1.00  0.00    -0.205 F 
ATOM     58  C   UNL A   1      41.575  25.061  25.602  1.00  0.00     0.022 A 
BRANCH  56  59
ATOM     59  S   UNL A   1      41.390  22.633  26.843  1.00  0.00     0.127 S 
ATOM     60  O   UNL A   1      39.961  22.496  27.118  1.00  0.00    -0.237 OA
ATOM     61  O   UNL A   1      41.790  22.293  25.477  1.00  0.00    -0.237 OA
ATOM     62  O   UNL A   1      42.272  22.123  27.883  1.00  0.00    -0.744 OA
ENDBRANCH  56  59
ENDBRANCH  28  52
BRANCH  40  63
ATOM     63  C   UNL A   1      47.843  26.618  32.001  1.00  0.00     0.023 A 
ATOM     64  C   UNL A   1      48.944  27.257  31.401  1.00  0.00     0.012 A 
ATOM     65  C   UNL A   1      48.036  25.436  32.742  1.00  0.00     0.148 A 
ATOM     66  C   UNL A   1      50.227  26.734  31.551  1.00  0.00     0.002 A 
ATOM     67  C   UNL A   1      49.321  24.942  32.918  1.00  0.00     0.091 A 
ATOM     68  F   UNL A   1      46.965  24.856  33.304  1.00  0.00    -0.205 F 
ATOM     69  C   UNL A   1      50.417  25.587  32.321  1.00  0.00     0.022 A 
BRANCH  67  70
ATOM     70  S   UNL A   1      49.680  23.532  33.971  1.00  0.00     0.127 S 
ATOM     71  O   UNL A   1      50.423  22.662  33.061  1.00  0.00    -0.237 OA
ATOM     72  O   UNL A   1      50.484  24.137  35.031  1.00  0.00    -0.237 OA
ATOM     73  O   UNL A   1      48.390  23.009  34.405  1.00  0.00    -0.744 OA
ENDBRANCH  67  70
ENDBRANCH  40  63
ENDBRANCH  14  15
ENDBRANCH   7   9
ENDBRANCH   6   7
ENDBRANCH   5   6
ENDBRANCH   4   5
ENDBRANCH   3   4
ENDBRANCH   2   3
ENDBRANCH   1   2
BRANCH   1  74
ATOM     74  O   UNL A   1      32.890  34.245  28.479  1.00  0.00    -0.377 OA
BRANCH  74  75
ATOM     75  C   UNL A   1      33.446  33.179  27.710  1.00  0.00     0.188 C 
BRANCH  75  76
ATOM     76  C   UNL A   1      34.786  32.510  28.085  1.00  0.00     0.188 C 
BRANCH  76  77
ATOM     77  O   UNL A   1      34.895  31.170  27.653  1.00  0.00    -0.376 OA
BRANCH  77  78
ATOM     78  C   UNL A   1      33.713  30.462  27.281  1.00  0.00     0.202 C 
BRANCH  78  79
ATOM     79  C   UNL A   1      33.669  28.922  27.324  1.00  0.00     0.261 C 
BRANCH  79  80
ATOM     80  O   UNL A   1      33.987  28.343  26.059  1.00  0.00    -0.463 OA
BRANCH  80  81
ATOM     81  C   UNL A   1      32.964  28.239  25.170  1.00  0.00     0.309 C 
ATOM     82  O   UNL A   1      31.778  28.179  25.421  1.00  0.00    -0.252 OA
BRANCH  81  83
ATOM     83  C   UNL A   1      33.458  28.444  23.784  1.00  0.00     0.112 C 
ATOM     84  C   UNL A   1      32.550  28.623  22.605  1.00  0.00     0.030 C 
ATOM     85  C   UNL A   1      33.360  27.346  22.740  1.00  0.00     0.094 C 
BRANCH  85  86
ATOM     86  C   UNL A   1      32.568  26.106  22.968  1.00  0.00     0.231 C 
ATOM     87  O   UNL A   1      31.649  25.805  22.212  1.00  0.00    -0.274 OA
BRANCH  86  88
ATOM     88  N   UNL A   1      33.114  25.181  23.826  1.00  0.00    -0.311 N 
ATOM     89  C   UNL A   1      34.390  24.575  23.474  1.00  0.00     0.137 C 
ATOM     90  C   UNL A   1      32.589  24.554  24.959  1.00  0.00     0.050 A 
ATOM     91  C   UNL A   1      34.793  23.652  24.646  1.00  0.00     0.018 C 
ATOM     92  C   UNL A   1      33.523  23.638  25.453  1.00  0.00     0.020 A 
ATOM     93  C   UNL A   1      31.324  24.655  25.518  1.00  0.00     0.027 A 
ATOM     94  C   UNL A   1      35.254  22.292  24.104  1.00  0.00     0.014 C 
ATOM     95  C   UNL A   1      35.999  24.206  25.439  1.00  0.00     0.014 C 
ATOM     96  C   UNL A   1      33.214  22.854  26.550  1.00  0.00     0.129 A 
ATOM     97  C   UNL A   1      31.011  23.844  26.618  1.00  0.00     0.005 A 
ATOM     98  C   UNL A   1      36.748  22.494  23.906  1.00  0.00     0.001 C 
ATOM     99  C   UNL A   1      37.151  23.238  25.168  1.00  0.00     0.001 C 
ATOM    100  F   UNL A   1      34.112  21.993  27.047  1.00  0.00    -0.207 F 
ATOM    101  C   UNL A   1      31.958  22.951  27.138  1.00  0.00     0.040 A 
ENDBRANCH  86  88
ENDBRANCH  85  86
ENDBRANCH  81  83
ENDBRANCH  80  81
ENDBRANCH  79  80
ENDBRANCH  78  79
ENDBRANCH  77  78
ENDBRANCH  76  77
ENDBRANCH  75  76
ENDBRANCH  74  75
ENDBRANCH   1  74
TORSDOF 25
ENDMDL
MODEL 3
REMARK VINA RESULT:      -7.8      4.388      6.932
REMARK SMILES O=C(OCCOCCOCCOCCOC(=O)[C@@H]1C[C@@H]1C(=O)N1CC2(CCCC2)c2c(F)cccc21)c1ccc(-c2c3nc(c(-c4cccc(S(=O)(=O)[O-])c4F)c4ccc([nH]4)c(-c4cccc(S(=O)(=O)[O-])c4F)c4nc(c(-c5cccc(S(=O)(=O)[O-])c5F)c5ccc2[nH]5)C=C4)C=C3)cc1
REMARK SMILES IDX 8 1 7 2 6 3 5 4 4 5 3 6 2 7 1 8 37 9 38 10 99 11 39 12 98 13
REMARK SMILES IDX 40 14 41 15 42 16 92 17 43 18 97 19 91 20 93 21 44 22 96 23
REMARK SMILES IDX 90 24 89 25 45 27 77 28 57 29 76 30 58 31 61 32 75 33 94 34
REMARK SMILES IDX 59 35 60 36 74 38 95 39 62 40 46 41 47 42 55 43 48 44 50 45
REMARK SMILES IDX 56 46 49 47 51 48 52 49 53 50 54 51 78 52 79 53 87 54 80 55
REMARK SMILES IDX 82 56 88 57 81 58 83 59 84 60 85 61 86 62 63 63 64 64 72 65
REMARK SMILES IDX 65 66 67 67 73 68 66 69 68 70 69 71 70 72 71 73 9 74 10 75
REMARK SMILES IDX 11 76 12 77 13 78 14 79 15 80 16 81 17 82 18 83 19 84 20 85
REMARK SMILES IDX 21 86 22 87 23 88 24 89 36 90 25 91 30 92 35 93 26 94 29 95
REMARK SMILES IDX 31 96 34 97 27 98 28 99 32 100 33 101
REMARK H PARENT 93 26 61 37
REMARK Flexibility Score: inf
ROOT
ATOM      1  C   UNL A   1      33.596  35.024  29.025  1.00  0.00     0.188 C 
ENDROOT
BRANCH   1   2
ATOM      2  C   UNL A   1      33.567  36.550  28.843  1.00  0.00     0.188 C 
BRANCH   2   3
ATOM      3  O   UNL A   1      33.237  37.288  30.011  1.00  0.00    -0.376 OA
BRANCH   3   4
ATOM      4  C   UNL A   1      32.515  36.570  31.001  1.00  0.00     0.202 C 
BRANCH   4   5
ATOM      5  C   UNL A   1      33.167  36.746  32.368  1.00  0.00     0.261 C 
BRANCH   5   6
ATOM      6  O   UNL A   1      34.398  36.006  32.444  1.00  0.00    -0.460 OA
BRANCH   6   7
ATOM      7  C   UNL A   1      34.652  34.699  32.677  1.00  0.00     0.338 C 
ATOM      8  O   UNL A   1      33.675  33.949  32.726  1.00  0.00    -0.246 OA
BRANCH   7   9
ATOM      9  C   UNL A   1      36.006  34.080  32.901  1.00  0.00     0.060 A 
ATOM     10  C   UNL A   1      37.215  34.474  32.323  1.00  0.00     0.016 A 
ATOM     11  C   UNL A   1      36.052  33.001  33.810  1.00  0.00     0.016 A 
ATOM     12  C   UNL A   1      38.418  33.839  32.634  1.00  0.00     0.010 A 
ATOM     13  C   UNL A   1      37.246  32.330  34.098  1.00  0.00     0.010 A 
ATOM     14  C   UNL A   1      38.429  32.738  33.487  1.00  0.00    -0.014 A 
BRANCH  14  15
ATOM     15  C   UNL A   1      39.649  31.914  33.528  1.00  0.00     0.031 A 
ATOM     16  C   UNL A   1      40.573  32.106  34.694  1.00  0.00     0.074 A 
ATOM     17  C   UNL A   1      39.882  30.971  32.600  1.00  0.00     0.049 A 
ATOM     18  N   UNL A   1      41.617  31.406  35.041  1.00  0.00    -0.248 NA
ATOM     19  C   UNL A   1      40.253  33.214  35.614  1.00  0.00     0.031 C 
ATOM     20  C   UNL A   1      39.019  30.680  31.457  1.00  0.00     0.029 A 
ATOM     21  N   UNL A   1      40.918  30.083  32.480  1.00  0.00    -0.354 N 
ATOM     22  C   UNL A   1      42.069  31.978  36.222  1.00  0.00     0.074 A 
ATOM     23  C   UNL A   1      41.190  33.078  36.540  1.00  0.00     0.031 C 
ATOM     24  C   UNL A   1      39.577  29.693  30.734  1.00  0.00     0.029 A 
ATOM     25  C   UNL A   1      40.834  29.291  31.363  1.00  0.00     0.049 A 
ATOM     26  H   UNL A   1      41.653  30.020  33.133  1.00  0.00     0.167 HD
ATOM     27  C   UNL A   1      43.127  31.611  36.976  1.00  0.00     0.034 A 
ATOM     28  C   UNL A   1      41.685  28.352  30.903  1.00  0.00     0.034 A 
ATOM     29  C   UNL A   1      44.020  30.549  36.626  1.00  0.00     0.049 A 
ATOM     30  C   UNL A   1      42.911  28.023  31.710  1.00  0.00     0.074 A 
ATOM     31  C   UNL A   1      45.130  30.100  37.315  1.00  0.00     0.029 A 
ATOM     32  N   UNL A   1      43.927  29.798  35.465  1.00  0.00    -0.354 N 
ATOM     33  N   UNL A   1      43.272  28.496  32.880  1.00  0.00    -0.248 NA
ATOM     34  C   UNL A   1      43.836  27.025  31.156  1.00  0.00     0.031 C 
ATOM     35  C   UNL A   1      45.728  29.093  36.553  1.00  0.00     0.029 A 
ATOM     36  C   UNL A   1      44.976  28.903  35.401  1.00  0.00     0.049 A 
ATOM     37  H   UNL A   1      43.219  29.888  34.787  1.00  0.00     0.167 HD
ATOM     38  C   UNL A   1      44.452  27.842  33.212  1.00  0.00     0.074 A 
ATOM     39  C   UNL A   1      44.745  26.933  32.121  1.00  0.00     0.031 C 
ATOM     40  C   UNL A   1      45.223  27.985  34.318  1.00  0.00     0.034 A 
BRANCH  27  41
ATOM     41  C   UNL A   1      43.369  32.373  38.243  1.00  0.00     0.023 A 
ATOM     42  C   UNL A   1      42.715  31.974  39.426  1.00  0.00     0.012 A 
ATOM     43  C   UNL A   1      44.258  33.462  38.268  1.00  0.00     0.148 A 
ATOM     44  C   UNL A   1      42.938  32.659  40.619  1.00  0.00     0.002 A 
ATOM     45  C   UNL A   1      44.494  34.124  39.466  1.00  0.00     0.091 A 
ATOM     46  F   UNL A   1      44.840  33.836  37.121  1.00  0.00    -0.205 F 
ATOM     47  C   UNL A   1      43.832  33.727  40.641  1.00  0.00     0.022 A 
BRANCH  45  48
ATOM     48  S   UNL A   1      45.649  35.490  39.607  1.00  0.00     0.127 S 
ATOM     49  O   UNL A   1      45.027  36.491  38.740  1.00  0.00    -0.237 OA
ATOM     50  O   UNL A   1      45.586  35.796  41.036  1.00  0.00    -0.237 OA
ATOM     51  O   UNL A   1      46.933  34.983  39.145  1.00  0.00    -0.744 OA
ENDBRANCH  45  48
ENDBRANCH  27  41
BRANCH  28  52
ATOM     52  C   UNL A   1      41.362  27.647  29.633  1.00  0.00     0.023 A 
ATOM     53  C   UNL A   1      40.238  26.804  29.572  1.00  0.00     0.012 A 
ATOM     54  C   UNL A   1      42.101  27.900  28.460  1.00  0.00     0.148 A 
ATOM     55  C   UNL A   1      39.851  26.226  28.361  1.00  0.00     0.002 A 
ATOM     56  C   UNL A   1      41.689  27.351  27.251  1.00  0.00     0.091 A 
ATOM     57  F   UNL A   1      43.168  28.706  28.548  1.00  0.00    -0.205 F 
ATOM     58  C   UNL A   1      40.568  26.508  27.200  1.00  0.00     0.022 A 
BRANCH  56  59
ATOM     59  S   UNL A   1      42.483  27.740  25.687  1.00  0.00     0.127 S 
ATOM     60  O   UNL A   1      41.918  29.052  25.381  1.00  0.00    -0.237 OA
ATOM     61  O   UNL A   1      43.896  27.750  26.067  1.00  0.00    -0.237 OA
ATOM     62  O   UNL A   1      42.105  26.673  24.771  1.00  0.00    -0.744 OA
ENDBRANCH  56  59
ENDBRANCH  28  52
BRANCH  40  63
ATOM     63  C   UNL A   1      46.470  27.155  34.437  1.00  0.00     0.023 A 
ATOM     64  C   UNL A   1      47.703  27.714  34.056  1.00  0.00     0.012 A 
ATOM     65  C   UNL A   1      46.438  25.925  35.123  1.00  0.00     0.148 A 
ATOM     66  C   UNL A   1      48.895  27.064  34.368  1.00  0.00     0.002 A 
ATOM     67  C   UNL A   1      47.632  25.302  35.463  1.00  0.00     0.091 A 
ATOM     68  F   UNL A   1      45.246  25.423  35.475  1.00  0.00    -0.205 F 
ATOM     69  C   UNL A   1      48.861  25.868  35.085  1.00  0.00     0.022 A 
BRANCH  67  70
ATOM     70  S   UNL A   1      47.694  23.815  36.468  1.00  0.00     0.127 S 
ATOM     71  O   UNL A   1      49.130  23.543  36.509  1.00  0.00    -0.237 OA
ATOM     72  O   UNL A   1      47.124  24.275  37.734  1.00  0.00    -0.237 OA
ATOM     73  O   UNL A   1      46.899  22.815  35.766  1.00  0.00    -0.744 OA
ENDBRANCH  67  70
ENDBRANCH  40  63
ENDBRANCH  14  15
ENDBRANCH   7   9
ENDBRANCH   6   7
ENDBRANCH   5   6
ENDBRANCH   4   5
ENDBRANCH   3   4
ENDBRANCH   2   3
ENDBRANCH   1   2
BRANCH   1  74
ATOM     74  O   UNL A   1      32.629  34.214  28.358  1.00  0.00    -0.377 OA
BRANCH  74  75
ATOM     75  C   UNL A   1      33.064  33.082  27.605  1.00  0.00     0.188 C 
BRANCH  75  76
ATOM     76  C   UNL A   1      34.261  32.214  28.048  1.00  0.00     0.188 C 
BRANCH  76  77
ATOM     77  O   UNL A   1      34.343  30.973  27.378  1.00  0.00    -0.376 OA
BRANCH  77  78
ATOM     78  C   UNL A   1      33.156  30.202  27.196  1.00  0.00     0.202 C 
BRANCH  78  79
ATOM     79  C   UNL A   1      33.190  28.665  27.306  1.00  0.00     0.261 C 
BRANCH  79  80
ATOM     80  O   UNL A   1      33.710  28.056  26.125  1.00  0.00    -0.463 OA
BRANCH  80  81
ATOM     81  C   UNL A   1      32.833  27.883  25.100  1.00  0.00     0.309 C 
ATOM     82  O   UNL A   1      31.624  27.812  25.175  1.00  0.00    -0.252 OA
BRANCH  81  83
ATOM     83  C   UNL A   1      33.527  28.022  23.794  1.00  0.00     0.112 C 
ATOM     84  C   UNL A   1      32.811  28.017  22.478  1.00  0.00     0.030 C 
ATOM     85  C   UNL A   1      33.693  26.840  22.857  1.00  0.00     0.094 C 
BRANCH  85  86
ATOM     86  C   UNL A   1      32.980  25.551  23.077  1.00  0.00     0.231 C 
ATOM     87  O   UNL A   1      32.150  25.151  22.266  1.00  0.00    -0.274 OA
BRANCH  86  88
ATOM     88  N   UNL A   1      33.523  24.704  24.013  1.00  0.00    -0.311 N 
ATOM     89  C   UNL A   1      34.803  24.074  23.721  1.00  0.00     0.137 C 
ATOM     90  C   UNL A   1      32.994  24.175  25.193  1.00  0.00     0.050 A 
ATOM     91  C   UNL A   1      35.202  23.256  24.970  1.00  0.00     0.018 C 
ATOM     92  C   UNL A   1      33.927  23.307  25.768  1.00  0.00     0.020 A 
ATOM     93  C   UNL A   1      31.725  24.320  25.734  1.00  0.00     0.027 A 
ATOM     94  C   UNL A   1      35.668  21.856  24.549  1.00  0.00     0.014 C 
ATOM     95  C   UNL A   1      36.401  23.878  25.719  1.00  0.00     0.014 C 
ATOM     96  C   UNL A   1      33.614  22.619  26.927  1.00  0.00     0.129 A 
ATOM     97  C   UNL A   1      31.408  23.606  26.898  1.00  0.00     0.005 A 
ATOM     98  C   UNL A   1      37.163  22.043  24.342  1.00  0.00     0.001 C 
ATOM     99  C   UNL A   1      37.557  22.893  25.538  1.00  0.00     0.001 C 
ATOM    100  F   UNL A   1      34.511  21.807  27.500  1.00  0.00    -0.207 F 
ATOM    101  C   UNL A   1      32.354  22.763  27.498  1.00  0.00     0.040 A 
ENDBRANCH  86  88
ENDBRANCH  85  86
ENDBRANCH  81  83
ENDBRANCH  80  81
ENDBRANCH  79  80
ENDBRANCH  78  79
ENDBRANCH  77  78
ENDBRANCH  76  77
ENDBRANCH  75  76
ENDBRANCH  74  75
ENDBRANCH   1  74
TORSDOF 25
ENDMDL
