MODEL 1
REMARK VINA RESULT:      -8.3      0.000      0.000
REMARK SMILES Cn1c(=O)c(=O)n(C)c2cc(S(=O)(=O)N3CCC[C@H]3C(=O)OCCOCCOCCOCCOC(=O)c3ccc(-c4c5nc(c(-c6cccc(S(=O)(=O)[O-])c6F)c6ccc([nH]6)c(-c6cccc(S(=O)(=O)[O-])c6F)c6nc(c(-c7cccc(S(=O)(=O)[O-])c7F)c7ccc4[nH]7)C=C6)C=C5)cc3)ccc21
REMARK SMILES IDX 29 1 28 2 27 3 26 4 25 5 24 6 23 7 22 8 20 9 21 10 19 11
REMARK SMILES IDX 15 12 16 13 17 14 18 15 12 16 13 17 14 18 11 19 1 20 2 21
REMARK SMILES IDX 3 22 102 23 4 24 5 25 9 26 101 27 6 28 7 29 10 30 100 31
REMARK SMILES IDX 8 32 30 33 31 34 32 35 33 36 34 37 35 38 36 39 37 40 38 41
REMARK SMILES IDX 99 42 39 43 98 44 40 45 41 46 42 47 92 48 43 49 97 50 91 51
REMARK SMILES IDX 93 52 44 53 96 54 90 55 89 56 45 58 77 59 57 60 76 61 58 62
REMARK SMILES IDX 61 63 75 64 94 65 59 66 60 67 74 69 95 70 62 71 46 72 47 73
REMARK SMILES IDX 55 74 48 75 50 76 56 77 49 78 51 79 52 80 53 81 54 82 78 83
REMARK SMILES IDX 79 84 87 85 80 86 82 87 88 88 81 89 83 90 84 91 85 92 86 93
REMARK SMILES IDX 63 94 64 95 72 96 65 97 67 98 73 99 66 100 68 101 69 102
REMARK SMILES IDX 70 103 71 104
REMARK H PARENT 93 57 61 68
REMARK Flexibility Score: inf
ROOT
ATOM      1  C   UNL A   1      36.969  33.468  31.479  1.00  0.00     0.188 C 
ENDROOT
BRANCH   1   2
ATOM      2  O   UNL A   1      37.774  32.373  31.042  1.00  0.00    -0.377 OA
BRANCH   2   3
ATOM      3  C   UNL A   1      37.145  31.368  30.279  1.00  0.00     0.188 C 
BRANCH   3   4
ATOM      4  C   UNL A   1      37.996  30.095  30.119  1.00  0.00     0.188 C 
BRANCH   4   5
ATOM      5  O   UNL A   1      39.034  30.147  29.165  1.00  0.00    -0.376 OA
BRANCH   5   6
ATOM      6  C   UNL A   1      38.967  29.487  27.908  1.00  0.00     0.202 C 
BRANCH   6   7
ATOM      7  C   UNL A   1      39.901  28.371  27.394  1.00  0.00     0.261 C 
BRANCH   7   8
ATOM      8  O   UNL A   1      41.210  28.337  27.945  1.00  0.00    -0.462 OA
BRANCH   8   9
ATOM      9  C   UNL A   1      41.436  27.541  29.021  1.00  0.00     0.324 C 
ATOM     10  O   UNL A   1      40.921  27.667  30.124  1.00  0.00    -0.250 OA
BRANCH   9  11
ATOM     11  C   UNL A   1      42.266  26.349  28.575  1.00  0.00     0.183 C 
ATOM     12  N   UNL A   1      42.919  26.530  27.285  1.00  0.00    -0.184 NA
ATOM     13  C   UNL A   1      44.312  26.917  27.467  1.00  0.00     0.103 C 
ATOM     14  C   UNL A   1      44.711  26.341  28.816  1.00  0.00     0.019 C 
ATOM     15  C   UNL A   1      43.412  26.098  29.572  1.00  0.00     0.034 C 
BRANCH  12  16
ATOM     16  S   UNL A   1      42.317  25.770  25.926  1.00  0.00     0.243 S 
ATOM     17  O   UNL A   1      42.685  26.558  24.775  1.00  0.00    -0.207 OA
ATOM     18  O   UNL A   1      40.939  25.420  26.212  1.00  0.00    -0.207 OA
BRANCH  16  19
ATOM     19  C   UNL A   1      43.174  24.210  25.748  1.00  0.00     0.084 A 
ATOM     20  C   UNL A   1      46.333  20.256  24.620  1.00  0.00     0.154 C 
ATOM     21  N   UNL A   1      44.974  20.414  25.110  1.00  0.00    -0.305 N 
ATOM     22  C   UNL A   1      44.245  19.230  25.228  1.00  0.00     0.316 A 
ATOM     23  C   UNL A   1      44.380  21.680  25.363  1.00  0.00     0.068 A 
ATOM     24  O   UNL A   1      44.712  18.129  24.940  1.00  0.00    -0.263 OA
ATOM     25  C   UNL A   1      42.797  19.317  25.716  1.00  0.00     0.316 A 
ATOM     26  C   UNL A   1      43.043  21.765  25.805  1.00  0.00     0.069 A 
ATOM     27  C   UNL A   1      45.092  22.869  25.159  1.00  0.00     0.030 A 
ATOM     28  O   UNL A   1      42.157  18.274  25.820  1.00  0.00    -0.263 OA
ATOM     29  N   UNL A   1      42.281  20.580  25.999  1.00  0.00    -0.305 N 
ATOM     30  C   UNL A   1      42.463  23.036  26.018  1.00  0.00     0.050 A 
ATOM     31  C   UNL A   1      44.492  24.115  25.336  1.00  0.00     0.024 A 
ATOM     32  C   UNL A   1      40.908  20.656  26.480  1.00  0.00     0.154 C 
ENDBRANCH  16  19
ENDBRANCH  12  16
ENDBRANCH   9  11
ENDBRANCH   8   9
ENDBRANCH   7   8
ENDBRANCH   6   7
ENDBRANCH   5   6
ENDBRANCH   4   5
ENDBRANCH   3   4
ENDBRANCH   2   3
ENDBRANCH   1   2
BRANCH   1  33
ATOM     33  C   UNL A   1      37.502  34.522  32.485  1.00  0.00     0.188 C 
BRANCH  33  34
ATOM     34  O   UNL A   1      38.329  34.006  33.521  1.00  0.00    -0.376 OA
BRANCH  34  35
ATOM     35  C   UNL A   1      38.169  34.483  34.844  1.00  0.00     0.202 C 
BRANCH  35  36
ATOM     36  C   UNL A   1      37.338  33.632  35.813  1.00  0.00     0.261 C 
BRANCH  36  37
ATOM     37  O   UNL A   1      37.224  32.242  35.492  1.00  0.00    -0.460 OA
BRANCH  37  38
ATOM     38  C   UNL A   1      37.960  31.369  36.220  1.00  0.00     0.338 C 
ATOM     39  O   UNL A   1      37.604  30.766  37.213  1.00  0.00    -0.246 OA
BRANCH  38  40
ATOM     40  C   UNL A   1      39.201  31.124  35.450  1.00  0.00     0.060 A 
ATOM     41  C   UNL A   1      40.439  31.465  35.999  1.00  0.00     0.016 A 
ATOM     42  C   UNL A   1      39.117  30.629  34.141  1.00  0.00     0.016 A 
ATOM     43  C   UNL A   1      41.598  31.284  35.244  1.00  0.00     0.010 A 
ATOM     44  C   UNL A   1      40.279  30.462  33.382  1.00  0.00     0.010 A 
ATOM     45  C   UNL A   1      41.529  30.763  33.939  1.00  0.00    -0.014 A 
BRANCH  45  46
ATOM     46  C   UNL A   1      42.777  30.332  33.263  1.00  0.00     0.031 A 
ATOM     47  C   UNL A   1      43.583  31.242  32.388  1.00  0.00     0.074 A 
ATOM     48  C   UNL A   1      43.169  29.058  33.453  1.00  0.00     0.049 A 
ATOM     49  N   UNL A   1      44.738  31.007  31.820  1.00  0.00    -0.248 NA
ATOM     50  C   UNL A   1      43.032  32.575  32.107  1.00  0.00     0.031 C 
ATOM     51  C   UNL A   1      42.425  28.065  34.232  1.00  0.00     0.029 A 
ATOM     52  N   UNL A   1      44.276  28.381  33.016  1.00  0.00    -0.354 N 
ATOM     53  C   UNL A   1      45.060  32.158  31.115  1.00  0.00     0.074 A 
ATOM     54  C   UNL A   1      43.964  33.087  31.308  1.00  0.00     0.031 C 
ATOM     55  C   UNL A   1      43.105  26.909  34.232  1.00  0.00     0.029 A 
ATOM     56  C   UNL A   1      44.320  27.075  33.440  1.00  0.00     0.049 A 
ATOM     57  H   UNL A   1      44.971  28.790  32.451  1.00  0.00     0.167 HD
ATOM     58  C   UNL A   1      46.180  32.420  30.397  1.00  0.00     0.034 A 
ATOM     59  C   UNL A   1      45.235  26.112  33.225  1.00  0.00     0.034 A 
ATOM     60  C   UNL A   1      47.266  31.491  30.214  1.00  0.00     0.049 A 
ATOM     61  C   UNL A   1      46.467  26.428  32.433  1.00  0.00     0.074 A 
ATOM     62  C   UNL A   1      48.464  31.697  29.548  1.00  0.00     0.029 A 
ATOM     63  N   UNL A   1      47.288  30.186  30.676  1.00  0.00    -0.354 N 
ATOM     64  N   UNL A   1      46.816  27.566  31.885  1.00  0.00    -0.248 NA
ATOM     65  C   UNL A   1      47.443  25.345  32.251  1.00  0.00     0.031 C 
ATOM     66  C   UNL A   1      49.199  30.509  29.590  1.00  0.00     0.029 A 
ATOM     67  C   UNL A   1      48.471  29.570  30.303  1.00  0.00     0.049 A 
ATOM     68  H   UNL A   1      46.568  29.757  31.194  1.00  0.00     0.167 HD
ATOM     69  C   UNL A   1      48.060  27.344  31.308  1.00  0.00     0.074 A 
ATOM     70  C   UNL A   1      48.409  25.965  31.584  1.00  0.00     0.031 C 
ATOM     71  C   UNL A   1      48.831  28.208  30.606  1.00  0.00     0.034 A 
BRANCH  58  72
ATOM     72  C   UNL A   1      46.334  33.791  29.796  1.00  0.00     0.023 A 
ATOM     73  C   UNL A   1      46.961  34.800  30.553  1.00  0.00     0.012 A 
ATOM     74  C   UNL A   1      45.983  34.046  28.456  1.00  0.00     0.148 A 
ATOM     75  C   UNL A   1      47.228  36.047  29.990  1.00  0.00     0.002 A 
ATOM     76  C   UNL A   1      46.276  35.284  27.893  1.00  0.00     0.091 A 
ATOM     77  F   UNL A   1      45.386  33.071  27.755  1.00  0.00    -0.205 F 
ATOM     78  C   UNL A   1      46.895  36.285  28.659  1.00  0.00     0.022 A 
BRANCH  76  79
ATOM     79  S   UNL A   1      45.931  35.681  26.174  1.00  0.00     0.127 S 
ATOM     80  O   UNL A   1      44.473  35.802  26.188  1.00  0.00    -0.237 OA
ATOM     81  O   UNL A   1      46.646  36.944  26.001  1.00  0.00    -0.237 OA
ATOM     82  O   UNL A   1      46.451  34.570  25.391  1.00  0.00    -0.744 OA
ENDBRANCH  76  79
ENDBRANCH  58  72
BRANCH  59  83
ATOM     83  C   UNL A   1      45.020  24.776  33.838  1.00  0.00     0.023 A 
ATOM     84  C   UNL A   1      44.256  23.815  33.151  1.00  0.00     0.012 A 
ATOM     85  C   UNL A   1      45.667  24.423  35.038  1.00  0.00     0.148 A 
ATOM     86  C   UNL A   1      44.138  22.519  33.653  1.00  0.00     0.002 A 
ATOM     87  C   UNL A   1      45.577  23.122  35.511  1.00  0.00     0.091 A 
ATOM     88  F   UNL A   1      46.397  25.359  35.661  1.00  0.00    -0.205 F 
ATOM     89  C   UNL A   1      44.807  22.169  34.825  1.00  0.00     0.022 A 
BRANCH  87  90
ATOM     90  S   UNL A   1      46.480  22.551  36.954  1.00  0.00     0.127 S 
ATOM     91  O   UNL A   1      46.164  23.588  37.933  1.00  0.00    -0.237 OA
ATOM     92  O   UNL A   1      45.850  21.254  37.204  1.00  0.00    -0.237 OA
ATOM     93  O   UNL A   1      47.877  22.482  36.549  1.00  0.00    -0.744 OA
ENDBRANCH  87  90
ENDBRANCH  59  83
BRANCH  71  94
ATOM     94  C   UNL A   1      50.148  27.712  30.075  1.00  0.00     0.023 A 
ATOM     95  C   UNL A   1      51.270  27.682  30.924  1.00  0.00     0.012 A 
ATOM     96  C   UNL A   1      50.238  27.156  28.783  1.00  0.00     0.148 A 
ATOM     97  C   UNL A   1      52.467  27.109  30.494  1.00  0.00     0.002 A 
ATOM     98  C   UNL A   1      51.423  26.558  28.373  1.00  0.00     0.091 A 
ATOM     99  F   UNL A   1      49.156  27.204  27.992  1.00  0.00    -0.205 F 
ATOM    100  C   UNL A   1      52.539  26.536  29.226  1.00  0.00     0.022 A 
BRANCH  98 101
ATOM    101  S   UNL A   1      51.598  25.738  26.784  1.00  0.00     0.127 S 
ATOM    102  O   UNL A   1      53.001  25.323  26.818  1.00  0.00    -0.237 OA
ATOM    103  O   UNL A   1      50.635  24.642  26.897  1.00  0.00    -0.237 OA
ATOM    104  O   UNL A   1      51.275  26.735  25.774  1.00  0.00    -0.744 OA
ENDBRANCH  98 101
ENDBRANCH  71  94
ENDBRANCH  45  46
ENDBRANCH  38  40
ENDBRANCH  37  38
ENDBRANCH  36  37
ENDBRANCH  35  36
ENDBRANCH  34  35
ENDBRANCH  33  34
ENDBRANCH   1  33
TORSDOF 25
ENDMDL
MODEL 2
REMARK VINA RESULT:      -8.0      1.625      2.118
REMARK SMILES Cn1c(=O)c(=O)n(C)c2cc(S(=O)(=O)N3CCC[C@H]3C(=O)OCCOCCOCCOCCOC(=O)c3ccc(-c4c5nc(c(-c6cccc(S(=O)(=O)[O-])c6F)c6ccc([nH]6)c(-c6cccc(S(=O)(=O)[O-])c6F)c6nc(c(-c7cccc(S(=O)(=O)[O-])c7F)c7ccc4[nH]7)C=C6)C=C5)cc3)ccc21
REMARK SMILES IDX 29 1 28 2 27 3 26 4 25 5 24 6 23 7 22 8 20 9 21 10 19 11
REMARK SMILES IDX 15 12 16 13 17 14 18 15 12 16 13 17 14 18 11 19 1 20 2 21
REMARK SMILES IDX 3 22 102 23 4 24 5 25 9 26 101 27 6 28 7 29 10 30 100 31
REMARK SMILES IDX 8 32 30 33 31 34 32 35 33 36 34 37 35 38 36 39 37 40 38 41
REMARK SMILES IDX 99 42 39 43 98 44 40 45 41 46 42 47 92 48 43 49 97 50 91 51
REMARK SMILES IDX 93 52 44 53 96 54 90 55 89 56 45 58 77 59 57 60 76 61 58 62
REMARK SMILES IDX 61 63 75 64 94 65 59 66 60 67 74 69 95 70 62 71 46 72 47 73
REMARK SMILES IDX 55 74 48 75 50 76 56 77 49 78 51 79 52 80 53 81 54 82 78 83
REMARK SMILES IDX 79 84 87 85 80 86 82 87 88 88 81 89 83 90 84 91 85 92 86 93
REMARK SMILES IDX 63 94 64 95 72 96 65 97 67 98 73 99 66 100 68 101 69 102
REMARK SMILES IDX 70 103 71 104
REMARK H PARENT 93 57 61 68
REMARK Flexibility Score: inf
ROOT
ATOM      1  C   UNL A   1      37.073  33.585  31.455  1.00  0.00     0.188 C 
ENDROOT
BRANCH   1   2
ATOM      2  O   UNL A   1      37.721  32.427  30.927  1.00  0.00    -0.377 OA
BRANCH   2   3
ATOM      3  C   UNL A   1      36.901  31.366  30.493  1.00  0.00     0.188 C 
BRANCH   3   4
ATOM      4  C   UNL A   1      37.679  30.070  30.197  1.00  0.00     0.188 C 
BRANCH   4   5
ATOM      5  O   UNL A   1      38.790  30.186  29.334  1.00  0.00    -0.376 OA
BRANCH   5   6
ATOM      6  C   UNL A   1      38.790  29.699  27.999  1.00  0.00     0.202 C 
BRANCH   6   7
ATOM      7  C   UNL A   1      39.736  28.639  27.398  1.00  0.00     0.261 C 
BRANCH   7   8
ATOM      8  O   UNL A   1      40.984  28.459  28.053  1.00  0.00    -0.462 OA
BRANCH   8   9
ATOM      9  C   UNL A   1      41.074  27.509  29.017  1.00  0.00     0.324 C 
ATOM     10  O   UNL A   1      40.396  27.456  30.035  1.00  0.00    -0.250 OA
BRANCH   9  11
ATOM     11  C   UNL A   1      42.003  26.410  28.528  1.00  0.00     0.183 C 
ATOM     12  N   UNL A   1      42.669  26.714  27.268  1.00  0.00    -0.184 NA
ATOM     13  C   UNL A   1      44.024  27.193  27.508  1.00  0.00     0.103 C 
ATOM     14  C   UNL A   1      44.435  26.573  28.834  1.00  0.00     0.019 C 
ATOM     15  C   UNL A   1      43.142  26.189  29.540  1.00  0.00     0.034 C 
BRANCH  12  16
ATOM     16  S   UNL A   1      42.157  25.989  25.853  1.00  0.00     0.243 S 
ATOM     17  O   UNL A   1      42.615  26.796  24.749  1.00  0.00    -0.207 OA
ATOM     18  O   UNL A   1      40.760  25.650  26.033  1.00  0.00    -0.207 OA
BRANCH  16  19
ATOM     19  C   UNL A   1      43.009  24.423  25.703  1.00  0.00     0.084 A 
ATOM     20  C   UNL A   1      46.158  20.440  24.652  1.00  0.00     0.154 C 
ATOM     21  N   UNL A   1      44.797  20.611  25.131  1.00  0.00    -0.305 N 
ATOM     22  C   UNL A   1      44.062  19.432  25.261  1.00  0.00     0.316 A 
ATOM     23  C   UNL A   1      44.207  21.883  25.362  1.00  0.00     0.068 A 
ATOM     24  O   UNL A   1      44.526  18.324  24.992  1.00  0.00    -0.263 OA
ATOM     25  C   UNL A   1      42.611  19.532  25.738  1.00  0.00     0.316 A 
ATOM     26  C   UNL A   1      42.867  21.980  25.794  1.00  0.00     0.069 A 
ATOM     27  C   UNL A   1      44.925  23.066  25.146  1.00  0.00     0.030 A 
ATOM     28  O   UNL A   1      41.966  18.493  25.853  1.00  0.00    -0.263 OA
ATOM     29  N   UNL A   1      42.098  20.801  26.000  1.00  0.00    -0.305 N 
ATOM     30  C   UNL A   1      42.291  23.257  25.985  1.00  0.00     0.050 A 
ATOM     31  C   UNL A   1      44.329  24.317  25.301  1.00  0.00     0.024 A 
ATOM     32  C   UNL A   1      40.723  20.890  26.471  1.00  0.00     0.154 C 
ENDBRANCH  16  19
ENDBRANCH  12  16
ENDBRANCH   9  11
ENDBRANCH   8   9
ENDBRANCH   7   8
ENDBRANCH   6   7
ENDBRANCH   5   6
ENDBRANCH   4   5
ENDBRANCH   3   4
ENDBRANCH   2   3
ENDBRANCH   1   2
BRANCH   1  33
ATOM     33  C   UNL A   1      37.782  34.527  32.464  1.00  0.00     0.188 C 
BRANCH  33  34
ATOM     34  O   UNL A   1      38.559  33.874  33.459  1.00  0.00    -0.376 OA
BRANCH  34  35
ATOM     35  C   UNL A   1      38.350  34.188  34.824  1.00  0.00     0.202 C 
BRANCH  35  36
ATOM     36  C   UNL A   1      37.543  33.192  35.668  1.00  0.00     0.261 C 
BRANCH  36  37
ATOM     37  O   UNL A   1      37.504  31.844  35.188  1.00  0.00    -0.460 OA
BRANCH  37  38
ATOM     38  C   UNL A   1      38.362  30.957  35.745  1.00  0.00     0.338 C 
ATOM     39  O   UNL A   1      38.160  30.264  36.723  1.00  0.00    -0.246 OA
BRANCH  38  40
ATOM     40  C   UNL A   1      39.503  30.833  34.810  1.00  0.00     0.060 A 
ATOM     41  C   UNL A   1      40.708  31.479  35.093  1.00  0.00     0.016 A 
ATOM     42  C   UNL A   1      39.337  30.137  33.605  1.00  0.00     0.016 A 
ATOM     43  C   UNL A   1      41.759  31.405  34.178  1.00  0.00     0.010 A 
ATOM     44  C   UNL A   1      40.387  30.075  32.684  1.00  0.00     0.010 A 
ATOM     45  C   UNL A   1      41.614  30.686  32.977  1.00  0.00    -0.014 A 
BRANCH  45  46
ATOM     46  C   UNL A   1      42.813  30.398  32.155  1.00  0.00     0.031 A 
ATOM     47  C   UNL A   1      43.172  31.188  30.935  1.00  0.00     0.074 A 
ATOM     48  C   UNL A   1      43.587  29.365  32.541  1.00  0.00     0.049 A 
ATOM     49  N   UNL A   1      44.243  31.090  30.191  1.00  0.00    -0.248 NA
ATOM     50  C   UNL A   1      42.218  32.212  30.486  1.00  0.00     0.031 C 
ATOM     51  C   UNL A   1      43.297  28.484  33.675  1.00  0.00     0.029 A 
ATOM     52  N   UNL A   1      44.763  28.881  32.032  1.00  0.00    -0.354 N 
ATOM     53  C   UNL A   1      44.101  32.036  29.185  1.00  0.00     0.074 A 
ATOM     54  C   UNL A   1      42.824  32.686  29.402  1.00  0.00     0.031 C 
ATOM     55  C   UNL A   1      44.278  27.577  33.787  1.00  0.00     0.029 A 
ATOM     56  C   UNL A   1      45.253  27.801  32.725  1.00  0.00     0.049 A 
ATOM     57  H   UNL A   1      45.212  29.269  31.246  1.00  0.00     0.167 HD
ATOM     58  C   UNL A   1      44.970  32.347  28.192  1.00  0.00     0.034 A 
ATOM     59  C   UNL A   1      46.367  27.068  32.536  1.00  0.00     0.034 A 
ATOM     60  C   UNL A   1      46.240  31.697  27.987  1.00  0.00     0.049 A 
ATOM     61  C   UNL A   1      47.314  27.436  31.435  1.00  0.00     0.074 A 
ATOM     62  C   UNL A   1      47.207  31.990  27.040  1.00  0.00     0.029 A 
ATOM     63  N   UNL A   1      46.715  30.622  28.721  1.00  0.00    -0.354 N 
ATOM     64  N   UNL A   1      47.226  28.421  30.577  1.00  0.00    -0.248 NA
ATOM     65  C   UNL A   1      48.526  26.617  31.292  1.00  0.00     0.031 C 
ATOM     66  C   UNL A   1      48.256  31.078  27.187  1.00  0.00     0.029 A 
ATOM     67  C   UNL A   1      47.955  30.232  28.243  1.00  0.00     0.049 A 
ATOM     68  H   UNL A   1      46.241  30.197  29.473  1.00  0.00     0.167 HD
ATOM     69  C   UNL A   1      48.375  28.353  29.800  1.00  0.00     0.074 A 
ATOM     70  C   UNL A   1      49.153  27.237  30.300  1.00  0.00     0.031 C 
ATOM     71  C   UNL A   1      48.741  29.143  28.762  1.00  0.00     0.034 A 
BRANCH  58  72
ATOM     72  C   UNL A   1      44.620  33.485  27.272  1.00  0.00     0.023 A 
ATOM     73  C   UNL A   1      44.040  33.196  26.021  1.00  0.00     0.012 A 
ATOM     74  C   UNL A   1      44.741  34.825  27.689  1.00  0.00     0.148 A 
ATOM     75  C   UNL A   1      43.595  34.225  25.192  1.00  0.00     0.002 A 
ATOM     76  C   UNL A   1      44.271  35.845  26.867  1.00  0.00     0.091 A 
ATOM     77  F   UNL A   1      45.297  35.075  28.883  1.00  0.00    -0.205 F 
ATOM     78  C   UNL A   1      43.700  35.546  25.619  1.00  0.00     0.022 A 
BRANCH  76  79
ATOM     79  S   UNL A   1      44.317  37.578  27.339  1.00  0.00     0.127 S 
ATOM     80  O   UNL A   1      43.125  38.096  26.667  1.00  0.00    -0.237 OA
ATOM     81  O   UNL A   1      44.211  37.503  28.796  1.00  0.00    -0.237 OA
ATOM     82  O   UNL A   1      45.582  38.100  26.842  1.00  0.00    -0.744 OA
ENDBRANCH  76  79
ENDBRANCH  58  72
BRANCH  59  83
ATOM     83  C   UNL A   1      46.651  25.951  33.473  1.00  0.00     0.023 A 
ATOM     84  C   UNL A   1      47.580  26.140  34.512  1.00  0.00     0.012 A 
ATOM     85  C   UNL A   1      45.916  24.752  33.406  1.00  0.00     0.148 A 
ATOM     86  C   UNL A   1      47.776  25.147  35.472  1.00  0.00     0.002 A 
ATOM     87  C   UNL A   1      46.089  23.784  34.385  1.00  0.00     0.091 A 
ATOM     88  F   UNL A   1      45.031  24.609  32.410  1.00  0.00    -0.205 F 
ATOM     89  C   UNL A   1      47.023  23.975  35.415  1.00  0.00     0.022 A 
BRANCH  87  90
ATOM     90  S   UNL A   1      45.097  22.288  34.453  1.00  0.00     0.127 S 
ATOM     91  O   UNL A   1      44.567  22.219  33.094  1.00  0.00    -0.237 OA
ATOM     92  O   UNL A   1      46.106  21.278  34.774  1.00  0.00    -0.237 OA
ATOM     93  O   UNL A   1      44.107  22.513  35.497  1.00  0.00    -0.744 OA
ENDBRANCH  87  90
ENDBRANCH  59  83
BRANCH  71  94
ATOM     94  C   UNL A   1      50.048  28.851  28.076  1.00  0.00     0.023 A 
ATOM     95  C   UNL A   1      51.217  29.508  28.506  1.00  0.00     0.012 A 
ATOM     96  C   UNL A   1      50.137  27.837  27.102  1.00  0.00     0.148 A 
ATOM     97  C   UNL A   1      52.458  29.161  27.972  1.00  0.00     0.002 A 
ATOM     98  C   UNL A   1      51.380  27.475  26.599  1.00  0.00     0.091 A 
ATOM     99  F   UNL A   1      49.007  27.233  26.706  1.00  0.00    -0.205 F 
ATOM    100  C   UNL A   1      52.541  28.138  27.031  1.00  0.00     0.022 A 
BRANCH  98 101
ATOM    101  S   UNL A   1      51.600  26.128  25.431  1.00  0.00     0.127 S 
ATOM    102  O   UNL A   1      50.337  26.166  24.694  1.00  0.00    -0.237 OA
ATOM    103  O   UNL A   1      52.766  26.573  24.665  1.00  0.00    -0.237 OA
ATOM    104  O   UNL A   1      51.813  24.929  26.228  1.00  0.00    -0.744 OA
ENDBRANCH  98 101
ENDBRANCH  71  94
ENDBRANCH  45  46
ENDBRANCH  38  40
ENDBRANCH  37  38
ENDBRANCH  36  37
ENDBRANCH  35  36
ENDBRANCH  34  35
ENDBRANCH  33  34
ENDBRANCH   1  33
TORSDOF 25
ENDMDL
MODEL 3
REMARK VINA RESULT:      -8.0      3.973      8.763
REMARK SMILES Cn1c(=O)c(=O)n(C)c2cc(S(=O)(=O)N3CCC[C@H]3C(=O)OCCOCCOCCOCCOC(=O)c3ccc(-c4c5nc(c(-c6cccc(S(=O)(=O)[O-])c6F)c6ccc([nH]6)c(-c6cccc(S(=O)(=O)[O-])c6F)c6nc(c(-c7cccc(S(=O)(=O)[O-])c7F)c7ccc4[nH]7)C=C6)C=C5)cc3)ccc21
REMARK SMILES IDX 29 1 28 2 27 3 26 4 25 5 24 6 23 7 22 8 20 9 21 10 19 11
REMARK SMILES IDX 15 12 16 13 17 14 18 15 12 16 13 17 14 18 11 19 1 20 2 21
REMARK SMILES IDX 3 22 102 23 4 24 5 25 9 26 101 27 6 28 7 29 10 30 100 31
REMARK SMILES IDX 8 32 30 33 31 34 32 35 33 36 34 37 35 38 36 39 37 40 38 41
REMARK SMILES IDX 99 42 39 43 98 44 40 45 41 46 42 47 92 48 43 49 97 50 91 51
REMARK SMILES IDX 93 52 44 53 96 54 90 55 89 56 45 58 77 59 57 60 76 61 58 62
REMARK SMILES IDX 61 63 75 64 94 65 59 66 60 67 74 69 95 70 62 71 46 72 47 73
REMARK SMILES IDX 55 74 48 75 50 76 56 77 49 78 51 79 52 80 53 81 54 82 78 83
REMARK SMILES IDX 79 84 87 85 80 86 82 87 88 88 81 89 83 90 84 91 85 92 86 93
REMARK SMILES IDX 63 94 64 95 72 96 65 97 67 98 73 99 66 100 68 101 69 102
REMARK SMILES IDX 70 103 71 104
REMARK H PARENT 93 57 61 68
REMARK Flexibility Score: inf
ROOT
ATOM      1  C   UNL A   1      33.261  35.503  29.575  1.00  0.00     0.188 C 
ENDROOT
BRANCH   1   2
ATOM      2  O   UNL A   1      32.651  35.907  30.801  1.00  0.00    -0.377 OA
BRANCH   2   3
ATOM      3  C   UNL A   1      33.403  36.738  31.657  1.00  0.00     0.188 C 
BRANCH   3   4
ATOM      4  C   UNL A   1      34.122  35.972  32.782  1.00  0.00     0.188 C 
BRANCH   4   5
ATOM      5  O   UNL A   1      33.609  34.697  33.103  1.00  0.00    -0.376 OA
BRANCH   5   6
ATOM      6  C   UNL A   1      34.352  33.497  32.936  1.00  0.00     0.202 C 
BRANCH   6   7
ATOM      7  C   UNL A   1      35.703  33.143  33.592  1.00  0.00     0.261 C 
BRANCH   7   8
ATOM      8  O   UNL A   1      36.068  33.899  34.738  1.00  0.00    -0.462 OA
BRANCH   8   9
ATOM      9  C   UNL A   1      37.388  34.057  35.012  1.00  0.00     0.324 C 
ATOM     10  O   UNL A   1      38.096  34.973  34.616  1.00  0.00    -0.250 OA
BRANCH   9  11
ATOM     11  C   UNL A   1      37.792  33.030  36.057  1.00  0.00     0.183 C 
ATOM     12  N   UNL A   1      39.223  32.995  36.332  1.00  0.00    -0.184 NA
ATOM     13  C   UNL A   1      39.530  33.749  37.541  1.00  0.00     0.103 C 
ATOM     14  C   UNL A   1      38.260  33.695  38.376  1.00  0.00     0.019 C 
ATOM     15  C   UNL A   1      37.133  33.362  37.409  1.00  0.00     0.034 C 
BRANCH  12  16
ATOM     16  S   UNL A   1      40.164  31.758  35.723  1.00  0.00     0.243 S 
ATOM     17  O   UNL A   1      39.295  30.842  35.025  1.00  0.00    -0.207 OA
ATOM     18  O   UNL A   1      41.040  31.326  36.793  1.00  0.00    -0.207 OA
BRANCH  16  19
ATOM     19  C   UNL A   1      41.243  32.455  34.478  1.00  0.00     0.084 A 
ATOM     20  C   UNL A   1      43.458  34.668  30.346  1.00  0.00     0.154 C 
ATOM     21  N   UNL A   1      43.881  33.799  31.430  1.00  0.00    -0.305 N 
ATOM     22  C   UNL A   1      45.187  33.319  31.329  1.00  0.00     0.316 A 
ATOM     23  C   UNL A   1      43.013  33.378  32.474  1.00  0.00     0.068 A 
ATOM     24  O   UNL A   1      45.932  33.606  30.393  1.00  0.00    -0.263 OA
ATOM     25  C   UNL A   1      45.698  32.377  32.422  1.00  0.00     0.316 A 
ATOM     26  C   UNL A   1      43.478  32.504  33.479  1.00  0.00     0.069 A 
ATOM     27  C   UNL A   1      41.678  33.797  32.520  1.00  0.00     0.030 A 
ATOM     28  O   UNL A   1      46.849  31.955  32.333  1.00  0.00    -0.263 OA
ATOM     29  N   UNL A   1      44.822  32.037  33.451  1.00  0.00    -0.305 N 
ATOM     30  C   UNL A   1      42.588  32.072  34.489  1.00  0.00     0.050 A 
ATOM     31  C   UNL A   1      40.803  33.330  33.501  1.00  0.00     0.024 A 
ATOM     32  C   UNL A   1      45.319  31.156  34.498  1.00  0.00     0.154 C 
ENDBRANCH  16  19
ENDBRANCH  12  16
ENDBRANCH   9  11
ENDBRANCH   8   9
ENDBRANCH   7   8
ENDBRANCH   6   7
ENDBRANCH   5   6
ENDBRANCH   4   5
ENDBRANCH   3   4
ENDBRANCH   2   3
ENDBRANCH   1   2
BRANCH   1  33
ATOM     33  C   UNL A   1      33.896  34.097  29.405  1.00  0.00     0.188 C 
BRANCH  33  34
ATOM     34  O   UNL A   1      35.223  34.090  28.895  1.00  0.00    -0.376 OA
BRANCH  34  35
ATOM     35  C   UNL A   1      36.263  33.517  29.666  1.00  0.00     0.202 C 
BRANCH  35  36
ATOM     36  C   UNL A   1      36.125  32.041  30.064  1.00  0.00     0.261 C 
BRANCH  36  37
ATOM     37  O   UNL A   1      37.227  31.477  30.782  1.00  0.00    -0.460 OA
BRANCH  37  38
ATOM     38  C   UNL A   1      37.041  30.269  31.366  1.00  0.00     0.338 C 
ATOM     39  O   UNL A   1      35.993  29.661  31.464  1.00  0.00    -0.246 OA
BRANCH  38  40
ATOM     40  C   UNL A   1      38.389  29.735  31.664  1.00  0.00     0.060 A 
ATOM     41  C   UNL A   1      38.530  28.437  32.158  1.00  0.00     0.016 A 
ATOM     42  C   UNL A   1      39.508  30.568  31.527  1.00  0.00     0.016 A 
ATOM     43  C   UNL A   1      39.799  27.962  32.491  1.00  0.00     0.010 A 
ATOM     44  C   UNL A   1      40.777  30.094  31.874  1.00  0.00     0.010 A 
ATOM     45  C   UNL A   1      40.933  28.779  32.333  1.00  0.00    -0.014 A 
BRANCH  45  46
ATOM     46  C   UNL A   1      42.283  28.174  32.436  1.00  0.00     0.031 A 
ATOM     47  C   UNL A   1      43.037  27.661  31.248  1.00  0.00     0.074 A 
ATOM     48  C   UNL A   1      42.823  28.085  33.667  1.00  0.00     0.049 A 
ATOM     49  N   UNL A   1      44.260  27.198  31.202  1.00  0.00    -0.248 NA
ATOM     50  C   UNL A   1      42.342  27.658  29.953  1.00  0.00     0.031 C 
ATOM     51  C   UNL A   1      42.150  28.493  34.903  1.00  0.00     0.029 A 
ATOM     52  N   UNL A   1      44.045  27.630  34.084  1.00  0.00    -0.354 N 
ATOM     53  C   UNL A   1      44.489  26.849  29.878  1.00  0.00     0.074 A 
ATOM     54  C   UNL A   1      43.265  27.133  29.154  1.00  0.00     0.031 C 
ATOM     55  C   UNL A   1      42.976  28.286  35.939  1.00  0.00     0.029 A 
ATOM     56  C   UNL A   1      44.224  27.715  35.443  1.00  0.00     0.049 A 
ATOM     57  H   UNL A   1      44.728  27.276  33.470  1.00  0.00     0.167 HD
ATOM     58  C   UNL A   1      45.624  26.362  29.320  1.00  0.00     0.034 A 
ATOM     59  C   UNL A   1      45.276  27.379  36.214  1.00  0.00     0.034 A 
ATOM     60  C   UNL A   1      46.837  26.086  30.047  1.00  0.00     0.049 A 
ATOM     61  C   UNL A   1      46.521  26.849  35.572  1.00  0.00     0.074 A 
ATOM     62  C   UNL A   1      48.051  25.645  29.549  1.00  0.00     0.029 A 
ATOM     63  N   UNL A   1      46.990  26.205  31.419  1.00  0.00    -0.354 N 
ATOM     64  N   UNL A   1      46.764  26.651  34.300  1.00  0.00    -0.248 NA
ATOM     65  C   UNL A   1      47.645  26.521  36.459  1.00  0.00     0.031 C 
ATOM     66  C   UNL A   1      48.931  25.477  30.621  1.00  0.00     0.029 A 
ATOM     67  C   UNL A   1      48.274  25.837  31.786  1.00  0.00     0.049 A 
ATOM     68  H   UNL A   1      46.289  26.507  32.042  1.00  0.00     0.167 HD
ATOM     69  C   UNL A   1      48.073  26.193  34.229  1.00  0.00     0.074 A 
ATOM     70  C   UNL A   1      48.577  26.155  35.587  1.00  0.00     0.031 C 
ATOM     71  C   UNL A   1      48.783  25.830  33.134  1.00  0.00     0.034 A 
BRANCH  58  72
ATOM     72  C   UNL A   1      45.648  26.148  27.830  1.00  0.00     0.023 A 
ATOM     73  C   UNL A   1      46.080  27.199  26.998  1.00  0.00     0.012 A 
ATOM     74  C   UNL A   1      45.372  24.886  27.268  1.00  0.00     0.148 A 
ATOM     75  C   UNL A   1      46.228  27.002  25.626  1.00  0.00     0.002 A 
ATOM     76  C   UNL A   1      45.546  24.690  25.902  1.00  0.00     0.091 A 
ATOM     77  F   UNL A   1      44.960  23.902  28.080  1.00  0.00    -0.205 F 
ATOM     78  C   UNL A   1      45.973  25.746  25.080  1.00  0.00     0.022 A 
BRANCH  76  79
ATOM     79  S   UNL A   1      45.288  23.101  25.104  1.00  0.00     0.127 S 
ATOM     80  O   UNL A   1      45.450  23.452  23.693  1.00  0.00    -0.237 OA
ATOM     81  O   UNL A   1      46.375  22.296  25.660  1.00  0.00    -0.237 OA
ATOM     82  O   UNL A   1      43.950  22.670  25.483  1.00  0.00    -0.744 OA
ENDBRANCH  76  79
ENDBRANCH  58  72
BRANCH  59  83
ATOM     83  C   UNL A   1      45.186  27.607  37.679  1.00  0.00     0.023 A 
ATOM     84  C   UNL A   1      44.801  26.547  38.520  1.00  0.00     0.012 A 
ATOM     85  C   UNL A   1      45.593  28.831  38.243  1.00  0.00     0.148 A 
ATOM     86  C   UNL A   1      44.822  26.705  39.906  1.00  0.00     0.002 A 
ATOM     87  C   UNL A   1      45.648  28.968  39.622  1.00  0.00     0.091 A 
ATOM     88  F   UNL A   1      45.964  29.816  37.413  1.00  0.00    -0.205 F 
ATOM     89  C   UNL A   1      45.256  27.910  40.457  1.00  0.00     0.022 A 
BRANCH  87  90
ATOM     90  S   UNL A   1      46.285  30.443  40.424  1.00  0.00     0.127 S 
ATOM     91  O   UNL A   1      45.340  31.461  39.970  1.00  0.00    -0.237 OA
ATOM     92  O   UNL A   1      46.172  30.084  41.838  1.00  0.00    -0.237 OA
ATOM     93  O   UNL A   1      47.650  30.601  39.943  1.00  0.00    -0.744 OA
ENDBRANCH  87  90
ENDBRANCH  59  83
BRANCH  71  94
ATOM     94  C   UNL A   1      50.197  25.356  33.331  1.00  0.00     0.023 A 
ATOM     95  C   UNL A   1      51.252  26.287  33.283  1.00  0.00     0.012 A 
ATOM     96  C   UNL A   1      50.463  24.020  33.692  1.00  0.00     0.148 A 
ATOM     97  C   UNL A   1      52.555  25.895  33.588  1.00  0.00     0.002 A 
ATOM     98  C   UNL A   1      51.758  23.644  34.026  1.00  0.00     0.091 A 
ATOM     99  F   UNL A   1      49.441  23.153  33.723  1.00  0.00    -0.205 F 
ATOM    100  C   UNL A   1      52.805  24.579  33.972  1.00  0.00     0.022 A 
BRANCH  98 101
ATOM    101  S   UNL A   1      52.173  21.991  34.593  1.00  0.00     0.127 S 
ATOM    102  O   UNL A   1      51.322  21.861  35.776  1.00  0.00    -0.237 OA
ATOM    103  O   UNL A   1      51.765  21.165  33.456  1.00  0.00    -0.237 OA
ATOM    104  O   UNL A   1      53.604  22.000  34.861  1.00  0.00    -0.744 OA
ENDBRANCH  98 101
ENDBRANCH  71  94
ENDBRANCH  45  46
ENDBRANCH  38  40
ENDBRANCH  37  38
ENDBRANCH  36  37
ENDBRANCH  35  36
ENDBRANCH  34  35
ENDBRANCH  33  34
ENDBRANCH   1  33
TORSDOF 25
ENDMDL
