MODEL 1
REMARK VINA RESULT:     -10.2      0.000      0.000
REMARK SMILES CC1=C2C(=O)CC(C)(C)CC2=N[C@@H]1C(=O)OCCOCCOCCOCCOC(=O)c1ccc(-c2c3nc(c(-c4cccc(S(=O)(=O)[O-])c4F)c4ccc([nH]4)c(-c4cccc(S(=O)(=O)[O-])c4F)c4nc(c(-c5cccc(S(=O)(=O)[O-])c5F)c5ccc2[nH]5)C=C4)C=C3)cc1
REMARK SMILES IDX 23 1 22 2 21 3 20 4 19 5 18 6 17 7 16 8 14 9 15 10 13 11
REMARK SMILES IDX 1 12 2 13 3 14 4 15 11 16 12 17 5 18 6 19 10 20 7 21 8 22
REMARK SMILES IDX 9 23 24 24 25 25 26 26 27 27 28 28 29 29 30 30 31 31 32 32
REMARK SMILES IDX 93 33 33 34 92 35 34 36 35 37 36 38 86 39 37 40 91 41 85 42
REMARK SMILES IDX 87 43 38 44 90 45 84 46 83 47 39 49 71 50 51 51 70 52 52 53
REMARK SMILES IDX 55 54 69 55 88 56 53 57 54 58 68 60 89 61 56 62 40 63 41 64
REMARK SMILES IDX 49 65 42 66 44 67 50 68 43 69 45 70 46 71 47 72 48 73 72 74
REMARK SMILES IDX 73 75 81 76 74 77 76 78 82 79 75 80 77 81 78 82 79 83 80 84
REMARK SMILES IDX 57 85 58 86 66 87 59 88 61 89 67 90 60 91 62 92 63 93 64 94
REMARK SMILES IDX 65 95
REMARK H PARENT 87 48 55 59
REMARK Flexibility Score: inf
ROOT
ATOM      1  C   UNL A   1      35.038  30.425  27.999  1.00  0.00     0.188 C 
ENDROOT
BRANCH   1   2
ATOM      2  O   UNL A   1      33.917  29.657  27.598  1.00  0.00    -0.377 OA
BRANCH   2   3
ATOM      3  C   UNL A   1      33.914  29.308  26.226  1.00  0.00     0.188 C 
BRANCH   3   4
ATOM      4  C   UNL A   1      32.618  29.664  25.463  1.00  0.00     0.188 C 
BRANCH   4   5
ATOM      5  O   UNL A   1      32.398  29.151  24.155  1.00  0.00    -0.376 OA
BRANCH   5   6
ATOM      6  C   UNL A   1      31.068  28.848  23.768  1.00  0.00     0.202 C 
BRANCH   6   7
ATOM      7  C   UNL A   1      30.389  27.553  24.269  1.00  0.00     0.261 C 
BRANCH   7   8
ATOM      8  O   UNL A   1      31.259  26.489  24.718  1.00  0.00    -0.461 OA
BRANCH   8   9
ATOM      9  C   UNL A   1      31.383  26.320  26.062  1.00  0.00     0.335 C 
ATOM     10  O   UNL A   1      30.859  27.061  26.892  1.00  0.00    -0.249 OA
BRANCH   9  11
ATOM     11  C   UNL A   1      32.187  25.052  26.482  1.00  0.00     0.242 C 
ATOM     12  C   UNL A   1      34.259  25.428  24.880  1.00  0.00     0.043 C 
ATOM     13  C   UNL A   1      33.459  24.601  25.817  1.00  0.00    -0.025 C 
ATOM     14  C   UNL A   1      33.610  23.286  26.021  1.00  0.00     0.040 C 
ATOM     15  C   UNL A   1      34.641  22.273  25.754  1.00  0.00     0.165 C 
ATOM     16  C   UNL A   1      32.196  22.929  25.991  1.00  0.00     0.048 C 
ATOM     17  N   UNL A   1      31.331  23.817  26.393  1.00  0.00    -0.269 NA
ATOM     18  O   UNL A   1      35.710  22.332  26.359  1.00  0.00    -0.294 OA
ATOM     19  C   UNL A   1      34.275  21.097  24.865  1.00  0.00     0.088 C 
ATOM     20  C   UNL A   1      31.825  21.638  25.302  1.00  0.00     0.063 C 
ATOM     21  C   UNL A   1      32.879  21.238  24.212  1.00  0.00    -0.023 C 
ATOM     22  C   UNL A   1      33.017  22.232  23.033  1.00  0.00     0.012 C 
ATOM     23  C   UNL A   1      32.439  19.898  23.588  1.00  0.00     0.012 C 
ENDBRANCH   9  11
ENDBRANCH   8   9
ENDBRANCH   7   8
ENDBRANCH   6   7
ENDBRANCH   5   6
ENDBRANCH   4   5
ENDBRANCH   3   4
ENDBRANCH   2   3
ENDBRANCH   1   2
BRANCH   1  24
ATOM     24  C   UNL A   1      34.944  31.954  27.779  1.00  0.00     0.188 C 
BRANCH  24  25
ATOM     25  O   UNL A   1      34.083  32.703  28.618  1.00  0.00    -0.376 OA
BRANCH  25  26
ATOM     26  C   UNL A   1      33.431  33.938  28.368  1.00  0.00     0.202 C 
BRANCH  26  27
ATOM     27  C   UNL A   1      33.155  35.043  29.374  1.00  0.00     0.261 C 
BRANCH  27  28
ATOM     28  O   UNL A   1      34.042  35.056  30.457  1.00  0.00    -0.460 OA
BRANCH  28  29
ATOM     29  C   UNL A   1      33.409  34.979  31.637  1.00  0.00     0.338 C 
ATOM     30  O   UNL A   1      32.279  35.408  31.900  1.00  0.00    -0.246 OA
BRANCH  29  31
ATOM     31  C   UNL A   1      34.315  34.404  32.625  1.00  0.00     0.060 A 
ATOM     32  C   UNL A   1      35.320  35.277  33.028  1.00  0.00     0.016 A 
ATOM     33  C   UNL A   1      34.478  33.011  32.573  1.00  0.00     0.016 A 
ATOM     34  C   UNL A   1      36.596  34.802  32.950  1.00  0.00     0.010 A 
ATOM     35  C   UNL A   1      35.753  32.544  32.464  1.00  0.00     0.010 A 
ATOM     36  C   UNL A   1      36.783  33.475  32.547  1.00  0.00    -0.014 A 
BRANCH  36  37
ATOM     37  C   UNL A   1      38.136  33.022  32.386  1.00  0.00     0.031 A 
ATOM     38  C   UNL A   1      38.835  33.091  33.682  1.00  0.00     0.074 A 
ATOM     39  C   UNL A   1      38.596  32.548  31.218  1.00  0.00     0.049 A 
ATOM     40  N   UNL A   1      39.683  33.989  34.059  1.00  0.00    -0.248 NA
ATOM     41  C   UNL A   1      38.284  32.281  34.784  1.00  0.00     0.031 C 
ATOM     42  C   UNL A   1      37.832  32.210  30.014  1.00  0.00     0.029 A 
ATOM     43  N   UNL A   1      39.845  32.114  30.921  1.00  0.00    -0.354 N 
ATOM     44  C   UNL A   1      39.979  33.645  35.373  1.00  0.00     0.074 A 
ATOM     45  C   UNL A   1      38.869  32.863  35.829  1.00  0.00     0.031 C 
ATOM     46  C   UNL A   1      38.577  31.379  29.248  1.00  0.00     0.029 A 
ATOM     47  C   UNL A   1      39.887  31.222  29.858  1.00  0.00     0.049 A 
ATOM     48  H   UNL A   1      40.646  32.404  31.414  1.00  0.00     0.167 HD
ATOM     49  C   UNL A   1      41.268  33.674  35.806  1.00  0.00     0.034 A 
ATOM     50  C   UNL A   1      40.887  30.340  29.601  1.00  0.00     0.034 A 
ATOM     51  C   UNL A   1      42.071  34.497  34.924  1.00  0.00     0.049 A 
ATOM     52  C   UNL A   1      42.073  30.779  30.381  1.00  0.00     0.074 A 
ATOM     53  C   UNL A   1      42.011  35.804  34.482  1.00  0.00     0.029 A 
ATOM     54  N   UNL A   1      42.882  33.830  34.034  1.00  0.00    -0.354 N 
ATOM     55  N   UNL A   1      42.734  31.874  30.132  1.00  0.00    -0.248 NA
ATOM     56  C   UNL A   1      42.237  30.245  31.726  1.00  0.00     0.031 C 
ATOM     57  C   UNL A   1      42.445  35.763  33.122  1.00  0.00     0.029 A 
ATOM     58  C   UNL A   1      42.816  34.452  32.820  1.00  0.00     0.049 A 
ATOM     59  H   UNL A   1      43.422  33.033  34.241  1.00  0.00     0.167 HD
ATOM     60  C   UNL A   1      42.991  32.414  31.387  1.00  0.00     0.074 A 
ATOM     61  C   UNL A   1      42.769  31.314  32.326  1.00  0.00     0.031 C 
ATOM     62  C   UNL A   1      43.046  33.768  31.565  1.00  0.00     0.034 A 
BRANCH  49  63
ATOM     63  C   UNL A   1      41.903  32.582  36.665  1.00  0.00     0.023 A 
ATOM     64  C   UNL A   1      42.701  33.035  37.739  1.00  0.00     0.012 A 
ATOM     65  C   UNL A   1      42.025  31.210  36.331  1.00  0.00     0.148 A 
ATOM     66  C   UNL A   1      43.675  32.223  38.328  1.00  0.00     0.002 A 
ATOM     67  C   UNL A   1      42.972  30.394  36.939  1.00  0.00     0.091 A 
ATOM     68  F   UNL A   1      41.275  30.661  35.381  1.00  0.00    -0.205 F 
ATOM     69  C   UNL A   1      43.827  30.908  37.912  1.00  0.00     0.022 A 
BRANCH  67  70
ATOM     70  S   UNL A   1      43.196  28.674  36.450  1.00  0.00     0.127 S 
ATOM     71  O   UNL A   1      44.209  28.235  37.405  1.00  0.00    -0.237 OA
ATOM     72  O   UNL A   1      41.855  28.133  36.669  1.00  0.00    -0.237 OA
ATOM     73  O   UNL A   1      43.617  28.697  35.056  1.00  0.00    -0.744 OA
ENDBRANCH  67  70
ENDBRANCH  49  63
BRANCH  50  74
ATOM     74  C   UNL A   1      40.825  28.990  28.992  1.00  0.00     0.023 A 
ATOM     75  C   UNL A   1      39.811  28.097  29.392  1.00  0.00     0.012 A 
ATOM     76  C   UNL A   1      41.572  28.670  27.836  1.00  0.00     0.148 A 
ATOM     77  C   UNL A   1      39.526  26.943  28.649  1.00  0.00     0.002 A 
ATOM     78  C   UNL A   1      41.295  27.517  27.108  1.00  0.00     0.091 A 
ATOM     79  F   UNL A   1      42.485  29.542  27.392  1.00  0.00    -0.205 F 
ATOM     80  C   UNL A   1      40.264  26.657  27.503  1.00  0.00     0.022 A 
BRANCH  78  81
ATOM     81  S   UNL A   1      42.193  27.099  25.607  1.00  0.00     0.127 S 
ATOM     82  O   UNL A   1      41.428  25.959  25.103  1.00  0.00    -0.237 OA
ATOM     83  O   UNL A   1      42.059  28.323  24.823  1.00  0.00    -0.237 OA
ATOM     84  O   UNL A   1      43.548  26.768  26.033  1.00  0.00    -0.744 OA
ENDBRANCH  78  81
ENDBRANCH  50  74
BRANCH  62  85
ATOM     85  C   UNL A   1      43.140  34.635  30.338  1.00  0.00     0.023 A 
ATOM     86  C   UNL A   1      42.010  35.086  29.625  1.00  0.00     0.012 A 
ATOM     87  C   UNL A   1      44.407  35.125  29.983  1.00  0.00     0.148 A 
ATOM     88  C   UNL A   1      42.148  35.983  28.561  1.00  0.00     0.002 A 
ATOM     89  C   UNL A   1      44.535  36.052  28.958  1.00  0.00     0.091 A 
ATOM     90  F   UNL A   1      45.473  34.685  30.671  1.00  0.00    -0.205 F 
ATOM     91  C   UNL A   1      43.410  36.476  28.236  1.00  0.00     0.022 A 
BRANCH  89  92
ATOM     92  S   UNL A   1      46.121  36.803  28.588  1.00  0.00     0.127 S 
ATOM     93  O   UNL A   1      45.811  37.601  27.404  1.00  0.00    -0.237 OA
ATOM     94  O   UNL A   1      46.393  37.581  29.798  1.00  0.00    -0.237 OA
ATOM     95  O   UNL A   1      47.044  35.694  28.379  1.00  0.00    -0.744 OA
ENDBRANCH  89  92
ENDBRANCH  62  85
ENDBRANCH  36  37
ENDBRANCH  29  31
ENDBRANCH  28  29
ENDBRANCH  27  28
ENDBRANCH  26  27
ENDBRANCH  25  26
ENDBRANCH  24  25
ENDBRANCH   1  24
TORSDOF 23
ENDMDL
MODEL 2
REMARK VINA RESULT:      -9.8      3.585      5.014
REMARK SMILES CC1=C2C(=O)CC(C)(C)CC2=N[C@@H]1C(=O)OCCOCCOCCOCCOC(=O)c1ccc(-c2c3nc(c(-c4cccc(S(=O)(=O)[O-])c4F)c4ccc([nH]4)c(-c4cccc(S(=O)(=O)[O-])c4F)c4nc(c(-c5cccc(S(=O)(=O)[O-])c5F)c5ccc2[nH]5)C=C4)C=C3)cc1
REMARK SMILES IDX 23 1 22 2 21 3 20 4 19 5 18 6 17 7 16 8 14 9 15 10 13 11
REMARK SMILES IDX 1 12 2 13 3 14 4 15 11 16 12 17 5 18 6 19 10 20 7 21 8 22
REMARK SMILES IDX 9 23 24 24 25 25 26 26 27 27 28 28 29 29 30 30 31 31 32 32
REMARK SMILES IDX 93 33 33 34 92 35 34 36 35 37 36 38 86 39 37 40 91 41 85 42
REMARK SMILES IDX 87 43 38 44 90 45 84 46 83 47 39 49 71 50 51 51 70 52 52 53
REMARK SMILES IDX 55 54 69 55 88 56 53 57 54 58 68 60 89 61 56 62 40 63 41 64
REMARK SMILES IDX 49 65 42 66 44 67 50 68 43 69 45 70 46 71 47 72 48 73 72 74
REMARK SMILES IDX 73 75 81 76 74 77 76 78 82 79 75 80 77 81 78 82 79 83 80 84
REMARK SMILES IDX 57 85 58 86 66 87 59 88 61 89 67 90 60 91 62 92 63 93 64 94
REMARK SMILES IDX 65 95
REMARK H PARENT 87 48 55 59
REMARK Flexibility Score: inf
ROOT
ATOM      1  C   UNL A   1      34.969  29.501  27.674  1.00  0.00     0.188 C 
ENDROOT
BRANCH   1   2
ATOM      2  O   UNL A   1      33.911  28.697  27.186  1.00  0.00    -0.377 OA
BRANCH   2   3
ATOM      3  C   UNL A   1      33.577  28.938  25.831  1.00  0.00     0.188 C 
BRANCH   3   4
ATOM      4  C   UNL A   1      32.073  28.821  25.497  1.00  0.00     0.188 C 
BRANCH   4   5
ATOM      5  O   UNL A   1      31.586  29.265  24.238  1.00  0.00    -0.376 OA
BRANCH   5   6
ATOM      6  C   UNL A   1      30.372  28.714  23.753  1.00  0.00     0.202 C 
BRANCH   6   7
ATOM      7  C   UNL A   1      30.399  27.605  22.677  1.00  0.00     0.261 C 
BRANCH   7   8
ATOM      8  O   UNL A   1      31.127  26.397  22.998  1.00  0.00    -0.461 OA
BRANCH   8   9
ATOM      9  C   UNL A   1      32.031  25.961  22.081  1.00  0.00     0.335 C 
ATOM     10  O   UNL A   1      31.846  26.011  20.866  1.00  0.00    -0.249 OA
BRANCH   9  11
ATOM     11  C   UNL A   1      33.375  25.455  22.688  1.00  0.00     0.242 C 
ATOM     12  C   UNL A   1      33.179  22.943  21.878  1.00  0.00     0.043 C 
ATOM     13  C   UNL A   1      33.813  24.016  22.685  1.00  0.00    -0.025 C 
ATOM     14  C   UNL A   1      34.686  23.828  23.683  1.00  0.00     0.040 C 
ATOM     15  C   UNL A   1      35.550  22.738  24.159  1.00  0.00     0.165 C 
ATOM     16  C   UNL A   1      34.096  24.771  24.627  1.00  0.00     0.048 C 
ATOM     17  N   UNL A   1      33.475  25.811  24.147  1.00  0.00    -0.269 NA
ATOM     18  O   UNL A   1      36.502  22.382  23.466  1.00  0.00    -0.294 OA
ATOM     19  C   UNL A   1      35.328  22.213  25.566  1.00  0.00     0.088 C 
ATOM     20  C   UNL A   1      34.067  24.364  26.081  1.00  0.00     0.063 C 
ATOM     21  C   UNL A   1      34.072  22.805  26.248  1.00  0.00    -0.023 C 
ATOM     22  C   UNL A   1      32.839  22.076  25.660  1.00  0.00     0.012 C 
ATOM     23  C   UNL A   1      34.076  22.484  27.756  1.00  0.00     0.012 C 
ENDBRANCH   9  11
ENDBRANCH   8   9
ENDBRANCH   7   8
ENDBRANCH   6   7
ENDBRANCH   5   6
ENDBRANCH   4   5
ENDBRANCH   3   4
ENDBRANCH   2   3
ENDBRANCH   1   2
BRANCH   1  24
ATOM     24  C   UNL A   1      34.825  31.029  27.478  1.00  0.00     0.188 C 
BRANCH  24  25
ATOM     25  O   UNL A   1      34.085  31.764  28.436  1.00  0.00    -0.376 OA
BRANCH  25  26
ATOM     26  C   UNL A   1      34.094  33.156  28.706  1.00  0.00     0.202 C 
BRANCH  26  27
ATOM     27  C   UNL A   1      35.247  33.967  29.276  1.00  0.00     0.261 C 
BRANCH  27  28
ATOM     28  O   UNL A   1      36.008  33.276  30.227  1.00  0.00    -0.460 OA
BRANCH  28  29
ATOM     29  C   UNL A   1      37.131  32.762  29.706  1.00  0.00     0.338 C 
ATOM     30  O   UNL A   1      37.608  33.003  28.590  1.00  0.00    -0.246 OA
BRANCH  29  31
ATOM     31  C   UNL A   1      37.664  31.761  30.623  1.00  0.00     0.060 A 
ATOM     32  C   UNL A   1      38.787  32.194  31.321  1.00  0.00     0.016 A 
ATOM     33  C   UNL A   1      37.447  30.421  30.267  1.00  0.00     0.016 A 
ATOM     34  C   UNL A   1      39.878  31.377  31.271  1.00  0.00     0.010 A 
ATOM     35  C   UNL A   1      38.544  29.619  30.188  1.00  0.00     0.010 A 
ATOM     36  C   UNL A   1      39.760  30.158  30.593  1.00  0.00    -0.014 A 
BRANCH  36  37
ATOM     37  C   UNL A   1      40.944  29.355  30.476  1.00  0.00     0.031 A 
ATOM     38  C   UNL A   1      41.463  29.044  31.820  1.00  0.00     0.074 A 
ATOM     39  C   UNL A   1      41.400  28.925  29.289  1.00  0.00     0.049 A 
ATOM     40  N   UNL A   1      42.471  29.597  32.409  1.00  0.00    -0.248 NA
ATOM     41  C   UNL A   1      40.573  28.293  32.724  1.00  0.00     0.031 C 
ATOM     42  C   UNL A   1      40.733  28.988  27.986  1.00  0.00     0.029 A 
ATOM     43  N   UNL A   1      42.508  28.188  29.032  1.00  0.00    -0.354 N 
ATOM     44  C   UNL A   1      42.490  29.012  33.669  1.00  0.00     0.074 A 
ATOM     45  C   UNL A   1      41.158  28.536  33.896  1.00  0.00     0.031 C 
ATOM     46  C   UNL A   1      41.311  28.084  27.160  1.00  0.00     0.029 A 
ATOM     47  C   UNL A   1      42.437  27.471  27.845  1.00  0.00     0.049 A 
ATOM     48  H   UNL A   1      43.289  28.163  29.632  1.00  0.00     0.167 HD
ATOM     49  C   UNL A   1      43.671  28.604  34.209  1.00  0.00     0.034 A 
ATOM     50  C   UNL A   1      43.179  26.377  27.534  1.00  0.00     0.034 A 
ATOM     51  C   UNL A   1      44.775  29.265  33.543  1.00  0.00     0.049 A 
ATOM     52  C   UNL A   1      44.330  26.343  28.472  1.00  0.00     0.074 A 
ATOM     53  C   UNL A   1      45.137  30.579  33.317  1.00  0.00     0.029 A 
ATOM     54  N   UNL A   1      45.477  28.514  32.629  1.00  0.00    -0.354 N 
ATOM     55  N   UNL A   1      45.294  27.220  28.462  1.00  0.00    -0.248 NA
ATOM     56  C   UNL A   1      44.167  25.612  29.721  1.00  0.00     0.031 C 
ATOM     57  C   UNL A   1      45.712  30.592  32.011  1.00  0.00     0.029 A 
ATOM     58  C   UNL A   1      45.742  29.282  31.531  1.00  0.00     0.049 A 
ATOM     59  H   UNL A   1      45.745  27.574  32.748  1.00  0.00     0.167 HD
ATOM     60  C   UNL A   1      45.528  27.490  29.805  1.00  0.00     0.074 A 
ATOM     61  C   UNL A   1      44.893  26.389  30.530  1.00  0.00     0.031 C 
ATOM     62  C   UNL A   1      45.932  28.732  30.206  1.00  0.00     0.034 A 
BRANCH  49  63
ATOM     63  C   UNL A   1      43.863  27.271  34.929  1.00  0.00     0.023 A 
ATOM     64  C   UNL A   1      44.432  27.350  36.220  1.00  0.00     0.012 A 
ATOM     65  C   UNL A   1      43.821  25.982  34.342  1.00  0.00     0.148 A 
ATOM     66  C   UNL A   1      45.066  26.255  36.815  1.00  0.00     0.002 A 
ATOM     67  C   UNL A   1      44.423  24.886  34.948  1.00  0.00     0.091 A 
ATOM     68  F   UNL A   1      43.250  25.779  33.159  1.00  0.00    -0.205 F 
ATOM     69  C   UNL A   1      45.082  25.027  36.168  1.00  0.00     0.022 A 
BRANCH  67  70
ATOM     70  S   UNL A   1      44.454  23.265  34.162  1.00  0.00     0.127 S 
ATOM     71  O   UNL A   1      43.034  23.041  33.909  1.00  0.00    -0.237 OA
ATOM     72  O   UNL A   1      45.266  23.532  32.976  1.00  0.00    -0.237 OA
ATOM     73  O   UNL A   1      45.069  22.357  35.122  1.00  0.00    -0.744 OA
ENDBRANCH  67  70
ENDBRANCH  49  63
BRANCH  50  74
ATOM     74  C   UNL A   1      42.824  25.197  26.709  1.00  0.00     0.023 A 
ATOM     75  C   UNL A   1      43.681  24.803  25.661  1.00  0.00     0.012 A 
ATOM     76  C   UNL A   1      41.810  24.298  27.109  1.00  0.00     0.148 A 
ATOM     77  C   UNL A   1      43.554  23.546  25.055  1.00  0.00     0.002 A 
ATOM     78  C   UNL A   1      41.679  23.056  26.496  1.00  0.00     0.091 A 
ATOM     79  F   UNL A   1      41.036  24.617  28.154  1.00  0.00    -0.205 F 
ATOM     80  C   UNL A   1      42.558  22.670  25.478  1.00  0.00     0.022 A 
BRANCH  78  81
ATOM     81  S   UNL A   1      40.429  21.868  27.009  1.00  0.00     0.127 S 
ATOM     82  O   UNL A   1      40.791  21.632  28.406  1.00  0.00    -0.237 OA
ATOM     83  O   UNL A   1      39.196  22.623  26.813  1.00  0.00    -0.237 OA
ATOM     84  O   UNL A   1      40.604  20.708  26.142  1.00  0.00    -0.744 OA
ENDBRANCH  78  81
ENDBRANCH  50  74
BRANCH  62  85
ATOM     85  C   UNL A   1      46.418  29.689  29.148  1.00  0.00     0.023 A 
ATOM     86  C   UNL A   1      47.751  29.715  28.687  1.00  0.00     0.012 A 
ATOM     87  C   UNL A   1      45.459  30.486  28.503  1.00  0.00     0.148 A 
ATOM     88  C   UNL A   1      48.122  30.544  27.624  1.00  0.00     0.002 A 
ATOM     89  C   UNL A   1      45.822  31.271  27.417  1.00  0.00     0.091 A 
ATOM     90  F   UNL A   1      44.196  30.451  28.955  1.00  0.00    -0.205 F 
ATOM     91  C   UNL A   1      47.154  31.312  26.981  1.00  0.00     0.022 A 
BRANCH  89  92
ATOM     92  S   UNL A   1      44.589  32.180  26.485  1.00  0.00     0.127 S 
ATOM     93  O   UNL A   1      45.355  32.632  25.326  1.00  0.00    -0.237 OA
ATOM     94  O   UNL A   1      43.588  31.150  26.195  1.00  0.00    -0.237 OA
ATOM     95  O   UNL A   1      44.114  33.230  27.378  1.00  0.00    -0.744 OA
ENDBRANCH  89  92
ENDBRANCH  62  85
ENDBRANCH  36  37
ENDBRANCH  29  31
ENDBRANCH  28  29
ENDBRANCH  27  28
ENDBRANCH  26  27
ENDBRANCH  25  26
ENDBRANCH  24  25
ENDBRANCH   1  24
TORSDOF 23
ENDMDL
MODEL 3
REMARK VINA RESULT:      -9.8      2.888      8.882
REMARK SMILES CC1=C2C(=O)CC(C)(C)CC2=N[C@@H]1C(=O)OCCOCCOCCOCCOC(=O)c1ccc(-c2c3nc(c(-c4cccc(S(=O)(=O)[O-])c4F)c4ccc([nH]4)c(-c4cccc(S(=O)(=O)[O-])c4F)c4nc(c(-c5cccc(S(=O)(=O)[O-])c5F)c5ccc2[nH]5)C=C4)C=C3)cc1
REMARK SMILES IDX 23 1 22 2 21 3 20 4 19 5 18 6 17 7 16 8 14 9 15 10 13 11
REMARK SMILES IDX 1 12 2 13 3 14 4 15 11 16 12 17 5 18 6 19 10 20 7 21 8 22
REMARK SMILES IDX 9 23 24 24 25 25 26 26 27 27 28 28 29 29 30 30 31 31 32 32
REMARK SMILES IDX 93 33 33 34 92 35 34 36 35 37 36 38 86 39 37 40 91 41 85 42
REMARK SMILES IDX 87 43 38 44 90 45 84 46 83 47 39 49 71 50 51 51 70 52 52 53
REMARK SMILES IDX 55 54 69 55 88 56 53 57 54 58 68 60 89 61 56 62 40 63 41 64
REMARK SMILES IDX 49 65 42 66 44 67 50 68 43 69 45 70 46 71 47 72 48 73 72 74
REMARK SMILES IDX 73 75 81 76 74 77 76 78 82 79 75 80 77 81 78 82 79 83 80 84
REMARK SMILES IDX 57 85 58 86 66 87 59 88 61 89 67 90 60 91 62 92 63 93 64 94
REMARK SMILES IDX 65 95
REMARK H PARENT 87 48 55 59
REMARK Flexibility Score: inf
ROOT
ATOM      1  C   UNL A   1      38.265  22.448  25.845  1.00  0.00     0.188 C 
ENDROOT
BRANCH   1   2
ATOM      2  O   UNL A   1      37.431  22.494  24.701  1.00  0.00    -0.377 OA
BRANCH   2   3
ATOM      3  C   UNL A   1      36.094  22.093  24.942  1.00  0.00     0.188 C 
BRANCH   3   4
ATOM      4  C   UNL A   1      35.506  22.554  26.295  1.00  0.00     0.188 C 
BRANCH   4   5
ATOM      5  O   UNL A   1      34.398  21.867  26.861  1.00  0.00    -0.376 OA
BRANCH   5   6
ATOM      6  C   UNL A   1      33.235  22.614  27.178  1.00  0.00     0.202 C 
BRANCH   6   7
ATOM      7  C   UNL A   1      31.939  22.417  26.360  1.00  0.00     0.261 C 
BRANCH   7   8
ATOM      8  O   UNL A   1      31.731  23.306  25.239  1.00  0.00    -0.461 OA
BRANCH   8   9
ATOM      9  C   UNL A   1      32.383  23.004  24.084  1.00  0.00     0.335 C 
ATOM     10  O   UNL A   1      32.742  21.867  23.783  1.00  0.00    -0.249 OA
BRANCH   9  11
ATOM     11  C   UNL A   1      32.576  24.211  23.116  1.00  0.00     0.242 C 
ATOM     12  C   UNL A   1      34.304  25.554  24.606  1.00  0.00     0.043 C 
ATOM     13  C   UNL A   1      33.378  25.440  23.451  1.00  0.00    -0.025 C 
ATOM     14  C   UNL A   1      32.944  26.457  22.696  1.00  0.00     0.040 C 
ATOM     15  C   UNL A   1      33.341  27.850  22.445  1.00  0.00     0.165 C 
ATOM     16  C   UNL A   1      31.538  26.069  22.650  1.00  0.00     0.048 C 
ATOM     17  N   UNL A   1      31.250  24.800  22.717  1.00  0.00    -0.269 NA
ATOM     18  O   UNL A   1      34.402  28.075  21.864  1.00  0.00    -0.294 OA
ATOM     19  C   UNL A   1      32.342  28.948  22.764  1.00  0.00     0.088 C 
ATOM     20  C   UNL A   1      30.514  27.175  22.740  1.00  0.00     0.063 C 
ATOM     21  C   UNL A   1      31.078  28.430  23.493  1.00  0.00    -0.023 C 
ATOM     22  C   UNL A   1      31.463  28.192  24.974  1.00  0.00     0.012 C 
ATOM     23  C   UNL A   1      29.982  29.514  23.506  1.00  0.00     0.012 C 
ENDBRANCH   9  11
ENDBRANCH   8   9
ENDBRANCH   7   8
ENDBRANCH   6   7
ENDBRANCH   5   6
ENDBRANCH   4   5
ENDBRANCH   3   4
ENDBRANCH   2   3
ENDBRANCH   1   2
BRANCH   1  24
ATOM     24  C   UNL A   1      39.277  21.280  25.919  1.00  0.00     0.188 C 
BRANCH  24  25
ATOM     25  O   UNL A   1      40.372  21.393  26.810  1.00  0.00    -0.376 OA
BRANCH  25  26
ATOM     26  C   UNL A   1      41.762  21.311  26.544  1.00  0.00     0.202 C 
BRANCH  26  27
ATOM     27  C   UNL A   1      42.683  22.454  26.148  1.00  0.00     0.261 C 
BRANCH  27  28
ATOM     28  O   UNL A   1      42.012  23.564  25.621  1.00  0.00    -0.460 OA
BRANCH  28  29
ATOM     29  C   UNL A   1      42.510  24.724  26.073  1.00  0.00     0.338 C 
ATOM     30  O   UNL A   1      43.646  25.171  25.873  1.00  0.00    -0.246 OA
BRANCH  29  31
ATOM     31  C   UNL A   1      41.531  25.348  26.957  1.00  0.00     0.060 A 
ATOM     32  C   UNL A   1      40.781  26.342  26.337  1.00  0.00     0.016 A 
ATOM     33  C   UNL A   1      41.857  25.366  28.322  1.00  0.00     0.016 A 
ATOM     34  C   UNL A   1      40.740  27.548  26.971  1.00  0.00     0.010 A 
ATOM     35  C   UNL A   1      41.845  26.578  28.942  1.00  0.00     0.010 A 
ATOM     36  C   UNL A   1      41.385  27.666  28.208  1.00  0.00    -0.014 A 
BRANCH  36  37
ATOM     37  C   UNL A   1      41.406  28.967  28.815  1.00  0.00     0.031 A 
ATOM     38  C   UNL A   1      42.665  29.651  28.472  1.00  0.00     0.074 A 
ATOM     39  C   UNL A   1      40.361  29.447  29.509  1.00  0.00     0.049 A 
ATOM     40  N   UNL A   1      43.697  29.802  29.233  1.00  0.00    -0.248 NA
ATOM     41  C   UNL A   1      42.931  29.887  27.041  1.00  0.00     0.031 C 
ATOM     42  C   UNL A   1      39.008  28.893  29.608  1.00  0.00     0.029 A 
ATOM     43  N   UNL A   1      40.254  30.636  30.149  1.00  0.00    -0.354 N 
ATOM     44  C   UNL A   1      44.629  30.434  28.418  1.00  0.00     0.074 A 
ATOM     45  C   UNL A   1      44.240  30.128  27.074  1.00  0.00     0.031 C 
ATOM     46  C   UNL A   1      38.169  29.872  30.020  1.00  0.00     0.029 A 
ATOM     47  C   UNL A   1      38.944  31.068  30.308  1.00  0.00     0.049 A 
ATOM     48  H   UNL A   1      41.032  31.146  30.471  1.00  0.00     0.167 HD
ATOM     49  C   UNL A   1      45.360  31.473  28.905  1.00  0.00     0.034 A 
ATOM     50  C   UNL A   1      38.552  32.349  30.530  1.00  0.00     0.034 A 
ATOM     51  C   UNL A   1      45.347  31.454  30.354  1.00  0.00     0.049 A 
ATOM     52  C   UNL A   1      39.749  33.104  30.981  1.00  0.00     0.074 A 
ATOM     53  C   UNL A   1      45.695  30.534  31.324  1.00  0.00     0.029 A 
ATOM     54  N   UNL A   1      44.520  32.365  30.971  1.00  0.00    -0.354 N 
ATOM     55  N   UNL A   1      40.342  32.899  32.124  1.00  0.00    -0.248 NA
ATOM     56  C   UNL A   1      40.564  33.756  29.966  1.00  0.00     0.031 C 
ATOM     57  C   UNL A   1      44.728  30.698  32.362  1.00  0.00     0.029 A 
ATOM     58  C   UNL A   1      43.884  31.753  32.014  1.00  0.00     0.049 A 
ATOM     59  H   UNL A   1      44.405  33.305  30.702  1.00  0.00     0.167 HD
ATOM     60  C   UNL A   1      41.698  32.944  31.821  1.00  0.00     0.074 A 
ATOM     61  C   UNL A   1      41.773  33.590  30.511  1.00  0.00     0.031 C 
ATOM     62  C   UNL A   1      42.591  32.173  32.510  1.00  0.00     0.034 A 
BRANCH  49  63
ATOM     63  C   UNL A   1      45.626  32.764  28.132  1.00  0.00     0.023 A 
ATOM     64  C   UNL A   1      46.982  33.140  28.018  1.00  0.00     0.012 A 
ATOM     65  C   UNL A   1      44.671  33.754  27.791  1.00  0.00     0.148 A 
ATOM     66  C   UNL A   1      47.362  34.459  27.748  1.00  0.00     0.002 A 
ATOM     67  C   UNL A   1      45.050  35.057  27.492  1.00  0.00     0.091 A 
ATOM     68  F   UNL A   1      43.368  33.490  27.799  1.00  0.00    -0.205 F 
ATOM     69  C   UNL A   1      46.394  35.424  27.508  1.00  0.00     0.022 A 
BRANCH  67  70
ATOM     70  S   UNL A   1      43.835  36.344  27.151  1.00  0.00     0.127 S 
ATOM     71  O   UNL A   1      43.128  36.416  28.427  1.00  0.00    -0.237 OA
ATOM     72  O   UNL A   1      44.696  37.485  26.848  1.00  0.00    -0.237 OA
ATOM     73  O   UNL A   1      43.042  35.870  26.024  1.00  0.00    -0.744 OA
ENDBRANCH  67  70
ENDBRANCH  49  63
BRANCH  50  74
ATOM     74  C   UNL A   1      37.319  33.050  30.098  1.00  0.00     0.023 A 
ATOM     75  C   UNL A   1      36.900  32.947  28.756  1.00  0.00     0.012 A 
ATOM     76  C   UNL A   1      36.409  33.584  31.038  1.00  0.00     0.148 A 
ATOM     77  C   UNL A   1      35.609  33.331  28.369  1.00  0.00     0.002 A 
ATOM     78  C   UNL A   1      35.133  33.976  30.647  1.00  0.00     0.091 A 
ATOM     79  F   UNL A   1      36.757  33.617  32.330  1.00  0.00    -0.205 F 
ATOM     80  C   UNL A   1      34.723  33.839  29.316  1.00  0.00     0.022 A 
BRANCH  78  81
ATOM     81  S   UNL A   1      33.932  34.619  31.822  1.00  0.00     0.127 S 
ATOM     82  O   UNL A   1      32.836  35.026  30.944  1.00  0.00    -0.237 OA
ATOM     83  O   UNL A   1      33.656  33.445  32.645  1.00  0.00    -0.237 OA
ATOM     84  O   UNL A   1      34.595  35.725  32.503  1.00  0.00    -0.744 OA
ENDBRANCH  78  81
ENDBRANCH  50  74
BRANCH  62  85
ATOM     85  C   UNL A   1      42.126  31.530  33.790  1.00  0.00     0.023 A 
ATOM     86  C   UNL A   1      41.682  30.194  33.864  1.00  0.00     0.012 A 
ATOM     87  C   UNL A   1      42.280  32.262  34.978  1.00  0.00     0.148 A 
ATOM     88  C   UNL A   1      41.369  29.612  35.096  1.00  0.00     0.002 A 
ATOM     89  C   UNL A   1      42.015  31.666  36.204  1.00  0.00     0.091 A 
ATOM     90  F   UNL A   1      42.702  33.533  34.891  1.00  0.00    -0.205 F 
ATOM     91  C   UNL A   1      41.549  30.345  36.268  1.00  0.00     0.022 A 
BRANCH  89  92
ATOM     92  S   UNL A   1      42.347  32.530  37.739  1.00  0.00     0.127 S 
ATOM     93  O   UNL A   1      43.760  32.876  37.594  1.00  0.00    -0.237 OA
ATOM     94  O   UNL A   1      41.427  33.667  37.669  1.00  0.00    -0.237 OA
ATOM     95  O   UNL A   1      42.035  31.582  38.802  1.00  0.00    -0.744 OA
ENDBRANCH  89  92
ENDBRANCH  62  85
ENDBRANCH  36  37
ENDBRANCH  29  31
ENDBRANCH  28  29
ENDBRANCH  27  28
ENDBRANCH  26  27
ENDBRANCH  25  26
ENDBRANCH  24  25
ENDBRANCH   1  24
TORSDOF 23
ENDMDL
