MODEL 1
REMARK VINA RESULT:      -8.2      0.000      0.000
REMARK SMILES CCNC(=O)c1ccc(SC[C@H](C)C(=O)OCCOCCOCCOCCOC(=O)c2ccc(-c3c4nc(c(-c5cccc(S(=O)(=O)[O-])c5F)c5ccc([nH]5)c(-c5cccc(S(=O)(=O)[O-])c5F)c5nc(c(-c6cccc(S(=O)(=O)[O-])c6F)c6ccc3[nH]6)C=C5)C=C4)cc2)nn1
REMARK SMILES IDX 21 1 20 2 19 3 18 4 17 5 16 6 14 7 15 8 12 9 13 10 11 11
REMARK SMILES IDX 10 12 9 13 6 14 7 15 95 16 8 17 94 18 4 19 3 20 5 22 2 23
REMARK SMILES IDX 1 24 22 25 23 26 24 27 25 28 26 29 27 30 28 31 29 32 30 33
REMARK SMILES IDX 31 34 32 35 93 36 33 37 92 38 34 39 35 40 36 41 86 42 37 43
REMARK SMILES IDX 91 44 85 45 87 46 38 47 90 48 84 49 83 50 39 52 71 53 51 54
REMARK SMILES IDX 70 55 52 56 55 57 69 58 88 59 53 60 54 61 68 63 89 64 56 65
REMARK SMILES IDX 40 66 41 67 49 68 42 69 44 70 50 71 43 72 45 73 46 74 47 75
REMARK SMILES IDX 48 76 72 77 73 78 81 79 74 80 76 81 82 82 75 83 77 84 78 85
REMARK SMILES IDX 79 86 80 87 57 88 58 89 66 90 59 91 61 92 67 93 60 94 62 95
REMARK SMILES IDX 63 96 64 97 65 98
REMARK H PARENT 3 21 87 51 55 62
REMARK Flexibility Score: inf
ROOT
ATOM      1  C   UNL A   1      33.226  35.376  29.755  1.00  0.00     0.188 C 
ENDROOT
BRANCH   1   2
ATOM      2  C   UNL A   1      34.230  34.242  29.502  1.00  0.00     0.188 C 
BRANCH   2   3
ATOM      3  O   UNL A   1      33.820  32.889  29.461  1.00  0.00    -0.376 OA
BRANCH   3   4
ATOM      4  C   UNL A   1      34.321  31.962  28.507  1.00  0.00     0.202 C 
BRANCH   4   5
ATOM      5  C   UNL A   1      33.538  31.435  27.291  1.00  0.00     0.261 C 
BRANCH   5   6
ATOM      6  O   UNL A   1      33.785  30.081  26.897  1.00  0.00    -0.463 OA
BRANCH   6   7
ATOM      7  C   UNL A   1      32.709  29.413  26.436  1.00  0.00     0.309 C 
ATOM      8  O   UNL A   1      31.841  29.931  25.738  1.00  0.00    -0.252 OA
BRANCH   7   9
ATOM      9  C   UNL A   1      32.719  27.916  26.726  1.00  0.00     0.106 C 
ATOM     10  C   UNL A   1      31.357  27.214  26.737  1.00  0.00     0.021 C 
BRANCH   9  11
ATOM     11  C   UNL A   1      33.660  27.267  25.698  1.00  0.00     0.091 C 
BRANCH  11  12
ATOM     12  S   UNL A   1      32.768  26.300  24.418  1.00  0.00    -0.104 SA
BRANCH  12  13
ATOM     13  C   UNL A   1      33.531  24.690  24.450  1.00  0.00     0.119 A 
ATOM     14  C   UNL A   1      34.642  22.203  24.803  1.00  0.00     0.150 A 
ATOM     15  C   UNL A   1      35.025  22.946  23.706  1.00  0.00     0.039 A 
ATOM     16  N   UNL A   1      33.719  22.652  25.676  1.00  0.00    -0.144 NA
ATOM     17  C   UNL A   1      34.450  24.205  23.531  1.00  0.00     0.040 A 
ATOM     18  N   UNL A   1      33.173  23.912  25.497  1.00  0.00    -0.143 NA
BRANCH  14  19
ATOM     19  C   UNL A   1      35.211  20.860  25.054  1.00  0.00     0.271 C 
ATOM     20  N   UNL A   1      34.376  19.790  25.285  1.00  0.00    -0.351 N 
ATOM     21  H   UNL A   1      34.821  18.964  25.582  1.00  0.00     0.163 HD
ATOM     22  O   UNL A   1      36.428  20.697  25.092  1.00  0.00    -0.267 OA
BRANCH  20  23
ATOM     23  C   UNL A   1      32.931  19.700  25.152  1.00  0.00     0.113 C 
ATOM     24  C   UNL A   1      32.538  19.349  23.729  1.00  0.00     0.027 C 
ENDBRANCH  20  23
ENDBRANCH  14  19
ENDBRANCH  12  13
ENDBRANCH  11  12
ENDBRANCH   9  11
ENDBRANCH   7   9
ENDBRANCH   6   7
ENDBRANCH   5   6
ENDBRANCH   4   5
ENDBRANCH   3   4
ENDBRANCH   2   3
ENDBRANCH   1   2
BRANCH   1  25
ATOM     25  O   UNL A   1      32.530  35.300  30.978  1.00  0.00    -0.377 OA
BRANCH  25  26
ATOM     26  C   UNL A   1      32.685  36.342  31.932  1.00  0.00     0.188 C 
BRANCH  26  27
ATOM     27  C   UNL A   1      33.708  36.199  33.078  1.00  0.00     0.188 C 
BRANCH  27  28
ATOM     28  O   UNL A   1      34.681  35.181  32.887  1.00  0.00    -0.376 OA
BRANCH  28  29
ATOM     29  C   UNL A   1      34.467  33.931  33.527  1.00  0.00     0.202 C 
BRANCH  29  30
ATOM     30  C   UNL A   1      35.042  32.687  32.828  1.00  0.00     0.261 C 
BRANCH  30  31
ATOM     31  O   UNL A   1      36.271  32.880  32.108  1.00  0.00    -0.460 OA
BRANCH  31  32
ATOM     32  C   UNL A   1      37.422  32.839  32.813  1.00  0.00     0.338 C 
ATOM     33  O   UNL A   1      37.595  33.221  33.953  1.00  0.00    -0.246 OA
BRANCH  32  34
ATOM     34  C   UNL A   1      38.411  32.055  32.043  1.00  0.00     0.060 A 
ATOM     35  C   UNL A   1      39.437  31.411  32.746  1.00  0.00     0.016 A 
ATOM     36  C   UNL A   1      38.358  31.994  30.649  1.00  0.00     0.016 A 
ATOM     37  C   UNL A   1      40.461  30.774  32.050  1.00  0.00     0.010 A 
ATOM     38  C   UNL A   1      39.396  31.367  29.951  1.00  0.00     0.010 A 
ATOM     39  C   UNL A   1      40.481  30.808  30.651  1.00  0.00    -0.014 A 
BRANCH  39  40
ATOM     40  C   UNL A   1      41.746  30.480  29.950  1.00  0.00     0.031 A 
ATOM     41  C   UNL A   1      42.027  29.036  29.622  1.00  0.00     0.074 A 
ATOM     42  C   UNL A   1      42.601  31.441  29.556  1.00  0.00     0.049 A 
ATOM     43  N   UNL A   1      43.032  28.513  28.973  1.00  0.00    -0.248 NA
ATOM     44  C   UNL A   1      41.037  28.050  30.090  1.00  0.00     0.031 C 
ATOM     45  C   UNL A   1      42.439  32.872  29.802  1.00  0.00     0.029 A 
ATOM     46  N   UNL A   1      43.786  31.347  28.869  1.00  0.00    -0.354 N 
ATOM     47  C   UNL A   1      42.811  27.141  28.975  1.00  0.00     0.074 A 
ATOM     48  C   UNL A   1      41.587  26.909  29.708  1.00  0.00     0.031 C 
ATOM     49  C   UNL A   1      43.497  33.523  29.290  1.00  0.00     0.029 A 
ATOM     50  C   UNL A   1      44.419  32.555  28.696  1.00  0.00     0.049 A 
ATOM     51  H   UNL A   1      44.149  30.496  28.534  1.00  0.00     0.167 HD
ATOM     52  C   UNL A   1      43.547  26.159  28.402  1.00  0.00     0.034 A 
ATOM     53  C   UNL A   1      45.611  32.841  28.136  1.00  0.00     0.034 A 
ATOM     54  C   UNL A   1      44.756  26.389  27.659  1.00  0.00     0.049 A 
ATOM     55  C   UNL A   1      46.427  31.726  27.528  1.00  0.00     0.074 A 
ATOM     56  C   UNL A   1      45.550  25.466  27.004  1.00  0.00     0.029 A 
ATOM     57  N   UNL A   1      45.355  27.627  27.488  1.00  0.00    -0.354 N 
ATOM     58  N   UNL A   1      46.143  30.449  27.432  1.00  0.00    -0.248 NA
ATOM     59  C   UNL A   1      47.710  32.100  26.917  1.00  0.00     0.031 C 
ATOM     60  C   UNL A   1      46.650  26.143  26.465  1.00  0.00     0.029 A 
ATOM     61  C   UNL A   1      46.519  27.492  26.751  1.00  0.00     0.049 A 
ATOM     62  H   UNL A   1      45.004  28.477  27.838  1.00  0.00     0.167 HD
ATOM     63  C   UNL A   1      47.194  29.875  26.724  1.00  0.00     0.074 A 
ATOM     64  C   UNL A   1      48.106  30.950  26.391  1.00  0.00     0.031 C 
ATOM     65  C   UNL A   1      47.396  28.575  26.390  1.00  0.00     0.034 A 
BRANCH  52  66
ATOM     66  C   UNL A   1      43.054  24.744  28.549  1.00  0.00     0.023 A 
ATOM     67  C   UNL A   1      43.350  24.013  29.718  1.00  0.00     0.012 A 
ATOM     68  C   UNL A   1      42.261  24.150  27.547  1.00  0.00     0.148 A 
ATOM     69  C   UNL A   1      42.896  22.704  29.873  1.00  0.00     0.002 A 
ATOM     70  C   UNL A   1      41.772  22.863  27.729  1.00  0.00     0.091 A 
ATOM     71  F   UNL A   1      42.011  24.851  26.432  1.00  0.00    -0.205 F 
ATOM     72  C   UNL A   1      42.099  22.134  28.884  1.00  0.00     0.022 A 
BRANCH  70  73
ATOM     73  S   UNL A   1      40.674  22.069  26.552  1.00  0.00     0.127 S 
ATOM     74  O   UNL A   1      40.243  20.888  27.301  1.00  0.00    -0.237 OA
ATOM     75  O   UNL A   1      39.637  23.084  26.367  1.00  0.00    -0.237 OA
ATOM     76  O   UNL A   1      41.478  21.797  25.369  1.00  0.00    -0.744 OA
ENDBRANCH  70  73
ENDBRANCH  52  66
BRANCH  53  77
ATOM     77  C   UNL A   1      46.101  34.248  28.095  1.00  0.00     0.023 A 
ATOM     78  C   UNL A   1      45.766  35.076  27.006  1.00  0.00     0.012 A 
ATOM     79  C   UNL A   1      46.899  34.768  29.132  1.00  0.00     0.148 A 
ATOM     80  C   UNL A   1      46.246  36.385  26.933  1.00  0.00     0.002 A 
ATOM     81  C   UNL A   1      47.324  36.090  29.083  1.00  0.00     0.091 A 
ATOM     82  F   UNL A   1      47.221  33.960  30.152  1.00  0.00    -0.205 F 
ATOM     83  C   UNL A   1      47.016  36.895  27.976  1.00  0.00     0.022 A 
BRANCH  81  84
ATOM     84  S   UNL A   1      48.207  36.870  30.439  1.00  0.00     0.127 S 
ATOM     85  O   UNL A   1      49.591  36.519  30.135  1.00  0.00    -0.237 OA
ATOM     86  O   UNL A   1      47.870  38.280  30.243  1.00  0.00    -0.237 OA
ATOM     87  O   UNL A   1      47.659  36.284  31.654  1.00  0.00    -0.744 OA
ENDBRANCH  81  84
ENDBRANCH  53  77
BRANCH  65  88
ATOM     88  C   UNL A   1      48.634  28.242  25.595  1.00  0.00     0.023 A 
ATOM     89  C   UNL A   1      49.883  28.154  26.241  1.00  0.00     0.012 A 
ATOM     90  C   UNL A   1      48.548  27.961  24.217  1.00  0.00     0.148 A 
ATOM     91  C   UNL A   1      51.035  27.837  25.519  1.00  0.00     0.002 A 
ATOM     92  C   UNL A   1      49.691  27.594  23.515  1.00  0.00     0.091 A 
ATOM     93  F   UNL A   1      47.355  28.064  23.615  1.00  0.00    -0.205 F 
ATOM     94  C   UNL A   1      50.937  27.547  24.160  1.00  0.00     0.022 A 
BRANCH  92  95
ATOM     95  S   UNL A   1      49.643  27.106  21.786  1.00  0.00     0.127 S 
ATOM     96  O   UNL A   1      51.033  26.724  21.547  1.00  0.00    -0.237 OA
ATOM     97  O   UNL A   1      48.698  25.990  21.804  1.00  0.00    -0.237 OA
ATOM     98  O   UNL A   1      49.180  28.277  21.052  1.00  0.00    -0.744 OA
ENDBRANCH  92  95
ENDBRANCH  65  88
ENDBRANCH  39  40
ENDBRANCH  32  34
ENDBRANCH  31  32
ENDBRANCH  30  31
ENDBRANCH  29  30
ENDBRANCH  28  29
ENDBRANCH  27  28
ENDBRANCH  26  27
ENDBRANCH  25  26
ENDBRANCH   1  25
TORSDOF 28
ENDMDL
MODEL 2
REMARK VINA RESULT:      -8.1      2.030      2.379
REMARK SMILES CCNC(=O)c1ccc(SC[C@H](C)C(=O)OCCOCCOCCOCCOC(=O)c2ccc(-c3c4nc(c(-c5cccc(S(=O)(=O)[O-])c5F)c5ccc([nH]5)c(-c5cccc(S(=O)(=O)[O-])c5F)c5nc(c(-c6cccc(S(=O)(=O)[O-])c6F)c6ccc3[nH]6)C=C5)C=C4)cc2)nn1
REMARK SMILES IDX 21 1 20 2 19 3 18 4 17 5 16 6 14 7 15 8 12 9 13 10 11 11
REMARK SMILES IDX 10 12 9 13 6 14 7 15 95 16 8 17 94 18 4 19 3 20 5 22 2 23
REMARK SMILES IDX 1 24 22 25 23 26 24 27 25 28 26 29 27 30 28 31 29 32 30 33
REMARK SMILES IDX 31 34 32 35 93 36 33 37 92 38 34 39 35 40 36 41 86 42 37 43
REMARK SMILES IDX 91 44 85 45 87 46 38 47 90 48 84 49 83 50 39 52 71 53 51 54
REMARK SMILES IDX 70 55 52 56 55 57 69 58 88 59 53 60 54 61 68 63 89 64 56 65
REMARK SMILES IDX 40 66 41 67 49 68 42 69 44 70 50 71 43 72 45 73 46 74 47 75
REMARK SMILES IDX 48 76 72 77 73 78 81 79 74 80 76 81 82 82 75 83 77 84 78 85
REMARK SMILES IDX 79 86 80 87 57 88 58 89 66 90 59 91 61 92 67 93 60 94 62 95
REMARK SMILES IDX 63 96 64 97 65 98
REMARK H PARENT 3 21 87 51 55 62
REMARK Flexibility Score: inf
ROOT
ATOM      1  C   UNL A   1      33.561  35.308  29.659  1.00  0.00     0.188 C 
ENDROOT
BRANCH   1   2
ATOM      2  C   UNL A   1      34.470  34.258  29.003  1.00  0.00     0.188 C 
BRANCH   2   3
ATOM      3  O   UNL A   1      34.240  32.873  29.174  1.00  0.00    -0.376 OA
BRANCH   3   4
ATOM      4  C   UNL A   1      34.357  31.936  28.111  1.00  0.00     0.202 C 
BRANCH   4   5
ATOM      5  C   UNL A   1      33.176  31.335  27.330  1.00  0.00     0.261 C 
BRANCH   5   6
ATOM      6  O   UNL A   1      33.410  30.096  26.651  1.00  0.00    -0.463 OA
BRANCH   6   7
ATOM      7  C   UNL A   1      32.320  29.534  26.091  1.00  0.00     0.309 C 
ATOM      8  O   UNL A   1      31.475  30.175  25.470  1.00  0.00    -0.252 OA
BRANCH   7   9
ATOM      9  C   UNL A   1      32.284  28.012  26.160  1.00  0.00     0.106 C 
ATOM     10  C   UNL A   1      31.126  27.323  25.430  1.00  0.00     0.021 C 
BRANCH   9  11
ATOM     11  C   UNL A   1      33.638  27.507  25.634  1.00  0.00     0.091 C 
BRANCH  11  12
ATOM     12  S   UNL A   1      33.572  26.968  23.881  1.00  0.00    -0.104 SA
BRANCH  12  13
ATOM     13  C   UNL A   1      33.657  25.189  23.949  1.00  0.00     0.119 A 
ATOM     14  C   UNL A   1      33.849  22.480  24.357  1.00  0.00     0.150 A 
ATOM     15  C   UNL A   1      34.011  22.966  23.077  1.00  0.00     0.039 A 
ATOM     16  N   UNL A   1      33.567  23.293  25.394  1.00  0.00    -0.144 NA
ATOM     17  C   UNL A   1      33.905  24.343  22.878  1.00  0.00     0.040 A 
ATOM     18  N   UNL A   1      33.484  24.658  25.181  1.00  0.00    -0.143 NA
BRANCH  14  19
ATOM     19  C   UNL A   1      33.950  21.031  24.644  1.00  0.00     0.271 C 
ATOM     20  N   UNL A   1      35.107  20.514  25.183  1.00  0.00    -0.351 N 
ATOM     21  H   UNL A   1      35.154  19.532  25.214  1.00  0.00     0.163 HD
ATOM     22  O   UNL A   1      33.019  20.277  24.372  1.00  0.00    -0.267 OA
BRANCH  20  23
ATOM     23  C   UNL A   1      36.268  21.207  25.714  1.00  0.00     0.113 C 
ATOM     24  C   UNL A   1      37.385  21.259  24.688  1.00  0.00     0.027 C 
ENDBRANCH  20  23
ENDBRANCH  14  19
ENDBRANCH  12  13
ENDBRANCH  11  12
ENDBRANCH   9  11
ENDBRANCH   7   9
ENDBRANCH   6   7
ENDBRANCH   5   6
ENDBRANCH   4   5
ENDBRANCH   3   4
ENDBRANCH   2   3
ENDBRANCH   1   2
BRANCH   1  25
ATOM     25  O   UNL A   1      33.068  34.961  30.933  1.00  0.00    -0.377 OA
BRANCH  25  26
ATOM     26  C   UNL A   1      33.012  35.953  31.950  1.00  0.00     0.188 C 
BRANCH  26  27
ATOM     27  C   UNL A   1      34.162  36.084  32.969  1.00  0.00     0.188 C 
BRANCH  27  28
ATOM     28  O   UNL A   1      35.290  35.260  32.707  1.00  0.00    -0.376 OA
BRANCH  28  29
ATOM     29  C   UNL A   1      35.617  34.260  33.662  1.00  0.00     0.202 C 
BRANCH  29  30
ATOM     30  C   UNL A   1      36.410  33.045  33.150  1.00  0.00     0.261 C 
BRANCH  30  31
ATOM     31  O   UNL A   1      37.544  33.338  32.318  1.00  0.00    -0.460 OA
BRANCH  31  32
ATOM     32  C   UNL A   1      38.753  33.423  32.915  1.00  0.00     0.338 C 
ATOM     33  O   UNL A   1      39.016  33.993  33.956  1.00  0.00    -0.246 OA
BRANCH  32  34
ATOM     34  C   UNL A   1      39.687  32.526  32.203  1.00  0.00     0.060 A 
ATOM     35  C   UNL A   1      40.703  31.908  32.941  1.00  0.00     0.016 A 
ATOM     36  C   UNL A   1      39.595  32.336  30.822  1.00  0.00     0.016 A 
ATOM     37  C   UNL A   1      41.682  31.163  32.288  1.00  0.00     0.010 A 
ATOM     38  C   UNL A   1      40.587  31.599  30.165  1.00  0.00     0.010 A 
ATOM     39  C   UNL A   1      41.666  31.062  30.891  1.00  0.00    -0.014 A 
BRANCH  39  40
ATOM     40  C   UNL A   1      42.898  30.614  30.197  1.00  0.00     0.031 A 
ATOM     41  C   UNL A   1      43.018  29.158  29.827  1.00  0.00     0.074 A 
ATOM     42  C   UNL A   1      43.863  31.483  29.846  1.00  0.00     0.049 A 
ATOM     43  N   UNL A   1      43.968  28.543  29.175  1.00  0.00    -0.248 NA
ATOM     44  C   UNL A   1      41.915  28.277  30.250  1.00  0.00     0.031 C 
ATOM     45  C   UNL A   1      43.860  32.915  30.136  1.00  0.00     0.029 A 
ATOM     46  N   UNL A   1      45.041  31.275  29.172  1.00  0.00    -0.354 N 
ATOM     47  C   UNL A   1      43.593  27.206  29.130  1.00  0.00     0.074 A 
ATOM     48  C   UNL A   1      42.338  27.093  29.839  1.00  0.00     0.031 C 
ATOM     49  C   UNL A   1      44.994  33.456  29.658  1.00  0.00     0.029 A 
ATOM     50  C   UNL A   1      45.810  32.407  29.046  1.00  0.00     0.049 A 
ATOM     51  H   UNL A   1      45.310  30.399  28.815  1.00  0.00     0.167 HD
ATOM     52  C   UNL A   1      44.222  26.165  28.536  1.00  0.00     0.034 A 
ATOM     53  C   UNL A   1      47.036  32.572  28.512  1.00  0.00     0.034 A 
ATOM     54  C   UNL A   1      45.462  26.277  27.818  1.00  0.00     0.049 A 
ATOM     55  C   UNL A   1      47.730  31.391  27.880  1.00  0.00     0.074 A 
ATOM     56  C   UNL A   1      46.158  25.290  27.144  1.00  0.00     0.029 A 
ATOM     57  N   UNL A   1      46.200  27.444  27.694  1.00  0.00    -0.354 N 
ATOM     58  N   UNL A   1      47.305  30.158  27.740  1.00  0.00    -0.248 NA
ATOM     59  C   UNL A   1      49.058  31.635  27.299  1.00  0.00     0.031 C 
ATOM     60  C   UNL A   1      47.336  25.853  26.642  1.00  0.00     0.029 A 
ATOM     61  C   UNL A   1      47.354  27.199  26.969  1.00  0.00     0.049 A 
ATOM     62  H   UNL A   1      45.943  28.317  28.067  1.00  0.00     0.167 HD
ATOM     63  C   UNL A   1      48.296  29.489  27.027  1.00  0.00     0.074 A 
ATOM     64  C   UNL A   1      49.329  30.463  26.741  1.00  0.00     0.031 C 
ATOM     65  C   UNL A   1      48.355  28.186  26.654  1.00  0.00     0.034 A 
BRANCH  52  66
ATOM     66  C   UNL A   1      43.569  24.811  28.631  1.00  0.00     0.023 A 
ATOM     67  C   UNL A   1      43.870  23.959  29.714  1.00  0.00     0.012 A 
ATOM     68  C   UNL A   1      42.626  24.398  27.670  1.00  0.00     0.148 A 
ATOM     69  C   UNL A   1      43.269  22.706  29.820  1.00  0.00     0.002 A 
ATOM     70  C   UNL A   1      41.996  23.167  27.808  1.00  0.00     0.091 A 
ATOM     71  F   UNL A   1      42.372  25.210  26.634  1.00  0.00    -0.205 F 
ATOM     72  C   UNL A   1      42.326  22.315  28.874  1.00  0.00     0.022 A 
BRANCH  70  73
ATOM     73  S   UNL A   1      40.710  22.607  26.687  1.00  0.00     0.127 S 
ATOM     74  O   UNL A   1      41.484  22.287  25.487  1.00  0.00    -0.237 OA
ATOM     75  O   UNL A   1      40.173  21.444  27.394  1.00  0.00    -0.237 OA
ATOM     76  O   UNL A   1      39.781  23.719  26.551  1.00  0.00    -0.744 OA
ENDBRANCH  70  73
ENDBRANCH  52  66
BRANCH  53  77
ATOM     77  C   UNL A   1      47.683  33.915  28.523  1.00  0.00     0.023 A 
ATOM     78  C   UNL A   1      48.511  34.286  29.600  1.00  0.00     0.012 A 
ATOM     79  C   UNL A   1      47.478  34.827  27.470  1.00  0.00     0.148 A 
ATOM     80  C   UNL A   1      49.095  35.554  29.645  1.00  0.00     0.002 A 
ATOM     81  C   UNL A   1      48.109  36.064  27.492  1.00  0.00     0.091 A 
ATOM     82  F   UNL A   1      46.672  34.462  26.462  1.00  0.00    -0.205 F 
ATOM     83  C   UNL A   1      48.903  36.438  28.587  1.00  0.00     0.022 A 
BRANCH  81  84
ATOM     84  S   UNL A   1      48.026  37.214  26.114  1.00  0.00     0.127 S 
ATOM     85  O   UNL A   1      48.698  36.463  25.057  1.00  0.00    -0.237 OA
ATOM     86  O   UNL A   1      46.581  37.367  25.940  1.00  0.00    -0.237 OA
ATOM     87  O   UNL A   1      48.708  38.419  26.564  1.00  0.00    -0.744 OA
ENDBRANCH  81  84
ENDBRANCH  53  77
BRANCH  65  88
ATOM     88  C   UNL A   1      49.560  27.738  25.866  1.00  0.00     0.023 A 
ATOM     89  C   UNL A   1      49.493  27.657  24.461  1.00  0.00     0.012 A 
ATOM     90  C   UNL A   1      50.776  27.449  26.516  1.00  0.00     0.148 A 
ATOM     91  C   UNL A   1      50.603  27.253  23.719  1.00  0.00     0.002 A 
ATOM     92  C   UNL A   1      51.893  27.099  25.767  1.00  0.00     0.091 A 
ATOM     93  F   UNL A   1      50.819  27.515  27.854  1.00  0.00    -0.205 F 
ATOM     94  C   UNL A   1      51.805  26.984  24.371  1.00  0.00     0.022 A 
BRANCH  92  95
ATOM     95  S   UNL A   1      53.507  26.832  26.511  1.00  0.00     0.127 S 
ATOM     96  O   UNL A   1      53.645  28.019  27.354  1.00  0.00    -0.237 OA
ATOM     97  O   UNL A   1      53.308  25.583  27.246  1.00  0.00    -0.237 OA
ATOM     98  O   UNL A   1      54.449  26.738  25.404  1.00  0.00    -0.744 OA
ENDBRANCH  92  95
ENDBRANCH  65  88
ENDBRANCH  39  40
ENDBRANCH  32  34
ENDBRANCH  31  32
ENDBRANCH  30  31
ENDBRANCH  29  30
ENDBRANCH  28  29
ENDBRANCH  27  28
ENDBRANCH  26  27
ENDBRANCH  25  26
ENDBRANCH   1  25
TORSDOF 28
ENDMDL
MODEL 3
REMARK VINA RESULT:      -7.7      4.766      5.446
REMARK SMILES CCNC(=O)c1ccc(SC[C@H](C)C(=O)OCCOCCOCCOCCOC(=O)c2ccc(-c3c4nc(c(-c5cccc(S(=O)(=O)[O-])c5F)c5ccc([nH]5)c(-c5cccc(S(=O)(=O)[O-])c5F)c5nc(c(-c6cccc(S(=O)(=O)[O-])c6F)c6ccc3[nH]6)C=C5)C=C4)cc2)nn1
REMARK SMILES IDX 21 1 20 2 19 3 18 4 17 5 16 6 14 7 15 8 12 9 13 10 11 11
REMARK SMILES IDX 10 12 9 13 6 14 7 15 95 16 8 17 94 18 4 19 3 20 5 22 2 23
REMARK SMILES IDX 1 24 22 25 23 26 24 27 25 28 26 29 27 30 28 31 29 32 30 33
REMARK SMILES IDX 31 34 32 35 93 36 33 37 92 38 34 39 35 40 36 41 86 42 37 43
REMARK SMILES IDX 91 44 85 45 87 46 38 47 90 48 84 49 83 50 39 52 71 53 51 54
REMARK SMILES IDX 70 55 52 56 55 57 69 58 88 59 53 60 54 61 68 63 89 64 56 65
REMARK SMILES IDX 40 66 41 67 49 68 42 69 44 70 50 71 43 72 45 73 46 74 47 75
REMARK SMILES IDX 48 76 72 77 73 78 81 79 74 80 76 81 82 82 75 83 77 84 78 85
REMARK SMILES IDX 79 86 80 87 57 88 58 89 66 90 59 91 61 92 67 93 60 94 62 95
REMARK SMILES IDX 63 96 64 97 65 98
REMARK H PARENT 3 21 87 51 55 62
REMARK Flexibility Score: inf
ROOT
ATOM      1  C   UNL A   1      35.622  32.470  28.064  1.00  0.00     0.188 C 
ENDROOT
BRANCH   1   2
ATOM      2  C   UNL A   1      36.280  31.166  28.536  1.00  0.00     0.188 C 
BRANCH   2   3
ATOM      3  O   UNL A   1      35.636  29.916  28.381  1.00  0.00    -0.376 OA
BRANCH   3   4
ATOM      4  C   UNL A   1      35.246  29.404  27.113  1.00  0.00     0.202 C 
BRANCH   4   5
ATOM      5  C   UNL A   1      33.871  28.789  26.795  1.00  0.00     0.261 C 
BRANCH   5   6
ATOM      6  O   UNL A   1      33.863  27.580  26.028  1.00  0.00    -0.463 OA
BRANCH   6   7
ATOM      7  C   UNL A   1      33.134  27.624  24.895  1.00  0.00     0.309 C 
ATOM      8  O   UNL A   1      33.598  27.376  23.785  1.00  0.00    -0.252 OA
BRANCH   7   9
ATOM      9  C   UNL A   1      31.644  27.865  25.108  1.00  0.00     0.106 C 
ATOM     10  C   UNL A   1      31.066  29.146  24.498  1.00  0.00     0.021 C 
BRANCH   9  11
ATOM     11  C   UNL A   1      30.908  26.625  24.571  1.00  0.00     0.091 C 
BRANCH  11  12
ATOM     12  S   UNL A   1      30.663  25.328  25.847  1.00  0.00    -0.104 SA
BRANCH  12  13
ATOM     13  C   UNL A   1      32.026  24.203  25.619  1.00  0.00     0.119 A 
ATOM     14  C   UNL A   1      34.180  22.500  25.575  1.00  0.00     0.150 A 
ATOM     15  C   UNL A   1      33.783  23.092  24.394  1.00  0.00     0.039 A 
ATOM     16  N   UNL A   1      33.519  22.710  26.730  1.00  0.00    -0.144 NA
ATOM     17  C   UNL A   1      32.684  23.950  24.425  1.00  0.00     0.040 A 
ATOM     18  N   UNL A   1      32.441  23.579  26.746  1.00  0.00    -0.143 NA
BRANCH  14  19
ATOM     19  C   UNL A   1      35.339  21.580  25.618  1.00  0.00     0.271 C 
ATOM     20  N   UNL A   1      35.183  20.259  25.260  1.00  0.00    -0.351 N 
ATOM     21  H   UNL A   1      35.956  19.679  25.447  1.00  0.00     0.163 HD
ATOM     22  O   UNL A   1      36.435  21.978  26.003  1.00  0.00    -0.267 OA
BRANCH  20  23
ATOM     23  C   UNL A   1      34.045  19.596  24.646  1.00  0.00     0.113 C 
ATOM     24  C   UNL A   1      32.906  19.446  25.638  1.00  0.00     0.027 C 
ENDBRANCH  20  23
ENDBRANCH  14  19
ENDBRANCH  12  13
ENDBRANCH  11  12
ENDBRANCH   9  11
ENDBRANCH   7   9
ENDBRANCH   6   7
ENDBRANCH   5   6
ENDBRANCH   4   5
ENDBRANCH   3   4
ENDBRANCH   2   3
ENDBRANCH   1   2
BRANCH   1  25
ATOM     25  O   UNL A   1      34.430  32.816  28.732  1.00  0.00    -0.377 OA
BRANCH  25  26
ATOM     26  C   UNL A   1      34.424  32.887  30.151  1.00  0.00     0.188 C 
BRANCH  26  27
ATOM     27  C   UNL A   1      34.704  34.226  30.863  1.00  0.00     0.188 C 
BRANCH  27  28
ATOM     28  O   UNL A   1      35.734  34.179  31.841  1.00  0.00    -0.376 OA
BRANCH  28  29
ATOM     29  C   UNL A   1      35.513  34.858  33.070  1.00  0.00     0.202 C 
BRANCH  29  30
ATOM     30  C   UNL A   1      35.538  34.003  34.349  1.00  0.00     0.261 C 
BRANCH  30  31
ATOM     31  O   UNL A   1      36.446  32.889  34.345  1.00  0.00    -0.460 OA
BRANCH  31  32
ATOM     32  C   UNL A   1      37.171  32.669  35.463  1.00  0.00     0.338 C 
ATOM     33  O   UNL A   1      36.845  32.918  36.606  1.00  0.00    -0.246 OA
BRANCH  32  34
ATOM     34  C   UNL A   1      38.362  31.874  35.096  1.00  0.00     0.060 A 
ATOM     35  C   UNL A   1      39.550  32.097  35.802  1.00  0.00     0.016 A 
ATOM     36  C   UNL A   1      38.323  30.960  34.040  1.00  0.00     0.016 A 
ATOM     37  C   UNL A   1      40.725  31.466  35.401  1.00  0.00     0.010 A 
ATOM     38  C   UNL A   1      39.507  30.338  33.630  1.00  0.00     0.010 A 
ATOM     39  C   UNL A   1      40.722  30.638  34.272  1.00  0.00    -0.014 A 
BRANCH  39  40
ATOM     40  C   UNL A   1      42.019  30.298  33.638  1.00  0.00     0.031 A 
ATOM     41  C   UNL A   1      42.764  29.088  34.141  1.00  0.00     0.074 A 
ATOM     42  C   UNL A   1      42.500  31.004  32.599  1.00  0.00     0.049 A 
ATOM     43  N   UNL A   1      43.882  28.564  33.713  1.00  0.00    -0.248 NA
ATOM     44  C   UNL A   1      42.165  28.372  35.281  1.00  0.00     0.031 C 
ATOM     45  C   UNL A   1      41.871  32.186  32.014  1.00  0.00     0.029 A 
ATOM     46  N   UNL A   1      43.643  30.827  31.859  1.00  0.00    -0.354 N 
ATOM     47  C   UNL A   1      44.132  27.477  34.542  1.00  0.00     0.074 A 
ATOM     48  C   UNL A   1      43.061  27.427  35.512  1.00  0.00     0.031 C 
ATOM     49  C   UNL A   1      42.647  32.641  31.015  1.00  0.00     0.029 A 
ATOM     50  C   UNL A   1      43.835  31.795  30.902  1.00  0.00     0.049 A 
ATOM     51  H   UNL A   1      44.267  30.080  32.002  1.00  0.00     0.167 HD
ATOM     52  C   UNL A   1      45.149  26.585  34.492  1.00  0.00     0.034 A 
ATOM     53  C   UNL A   1      44.859  31.982  30.046  1.00  0.00     0.034 A 
ATOM     54  C   UNL A   1      46.206  26.624  33.519  1.00  0.00     0.049 A 
ATOM     55  C   UNL A   1      45.995  30.989  30.027  1.00  0.00     0.074 A 
ATOM     56  C   UNL A   1      47.259  25.741  33.357  1.00  0.00     0.029 A 
ATOM     57  N   UNL A   1      46.355  27.606  32.552  1.00  0.00    -0.354 N 
ATOM     58  N   UNL A   1      46.154  29.898  30.737  1.00  0.00    -0.248 NA
ATOM     59  C   UNL A   1      47.075  31.236  29.061  1.00  0.00     0.031 C 
ATOM     60  C   UNL A   1      48.065  26.210  32.315  1.00  0.00     0.029 A 
ATOM     61  C   UNL A   1      47.492  27.363  31.801  1.00  0.00     0.049 A 
ATOM     62  H   UNL A   1      45.743  28.365  32.421  1.00  0.00     0.167 HD
ATOM     63  C   UNL A   1      47.331  29.312  30.282  1.00  0.00     0.074 A 
ATOM     64  C   UNL A   1      47.828  30.156  29.215  1.00  0.00     0.031 C 
ATOM     65  C   UNL A   1      47.954  28.186  30.714  1.00  0.00     0.034 A 
BRANCH  52  66
ATOM     66  C   UNL A   1      45.159  25.482  35.518  1.00  0.00     0.023 A 
ATOM     67  C   UNL A   1      44.626  24.217  35.196  1.00  0.00     0.012 A 
ATOM     68  C   UNL A   1      45.734  25.686  36.788  1.00  0.00     0.148 A 
ATOM     69  C   UNL A   1      44.632  23.184  36.132  1.00  0.00     0.002 A 
ATOM     70  C   UNL A   1      45.780  24.638  37.699  1.00  0.00     0.091 A 
ATOM     71  F   UNL A   1      46.212  26.903  37.084  1.00  0.00    -0.205 F 
ATOM     72  C   UNL A   1      45.218  23.392  37.378  1.00  0.00     0.022 A 
BRANCH  70  73
ATOM     73  S   UNL A   1      46.582  24.780  39.298  1.00  0.00     0.127 S 
ATOM     74  O   UNL A   1      46.344  23.453  39.866  1.00  0.00    -0.237 OA
ATOM     75  O   UNL A   1      47.971  25.043  38.923  1.00  0.00    -0.237 OA
ATOM     76  O   UNL A   1      45.918  25.879  39.986  1.00  0.00    -0.744 OA
ENDBRANCH  70  73
ENDBRANCH  52  66
BRANCH  53  77
ATOM     77  C   UNL A   1      44.849  33.142  29.110  1.00  0.00     0.023 A 
ATOM     78  C   UNL A   1      45.208  34.422  29.576  1.00  0.00     0.012 A 
ATOM     79  C   UNL A   1      44.482  32.981  27.760  1.00  0.00     0.148 A 
ATOM     80  C   UNL A   1      45.169  35.526  28.722  1.00  0.00     0.002 A 
ATOM     81  C   UNL A   1      44.502  34.074  26.902  1.00  0.00     0.091 A 
ATOM     82  F   UNL A   1      44.126  31.759  27.340  1.00  0.00    -0.205 F 
ATOM     83  C   UNL A   1      44.827  35.351  27.384  1.00  0.00     0.022 A 
BRANCH  81  84
ATOM     84  S   UNL A   1      44.204  33.919  25.137  1.00  0.00     0.127 S 
ATOM     85  O   UNL A   1      42.952  34.654  24.981  1.00  0.00    -0.237 OA
ATOM     86  O   UNL A   1      45.383  34.579  24.576  1.00  0.00    -0.237 OA
ATOM     87  O   UNL A   1      44.134  32.488  24.873  1.00  0.00    -0.744 OA
ENDBRANCH  81  84
ENDBRANCH  53  77
BRANCH  65  88
ATOM     88  C   UNL A   1      49.226  27.778  30.014  1.00  0.00     0.023 A 
ATOM     89  C   UNL A   1      50.469  28.251  30.479  1.00  0.00     0.012 A 
ATOM     90  C   UNL A   1      49.191  26.881  28.928  1.00  0.00     0.148 A 
ATOM     91  C   UNL A   1      51.654  27.874  29.846  1.00  0.00     0.002 A 
ATOM     92  C   UNL A   1      50.379  26.467  28.337  1.00  0.00     0.091 A 
ATOM     93  F   UNL A   1      48.000  26.452  28.488  1.00  0.00    -0.205 F 
ATOM     94  C   UNL A   1      51.610  26.974  28.783  1.00  0.00     0.022 A 
BRANCH  92  95
ATOM     95  S   UNL A   1      50.426  25.236  27.028  1.00  0.00     0.127 S 
ATOM     96  O   UNL A   1      51.864  25.076  26.822  1.00  0.00    -0.237 OA
ATOM     97  O   UNL A   1      49.769  24.090  27.656  1.00  0.00    -0.237 OA
ATOM     98  O   UNL A   1      49.693  25.813  25.909  1.00  0.00    -0.744 OA
ENDBRANCH  92  95
ENDBRANCH  65  88
ENDBRANCH  39  40
ENDBRANCH  32  34
ENDBRANCH  31  32
ENDBRANCH  30  31
ENDBRANCH  29  30
ENDBRANCH  28  29
ENDBRANCH  27  28
ENDBRANCH  26  27
ENDBRANCH  25  26
ENDBRANCH   1  25
TORSDOF 28
ENDMDL
