MODEL 1
REMARK VINA RESULT:      -8.5      0.000      0.000
REMARK SMILES CCC[NH+]1CCC([NH2+]CC(C)(C)C(=O)OCCOCCOCCOCCOC(=O)c2ccc(-c3c4nc(c(-c5cccc(S(=O)(=O)[O-])c5F)c5ccc([nH]5)c(-c5cccc(S(=O)(=O)[O-])c5F)c5nc(c(-c6cccc(S(=O)(=O)[O-])c6F)c6ccc3[nH]6)C=C5)C=C4)cc2)CC1
REMARK SMILES IDX 20 1 19 2 18 3 17 4 16 5 15 6 13 7 14 8 10 9 11 10 12 11
REMARK SMILES IDX 9 12 8 13 7 16 4 17 5 18 94 19 6 21 93 22 3 23 2 24 1 25
REMARK SMILES IDX 21 26 22 27 23 28 24 29 25 30 26 31 27 32 28 33 29 34 30 35
REMARK SMILES IDX 31 36 92 37 32 38 91 39 33 40 34 41 35 42 85 43 36 44 90 45
REMARK SMILES IDX 84 46 86 47 37 48 89 49 83 50 82 51 38 53 70 54 50 55 69 56
REMARK SMILES IDX 51 57 54 58 68 59 87 60 52 61 53 62 67 64 88 65 55 66 39 67
REMARK SMILES IDX 40 68 48 69 41 70 43 71 49 72 42 73 44 74 45 75 46 76 47 77
REMARK SMILES IDX 71 78 72 79 80 80 73 81 75 82 81 83 74 84 76 85 77 86 78 87
REMARK SMILES IDX 79 88 56 89 57 90 65 91 58 92 60 93 66 94 59 95 61 96 62 97
REMARK SMILES IDX 63 98 64 99
REMARK H PARENT 8 14 8 15 4 20 86 52 54 63
REMARK Flexibility Score: inf
ROOT
ATOM      1  C   UNL A   1      36.569  23.093  25.850  1.00  0.00     0.188 C 
ENDROOT
BRANCH   1   2
ATOM      2  C   UNL A   1      35.555  24.012  25.163  1.00  0.00     0.188 C 
BRANCH   2   3
ATOM      3  O   UNL A   1      34.602  23.308  24.385  1.00  0.00    -0.376 OA
BRANCH   3   4
ATOM      4  C   UNL A   1      34.331  23.654  23.041  1.00  0.00     0.202 C 
BRANCH   4   5
ATOM      5  C   UNL A   1      32.964  24.210  22.495  1.00  0.00     0.261 C 
BRANCH   5   6
ATOM      6  O   UNL A   1      32.441  25.553  22.723  1.00  0.00    -0.463 OA
BRANCH   6   7
ATOM      7  C   UNL A   1      33.116  26.558  22.154  1.00  0.00     0.317 C 
ATOM      8  O   UNL A   1      33.409  26.490  20.982  1.00  0.00    -0.251 OA
BRANCH   7   9
ATOM      9  C   UNL A   1      33.490  27.778  22.987  1.00  0.00     0.111 C 
ATOM     10  C   UNL A   1      34.674  28.553  22.399  1.00  0.00     0.029 C 
ATOM     11  C   UNL A   1      33.927  27.279  24.386  1.00  0.00     0.029 C 
BRANCH   9  12
ATOM     12  C   UNL A   1      32.191  28.699  23.133  1.00  0.00     0.279 C 
BRANCH  12  13
ATOM     13  N   UNL A   1      30.846  28.231  23.636  1.00  0.00    -0.343 N 
ATOM     14  H   UNL A   1      30.430  28.989  24.178  1.00  0.00     0.346 HD
ATOM     15  H   UNL A   1      30.306  27.979  22.809  1.00  0.00     0.346 HD
BRANCH  13  16
ATOM     16  C   UNL A   1      30.881  27.019  24.492  1.00  0.00     0.193 C 
ATOM     17  N   UNL A   1      30.055  24.784  26.314  1.00  0.00    -0.335 N 
ATOM     18  C   UNL A   1      31.194  25.693  26.618  1.00  0.00     0.268 C 
ATOM     19  C   UNL A   1      29.694  24.854  24.907  1.00  0.00     0.268 C 
ATOM     20  H   UNL A   1      29.261  25.089  26.874  1.00  0.00     0.348 HD
ATOM     21  C   UNL A   1      31.094  27.135  26.012  1.00  0.00     0.126 C 
ATOM     22  C   UNL A   1      29.561  26.255  24.358  1.00  0.00     0.126 C 
BRANCH  17  23
ATOM     23  C   UNL A   1      30.392  23.375  26.673  1.00  0.00     0.261 C 
BRANCH  23  24
ATOM     24  C   UNL A   1      31.800  22.857  26.274  1.00  0.00     0.058 C 
ATOM     25  C   UNL A   1      31.838  21.503  25.561  1.00  0.00     0.010 C 
ENDBRANCH  23  24
ENDBRANCH  17  23
ENDBRANCH  13  16
ENDBRANCH  12  13
ENDBRANCH   9  12
ENDBRANCH   7   9
ENDBRANCH   6   7
ENDBRANCH   5   6
ENDBRANCH   4   5
ENDBRANCH   3   4
ENDBRANCH   2   3
ENDBRANCH   1   2
BRANCH   1  26
ATOM     26  O   UNL A   1      37.595  23.711  26.616  1.00  0.00    -0.377 OA
BRANCH  26  27
ATOM     27  C   UNL A   1      38.962  23.443  26.296  1.00  0.00     0.188 C 
BRANCH  27  28
ATOM     28  C   UNL A   1      39.530  22.012  26.436  1.00  0.00     0.188 C 
BRANCH  28  29
ATOM     29  O   UNL A   1      40.840  21.941  26.970  1.00  0.00    -0.376 OA
BRANCH  29  30
ATOM     30  C   UNL A   1      41.898  21.525  26.130  1.00  0.00     0.202 C 
BRANCH  30  31
ATOM     31  C   UNL A   1      42.883  22.584  25.614  1.00  0.00     0.261 C 
BRANCH  31  32
ATOM     32  O   UNL A   1      42.392  23.927  25.485  1.00  0.00    -0.460 OA
BRANCH  32  33
ATOM     33  C   UNL A   1      43.287  24.939  25.480  1.00  0.00     0.338 C 
ATOM     34  O   UNL A   1      43.860  25.400  24.510  1.00  0.00    -0.246 OA
BRANCH  33  35
ATOM     35  C   UNL A   1      43.268  25.568  26.824  1.00  0.00     0.060 A 
ATOM     36  C   UNL A   1      42.499  24.970  27.835  1.00  0.00     0.016 A 
ATOM     37  C   UNL A   1      44.025  26.711  27.099  1.00  0.00     0.016 A 
ATOM     38  C   UNL A   1      42.420  25.556  29.094  1.00  0.00     0.010 A 
ATOM     39  C   UNL A   1      43.917  27.320  28.352  1.00  0.00     0.010 A 
ATOM     40  C   UNL A   1      43.061  26.778  29.328  1.00  0.00    -0.014 A 
BRANCH  40  41
ATOM     41  C   UNL A   1      42.545  27.625  30.428  1.00  0.00     0.031 A 
ATOM     42  C   UNL A   1      41.210  28.292  30.215  1.00  0.00     0.074 A 
ATOM     43  C   UNL A   1      43.183  27.741  31.605  1.00  0.00     0.049 A 
ATOM     44  N   UNL A   1      40.514  29.042  31.025  1.00  0.00    -0.248 NA
ATOM     45  C   UNL A   1      40.571  28.075  28.903  1.00  0.00     0.031 C 
ATOM     46  C   UNL A   1      44.460  27.118  31.945  1.00  0.00     0.029 A 
ATOM     47  N   UNL A   1      42.834  28.437  32.735  1.00  0.00    -0.354 N 
ATOM     48  C   UNL A   1      39.374  29.405  30.317  1.00  0.00     0.074 A 
ATOM     49  C   UNL A   1      39.477  28.812  29.004  1.00  0.00     0.031 C 
ATOM     50  C   UNL A   1      44.801  27.480  33.195  1.00  0.00     0.029 A 
ATOM     51  C   UNL A   1      43.776  28.374  33.734  1.00  0.00     0.049 A 
ATOM     52  H   UNL A   1      41.989  28.935  32.822  1.00  0.00     0.167 HD
ATOM     53  C   UNL A   1      38.321  30.149  30.724  1.00  0.00     0.034 A 
ATOM     54  C   UNL A   1      43.807  28.983  34.937  1.00  0.00     0.034 A 
ATOM     55  C   UNL A   1      38.211  30.728  32.034  1.00  0.00     0.049 A 
ATOM     56  C   UNL A   1      42.641  29.848  35.351  1.00  0.00     0.074 A 
ATOM     57  C   UNL A   1      37.174  31.476  32.558  1.00  0.00     0.029 A 
ATOM     58  N   UNL A   1      39.182  30.637  33.019  1.00  0.00    -0.354 N 
ATOM     59  N   UNL A   1      41.525  30.099  34.711  1.00  0.00    -0.248 NA
ATOM     60  C   UNL A   1      42.728  30.487  36.674  1.00  0.00     0.031 C 
ATOM     61  C   UNL A   1      37.534  31.870  33.851  1.00  0.00     0.029 A 
ATOM     62  C   UNL A   1      38.776  31.329  34.146  1.00  0.00     0.049 A 
ATOM     63  H   UNL A   1      40.032  30.150  32.930  1.00  0.00     0.167 HD
ATOM     64  C   UNL A   1      40.763  30.891  35.564  1.00  0.00     0.074 A 
ATOM     65  C   UNL A   1      41.535  31.056  36.778  1.00  0.00     0.031 C 
ATOM     66  C   UNL A   1      39.540  31.445  35.361  1.00  0.00     0.034 A 
BRANCH  53  67
ATOM     67  C   UNL A   1      37.206  30.374  29.738  1.00  0.00     0.023 A 
ATOM     68  C   UNL A   1      36.606  29.275  29.089  1.00  0.00     0.012 A 
ATOM     69  C   UNL A   1      36.729  31.673  29.480  1.00  0.00     0.148 A 
ATOM     70  C   UNL A   1      35.575  29.469  28.172  1.00  0.00     0.002 A 
ATOM     71  C   UNL A   1      35.668  31.854  28.602  1.00  0.00     0.091 A 
ATOM     72  F   UNL A   1      37.331  32.707  30.087  1.00  0.00    -0.205 F 
ATOM     73  C   UNL A   1      35.099  30.756  27.938  1.00  0.00     0.022 A 
BRANCH  71  74
ATOM     74  S   UNL A   1      34.930  33.462  28.295  1.00  0.00     0.127 S 
ATOM     75  O   UNL A   1      35.775  33.972  27.214  1.00  0.00    -0.237 OA
ATOM     76  O   UNL A   1      33.572  33.101  27.888  1.00  0.00    -0.237 OA
ATOM     77  O   UNL A   1      35.017  34.194  29.550  1.00  0.00    -0.744 OA
ENDBRANCH  71  74
ENDBRANCH  53  67
BRANCH  54  78
ATOM     78  C   UNL A   1      44.970  28.789  35.849  1.00  0.00     0.023 A 
ATOM     79  C   UNL A   1      46.174  29.479  35.607  1.00  0.00     0.012 A 
ATOM     80  C   UNL A   1      44.892  27.911  36.948  1.00  0.00     0.148 A 
ATOM     81  C   UNL A   1      47.290  29.270  36.419  1.00  0.00     0.002 A 
ATOM     82  C   UNL A   1      45.988  27.753  37.788  1.00  0.00     0.091 A 
ATOM     83  F   UNL A   1      43.744  27.249  37.151  1.00  0.00    -0.205 F 
ATOM     84  C   UNL A   1      47.194  28.414  37.515  1.00  0.00     0.022 A 
BRANCH  82  85
ATOM     85  S   UNL A   1      45.918  26.769  39.289  1.00  0.00     0.127 S 
ATOM     86  O   UNL A   1      44.837  27.420  40.024  1.00  0.00    -0.237 OA
ATOM     87  O   UNL A   1      45.593  25.442  38.761  1.00  0.00    -0.237 OA
ATOM     88  O   UNL A   1      47.241  26.869  39.889  1.00  0.00    -0.744 OA
ENDBRANCH  82  85
ENDBRANCH  54  78
BRANCH  66  89
ATOM     89  C   UNL A   1      38.941  32.250  36.486  1.00  0.00     0.023 A 
ATOM     90  C   UNL A   1      39.259  33.616  36.624  1.00  0.00     0.012 A 
ATOM     91  C   UNL A   1      38.012  31.666  37.370  1.00  0.00     0.148 A 
ATOM     92  C   UNL A   1      38.699  34.374  37.652  1.00  0.00     0.002 A 
ATOM     93  C   UNL A   1      37.415  32.441  38.357  1.00  0.00     0.091 A 
ATOM     94  F   UNL A   1      37.729  30.361  37.231  1.00  0.00    -0.205 F 
ATOM     95  C   UNL A   1      37.770  33.790  38.511  1.00  0.00     0.022 A 
BRANCH  93  96
ATOM     96  S   UNL A   1      36.135  31.801  39.442  1.00  0.00     0.127 S 
ATOM     97  O   UNL A   1      36.715  32.041  40.762  1.00  0.00    -0.237 OA
ATOM     98  O   UNL A   1      34.994  32.657  39.113  1.00  0.00    -0.237 OA
ATOM     99  O   UNL A   1      35.963  30.401  39.080  1.00  0.00    -0.744 OA
ENDBRANCH  93  96
ENDBRANCH  66  89
ENDBRANCH  40  41
ENDBRANCH  33  35
ENDBRANCH  32  33
ENDBRANCH  31  32
ENDBRANCH  30  31
ENDBRANCH  29  30
ENDBRANCH  28  29
ENDBRANCH  27  28
ENDBRANCH  26  27
ENDBRANCH   1  26
TORSDOF 28
ENDMDL
MODEL 2
REMARK VINA RESULT:      -8.3      2.401      3.560
REMARK SMILES CCC[NH+]1CCC([NH2+]CC(C)(C)C(=O)OCCOCCOCCOCCOC(=O)c2ccc(-c3c4nc(c(-c5cccc(S(=O)(=O)[O-])c5F)c5ccc([nH]5)c(-c5cccc(S(=O)(=O)[O-])c5F)c5nc(c(-c6cccc(S(=O)(=O)[O-])c6F)c6ccc3[nH]6)C=C5)C=C4)cc2)CC1
REMARK SMILES IDX 20 1 19 2 18 3 17 4 16 5 15 6 13 7 14 8 10 9 11 10 12 11
REMARK SMILES IDX 9 12 8 13 7 16 4 17 5 18 94 19 6 21 93 22 3 23 2 24 1 25
REMARK SMILES IDX 21 26 22 27 23 28 24 29 25 30 26 31 27 32 28 33 29 34 30 35
REMARK SMILES IDX 31 36 92 37 32 38 91 39 33 40 34 41 35 42 85 43 36 44 90 45
REMARK SMILES IDX 84 46 86 47 37 48 89 49 83 50 82 51 38 53 70 54 50 55 69 56
REMARK SMILES IDX 51 57 54 58 68 59 87 60 52 61 53 62 67 64 88 65 55 66 39 67
REMARK SMILES IDX 40 68 48 69 41 70 43 71 49 72 42 73 44 74 45 75 46 76 47 77
REMARK SMILES IDX 71 78 72 79 80 80 73 81 75 82 81 83 74 84 76 85 77 86 78 87
REMARK SMILES IDX 79 88 56 89 57 90 65 91 58 92 60 93 66 94 59 95 61 96 62 97
REMARK SMILES IDX 63 98 64 99
REMARK H PARENT 8 14 8 15 4 20 86 52 54 63
REMARK Flexibility Score: inf
ROOT
ATOM      1  C   UNL A   1      38.105  20.425  25.092  1.00  0.00     0.188 C 
ENDROOT
BRANCH   1   2
ATOM      2  C   UNL A   1      36.619  20.076  24.978  1.00  0.00     0.188 C 
BRANCH   2   3
ATOM      3  O   UNL A   1      35.772  21.209  25.064  1.00  0.00    -0.376 OA
BRANCH   3   4
ATOM      4  C   UNL A   1      34.552  21.287  24.355  1.00  0.00     0.202 C 
BRANCH   4   5
ATOM      5  C   UNL A   1      33.777  22.612  24.005  1.00  0.00     0.261 C 
BRANCH   5   6
ATOM      6  O   UNL A   1      34.381  23.927  23.822  1.00  0.00    -0.463 OA
BRANCH   6   7
ATOM      7  C   UNL A   1      34.530  24.671  24.924  1.00  0.00     0.317 C 
ATOM      8  O   UNL A   1      35.507  24.516  25.620  1.00  0.00    -0.251 OA
BRANCH   7   9
ATOM      9  C   UNL A   1      33.475  25.714  25.274  1.00  0.00     0.111 C 
ATOM     10  C   UNL A   1      34.069  26.943  25.969  1.00  0.00     0.029 C 
ATOM     11  C   UNL A   1      32.483  25.066  26.271  1.00  0.00     0.029 C 
BRANCH   9  12
ATOM     12  C   UNL A   1      32.698  26.107  23.932  1.00  0.00     0.279 C 
BRANCH  12  13
ATOM     13  N   UNL A   1      31.198  26.193  23.789  1.00  0.00    -0.343 N 
ATOM     14  H   UNL A   1      30.946  25.820  22.874  1.00  0.00     0.346 HD
ATOM     15  H   UNL A   1      30.808  25.660  24.567  1.00  0.00     0.346 HD
BRANCH  13  16
ATOM     16  C   UNL A   1      30.633  27.561  23.902  1.00  0.00     0.193 C 
ATOM     17  N   UNL A   1      29.771  30.359  23.245  1.00  0.00    -0.335 N 
ATOM     18  C   UNL A   1      30.637  30.035  24.412  1.00  0.00     0.268 C 
ATOM     19  C   UNL A   1      29.097  29.169  22.751  1.00  0.00     0.268 C 
ATOM     20  H   UNL A   1      30.372  30.727  22.509  1.00  0.00     0.348 HD
ATOM     21  C   UNL A   1      31.533  28.757  24.260  1.00  0.00     0.126 C 
ATOM     22  C   UNL A   1      29.991  27.964  22.571  1.00  0.00     0.126 C 
BRANCH  17  23
ATOM     23  C   UNL A   1      28.758  31.392  23.609  1.00  0.00     0.261 C 
BRANCH  23  24
ATOM     24  C   UNL A   1      28.741  32.697  22.768  1.00  0.00     0.058 C 
ATOM     25  C   UNL A   1      28.066  32.601  21.398  1.00  0.00     0.010 C 
ENDBRANCH  23  24
ENDBRANCH  17  23
ENDBRANCH  13  16
ENDBRANCH  12  13
ENDBRANCH   9  12
ENDBRANCH   7   9
ENDBRANCH   6   7
ENDBRANCH   5   6
ENDBRANCH   4   5
ENDBRANCH   3   4
ENDBRANCH   2   3
ENDBRANCH   1   2
BRANCH   1  26
ATOM     26  O   UNL A   1      39.005  19.360  25.373  1.00  0.00    -0.377 OA
BRANCH  26  27
ATOM     27  C   UNL A   1      40.349  19.665  25.753  1.00  0.00     0.188 C 
BRANCH  27  28
ATOM     28  C   UNL A   1      40.637  20.382  27.092  1.00  0.00     0.188 C 
BRANCH  28  29
ATOM     29  O   UNL A   1      41.506  21.497  26.996  1.00  0.00    -0.376 OA
BRANCH  29  30
ATOM     30  C   UNL A   1      41.101  22.612  26.227  1.00  0.00     0.202 C 
BRANCH  30  31
ATOM     31  C   UNL A   1      40.122  23.616  26.854  1.00  0.00     0.261 C 
BRANCH  31  32
ATOM     32  O   UNL A   1      40.049  24.919  26.256  1.00  0.00    -0.460 OA
BRANCH  32  33
ATOM     33  C   UNL A   1      41.188  25.635  26.138  1.00  0.00     0.338 C 
ATOM     34  O   UNL A   1      41.717  25.999  25.105  1.00  0.00    -0.246 OA
BRANCH  33  35
ATOM     35  C   UNL A   1      41.556  26.126  27.490  1.00  0.00     0.060 A 
ATOM     36  C   UNL A   1      40.593  26.071  28.510  1.00  0.00     0.016 A 
ATOM     37  C   UNL A   1      42.843  26.599  27.763  1.00  0.00     0.016 A 
ATOM     38  C   UNL A   1      40.886  26.563  29.778  1.00  0.00     0.010 A 
ATOM     39  C   UNL A   1      43.126  27.128  29.026  1.00  0.00     0.010 A 
ATOM     40  C   UNL A   1      42.125  27.170  30.013  1.00  0.00    -0.014 A 
BRANCH  40  41
ATOM     41  C   UNL A   1      42.216  28.134  31.134  1.00  0.00     0.031 A 
ATOM     42  C   UNL A   1      41.334  29.355  31.065  1.00  0.00     0.074 A 
ATOM     43  C   UNL A   1      42.983  27.909  32.214  1.00  0.00     0.049 A 
ATOM     44  N   UNL A   1      41.184  30.325  31.926  1.00  0.00    -0.248 NA
ATOM     45  C   UNL A   1      40.501  29.495  29.856  1.00  0.00     0.031 C 
ATOM     46  C   UNL A   1      43.851  26.751  32.414  1.00  0.00     0.029 A 
ATOM     47  N   UNL A   1      43.153  28.661  33.350  1.00  0.00    -0.354 N 
ATOM     48  C   UNL A   1      40.265  31.197  31.354  1.00  0.00     0.074 A 
ATOM     49  C   UNL A   1      39.905  30.657  30.065  1.00  0.00     0.031 C 
ATOM     50  C   UNL A   1      44.484  26.881  33.595  1.00  0.00     0.029 A 
ATOM     51  C   UNL A   1      44.078  28.139  34.223  1.00  0.00     0.049 A 
ATOM     52  H   UNL A   1      42.660  29.494  33.523  1.00  0.00     0.167 HD
ATOM     53  C   UNL A   1      39.748  32.339  31.862  1.00  0.00     0.034 A 
ATOM     54  C   UNL A   1      44.549  28.633  35.385  1.00  0.00     0.034 A 
ATOM     55  C   UNL A   1      40.096  32.871  33.149  1.00  0.00     0.049 A 
ATOM     56  C   UNL A   1      43.991  29.934  35.909  1.00  0.00     0.074 A 
ATOM     57  C   UNL A   1      39.609  34.005  33.770  1.00  0.00     0.029 A 
ATOM     58  N   UNL A   1      41.031  32.311  34.005  1.00  0.00    -0.354 N 
ATOM     59  N   UNL A   1      43.049  30.695  35.406  1.00  0.00    -0.248 NA
ATOM     60  C   UNL A   1      44.540  30.426  37.182  1.00  0.00     0.031 C 
ATOM     61  C   UNL A   1      40.279  34.153  34.989  1.00  0.00     0.029 A 
ATOM     62  C   UNL A   1      41.150  33.086  35.146  1.00  0.00     0.049 A 
ATOM     63  H   UNL A   1      41.534  31.484  33.829  1.00  0.00     0.167 HD
ATOM     64  C   UNL A   1      42.867  31.732  36.316  1.00  0.00     0.074 A 
ATOM     65  C   UNL A   1      43.778  31.486  37.414  1.00  0.00     0.031 C 
ATOM     66  C   UNL A   1      42.031  32.800  36.248  1.00  0.00     0.034 A 
BRANCH  53  67
ATOM     67  C   UNL A   1      38.749  33.085  31.018  1.00  0.00     0.023 A 
ATOM     68  C   UNL A   1      39.185  33.828  29.900  1.00  0.00     0.012 A 
ATOM     69  C   UNL A   1      37.374  33.024  31.312  1.00  0.00     0.148 A 
ATOM     70  C   UNL A   1      38.272  34.525  29.112  1.00  0.00     0.002 A 
ATOM     71  C   UNL A   1      36.465  33.680  30.493  1.00  0.00     0.091 A 
ATOM     72  F   UNL A   1      36.983  32.335  32.394  1.00  0.00    -0.205 F 
ATOM     73  C   UNL A   1      36.912  34.442  29.401  1.00  0.00     0.022 A 
BRANCH  71  74
ATOM     74  S   UNL A   1      34.689  33.570  30.733  1.00  0.00     0.127 S 
ATOM     75  O   UNL A   1      34.215  34.715  29.957  1.00  0.00    -0.237 OA
ATOM     76  O   UNL A   1      34.383  32.266  30.146  1.00  0.00    -0.237 OA
ATOM     77  O   UNL A   1      34.470  33.658  32.170  1.00  0.00    -0.744 OA
ENDBRANCH  71  74
ENDBRANCH  53  67
BRANCH  54  78
ATOM     78  C   UNL A   1      45.594  27.893  36.149  1.00  0.00     0.023 A 
ATOM     79  C   UNL A   1      46.956  28.103  35.857  1.00  0.00     0.012 A 
ATOM     80  C   UNL A   1      45.243  26.972  37.155  1.00  0.00     0.148 A 
ATOM     81  C   UNL A   1      47.947  27.381  36.526  1.00  0.00     0.002 A 
ATOM     82  C   UNL A   1      46.236  26.300  37.857  1.00  0.00     0.091 A 
ATOM     83  F   UNL A   1      43.941  26.771  37.405  1.00  0.00    -0.205 F 
ATOM     84  C   UNL A   1      47.587  26.487  37.532  1.00  0.00     0.022 A 
BRANCH  82  85
ATOM     85  S   UNL A   1      45.872  25.224  39.249  1.00  0.00     0.127 S 
ATOM     86  O   UNL A   1      44.853  24.342  38.688  1.00  0.00    -0.237 OA
ATOM     87  O   UNL A   1      47.172  24.593  39.485  1.00  0.00    -0.237 OA
ATOM     88  O   UNL A   1      45.428  26.102  40.322  1.00  0.00    -0.744 OA
ENDBRANCH  82  85
ENDBRANCH  54  78
BRANCH  66  89
ATOM     89  C   UNL A   1      42.034  33.766  37.406  1.00  0.00     0.023 A 
ATOM     90  C   UNL A   1      42.921  34.861  37.411  1.00  0.00     0.012 A 
ATOM     91  C   UNL A   1      41.111  33.621  38.461  1.00  0.00     0.148 A 
ATOM     92  C   UNL A   1      42.921  35.768  38.469  1.00  0.00     0.002 A 
ATOM     93  C   UNL A   1      41.079  34.561  39.485  1.00  0.00     0.091 A 
ATOM     94  F   UNL A   1      40.281  32.566  38.446  1.00  0.00    -0.205 F 
ATOM     95  C   UNL A   1      41.994  35.624  39.499  1.00  0.00     0.022 A 
BRANCH  93  96
ATOM     96  S   UNL A   1      39.855  34.514  40.798  1.00  0.00     0.127 S 
ATOM     97  O   UNL A   1      40.312  35.593  41.671  1.00  0.00    -0.237 OA
ATOM     98  O   UNL A   1      38.615  34.798  40.075  1.00  0.00    -0.237 OA
ATOM     99  O   UNL A   1      39.928  33.175  41.368  1.00  0.00    -0.744 OA
ENDBRANCH  93  96
ENDBRANCH  66  89
ENDBRANCH  40  41
ENDBRANCH  33  35
ENDBRANCH  32  33
ENDBRANCH  31  32
ENDBRANCH  30  31
ENDBRANCH  29  30
ENDBRANCH  28  29
ENDBRANCH  27  28
ENDBRANCH  26  27
ENDBRANCH   1  26
TORSDOF 28
ENDMDL
MODEL 3
REMARK VINA RESULT:      -8.1      4.565      9.597
REMARK SMILES CCC[NH+]1CCC([NH2+]CC(C)(C)C(=O)OCCOCCOCCOCCOC(=O)c2ccc(-c3c4nc(c(-c5cccc(S(=O)(=O)[O-])c5F)c5ccc([nH]5)c(-c5cccc(S(=O)(=O)[O-])c5F)c5nc(c(-c6cccc(S(=O)(=O)[O-])c6F)c6ccc3[nH]6)C=C5)C=C4)cc2)CC1
REMARK SMILES IDX 20 1 19 2 18 3 17 4 16 5 15 6 13 7 14 8 10 9 11 10 12 11
REMARK SMILES IDX 9 12 8 13 7 16 4 17 5 18 94 19 6 21 93 22 3 23 2 24 1 25
REMARK SMILES IDX 21 26 22 27 23 28 24 29 25 30 26 31 27 32 28 33 29 34 30 35
REMARK SMILES IDX 31 36 92 37 32 38 91 39 33 40 34 41 35 42 85 43 36 44 90 45
REMARK SMILES IDX 84 46 86 47 37 48 89 49 83 50 82 51 38 53 70 54 50 55 69 56
REMARK SMILES IDX 51 57 54 58 68 59 87 60 52 61 53 62 67 64 88 65 55 66 39 67
REMARK SMILES IDX 40 68 48 69 41 70 43 71 49 72 42 73 44 74 45 75 46 76 47 77
REMARK SMILES IDX 71 78 72 79 80 80 73 81 75 82 81 83 74 84 76 85 77 86 78 87
REMARK SMILES IDX 79 88 56 89 57 90 65 91 58 92 60 93 66 94 59 95 61 96 62 97
REMARK SMILES IDX 63 98 64 99
REMARK H PARENT 8 14 8 15 4 20 86 52 54 63
REMARK Flexibility Score: inf
ROOT
ATOM      1  C   UNL A   1      39.377  29.731  28.527  1.00  0.00     0.188 C 
ENDROOT
BRANCH   1   2
ATOM      2  C   UNL A   1      39.764  28.608  27.560  1.00  0.00     0.188 C 
BRANCH   2   3
ATOM      3  O   UNL A   1      41.135  28.627  27.203  1.00  0.00    -0.376 OA
BRANCH   3   4
ATOM      4  C   UNL A   1      41.559  28.576  25.855  1.00  0.00     0.202 C 
BRANCH   4   5
ATOM      5  C   UNL A   1      42.676  27.629  25.280  1.00  0.00     0.261 C 
BRANCH   5   6
ATOM      6  O   UNL A   1      42.487  26.239  24.876  1.00  0.00    -0.463 OA
BRANCH   6   7
ATOM      7  C   UNL A   1      43.444  25.379  25.244  1.00  0.00     0.317 C 
ATOM      8  O   UNL A   1      43.448  24.261  24.783  1.00  0.00    -0.251 OA
BRANCH   7   9
ATOM      9  C   UNL A   1      44.522  25.829  26.222  1.00  0.00     0.111 C 
ATOM     10  C   UNL A   1      45.456  26.887  25.625  1.00  0.00     0.029 C 
ATOM     11  C   UNL A   1      45.396  24.596  26.562  1.00  0.00     0.029 C 
BRANCH   9  12
ATOM     12  C   UNL A   1      43.803  26.352  27.551  1.00  0.00     0.279 C 
BRANCH  12  13
ATOM     13  N   UNL A   1      42.493  25.834  28.093  1.00  0.00    -0.343 N 
ATOM     14  H   UNL A   1      42.461  26.038  29.092  1.00  0.00     0.346 HD
ATOM     15  H   UNL A   1      41.760  26.301  27.559  1.00  0.00     0.346 HD
BRANCH  13  16
ATOM     16  C   UNL A   1      42.271  24.377  27.914  1.00  0.00     0.193 C 
ATOM     17  N   UNL A   1      41.062  21.635  28.044  1.00  0.00    -0.335 N 
ATOM     18  C   UNL A   1      42.462  21.919  28.462  1.00  0.00     0.268 C 
ATOM     19  C   UNL A   1      40.536  22.711  27.219  1.00  0.00     0.268 C 
ATOM     20  H   UNL A   1      40.497  21.561  28.889  1.00  0.00     0.348 HD
ATOM     21  C   UNL A   1      42.734  23.373  28.984  1.00  0.00     0.126 C 
ATOM     22  C   UNL A   1      40.772  24.099  27.765  1.00  0.00     0.126 C 
BRANCH  17  23
ATOM     23  C   UNL A   1      40.986  20.348  27.293  1.00  0.00     0.261 C 
BRANCH  23  24
ATOM     24  C   UNL A   1      42.178  19.364  27.445  1.00  0.00     0.058 C 
ATOM     25  C   UNL A   1      42.581  18.601  26.181  1.00  0.00     0.010 C 
ENDBRANCH  23  24
ENDBRANCH  17  23
ENDBRANCH  13  16
ENDBRANCH  12  13
ENDBRANCH   9  12
ENDBRANCH   7   9
ENDBRANCH   6   7
ENDBRANCH   5   6
ENDBRANCH   4   5
ENDBRANCH   3   4
ENDBRANCH   2   3
ENDBRANCH   1   2
BRANCH   1  26
ATOM     26  O   UNL A   1      38.526  29.391  29.613  1.00  0.00    -0.377 OA
BRANCH  26  27
ATOM     27  C   UNL A   1      37.238  30.004  29.708  1.00  0.00     0.188 C 
BRANCH  27  28
ATOM     28  C   UNL A   1      36.094  29.567  28.763  1.00  0.00     0.188 C 
BRANCH  28  29
ATOM     29  O   UNL A   1      35.354  30.631  28.193  1.00  0.00    -0.376 OA
BRANCH  29  30
ATOM     30  C   UNL A   1      36.023  31.834  27.876  1.00  0.00     0.202 C 
BRANCH  30  31
ATOM     31  C   UNL A   1      35.321  33.166  28.182  1.00  0.00     0.261 C 
BRANCH  31  32
ATOM     32  O   UNL A   1      34.069  33.099  28.882  1.00  0.00    -0.460 OA
BRANCH  32  33
ATOM     33  C   UNL A   1      33.794  34.056  29.796  1.00  0.00     0.338 C 
ATOM     34  O   UNL A   1      32.896  34.875  29.746  1.00  0.00    -0.246 OA
BRANCH  33  35
ATOM     35  C   UNL A   1      34.618  33.781  31.000  1.00  0.00     0.060 A 
ATOM     36  C   UNL A   1      35.185  34.866  31.688  1.00  0.00     0.016 A 
ATOM     37  C   UNL A   1      34.801  32.478  31.470  1.00  0.00     0.016 A 
ATOM     38  C   UNL A   1      36.000  34.646  32.794  1.00  0.00     0.010 A 
ATOM     39  C   UNL A   1      35.649  32.253  32.558  1.00  0.00     0.010 A 
ATOM     40  C   UNL A   1      36.302  33.334  33.178  1.00  0.00    -0.014 A 
BRANCH  40  41
ATOM     41  C   UNL A   1      37.541  33.115  33.960  1.00  0.00     0.031 A 
ATOM     42  C   UNL A   1      38.784  32.747  33.190  1.00  0.00     0.074 A 
ATOM     43  C   UNL A   1      37.596  33.312  35.288  1.00  0.00     0.049 A 
ATOM     44  N   UNL A   1      40.000  32.546  33.619  1.00  0.00    -0.248 NA
ATOM     45  C   UNL A   1      38.630  32.589  31.732  1.00  0.00     0.031 C 
ATOM     46  C   UNL A   1      36.473  33.703  36.137  1.00  0.00     0.029 A 
ATOM     47  N   UNL A   1      38.654  33.200  36.155  1.00  0.00    -0.354 N 
ATOM     48  C   UNL A   1      40.746  32.216  32.493  1.00  0.00     0.074 A 
ATOM     49  C   UNL A   1      39.846  32.222  31.364  1.00  0.00     0.031 C 
ATOM     50  C   UNL A   1      36.897  33.775  37.412  1.00  0.00     0.029 A 
ATOM     51  C   UNL A   1      38.315  33.419  37.469  1.00  0.00     0.049 A 
ATOM     52  H   UNL A   1      39.569  32.984  35.864  1.00  0.00     0.167 HD
ATOM     53  C   UNL A   1      42.069  31.950  32.398  1.00  0.00     0.034 A 
ATOM     54  C   UNL A   1      39.065  33.325  38.586  1.00  0.00     0.034 A 
ATOM     55  C   UNL A   1      42.967  31.956  33.518  1.00  0.00     0.049 A 
ATOM     56  C   UNL A   1      40.529  32.979  38.459  1.00  0.00     0.074 A 
ATOM     57  C   UNL A   1      44.330  31.727  33.526  1.00  0.00     0.029 A 
ATOM     58  N   UNL A   1      42.588  32.188  34.830  1.00  0.00    -0.354 N 
ATOM     59  N   UNL A   1      41.242  32.770  37.378  1.00  0.00    -0.248 NA
ATOM     60  C   UNL A   1      41.300  32.891  39.709  1.00  0.00     0.031 C 
ATOM     61  C   UNL A   1      44.771  31.784  34.852  1.00  0.00     0.029 A 
ATOM     62  C   UNL A   1      43.689  32.091  35.663  1.00  0.00     0.049 A 
ATOM     63  H   UNL A   1      41.672  32.392  35.125  1.00  0.00     0.167 HD
ATOM     64  C   UNL A   1      42.547  32.563  37.813  1.00  0.00     0.074 A 
ATOM     65  C   UNL A   1      42.531  32.698  39.255  1.00  0.00     0.031 C 
ATOM     66  C   UNL A   1      43.660  32.274  37.091  1.00  0.00     0.034 A 
BRANCH  53  67
ATOM     67  C   UNL A   1      42.617  31.631  31.032  1.00  0.00     0.023 A 
ATOM     68  C   UNL A   1      42.574  30.308  30.546  1.00  0.00     0.012 A 
ATOM     69  C   UNL A   1      43.146  32.650  30.217  1.00  0.00     0.148 A 
ATOM     70  C   UNL A   1      43.081  29.999  29.285  1.00  0.00     0.002 A 
ATOM     71  C   UNL A   1      43.603  32.343  28.942  1.00  0.00     0.091 A 
ATOM     72  F   UNL A   1      43.203  33.897  30.709  1.00  0.00    -0.205 F 
ATOM     73  C   UNL A   1      43.584  31.017  28.480  1.00  0.00     0.022 A 
BRANCH  71  74
ATOM     74  S   UNL A   1      44.196  33.594  27.799  1.00  0.00     0.127 S 
ATOM     75  O   UNL A   1      43.053  34.506  27.742  1.00  0.00    -0.237 OA
ATOM     76  O   UNL A   1      45.363  34.122  28.504  1.00  0.00    -0.237 OA
ATOM     77  O   UNL A   1      44.497  32.897  26.557  1.00  0.00    -0.744 OA
ENDBRANCH  71  74
ENDBRANCH  53  67
BRANCH  54  78
ATOM     78  C   UNL A   1      38.458  33.576  39.923  1.00  0.00     0.023 A 
ATOM     79  C   UNL A   1      38.634  34.825  40.550  1.00  0.00     0.012 A 
ATOM     80  C   UNL A   1      37.715  32.577  40.583  1.00  0.00     0.148 A 
ATOM     81  C   UNL A   1      38.117  35.062  41.825  1.00  0.00     0.002 A 
ATOM     82  C   UNL A   1      37.153  32.839  41.827  1.00  0.00     0.091 A 
ATOM     83  F   UNL A   1      37.574  31.389  39.979  1.00  0.00    -0.205 F 
ATOM     84  C   UNL A   1      37.368  34.072  42.459  1.00  0.00     0.022 A 
BRANCH  82  85
ATOM     85  S   UNL A   1      36.073  31.671  42.662  1.00  0.00     0.127 S 
ATOM     86  O   UNL A   1      35.071  31.402  41.635  1.00  0.00    -0.237 OA
ATOM     87  O   UNL A   1      36.989  30.562  42.935  1.00  0.00    -0.237 OA
ATOM     88  O   UNL A   1      35.592  32.359  43.851  1.00  0.00    -0.744 OA
ENDBRANCH  82  85
ENDBRANCH  54  78
BRANCH  66  89
ATOM     89  C   UNL A   1      44.960  32.121  37.839  1.00  0.00     0.023 A 
ATOM     90  C   UNL A   1      45.787  33.241  38.054  1.00  0.00     0.012 A 
ATOM     91  C   UNL A   1      45.331  30.875  38.384  1.00  0.00     0.148 A 
ATOM     92  C   UNL A   1      46.984  33.114  38.758  1.00  0.00     0.002 A 
ATOM     93  C   UNL A   1      46.497  30.768  39.131  1.00  0.00     0.091 A 
ATOM     94  F   UNL A   1      44.537  29.816  38.159  1.00  0.00    -0.205 F 
ATOM     95  C   UNL A   1      47.333  31.881  39.305  1.00  0.00     0.022 A 
BRANCH  93  96
ATOM     96  S   UNL A   1      46.975  29.246  39.958  1.00  0.00     0.127 S 
ATOM     97  O   UNL A   1      48.226  29.638  40.604  1.00  0.00    -0.237 OA
ATOM     98  O   UNL A   1      45.857  29.029  40.877  1.00  0.00    -0.237 OA
ATOM     99  O   UNL A   1      47.101  28.241  38.911  1.00  0.00    -0.744 OA
ENDBRANCH  93  96
ENDBRANCH  66  89
ENDBRANCH  40  41
ENDBRANCH  33  35
ENDBRANCH  32  33
ENDBRANCH  31  32
ENDBRANCH  30  31
ENDBRANCH  29  30
ENDBRANCH  28  29
ENDBRANCH  27  28
ENDBRANCH  26  27
ENDBRANCH   1  26
TORSDOF 28
ENDMDL
