MODEL 1
REMARK VINA RESULT:     -10.5      0.000      0.000
REMARK SMILES O=C(CCS(=O)(=O)N1CCN(C(=O)[C@@H]2CCCO2)CC1)OCCOCCOCCOCCOC(=O)c1ccc(-c2c3nc(c(-c4cccc(S(=O)(=O)[O-])c4F)c4ccc([nH]4)c(-c4cccc(S(=O)(=O)[O-])c4F)c4nc(c(-c5cccc(S(=O)(=O)[O-])c5F)c5ccc2[nH]5)C=C4)C=C3)cc1
REMARK SMILES IDX 26 1 25 2 24 3 23 4 22 5 21 6 2 7 1 8 3 9 4 10 5 11 6 12
REMARK SMILES IDX 7 13 8 14 9 15 20 16 10 17 19 18 11 19 12 20 13 21 14 22
REMARK SMILES IDX 15 23 18 24 16 25 17 26 27 27 28 28 29 29 30 30 31 31 32 32
REMARK SMILES IDX 33 33 34 34 35 35 36 36 37 37 98 38 38 39 97 40 39 41 40 42
REMARK SMILES IDX 41 43 91 44 42 45 96 46 90 47 92 48 43 49 95 50 89 51 88 52
REMARK SMILES IDX 44 54 76 55 56 56 75 57 57 58 60 59 74 60 93 61 58 62 59 63
REMARK SMILES IDX 73 65 94 66 61 67 45 68 46 69 54 70 47 71 49 72 55 73 48 74
REMARK SMILES IDX 50 75 51 76 52 77 53 78 77 79 78 80 86 81 79 82 81 83 87 84
REMARK SMILES IDX 80 85 82 86 83 87 84 88 85 89 62 90 63 91 71 92 64 93 66 94
REMARK SMILES IDX 72 95 65 96 67 97 68 98 69 99 70 100
REMARK H PARENT 92 53 60 64
REMARK Flexibility Score: inf
ROOT
ATOM      1  C   UNL A   1      38.290  21.682  25.875  1.00  0.00     0.188 C 
ENDROOT
BRANCH   1   2
ATOM      2  C   UNL A   1      38.060  23.189  25.799  1.00  0.00     0.188 C 
BRANCH   2   3
ATOM      3  O   UNL A   1      37.065  23.725  24.919  1.00  0.00    -0.376 OA
BRANCH   3   4
ATOM      4  C   UNL A   1      36.709  23.069  23.694  1.00  0.00     0.202 C 
BRANCH   4   5
ATOM      5  C   UNL A   1      35.158  22.911  23.136  1.00  0.00     0.261 C 
BRANCH   5   6
ATOM      6  O   UNL A   1      34.007  24.086  22.029  1.00  0.00    -0.463 OA
BRANCH   6   7
ATOM      7  C   UNL A   1      33.235  25.620  22.081  1.00  0.00     0.306 C 
ATOM      8  O   UNL A   1      32.370  25.907  21.283  1.00  0.00    -0.252 OA
BRANCH   7   9
ATOM      9  C   UNL A   1      33.609  26.539  23.692  1.00  0.00     0.140 C 
BRANCH   9  10
ATOM     10  C   UNL A   1      33.372  25.835  25.403  1.00  0.00     0.166 C 
BRANCH  10  11
ATOM     11  S   UNL A   1      31.389  25.126  26.020  1.00  0.00     0.214 S 
ATOM     12  O   UNL A   1      30.549  26.203  26.486  1.00  0.00    -0.212 OA
ATOM     13  O   UNL A   1      30.918  24.307  24.918  1.00  0.00    -0.212 OA
BRANCH  11  14
ATOM     14  N   UNL A   1      31.713  23.849  27.403  1.00  0.00    -0.198 NA
ATOM     15  C   UNL A   1      30.784  23.144  26.541  1.00  0.00     0.123 C 
ATOM     16  C   UNL A   1      32.911  22.483  28.066  1.00  0.00     0.123 C 
ATOM     17  C   UNL A   1      31.747  22.408  24.834  1.00  0.00     0.136 C 
ATOM     18  C   UNL A   1      33.525  20.912  27.003  1.00  0.00     0.136 C 
ATOM     19  N   UNL A   1      32.962  20.960  25.206  1.00  0.00    -0.338 N 
ATOM     20  C   UNL A   1      32.861  19.810  24.428  1.00  0.00     0.251 C 
ATOM     21  O   UNL A   1      32.031  19.814  23.504  1.00  0.00    -0.272 OA
BRANCH  20  22
ATOM     22  C   UNL A   1      33.776  18.560  24.606  1.00  0.00     0.207 C 
ATOM     23  C   UNL A   1      34.246  17.690  23.453  1.00  0.00     0.044 C 
ATOM     24  O   UNL A   1      33.239  17.691  25.604  1.00  0.00    -0.368 OA
ATOM     25  C   UNL A   1      33.848  16.277  23.808  1.00  0.00     0.032 C 
ATOM     26  C   UNL A   1      32.968  16.427  25.019  1.00  0.00     0.161 C 
ENDBRANCH  20  22
ENDBRANCH  11  14
ENDBRANCH  10  11
ENDBRANCH   9  10
ENDBRANCH   7   9
ENDBRANCH   6   7
ENDBRANCH   5   6
ENDBRANCH   4   5
ENDBRANCH   3   4
ENDBRANCH   2   3
ENDBRANCH   1   2
BRANCH   1  27
ATOM     27  O   UNL A   1      39.651  21.317  25.871  1.00  0.00    -0.377 OA
BRANCH  27  28
ATOM     28  C   UNL A   1      40.468  22.162  26.664  1.00  0.00     0.188 C 
BRANCH  28  29
ATOM     29  C   UNL A   1      41.751  21.412  26.938  1.00  0.00     0.188 C 
BRANCH  29  30
ATOM     30  O   UNL A   1      42.798  21.738  26.022  1.00  0.00    -0.376 OA
BRANCH  30  31
ATOM     31  C   UNL A   1      42.601  22.976  25.317  1.00  0.00     0.202 C 
BRANCH  31  32
ATOM     32  C   UNL A   1      43.894  23.781  25.129  1.00  0.00     0.261 C 
BRANCH  32  33
ATOM     33  O   UNL A   1      43.630  25.192  25.004  1.00  0.00    -0.460 OA
BRANCH  33  34
ATOM     34  C   UNL A   1      44.644  26.045  25.277  1.00  0.00     0.338 C 
ATOM     35  O   UNL A   1      45.749  26.082  24.763  1.00  0.00    -0.246 OA
BRANCH  34  36
ATOM     36  C   UNL A   1      44.119  27.092  26.178  1.00  0.00     0.060 A 
ATOM     37  C   UNL A   1      43.036  27.890  25.773  1.00  0.00     0.016 A 
ATOM     38  C   UNL A   1      44.708  27.278  27.429  1.00  0.00     0.016 A 
ATOM     39  C   UNL A   1      42.589  28.933  26.593  1.00  0.00     0.010 A 
ATOM     40  C   UNL A   1      44.247  28.299  28.255  1.00  0.00     0.010 A 
ATOM     41  C   UNL A   1      43.240  29.177  27.809  1.00  0.00    -0.014 A 
BRANCH  41  42
ATOM     42  C   UNL A   1      43.197  30.518  28.449  1.00  0.00     0.031 A 
ATOM     43  C   UNL A   1      44.294  31.472  28.050  1.00  0.00     0.074 A 
ATOM     44  C   UNL A   1      42.324  30.855  29.413  1.00  0.00     0.049 A 
ATOM     45  N   UNL A   1      44.696  32.570  28.627  1.00  0.00    -0.248 NA
ATOM     46  C   UNL A   1      45.082  31.089  26.863  1.00  0.00     0.031 C 
ATOM     47  C   UNL A   1      41.210  30.038  29.884  1.00  0.00     0.029 A 
ATOM     48  N   UNL A   1      42.284  31.977  30.206  1.00  0.00    -0.354 N 
ATOM     49  C   UNL A   1      45.834  32.958  27.928  1.00  0.00     0.074 A 
ATOM     50  C   UNL A   1      46.066  31.969  26.901  1.00  0.00     0.031 C 
ATOM     51  C   UNL A   1      40.616  30.671  30.914  1.00  0.00     0.029 A 
ATOM     52  C   UNL A   1      41.335  31.914  31.199  1.00  0.00     0.049 A 
ATOM     53  H   UNL A   1      42.878  32.751  30.075  1.00  0.00     0.167 HD
ATOM     54  C   UNL A   1      46.613  34.048  28.111  1.00  0.00     0.034 A 
ATOM     55  C   UNL A   1      41.104  32.747  32.235  1.00  0.00     0.034 A 
ATOM     56  C   UNL A   1      46.345  35.061  29.089  1.00  0.00     0.049 A 
ATOM     57  C   UNL A   1      41.967  33.975  32.411  1.00  0.00     0.074 A 
ATOM     58  C   UNL A   1      47.024  36.243  29.309  1.00  0.00     0.029 A 
ATOM     59  N   UNL A   1      45.311  35.008  30.010  1.00  0.00    -0.354 N 
ATOM     60  N   UNL A   1      42.986  34.382  31.691  1.00  0.00    -0.248 NA
ATOM     61  C   UNL A   1      41.634  34.874  33.527  1.00  0.00     0.031 C 
ATOM     62  C   UNL A   1      46.414  36.897  30.384  1.00  0.00     0.029 A 
ATOM     63  C   UNL A   1      45.331  36.139  30.803  1.00  0.00     0.049 A 
ATOM     64  H   UNL A   1      44.659  34.274  30.087  1.00  0.00     0.167 HD
ATOM     65  C   UNL A   1      43.379  35.602  32.234  1.00  0.00     0.074 A 
ATOM     66  C   UNL A   1      42.487  35.872  33.342  1.00  0.00     0.031 C 
ATOM     67  C   UNL A   1      44.389  36.425  31.854  1.00  0.00     0.034 A 
BRANCH  54  68
ATOM     68  C   UNL A   1      47.815  34.194  27.217  1.00  0.00     0.023 A 
ATOM     69  C   UNL A   1      47.701  34.871  25.984  1.00  0.00     0.012 A 
ATOM     70  C   UNL A   1      49.059  33.658  27.598  1.00  0.00     0.148 A 
ATOM     71  C   UNL A   1      48.791  34.959  25.121  1.00  0.00     0.002 A 
ATOM     72  C   UNL A   1      50.156  33.802  26.758  1.00  0.00     0.091 A 
ATOM     73  F   UNL A   1      49.142  32.994  28.760  1.00  0.00    -0.205 F 
ATOM     74  C   UNL A   1      50.020  34.435  25.512  1.00  0.00     0.022 A 
BRANCH  72  75
ATOM     75  S   UNL A   1      51.800  33.243  27.214  1.00  0.00     0.127 S 
ATOM     76  O   UNL A   1      51.885  33.679  28.607  1.00  0.00    -0.237 OA
ATOM     77  O   UNL A   1      51.692  31.795  27.033  1.00  0.00    -0.237 OA
ATOM     78  O   UNL A   1      52.716  33.902  26.294  1.00  0.00    -0.744 OA
ENDBRANCH  72  75
ENDBRANCH  54  68
BRANCH  55  79
ATOM     79  C   UNL A   1      39.985  32.471  33.181  1.00  0.00     0.023 A 
ATOM     80  C   UNL A   1      40.201  31.608  34.273  1.00  0.00     0.012 A 
ATOM     81  C   UNL A   1      38.719  33.063  33.015  1.00  0.00     0.148 A 
ATOM     82  C   UNL A   1      39.168  31.315  35.165  1.00  0.00     0.002 A 
ATOM     83  C   UNL A   1      37.712  32.813  33.940  1.00  0.00     0.091 A 
ATOM     84  F   UNL A   1      38.532  33.875  31.965  1.00  0.00    -0.205 F 
ATOM     85  C   UNL A   1      37.927  31.924  35.004  1.00  0.00     0.022 A 
BRANCH  83  86
ATOM     86  S   UNL A   1      36.126  33.655  33.894  1.00  0.00     0.127 S 
ATOM     87  O   UNL A   1      35.409  32.892  32.875  1.00  0.00    -0.237 OA
ATOM     88  O   UNL A   1      35.650  33.459  35.264  1.00  0.00    -0.237 OA
ATOM     89  O   UNL A   1      36.423  35.039  33.552  1.00  0.00    -0.744 OA
ENDBRANCH  83  86
ENDBRANCH  55  79
BRANCH  67  90
ATOM     90  C   UNL A   1      44.555  37.739  32.572  1.00  0.00     0.023 A 
ATOM     91  C   UNL A   1      45.348  37.821  33.733  1.00  0.00     0.012 A 
ATOM     92  C   UNL A   1      44.022  38.918  32.013  1.00  0.00     0.148 A 
ATOM     93  C   UNL A   1      45.590  39.055  34.337  1.00  0.00     0.002 A 
ATOM     94  C   UNL A   1      44.311  40.148  32.588  1.00  0.00     0.091 A 
ATOM     95  F   UNL A   1      43.257  38.814  30.915  1.00  0.00    -0.205 F 
ATOM     96  C   UNL A   1      45.086  40.218  33.756  1.00  0.00     0.022 A 
BRANCH  94  97
ATOM     97  S   UNL A   1      43.796  41.703  31.850  1.00  0.00     0.127 S 
ATOM     98  O   UNL A   1      42.355  41.687  32.096  1.00  0.00    -0.237 OA
ATOM     99  O   UNL A   1      44.539  42.682  32.642  1.00  0.00    -0.237 OA
ATOM    100  O   UNL A   1      44.188  41.634  30.448  1.00  0.00    -0.744 OA
ENDBRANCH  94  97
ENDBRANCH  67  90
ENDBRANCH  41  42
ENDBRANCH  34  36
ENDBRANCH  33  34
ENDBRANCH  32  33
ENDBRANCH  31  32
ENDBRANCH  30  31
ENDBRANCH  29  30
ENDBRANCH  28  29
ENDBRANCH  27  28
ENDBRANCH   1  27
TORSDOF 27
ENDMDL
MODEL 2
REMARK VINA RESULT:     -10.1      1.778      7.322
REMARK SMILES O=C(CCS(=O)(=O)N1CCN(C(=O)[C@@H]2CCCO2)CC1)OCCOCCOCCOCCOC(=O)c1ccc(-c2c3nc(c(-c4cccc(S(=O)(=O)[O-])c4F)c4ccc([nH]4)c(-c4cccc(S(=O)(=O)[O-])c4F)c4nc(c(-c5cccc(S(=O)(=O)[O-])c5F)c5ccc2[nH]5)C=C4)C=C3)cc1
REMARK SMILES IDX 26 1 25 2 24 3 23 4 22 5 21 6 2 7 1 8 3 9 4 10 5 11 6 12
REMARK SMILES IDX 7 13 8 14 9 15 20 16 10 17 19 18 11 19 12 20 13 21 14 22
REMARK SMILES IDX 15 23 18 24 16 25 17 26 27 27 28 28 29 29 30 30 31 31 32 32
REMARK SMILES IDX 33 33 34 34 35 35 36 36 37 37 98 38 38 39 97 40 39 41 40 42
REMARK SMILES IDX 41 43 91 44 42 45 96 46 90 47 92 48 43 49 95 50 89 51 88 52
REMARK SMILES IDX 44 54 76 55 56 56 75 57 57 58 60 59 74 60 93 61 58 62 59 63
REMARK SMILES IDX 73 65 94 66 61 67 45 68 46 69 54 70 47 71 49 72 55 73 48 74
REMARK SMILES IDX 50 75 51 76 52 77 53 78 77 79 78 80 86 81 79 82 81 83 87 84
REMARK SMILES IDX 80 85 82 86 83 87 84 88 85 89 62 90 63 91 71 92 64 93 66 94
REMARK SMILES IDX 72 95 65 96 67 97 68 98 69 99 70 100
REMARK H PARENT 92 53 60 64
REMARK Flexibility Score: inf
ROOT
ATOM      1  C   UNL A   1      37.062  21.235  25.336  1.00  0.00     0.188 C 
ENDROOT
BRANCH   1   2
ATOM      2  C   UNL A   1      36.516  22.636  25.599  1.00  0.00     0.188 C 
BRANCH   2   3
ATOM      3  O   UNL A   1      35.400  23.130  24.849  1.00  0.00    -0.376 OA
BRANCH   3   4
ATOM      4  C   UNL A   1      35.310  22.956  23.428  1.00  0.00     0.202 C 
BRANCH   4   5
ATOM      5  C   UNL A   1      33.931  23.195  22.543  1.00  0.00     0.261 C 
BRANCH   5   6
ATOM      6  O   UNL A   1      33.183  24.789  21.633  1.00  0.00    -0.463 OA
BRANCH   6   7
ATOM      7  C   UNL A   1      32.314  26.230  21.978  1.00  0.00     0.306 C 
ATOM      8  O   UNL A   1      31.335  26.534  21.333  1.00  0.00    -0.252 OA
BRANCH   7   9
ATOM      9  C   UNL A   1      32.822  26.974  23.642  1.00  0.00     0.140 C 
BRANCH   9  10
ATOM     10  C   UNL A   1      32.860  26.047  25.260  1.00  0.00     0.166 C 
BRANCH  10  11
ATOM     11  S   UNL A   1      31.072  24.969  25.935  1.00  0.00     0.214 S 
ATOM     12  O   UNL A   1      30.019  25.868  26.344  1.00  0.00    -0.212 OA
ATOM     13  O   UNL A   1      30.791  24.003  24.887  1.00  0.00    -0.212 OA
BRANCH  11  14
ATOM     14  N   UNL A   1      31.656  23.875  27.389  1.00  0.00    -0.198 NA
ATOM     15  C   UNL A   1      30.676  23.028  26.736  1.00  0.00     0.123 C 
ATOM     16  C   UNL A   1      33.019  22.660  28.024  1.00  0.00     0.123 C 
ATOM     17  C   UNL A   1      31.462  22.158  25.003  1.00  0.00     0.136 C 
ATOM     18  C   UNL A   1      33.600  21.015  27.059  1.00  0.00     0.136 C 
ATOM     19  N   UNL A   1      32.811  20.830  25.358  1.00  0.00    -0.338 N 
ATOM     20  C   UNL A   1      32.692  19.595  24.725  1.00  0.00     0.251 C 
ATOM     21  O   UNL A   1      31.753  19.450  23.925  1.00  0.00    -0.272 OA
BRANCH  20  22
ATOM     22  C   UNL A   1      33.705  18.425  24.909  1.00  0.00     0.207 C 
ATOM     23  C   UNL A   1      34.466  17.783  23.761  1.00  0.00     0.044 C 
ATOM     24  O   UNL A   1      33.113  17.372  25.671  1.00  0.00    -0.368 OA
ATOM     25  C   UNL A   1      34.185  16.301  23.853  1.00  0.00     0.032 C 
ATOM     26  C   UNL A   1      33.099  16.188  24.889  1.00  0.00     0.161 C 
ENDBRANCH  20  22
ENDBRANCH  11  14
ENDBRANCH  10  11
ENDBRANCH   9  10
ENDBRANCH   7   9
ENDBRANCH   6   7
ENDBRANCH   5   6
ENDBRANCH   4   5
ENDBRANCH   3   4
ENDBRANCH   2   3
ENDBRANCH   1   2
BRANCH   1  27
ATOM     27  O   UNL A   1      38.470  21.167  25.342  1.00  0.00    -0.377 OA
BRANCH  27  28
ATOM     28  C   UNL A   1      39.078  22.093  26.226  1.00  0.00     0.188 C 
BRANCH  28  29
ATOM     29  C   UNL A   1      40.311  21.425  26.790  1.00  0.00     0.188 C 
BRANCH  29  30
ATOM     30  O   UNL A   1      40.812  22.071  27.962  1.00  0.00    -0.376 OA
BRANCH  30  31
ATOM     31  C   UNL A   1      41.880  23.001  27.713  1.00  0.00     0.202 C 
BRANCH  31  32
ATOM     32  C   UNL A   1      41.388  24.400  27.320  1.00  0.00     0.261 C 
BRANCH  32  33
ATOM     33  O   UNL A   1      42.431  25.178  26.701  1.00  0.00    -0.460 OA
BRANCH  33  34
ATOM     34  C   UNL A   1      42.068  26.308  26.052  1.00  0.00     0.338 C 
ATOM     35  O   UNL A   1      41.194  26.441  25.214  1.00  0.00    -0.246 OA
BRANCH  34  36
ATOM     36  C   UNL A   1      42.780  27.438  26.686  1.00  0.00     0.060 A 
ATOM     37  C   UNL A   1      43.830  27.191  27.586  1.00  0.00     0.016 A 
ATOM     38  C   UNL A   1      42.400  28.745  26.381  1.00  0.00     0.016 A 
ATOM     39  C   UNL A   1      44.453  28.257  28.246  1.00  0.00     0.010 A 
ATOM     40  C   UNL A   1      43.036  29.807  27.019  1.00  0.00     0.010 A 
ATOM     41  C   UNL A   1      44.009  29.564  28.008  1.00  0.00    -0.014 A 
BRANCH  41  42
ATOM     42  C   UNL A   1      44.221  30.642  29.009  1.00  0.00     0.031 A 
ATOM     43  C   UNL A   1      43.054  30.934  29.918  1.00  0.00     0.074 A 
ATOM     44  C   UNL A   1      45.323  31.409  29.054  1.00  0.00     0.049 A 
ATOM     45  N   UNL A   1      42.822  31.974  30.671  1.00  0.00    -0.248 NA
ATOM     46  C   UNL A   1      41.974  29.930  29.923  1.00  0.00     0.031 C 
ATOM     47  C   UNL A   1      46.525  31.231  28.246  1.00  0.00     0.029 A 
ATOM     48  N   UNL A   1      45.574  32.539  29.796  1.00  0.00    -0.354 N 
ATOM     49  C   UNL A   1      41.536  31.790  31.166  1.00  0.00     0.074 A 
ATOM     50  C   UNL A   1      41.035  30.553  30.613  1.00  0.00     0.031 C 
ATOM     51  C   UNL A   1      47.377  32.241  28.509  1.00  0.00     0.029 A 
ATOM     52  C   UNL A   1      46.759  33.158  29.470  1.00  0.00     0.049 A 
ATOM     53  H   UNL A   1      44.965  32.872  30.493  1.00  0.00     0.167 HD
ATOM     54  C   UNL A   1      40.833  32.570  32.017  1.00  0.00     0.034 A 
ATOM     55  C   UNL A   1      47.261  34.342  29.875  1.00  0.00     0.034 A 
ATOM     56  C   UNL A   1      41.355  33.764  32.614  1.00  0.00     0.049 A 
ATOM     57  C   UNL A   1      46.475  35.192  30.847  1.00  0.00     0.074 A 
ATOM     58  C   UNL A   1      40.759  34.589  33.547  1.00  0.00     0.029 A 
ATOM     59  N   UNL A   1      42.601  34.302  32.333  1.00  0.00    -0.354 N 
ATOM     60  N   UNL A   1      45.298  34.967  31.381  1.00  0.00    -0.248 NA
ATOM     61  C   UNL A   1      47.099  36.448  31.295  1.00  0.00     0.031 C 
ATOM     62  C   UNL A   1      41.637  35.644  33.814  1.00  0.00     0.029 A 
ATOM     63  C   UNL A   1      42.795  35.450  33.077  1.00  0.00     0.049 A 
ATOM     64  H   UNL A   1      43.251  33.921  31.699  1.00  0.00     0.167 HD
ATOM     65  C   UNL A   1      45.065  36.022  32.260  1.00  0.00     0.074 A 
ATOM     66  C   UNL A   1      46.224  36.885  32.191  1.00  0.00     0.031 C 
ATOM     67  C   UNL A   1      43.987  36.257  33.050  1.00  0.00     0.034 A 
BRANCH  54  68
ATOM     68  C   UNL A   1      39.433  32.135  32.355  1.00  0.00     0.023 A 
ATOM     69  C   UNL A   1      39.209  31.240  33.422  1.00  0.00     0.012 A 
ATOM     70  C   UNL A   1      38.336  32.613  31.613  1.00  0.00     0.148 A 
ATOM     71  C   UNL A   1      37.923  30.782  33.706  1.00  0.00     0.002 A 
ATOM     72  C   UNL A   1      37.052  32.198  31.940  1.00  0.00     0.091 A 
ATOM     73  F   UNL A   1      38.570  33.441  30.585  1.00  0.00    -0.205 F 
ATOM     74  C   UNL A   1      36.845  31.269  32.973  1.00  0.00     0.022 A 
BRANCH  72  75
ATOM     75  S   UNL A   1      35.592  32.840  31.115  1.00  0.00     0.127 S 
ATOM     76  O   UNL A   1      34.518  32.212  31.885  1.00  0.00    -0.237 OA
ATOM     77  O   UNL A   1      35.731  34.281  31.324  1.00  0.00    -0.237 OA
ATOM     78  O   UNL A   1      35.698  32.415  29.727  1.00  0.00    -0.744 OA
ENDBRANCH  72  75
ENDBRANCH  54  68
BRANCH  55  79
ATOM     79  C   UNL A   1      48.597  34.793  29.389  1.00  0.00     0.023 A 
ATOM     80  C   UNL A   1      49.756  34.384  30.076  1.00  0.00     0.012 A 
ATOM     81  C   UNL A   1      48.727  35.608  28.249  1.00  0.00     0.148 A 
ATOM     82  C   UNL A   1      51.019  34.804  29.656  1.00  0.00     0.002 A 
ATOM     83  C   UNL A   1      49.991  35.975  27.802  1.00  0.00     0.091 A 
ATOM     84  F   UNL A   1      47.612  35.993  27.614  1.00  0.00    -0.205 F 
ATOM     85  C   UNL A   1      51.137  35.592  28.515  1.00  0.00     0.022 A 
BRANCH  83  86
ATOM     86  S   UNL A   1      50.252  36.873  26.268  1.00  0.00     0.127 S 
ATOM     87  O   UNL A   1      49.651  35.972  25.287  1.00  0.00    -0.237 OA
ATOM     88  O   UNL A   1      49.504  38.106  26.518  1.00  0.00    -0.237 OA
ATOM     89  O   UNL A   1      51.692  37.055  26.157  1.00  0.00    -0.744 OA
ENDBRANCH  83  86
ENDBRANCH  55  79
BRANCH  67  90
ATOM     90  C   UNL A   1      44.020  37.446  33.974  1.00  0.00     0.023 A 
ATOM     91  C   UNL A   1      44.590  37.335  35.257  1.00  0.00     0.012 A 
ATOM     92  C   UNL A   1      43.599  38.709  33.511  1.00  0.00     0.148 A 
ATOM     93  C   UNL A   1      44.720  38.460  36.072  1.00  0.00     0.002 A 
ATOM     94  C   UNL A   1      43.780  39.833  34.306  1.00  0.00     0.091 A 
ATOM     95  F   UNL A   1      43.046  38.789  32.291  1.00  0.00    -0.205 F 
ATOM     96  C   UNL A   1      44.330  39.709  35.591  1.00  0.00     0.022 A 
BRANCH  94  97
ATOM     97  S   UNL A   1      43.409  41.493  33.728  1.00  0.00     0.127 S 
ATOM     98  O   UNL A   1      44.386  41.660  32.653  1.00  0.00    -0.237 OA
ATOM     99  O   UNL A   1      42.023  41.360  33.278  1.00  0.00    -0.237 OA
ATOM    100  O   UNL A   1      43.591  42.371  34.876  1.00  0.00    -0.744 OA
ENDBRANCH  94  97
ENDBRANCH  67  90
ENDBRANCH  41  42
ENDBRANCH  34  36
ENDBRANCH  33  34
ENDBRANCH  32  33
ENDBRANCH  31  32
ENDBRANCH  30  31
ENDBRANCH  29  30
ENDBRANCH  28  29
ENDBRANCH  27  28
ENDBRANCH   1  27
TORSDOF 27
ENDMDL
MODEL 3
REMARK VINA RESULT:      -9.9      5.780     11.364
REMARK SMILES O=C(CCS(=O)(=O)N1CCN(C(=O)[C@@H]2CCCO2)CC1)OCCOCCOCCOCCOC(=O)c1ccc(-c2c3nc(c(-c4cccc(S(=O)(=O)[O-])c4F)c4ccc([nH]4)c(-c4cccc(S(=O)(=O)[O-])c4F)c4nc(c(-c5cccc(S(=O)(=O)[O-])c5F)c5ccc2[nH]5)C=C4)C=C3)cc1
REMARK SMILES IDX 26 1 25 2 24 3 23 4 22 5 21 6 2 7 1 8 3 9 4 10 5 11 6 12
REMARK SMILES IDX 7 13 8 14 9 15 20 16 10 17 19 18 11 19 12 20 13 21 14 22
REMARK SMILES IDX 15 23 18 24 16 25 17 26 27 27 28 28 29 29 30 30 31 31 32 32
REMARK SMILES IDX 33 33 34 34 35 35 36 36 37 37 98 38 38 39 97 40 39 41 40 42
REMARK SMILES IDX 41 43 91 44 42 45 96 46 90 47 92 48 43 49 95 50 89 51 88 52
REMARK SMILES IDX 44 54 76 55 56 56 75 57 57 58 60 59 74 60 93 61 58 62 59 63
REMARK SMILES IDX 73 65 94 66 61 67 45 68 46 69 54 70 47 71 49 72 55 73 48 74
REMARK SMILES IDX 50 75 51 76 52 77 53 78 77 79 78 80 86 81 79 82 81 83 87 84
REMARK SMILES IDX 80 85 82 86 83 87 84 88 85 89 62 90 63 91 71 92 64 93 66 94
REMARK SMILES IDX 72 95 65 96 67 97 68 98 69 99 70 100
REMARK H PARENT 92 53 60 64
REMARK Flexibility Score: inf
ROOT
ATOM      1  C   UNL A   1      39.067  28.686  29.549  1.00  0.00     0.188 C 
ENDROOT
BRANCH   1   2
ATOM      2  C   UNL A   1      39.329  27.776  28.353  1.00  0.00     0.188 C 
BRANCH   2   3
ATOM      3  O   UNL A   1      40.278  26.708  28.450  1.00  0.00    -0.376 OA
BRANCH   3   4
ATOM      4  C   UNL A   1      40.300  25.628  27.507  1.00  0.00     0.202 C 
BRANCH   4   5
ATOM      5  C   UNL A   1      39.180  24.410  27.454  1.00  0.00     0.261 C 
BRANCH   5   6
ATOM      6  O   UNL A   1      38.207  23.548  25.957  1.00  0.00    -0.463 OA
BRANCH   6   7
ATOM      7  C   UNL A   1      36.607  23.193  25.443  1.00  0.00     0.306 C 
ATOM      8  O   UNL A   1      35.958  24.009  24.827  1.00  0.00    -0.252 OA
BRANCH   7   9
ATOM      9  C   UNL A   1      36.212  21.349  25.601  1.00  0.00     0.140 C 
BRANCH   9  10
ATOM     10  C   UNL A   1      34.584  20.563  25.145  1.00  0.00     0.166 C 
BRANCH  10  11
ATOM     11  S   UNL A   1      32.803  21.821  24.895  1.00  0.00     0.214 S 
ATOM     12  O   UNL A   1      31.582  21.078  25.095  1.00  0.00    -0.212 OA
ATOM     13  O   UNL A   1      33.046  22.992  25.719  1.00  0.00    -0.212 OA
BRANCH  11  14
ATOM     14  N   UNL A   1      32.913  22.511  23.117  1.00  0.00    -0.198 NA
ATOM     15  C   UNL A   1      31.499  22.636  23.411  1.00  0.00     0.123 C 
ATOM     16  C   UNL A   1      33.333  24.053  22.027  1.00  0.00     0.123 C 
ATOM     17  C   UNL A   1      31.128  24.281  24.651  1.00  0.00     0.136 C 
ATOM     18  C   UNL A   1      32.513  25.855  22.262  1.00  0.00     0.136 C 
ATOM     19  N   UNL A   1      31.398  25.976  23.775  1.00  0.00    -0.338 N 
ATOM     20  C   UNL A   1      30.390  26.931  23.881  1.00  0.00     0.251 C 
ATOM     21  O   UNL A   1      29.405  26.650  24.584  1.00  0.00    -0.272 OA
BRANCH  20  22
ATOM     22  C   UNL A   1      30.467  28.347  23.233  1.00  0.00     0.207 C 
ATOM     23  C   UNL A   1      30.260  29.638  24.006  1.00  0.00     0.044 C 
ATOM     24  O   UNL A   1      29.635  28.406  22.073  1.00  0.00    -0.368 OA
ATOM     25  C   UNL A   1      29.179  30.395  23.270  1.00  0.00     0.032 C 
ATOM     26  C   UNL A   1      28.652  29.412  22.261  1.00  0.00     0.161 C 
ENDBRANCH  20  22
ENDBRANCH  11  14
ENDBRANCH  10  11
ENDBRANCH   9  10
ENDBRANCH   7   9
ENDBRANCH   6   7
ENDBRANCH   5   6
ENDBRANCH   4   5
ENDBRANCH   3   4
ENDBRANCH   2   3
ENDBRANCH   1   2
BRANCH   1  27
ATOM     27  O   UNL A   1      37.848  29.388  29.470  1.00  0.00    -0.377 OA
BRANCH  27  28
ATOM     28  C   UNL A   1      37.287  29.405  28.168  1.00  0.00     0.188 C 
BRANCH  28  29
ATOM     29  C   UNL A   1      35.794  29.570  28.328  1.00  0.00     0.188 C 
BRANCH  29  30
ATOM     30  O   UNL A   1      35.222  30.464  27.372  1.00  0.00    -0.376 OA
BRANCH  30  31
ATOM     31  C   UNL A   1      34.273  31.392  27.925  1.00  0.00     0.202 C 
BRANCH  31  32
ATOM     32  C   UNL A   1      34.929  32.539  28.706  1.00  0.00     0.261 C 
BRANCH  32  33
ATOM     33  O   UNL A   1      34.314  32.728  29.995  1.00  0.00    -0.460 OA
BRANCH  33  34
ATOM     34  C   UNL A   1      34.534  33.903  30.628  1.00  0.00     0.338 C 
ATOM     35  O   UNL A   1      33.960  34.964  30.456  1.00  0.00    -0.246 OA
BRANCH  34  36
ATOM     36  C   UNL A   1      35.470  33.643  31.741  1.00  0.00     0.060 A 
ATOM     37  C   UNL A   1      36.472  34.579  32.051  1.00  0.00     0.016 A 
ATOM     38  C   UNL A   1      35.348  32.465  32.479  1.00  0.00     0.016 A 
ATOM     39  C   UNL A   1      37.407  34.298  33.054  1.00  0.00     0.010 A 
ATOM     40  C   UNL A   1      36.263  32.197  33.493  1.00  0.00     0.010 A 
ATOM     41  C   UNL A   1      37.339  33.074  33.733  1.00  0.00    -0.014 A 
BRANCH  41  42
ATOM     42  C   UNL A   1      38.539  32.489  34.386  1.00  0.00     0.031 A 
ATOM     43  C   UNL A   1      38.656  32.716  35.871  1.00  0.00     0.074 A 
ATOM     44  C   UNL A   1      39.536  31.892  33.711  1.00  0.00     0.049 A 
ATOM     45  N   UNL A   1      39.692  32.596  36.655  1.00  0.00    -0.248 NA
ATOM     46  C   UNL A   1      37.441  33.208  36.546  1.00  0.00     0.031 C 
ATOM     47  C   UNL A   1      39.548  31.596  32.282  1.00  0.00     0.029 A 
ATOM     48  N   UNL A   1      40.767  31.472  34.157  1.00  0.00    -0.354 N 
ATOM     49  C   UNL A   1      39.276  33.080  37.891  1.00  0.00     0.074 A 
ATOM     50  C   UNL A   1      37.905  33.512  37.745  1.00  0.00     0.031 C 
ATOM     51  C   UNL A   1      40.747  31.075  31.958  1.00  0.00     0.029 A 
ATOM     52  C   UNL A   1      41.599  31.042  33.150  1.00  0.00     0.049 A 
ATOM     53  H   UNL A   1      41.028  31.479  35.106  1.00  0.00     0.167 HD
ATOM     54  C   UNL A   1      39.965  33.150  39.052  1.00  0.00     0.034 A 
ATOM     55  C   UNL A   1      42.903  30.700  33.185  1.00  0.00     0.034 A 
ATOM     56  C   UNL A   1      41.304  32.663  39.211  1.00  0.00     0.049 A 
ATOM     57  C   UNL A   1      43.653  30.758  34.496  1.00  0.00     0.074 A 
ATOM     58  C   UNL A   1      42.069  32.613  40.360  1.00  0.00     0.029 A 
ATOM     59  N   UNL A   1      42.075  32.140  38.186  1.00  0.00    -0.354 N 
ATOM     60  N   UNL A   1      43.227  31.132  35.679  1.00  0.00    -0.248 NA
ATOM     61  C   UNL A   1      45.059  30.321  34.483  1.00  0.00     0.031 C 
ATOM     62  C   UNL A   1      43.317  32.081  40.023  1.00  0.00     0.029 A 
ATOM     63  C   UNL A   1      43.311  31.763  38.674  1.00  0.00     0.049 A 
ATOM     64  H   UNL A   1      41.786  32.051  37.249  1.00  0.00     0.167 HD
ATOM     65  C   UNL A   1      44.290  30.928  36.555  1.00  0.00     0.074 A 
ATOM     66  C   UNL A   1      45.381  30.394  35.768  1.00  0.00     0.031 C 
ATOM     67  C   UNL A   1      44.360  31.164  37.889  1.00  0.00     0.034 A 
BRANCH  54  68
ATOM     68  C   UNL A   1      39.263  33.761  40.235  1.00  0.00     0.023 A 
ATOM     69  C   UNL A   1      39.369  35.145  40.482  1.00  0.00     0.012 A 
ATOM     70  C   UNL A   1      38.499  32.960  41.104  1.00  0.00     0.148 A 
ATOM     71  C   UNL A   1      38.775  35.712  41.608  1.00  0.00     0.002 A 
ATOM     72  C   UNL A   1      37.861  33.543  42.191  1.00  0.00     0.091 A 
ATOM     73  F   UNL A   1      38.432  31.642  40.870  1.00  0.00    -0.205 F 
ATOM     74  C   UNL A   1      38.013  34.913  42.456  1.00  0.00     0.022 A 
BRANCH  72  75
ATOM     75  S   UNL A   1      36.782  32.615  43.287  1.00  0.00     0.127 S 
ATOM     76  O   UNL A   1      35.900  31.943  42.334  1.00  0.00    -0.237 OA
ATOM     77  O   UNL A   1      37.727  31.733  43.972  1.00  0.00    -0.237 OA
ATOM     78  O   UNL A   1      36.141  33.601  44.146  1.00  0.00    -0.744 OA
ENDBRANCH  72  75
ENDBRANCH  54  68
BRANCH  55  79
ATOM     79  C   UNL A   1      43.589  30.240  31.944  1.00  0.00     0.023 A 
ATOM     80  C   UNL A   1      44.181  31.190  31.089  1.00  0.00     0.012 A 
ATOM     81  C   UNL A   1      43.672  28.874  31.612  1.00  0.00     0.148 A 
ATOM     82  C   UNL A   1      44.814  30.792  29.911  1.00  0.00     0.002 A 
ATOM     83  C   UNL A   1      44.354  28.480  30.467  1.00  0.00     0.091 A 
ATOM     84  F   UNL A   1      43.095  27.987  32.435  1.00  0.00    -0.205 F 
ATOM     85  C   UNL A   1      44.908  29.438  29.605  1.00  0.00     0.022 A 
BRANCH  83  86
ATOM     86  S   UNL A   1      44.646  26.755  30.061  1.00  0.00     0.127 S 
ATOM     87  O   UNL A   1      45.373  26.287  31.239  1.00  0.00    -0.237 OA
ATOM     88  O   UNL A   1      43.279  26.248  29.934  1.00  0.00    -0.237 OA
ATOM     89  O   UNL A   1      45.402  26.765  28.817  1.00  0.00    -0.744 OA
ENDBRANCH  83  86
ENDBRANCH  55  79
BRANCH  67  90
ATOM     90  C   UNL A   1      45.619  30.780  38.622  1.00  0.00     0.023 A 
ATOM     91  C   UNL A   1      46.625  31.736  38.858  1.00  0.00     0.012 A 
ATOM     92  C   UNL A   1      45.739  29.495  39.188  1.00  0.00     0.148 A 
ATOM     93  C   UNL A   1      47.742  31.411  39.629  1.00  0.00     0.002 A 
ATOM     94  C   UNL A   1      46.825  29.195  39.999  1.00  0.00     0.091 A 
ATOM     95  F   UNL A   1      44.775  28.596  38.938  1.00  0.00    -0.205 F 
ATOM     96  C   UNL A   1      47.833  30.147  40.212  1.00  0.00     0.022 A 
BRANCH  94  97
ATOM     97  S   UNL A   1      46.972  27.634  40.876  1.00  0.00     0.127 S 
ATOM     98  O   UNL A   1      47.038  26.677  39.772  1.00  0.00    -0.237 OA
ATOM     99  O   UNL A   1      48.226  27.808  41.609  1.00  0.00    -0.237 OA
ATOM    100  O   UNL A   1      45.787  27.531  41.718  1.00  0.00    -0.744 OA
ENDBRANCH  94  97
ENDBRANCH  67  90
ENDBRANCH  41  42
ENDBRANCH  34  36
ENDBRANCH  33  34
ENDBRANCH  32  33
ENDBRANCH  31  32
ENDBRANCH  30  31
ENDBRANCH  29  30
ENDBRANCH  28  29
ENDBRANCH  27  28
ENDBRANCH   1  27
TORSDOF 27
ENDMDL
