MODEL 1
REMARK VINA RESULT:      -8.2      0.000      0.000
REMARK SMILES CC(C)(C)SCC(=O)NC1(CC(=O)OCCOCCOCCOCCOC(=O)c2ccc(-c3c4nc(c(-c5cccc(S(=O)(=O)[O-])c5F)c5ccc([nH]5)c(-c5cccc(S(=O)(=O)[O-])c5F)c5nc(c(-c6cccc(S(=O)(=O)[O-])c6F)c6ccc3[nH]6)C=C5)C=C4)cc2)CCC1
REMARK SMILES IDX 19 1 18 2 17 3 16 4 15 5 14 6 12 7 13 8 11 9 10 10 92 11
REMARK SMILES IDX 94 12 93 13 9 14 7 15 8 16 6 18 5 19 2 20 1 21 3 22 4 23
REMARK SMILES IDX 20 24 21 25 22 26 23 27 24 28 25 29 26 30 27 31 28 32 29 33
REMARK SMILES IDX 30 34 91 35 31 36 90 37 32 38 33 39 34 40 84 41 35 42 89 43
REMARK SMILES IDX 83 44 85 45 36 46 88 47 82 48 81 49 37 51 69 52 49 53 68 54
REMARK SMILES IDX 50 55 53 56 67 57 86 58 51 59 52 60 66 62 87 63 54 64 38 65
REMARK SMILES IDX 39 66 47 67 40 68 42 69 48 70 41 71 43 72 44 73 45 74 46 75
REMARK SMILES IDX 70 76 71 77 79 78 72 79 74 80 80 81 73 82 75 83 76 84 77 85
REMARK SMILES IDX 78 86 55 87 56 88 64 89 57 90 59 91 65 92 58 93 60 94 61 95
REMARK SMILES IDX 62 96 63 97
REMARK H PARENT 9 17 85 50 53 61
REMARK Flexibility Score: inf
ROOT
ATOM      1  C   UNL A   1      33.590  26.534  25.719  1.00  0.00     0.188 C 
ENDROOT
BRANCH   1   2
ATOM      2  C   UNL A   1      32.745  27.409  26.655  1.00  0.00     0.188 C 
BRANCH   2   3
ATOM      3  O   UNL A   1      33.341  28.493  27.320  1.00  0.00    -0.376 OA
BRANCH   3   4
ATOM      4  C   UNL A   1      34.578  29.030  26.905  1.00  0.00     0.202 C 
BRANCH   4   5
ATOM      5  C   UNL A   1      35.334  30.202  27.555  1.00  0.00     0.261 C 
BRANCH   5   6
ATOM      6  O   UNL A   1      34.841  31.543  27.431  1.00  0.00    -0.463 OA
BRANCH   6   7
ATOM      7  C   UNL A   1      35.258  32.421  28.380  1.00  0.00     0.308 C 
ATOM      8  O   UNL A   1      35.389  33.626  28.189  1.00  0.00    -0.252 OA
BRANCH   7   9
ATOM      9  C   UNL A   1      35.653  31.772  29.686  1.00  0.00     0.151 C 
BRANCH   9  10
ATOM     10  C   UNL A   1      36.971  32.118  30.394  1.00  0.00     0.051 C 
ATOM     11  C   UNL A   1      38.256  31.876  29.531  1.00  0.00     0.029 C 
ATOM     12  C   UNL A   1      37.519  30.956  31.310  1.00  0.00     0.029 C 
ATOM     13  C   UNL A   1      38.337  30.454  30.111  1.00  0.00     0.005 C 
BRANCH  10  14
ATOM     14  N   UNL A   1      37.054  33.423  31.112  1.00  0.00    -0.349 N 
ATOM     15  C   UNL A   1      36.349  34.038  32.103  1.00  0.00     0.230 C 
ATOM     16  O   UNL A   1      36.863  35.031  32.633  1.00  0.00    -0.274 OA
ATOM     17  H   UNL A   1      37.801  33.976  30.790  1.00  0.00     0.164 HD
BRANCH  15  18
ATOM     18  C   UNL A   1      35.004  33.555  32.558  1.00  0.00     0.169 C 
BRANCH  18  19
ATOM     19  S   UNL A   1      34.112  34.842  33.478  1.00  0.00    -0.146 SA
BRANCH  19  20
ATOM     20  C   UNL A   1      33.394  35.920  32.151  1.00  0.00     0.008 C 
ATOM     21  C   UNL A   1      31.890  35.924  32.463  1.00  0.00     0.022 C 
ATOM     22  C   UNL A   1      33.564  35.405  30.714  1.00  0.00     0.022 C 
ATOM     23  C   UNL A   1      33.962  37.339  32.266  1.00  0.00     0.022 C 
ENDBRANCH  19  20
ENDBRANCH  18  19
ENDBRANCH  15  18
ENDBRANCH  10  14
ENDBRANCH   9  10
ENDBRANCH   7   9
ENDBRANCH   6   7
ENDBRANCH   5   6
ENDBRANCH   4   5
ENDBRANCH   3   4
ENDBRANCH   2   3
ENDBRANCH   1   2
BRANCH   1  24
ATOM     24  O   UNL A   1      34.102  25.258  26.013  1.00  0.00    -0.377 OA
BRANCH  24  25
ATOM     25  C   UNL A   1      34.808  24.554  25.028  1.00  0.00     0.188 C 
BRANCH  25  26
ATOM     26  C   UNL A   1      35.718  23.395  25.444  1.00  0.00     0.188 C 
BRANCH  26  27
ATOM     27  O   UNL A   1      35.524  22.197  24.712  1.00  0.00    -0.376 OA
BRANCH  27  28
ATOM     28  C   UNL A   1      36.148  21.018  25.198  1.00  0.00     0.202 C 
BRANCH  28  29
ATOM     29  C   UNL A   1      37.634  20.794  24.866  1.00  0.00     0.261 C 
BRANCH  29  30
ATOM     30  O   UNL A   1      38.570  21.080  25.912  1.00  0.00    -0.460 OA
BRANCH  30  31
ATOM     31  C   UNL A   1      39.701  20.346  25.950  1.00  0.00     0.338 C 
ATOM     32  O   UNL A   1      39.831  19.172  25.645  1.00  0.00    -0.246 OA
BRANCH  31  33
ATOM     33  C   UNL A   1      40.809  21.276  26.237  1.00  0.00     0.060 A 
ATOM     34  C   UNL A   1      42.115  20.770  26.297  1.00  0.00     0.016 A 
ATOM     35  C   UNL A   1      40.568  22.643  26.390  1.00  0.00     0.016 A 
ATOM     36  C   UNL A   1      43.188  21.637  26.489  1.00  0.00     0.010 A 
ATOM     37  C   UNL A   1      41.639  23.505  26.632  1.00  0.00     0.010 A 
ATOM     38  C   UNL A   1      42.950  22.999  26.701  1.00  0.00    -0.014 A 
BRANCH  38  39
ATOM     39  C   UNL A   1      44.045  23.841  27.230  1.00  0.00     0.031 A 
ATOM     40  C   UNL A   1      44.172  23.958  28.721  1.00  0.00     0.074 A 
ATOM     41  C   UNL A   1      44.912  24.465  26.415  1.00  0.00     0.049 A 
ATOM     42  N   UNL A   1      45.030  24.641  29.430  1.00  0.00    -0.248 NA
ATOM     43  C   UNL A   1      43.194  23.200  29.522  1.00  0.00     0.031 C 
ATOM     44  C   UNL A   1      44.896  24.406  24.955  1.00  0.00     0.029 A 
ATOM     45  N   UNL A   1      45.964  25.295  26.711  1.00  0.00    -0.354 N 
ATOM     46  C   UNL A   1      44.680  24.417  30.755  1.00  0.00     0.074 A 
ATOM     47  C   UNL A   1      43.526  23.547  30.754  1.00  0.00     0.031 C 
ATOM     48  C   UNL A   1      45.875  25.197  24.479  1.00  0.00     0.029 A 
ATOM     49  C   UNL A   1      46.565  25.835  25.599  1.00  0.00     0.049 A 
ATOM     50  H   UNL A   1      46.260  25.485  27.630  1.00  0.00     0.167 HD
ATOM     51  C   UNL A   1      45.274  24.887  31.876  1.00  0.00     0.034 A 
ATOM     52  C   UNL A   1      47.539  26.763  25.504  1.00  0.00     0.034 A 
ATOM     53  C   UNL A   1      46.416  25.758  31.870  1.00  0.00     0.049 A 
ATOM     54  C   UNL A   1      48.157  27.309  26.766  1.00  0.00     0.074 A 
ATOM     55  C   UNL A   1      47.114  26.268  32.949  1.00  0.00     0.029 A 
ATOM     56  N   UNL A   1      47.013  26.267  30.727  1.00  0.00    -0.354 N 
ATOM     57  N   UNL A   1      47.888  27.011  28.015  1.00  0.00    -0.248 NA
ATOM     58  C   UNL A   1      49.235  28.296  26.607  1.00  0.00     0.031 C 
ATOM     59  C   UNL A   1      48.108  27.121  32.457  1.00  0.00     0.029 A 
ATOM     60  C   UNL A   1      48.061  27.101  31.072  1.00  0.00     0.049 A 
ATOM     61  H   UNL A   1      46.733  26.064  29.805  1.00  0.00     0.167 HD
ATOM     62  C   UNL A   1      48.785  27.742  28.787  1.00  0.00     0.074 A 
ATOM     63  C   UNL A   1      49.617  28.485  27.863  1.00  0.00     0.031 C 
ATOM     64  C   UNL A   1      48.907  27.799  30.137  1.00  0.00     0.034 A 
BRANCH  51  65
ATOM     65  C   UNL A   1      44.684  24.470  33.198  1.00  0.00     0.023 A 
ATOM     66  C   UNL A   1      45.064  23.245  33.784  1.00  0.00     0.012 A 
ATOM     67  C   UNL A   1      43.765  25.301  33.866  1.00  0.00     0.148 A 
ATOM     68  C   UNL A   1      44.506  22.834  34.994  1.00  0.00     0.002 A 
ATOM     69  C   UNL A   1      43.251  24.908  35.095  1.00  0.00     0.091 A 
ATOM     70  F   UNL A   1      43.394  26.447  33.278  1.00  0.00    -0.205 F 
ATOM     71  C   UNL A   1      43.608  23.670  35.654  1.00  0.00     0.022 A 
BRANCH  69  72
ATOM     72  S   UNL A   1      42.152  25.948  36.060  1.00  0.00     0.127 S 
ATOM     73  O   UNL A   1      42.964  27.151  36.238  1.00  0.00    -0.237 OA
ATOM     74  O   UNL A   1      41.012  26.110  35.157  1.00  0.00    -0.237 OA
ATOM     75  O   UNL A   1      41.860  25.206  37.278  1.00  0.00    -0.744 OA
ENDBRANCH  69  72
ENDBRANCH  51  65
BRANCH  52  76
ATOM     76  C   UNL A   1      48.001  27.222  24.162  1.00  0.00     0.023 A 
ATOM     77  C   UNL A   1      47.163  28.032  23.372  1.00  0.00     0.012 A 
ATOM     78  C   UNL A   1      49.275  26.873  23.676  1.00  0.00     0.148 A 
ATOM     79  C   UNL A   1      47.575  28.463  22.110  1.00  0.00     0.002 A 
ATOM     80  C   UNL A   1      49.703  27.352  22.443  1.00  0.00     0.091 A 
ATOM     81  F   UNL A   1      50.052  26.089  24.437  1.00  0.00    -0.205 F 
ATOM     82  C   UNL A   1      48.848  28.131  21.650  1.00  0.00     0.022 A 
BRANCH  80  83
ATOM     83  S   UNL A   1      51.368  27.084  21.826  1.00  0.00     0.127 S 
ATOM     84  O   UNL A   1      51.130  26.185  20.700  1.00  0.00    -0.237 OA
ATOM     85  O   UNL A   1      51.771  28.442  21.457  1.00  0.00    -0.237 OA
ATOM     86  O   UNL A   1      52.117  26.514  22.938  1.00  0.00    -0.744 OA
ENDBRANCH  80  83
ENDBRANCH  52  76
BRANCH  64  87
ATOM     87  C   UNL A   1      50.009  28.656  30.708  1.00  0.00     0.023 A 
ATOM     88  C   UNL A   1      51.290  28.112  30.926  1.00  0.00     0.012 A 
ATOM     89  C   UNL A   1      49.790  30.027  30.950  1.00  0.00     0.148 A 
ATOM     90  C   UNL A   1      52.326  28.911  31.410  1.00  0.00     0.002 A 
ATOM     91  C   UNL A   1      50.840  30.828  31.380  1.00  0.00     0.091 A 
ATOM     92  F   UNL A   1      48.560  30.523  30.751  1.00  0.00    -0.205 F 
ATOM     93  C   UNL A   1      52.104  30.270  31.625  1.00  0.00     0.022 A 
BRANCH  91  94
ATOM     94  S   UNL A   1      50.676  32.606  31.585  1.00  0.00     0.127 S 
ATOM     95  O   UNL A   1      52.073  33.034  31.599  1.00  0.00    -0.237 OA
ATOM     96  O   UNL A   1      49.932  32.987  30.385  1.00  0.00    -0.237 OA
ATOM     97  O   UNL A   1      49.952  32.803  32.834  1.00  0.00    -0.744 OA
ENDBRANCH  91  94
ENDBRANCH  64  87
ENDBRANCH  38  39
ENDBRANCH  31  33
ENDBRANCH  30  31
ENDBRANCH  29  30
ENDBRANCH  28  29
ENDBRANCH  27  28
ENDBRANCH  26  27
ENDBRANCH  25  26
ENDBRANCH  24  25
ENDBRANCH   1  24
TORSDOF 28
ENDMDL
MODEL 2
REMARK VINA RESULT:      -7.8      1.847      2.603
REMARK SMILES CC(C)(C)SCC(=O)NC1(CC(=O)OCCOCCOCCOCCOC(=O)c2ccc(-c3c4nc(c(-c5cccc(S(=O)(=O)[O-])c5F)c5ccc([nH]5)c(-c5cccc(S(=O)(=O)[O-])c5F)c5nc(c(-c6cccc(S(=O)(=O)[O-])c6F)c6ccc3[nH]6)C=C5)C=C4)cc2)CCC1
REMARK SMILES IDX 19 1 18 2 17 3 16 4 15 5 14 6 12 7 13 8 11 9 10 10 92 11
REMARK SMILES IDX 94 12 93 13 9 14 7 15 8 16 6 18 5 19 2 20 1 21 3 22 4 23
REMARK SMILES IDX 20 24 21 25 22 26 23 27 24 28 25 29 26 30 27 31 28 32 29 33
REMARK SMILES IDX 30 34 91 35 31 36 90 37 32 38 33 39 34 40 84 41 35 42 89 43
REMARK SMILES IDX 83 44 85 45 36 46 88 47 82 48 81 49 37 51 69 52 49 53 68 54
REMARK SMILES IDX 50 55 53 56 67 57 86 58 51 59 52 60 66 62 87 63 54 64 38 65
REMARK SMILES IDX 39 66 47 67 40 68 42 69 48 70 41 71 43 72 44 73 45 74 46 75
REMARK SMILES IDX 70 76 71 77 79 78 72 79 74 80 80 81 73 82 75 83 76 84 77 85
REMARK SMILES IDX 78 86 55 87 56 88 64 89 57 90 59 91 65 92 58 93 60 94 61 95
REMARK SMILES IDX 62 96 63 97
REMARK H PARENT 9 17 85 50 53 61
REMARK Flexibility Score: inf
ROOT
ATOM      1  C   UNL A   1      33.642  25.957  24.186  1.00  0.00     0.188 C 
ENDROOT
BRANCH   1   2
ATOM      2  C   UNL A   1      33.077  26.910  25.249  1.00  0.00     0.188 C 
BRANCH   2   3
ATOM      3  O   UNL A   1      33.944  27.514  26.173  1.00  0.00    -0.376 OA
BRANCH   3   4
ATOM      4  C   UNL A   1      33.669  28.778  26.735  1.00  0.00     0.202 C 
BRANCH   4   5
ATOM      5  C   UNL A   1      34.691  29.759  27.336  1.00  0.00     0.261 C 
BRANCH   5   6
ATOM      6  O   UNL A   1      34.250  30.907  28.073  1.00  0.00    -0.463 OA
BRANCH   6   7
ATOM      7  C   UNL A   1      35.200  31.838  28.348  1.00  0.00     0.308 C 
ATOM      8  O   UNL A   1      35.678  32.597  27.511  1.00  0.00    -0.252 OA
BRANCH   7   9
ATOM      9  C   UNL A   1      35.707  31.797  29.770  1.00  0.00     0.151 C 
BRANCH   9  10
ATOM     10  C   UNL A   1      35.897  33.077  30.598  1.00  0.00     0.051 C 
ATOM     11  C   UNL A   1      36.001  32.842  32.143  1.00  0.00     0.029 C 
ATOM     12  C   UNL A   1      34.546  33.820  30.929  1.00  0.00     0.029 C 
ATOM     13  C   UNL A   1      34.477  33.025  32.240  1.00  0.00     0.005 C 
BRANCH  10  14
ATOM     14  N   UNL A   1      36.925  34.055  30.141  1.00  0.00    -0.349 N 
ATOM     15  C   UNL A   1      38.283  34.061  30.023  1.00  0.00     0.230 C 
ATOM     16  O   UNL A   1      38.791  34.971  29.357  1.00  0.00    -0.274 OA
ATOM     17  H   UNL A   1      36.524  34.907  29.854  1.00  0.00     0.164 HD
BRANCH  15  18
ATOM     18  C   UNL A   1      39.154  33.020  30.661  1.00  0.00     0.169 C 
BRANCH  18  19
ATOM     19  S   UNL A   1      40.537  33.773  31.565  1.00  0.00    -0.146 SA
BRANCH  19  20
ATOM     20  C   UNL A   1      40.028  33.642  33.345  1.00  0.00     0.008 C 
ATOM     21  C   UNL A   1      39.491  32.208  33.461  1.00  0.00     0.022 C 
ATOM     22  C   UNL A   1      38.904  34.591  33.784  1.00  0.00     0.022 C 
ATOM     23  C   UNL A   1      41.249  33.825  34.252  1.00  0.00     0.022 C 
ENDBRANCH  19  20
ENDBRANCH  18  19
ENDBRANCH  15  18
ENDBRANCH  10  14
ENDBRANCH   9  10
ENDBRANCH   7   9
ENDBRANCH   6   7
ENDBRANCH   5   6
ENDBRANCH   4   5
ENDBRANCH   3   4
ENDBRANCH   2   3
ENDBRANCH   1   2
BRANCH   1  24
ATOM     24  O   UNL A   1      33.970  24.603  24.375  1.00  0.00    -0.377 OA
BRANCH  24  25
ATOM     25  C   UNL A   1      34.858  23.979  23.489  1.00  0.00     0.188 C 
BRANCH  25  26
ATOM     26  C   UNL A   1      35.862  22.957  24.033  1.00  0.00     0.188 C 
BRANCH  26  27
ATOM     27  O   UNL A   1      35.282  21.766  24.536  1.00  0.00    -0.376 OA
BRANCH  27  28
ATOM     28  C   UNL A   1      36.100  20.917  25.328  1.00  0.00     0.202 C 
BRANCH  28  29
ATOM     29  C   UNL A   1      37.540  20.653  24.858  1.00  0.00     0.261 C 
BRANCH  29  30
ATOM     30  O   UNL A   1      38.586  21.185  25.681  1.00  0.00    -0.460 OA
BRANCH  30  31
ATOM     31  C   UNL A   1      39.680  20.418  25.866  1.00  0.00     0.338 C 
ATOM     32  O   UNL A   1      39.785  19.219  25.666  1.00  0.00    -0.246 OA
BRANCH  31  33
ATOM     33  C   UNL A   1      40.799  21.329  26.168  1.00  0.00     0.060 A 
ATOM     34  C   UNL A   1      42.100  20.807  26.214  1.00  0.00     0.016 A 
ATOM     35  C   UNL A   1      40.574  22.696  26.349  1.00  0.00     0.016 A 
ATOM     36  C   UNL A   1      43.183  21.658  26.419  1.00  0.00     0.010 A 
ATOM     37  C   UNL A   1      41.657  23.540  26.604  1.00  0.00     0.010 A 
ATOM     38  C   UNL A   1      42.962  23.018  26.659  1.00  0.00    -0.014 A 
BRANCH  38  39
ATOM     39  C   UNL A   1      44.068  23.836  27.200  1.00  0.00     0.031 A 
ATOM     40  C   UNL A   1      44.187  23.943  28.693  1.00  0.00     0.074 A 
ATOM     41  C   UNL A   1      44.952  24.450  26.396  1.00  0.00     0.049 A 
ATOM     42  N   UNL A   1      45.051  24.605  29.413  1.00  0.00    -0.248 NA
ATOM     43  C   UNL A   1      43.190  23.197  29.483  1.00  0.00     0.031 C 
ATOM     44  C   UNL A   1      44.945  24.401  24.935  1.00  0.00     0.029 A 
ATOM     45  N   UNL A   1      46.017  25.259  26.704  1.00  0.00    -0.354 N 
ATOM     46  C   UNL A   1      44.689  24.379  30.734  1.00  0.00     0.074 A 
ATOM     47  C   UNL A   1      43.520  23.530  30.719  1.00  0.00     0.031 C 
ATOM     48  C   UNL A   1      45.941  25.177  24.471  1.00  0.00     0.029 A 
ATOM     49  C   UNL A   1      46.634  25.796  25.600  1.00  0.00     0.049 A 
ATOM     50  H   UNL A   1      46.309  25.438  27.627  1.00  0.00     0.167 HD
ATOM     51  C   UNL A   1      45.283  24.832  31.862  1.00  0.00     0.034 A 
ATOM     52  C   UNL A   1      47.626  26.706  25.517  1.00  0.00     0.034 A 
ATOM     53  C   UNL A   1      46.440  25.681  31.869  1.00  0.00     0.049 A 
ATOM     54  C   UNL A   1      48.245  27.233  26.787  1.00  0.00     0.074 A 
ATOM     55  C   UNL A   1      47.140  26.173  32.956  1.00  0.00     0.029 A 
ATOM     56  N   UNL A   1      47.055  26.187  30.733  1.00  0.00    -0.354 N 
ATOM     57  N   UNL A   1      47.962  26.932  28.032  1.00  0.00    -0.248 NA
ATOM     58  C   UNL A   1      49.342  28.201  26.641  1.00  0.00     0.031 C 
ATOM     59  C   UNL A   1      48.153  27.010  32.476  1.00  0.00     0.029 A 
ATOM     60  C   UNL A   1      48.116  27.000  31.091  1.00  0.00     0.049 A 
ATOM     61  H   UNL A   1      46.777  25.995  29.809  1.00  0.00     0.167 HD
ATOM     62  C   UNL A   1      48.867  27.642  28.815  1.00  0.00     0.074 A 
ATOM     63  C   UNL A   1      49.718  28.376  27.901  1.00  0.00     0.031 C 
ATOM     64  C   UNL A   1      48.980  27.689  30.166  1.00  0.00     0.034 A 
BRANCH  51  65
ATOM     65  C   UNL A   1      44.677  24.416  33.176  1.00  0.00     0.023 A 
ATOM     66  C   UNL A   1      45.032  23.182  33.758  1.00  0.00     0.012 A 
ATOM     67  C   UNL A   1      43.767  25.259  33.843  1.00  0.00     0.148 A 
ATOM     68  C   UNL A   1      44.458  22.774  34.961  1.00  0.00     0.002 A 
ATOM     69  C   UNL A   1      43.238  24.868  35.066  1.00  0.00     0.091 A 
ATOM     70  F   UNL A   1      43.420  26.415  33.259  1.00  0.00    -0.205 F 
ATOM     71  C   UNL A   1      43.570  23.621  35.620  1.00  0.00     0.022 A 
BRANCH  69  72
ATOM     72  S   UNL A   1      42.149  25.921  36.029  1.00  0.00     0.127 S 
ATOM     73  O   UNL A   1      40.838  25.566  35.487  1.00  0.00    -0.237 OA
ATOM     74  O   UNL A   1      42.394  25.450  37.393  1.00  0.00    -0.237 OA
ATOM     75  O   UNL A   1      42.580  27.288  35.773  1.00  0.00    -0.744 OA
ENDBRANCH  69  72
ENDBRANCH  51  65
BRANCH  52  76
ATOM     76  C   UNL A   1      48.105  27.166  24.182  1.00  0.00     0.023 A 
ATOM     77  C   UNL A   1      47.249  27.908  23.347  1.00  0.00     0.012 A 
ATOM     78  C   UNL A   1      49.414  26.883  23.745  1.00  0.00     0.148 A 
ATOM     79  C   UNL A   1      47.677  28.338  22.090  1.00  0.00     0.002 A 
ATOM     80  C   UNL A   1      49.854  27.362  22.517  1.00  0.00     0.091 A 
ATOM     81  F   UNL A   1      50.208  26.161  24.548  1.00  0.00    -0.205 F 
ATOM     82  C   UNL A   1      48.982  28.074  21.680  1.00  0.00     0.022 A 
BRANCH  80  83
ATOM     83  S   UNL A   1      51.552  27.181  21.961  1.00  0.00     0.127 S 
ATOM     84  O   UNL A   1      51.466  25.995  21.114  1.00  0.00    -0.237 OA
ATOM     85  O   UNL A   1      51.765  28.439  21.242  1.00  0.00    -0.237 OA
ATOM     86  O   UNL A   1      52.352  27.035  23.169  1.00  0.00    -0.744 OA
ENDBRANCH  80  83
ENDBRANCH  52  76
BRANCH  64  87
ATOM     87  C   UNL A   1      50.093  28.522  30.750  1.00  0.00     0.023 A 
ATOM     88  C   UNL A   1      49.866  29.869  31.094  1.00  0.00     0.012 A 
ATOM     89  C   UNL A   1      51.345  27.938  31.032  1.00  0.00     0.148 A 
ATOM     90  C   UNL A   1      50.878  30.631  31.677  1.00  0.00     0.002 A 
ATOM     91  C   UNL A   1      52.330  28.688  31.662  1.00  0.00     0.091 A 
ATOM     92  F   UNL A   1      51.546  26.659  30.683  1.00  0.00    -0.205 F 
ATOM     93  C   UNL A   1      52.104  30.038  31.972  1.00  0.00     0.022 A 
BRANCH  91  94
ATOM     94  S   UNL A   1      53.901  27.981  32.173  1.00  0.00     0.127 S 
ATOM     95  O   UNL A   1      54.548  29.127  32.811  1.00  0.00    -0.237 OA
ATOM     96  O   UNL A   1      53.480  26.927  33.096  1.00  0.00    -0.237 OA
ATOM     97  O   UNL A   1      54.542  27.501  30.957  1.00  0.00    -0.744 OA
ENDBRANCH  91  94
ENDBRANCH  64  87
ENDBRANCH  38  39
ENDBRANCH  31  33
ENDBRANCH  30  31
ENDBRANCH  29  30
ENDBRANCH  28  29
ENDBRANCH  27  28
ENDBRANCH  26  27
ENDBRANCH  25  26
ENDBRANCH  24  25
ENDBRANCH   1  24
TORSDOF 28
ENDMDL
MODEL 3
REMARK VINA RESULT:      -7.8      4.454      9.629
REMARK SMILES CC(C)(C)SCC(=O)NC1(CC(=O)OCCOCCOCCOCCOC(=O)c2ccc(-c3c4nc(c(-c5cccc(S(=O)(=O)[O-])c5F)c5ccc([nH]5)c(-c5cccc(S(=O)(=O)[O-])c5F)c5nc(c(-c6cccc(S(=O)(=O)[O-])c6F)c6ccc3[nH]6)C=C5)C=C4)cc2)CCC1
REMARK SMILES IDX 19 1 18 2 17 3 16 4 15 5 14 6 12 7 13 8 11 9 10 10 92 11
REMARK SMILES IDX 94 12 93 13 9 14 7 15 8 16 6 18 5 19 2 20 1 21 3 22 4 23
REMARK SMILES IDX 20 24 21 25 22 26 23 27 24 28 25 29 26 30 27 31 28 32 29 33
REMARK SMILES IDX 30 34 91 35 31 36 90 37 32 38 33 39 34 40 84 41 35 42 89 43
REMARK SMILES IDX 83 44 85 45 36 46 88 47 82 48 81 49 37 51 69 52 49 53 68 54
REMARK SMILES IDX 50 55 53 56 67 57 86 58 51 59 52 60 66 62 87 63 54 64 38 65
REMARK SMILES IDX 39 66 47 67 40 68 42 69 48 70 41 71 43 72 44 73 45 74 46 75
REMARK SMILES IDX 70 76 71 77 79 78 72 79 74 80 80 81 73 82 75 83 76 84 77 85
REMARK SMILES IDX 78 86 55 87 56 88 64 89 57 90 59 91 65 92 58 93 60 94 61 95
REMARK SMILES IDX 62 96 63 97
REMARK H PARENT 9 17 85 50 53 61
REMARK Flexibility Score: inf
ROOT
ATOM      1  C   UNL A   1      34.484  34.378  28.942  1.00  0.00     0.188 C 
ENDROOT
BRANCH   1   2
ATOM      2  C   UNL A   1      35.168  33.102  28.432  1.00  0.00     0.188 C 
BRANCH   2   3
ATOM      3  O   UNL A   1      34.455  31.892  28.408  1.00  0.00    -0.376 OA
BRANCH   3   4
ATOM      4  C   UNL A   1      33.262  31.747  27.669  1.00  0.00     0.202 C 
BRANCH   4   5
ATOM      5  C   UNL A   1      32.715  30.447  27.054  1.00  0.00     0.261 C 
BRANCH   5   6
ATOM      6  O   UNL A   1      33.400  29.814  25.965  1.00  0.00    -0.463 OA
BRANCH   6   7
ATOM      7  C   UNL A   1      33.316  28.459  25.917  1.00  0.00     0.308 C 
ATOM      8  O   UNL A   1      33.660  27.718  26.833  1.00  0.00    -0.252 OA
BRANCH   7   9
ATOM      9  C   UNL A   1      32.855  27.919  24.584  1.00  0.00     0.151 C 
BRANCH   9  10
ATOM     10  C   UNL A   1      31.372  27.635  24.296  1.00  0.00     0.051 C 
ATOM     11  C   UNL A   1      31.050  27.327  22.795  1.00  0.00     0.029 C 
ATOM     12  C   UNL A   1      30.510  28.939  24.085  1.00  0.00     0.029 C 
ATOM     13  C   UNL A   1      30.787  28.828  22.579  1.00  0.00     0.005 C 
BRANCH  10  14
ATOM     14  N   UNL A   1      30.658  26.685  25.197  1.00  0.00    -0.349 N 
ATOM     15  C   UNL A   1      30.856  25.404  25.619  1.00  0.00     0.230 C 
ATOM     16  O   UNL A   1      30.184  25.013  26.581  1.00  0.00    -0.274 OA
ATOM     17  H   UNL A   1      29.843  27.080  25.581  1.00  0.00     0.164 HD
BRANCH  15  18
ATOM     18  C   UNL A   1      31.841  24.480  24.966  1.00  0.00     0.169 C 
BRANCH  18  19
ATOM     19  S   UNL A   1      31.080  23.551  23.604  1.00  0.00    -0.146 SA
BRANCH  19  20
ATOM     20  C   UNL A   1      32.425  22.404  23.043  1.00  0.00     0.008 C 
ATOM     21  C   UNL A   1      33.276  23.276  22.107  1.00  0.00     0.022 C 
ATOM     22  C   UNL A   1      31.961  21.182  22.237  1.00  0.00     0.022 C 
ATOM     23  C   UNL A   1      33.259  21.948  24.245  1.00  0.00     0.022 C 
ENDBRANCH  19  20
ENDBRANCH  18  19
ENDBRANCH  15  18
ENDBRANCH  10  14
ENDBRANCH   9  10
ENDBRANCH   7   9
ENDBRANCH   6   7
ENDBRANCH   5   6
ENDBRANCH   4   5
ENDBRANCH   3   4
ENDBRANCH   2   3
ENDBRANCH   1   2
BRANCH   1  24
ATOM     24  O   UNL A   1      33.546  34.455  29.987  1.00  0.00    -0.377 OA
BRANCH  24  25
ATOM     25  C   UNL A   1      33.187  35.709  30.500  1.00  0.00     0.188 C 
BRANCH  25  26
ATOM     26  C   UNL A   1      33.265  35.950  32.010  1.00  0.00     0.188 C 
BRANCH  26  27
ATOM     27  O   UNL A   1      34.578  35.944  32.544  1.00  0.00    -0.376 OA
BRANCH  27  28
ATOM     28  C   UNL A   1      34.798  35.224  33.748  1.00  0.00     0.202 C 
BRANCH  28  29
ATOM     29  C   UNL A   1      36.047  34.331  33.842  1.00  0.00     0.261 C 
BRANCH  29  30
ATOM     30  O   UNL A   1      36.749  34.088  32.617  1.00  0.00    -0.460 OA
BRANCH  30  31
ATOM     31  C   UNL A   1      36.604  32.873  32.050  1.00  0.00     0.338 C 
ATOM     32  O   UNL A   1      35.560  32.301  31.785  1.00  0.00    -0.246 OA
BRANCH  31  33
ATOM     33  C   UNL A   1      37.945  32.435  31.619  1.00  0.00     0.060 A 
ATOM     34  C   UNL A   1      39.000  32.493  32.540  1.00  0.00     0.016 A 
ATOM     35  C   UNL A   1      38.147  31.919  30.337  1.00  0.00     0.016 A 
ATOM     36  C   UNL A   1      40.259  32.014  32.186  1.00  0.00     0.010 A 
ATOM     37  C   UNL A   1      39.421  31.484  29.967  1.00  0.00     0.010 A 
ATOM     38  C   UNL A   1      40.484  31.549  30.886  1.00  0.00    -0.014 A 
BRANCH  38  39
ATOM     39  C   UNL A   1      41.877  31.362  30.426  1.00  0.00     0.031 A 
ATOM     40  C   UNL A   1      42.467  29.986  30.541  1.00  0.00     0.074 A 
ATOM     41  C   UNL A   1      42.590  32.373  29.904  1.00  0.00     0.049 A 
ATOM     42  N   UNL A   1      43.662  29.566  30.225  1.00  0.00    -0.248 NA
ATOM     43  C   UNL A   1      41.585  28.941  31.090  1.00  0.00     0.031 C 
ATOM     44  C   UNL A   1      42.113  33.744  29.726  1.00  0.00     0.029 A 
ATOM     45  N   UNL A   1      43.884  32.402  29.449  1.00  0.00    -0.354 N 
ATOM     46  C   UNL A   1      43.684  28.218  30.560  1.00  0.00     0.074 A 
ATOM     47  C   UNL A   1      42.390  27.892  31.115  1.00  0.00     0.031 C 
ATOM     48  C   UNL A   1      43.116  34.490  29.229  1.00  0.00     0.029 A 
ATOM     49  C   UNL A   1      44.308  33.657  29.081  1.00  0.00     0.049 A 
ATOM     50  H   UNL A   1      44.454  31.601  29.392  1.00  0.00     0.167 HD
ATOM     51  C   UNL A   1      44.691  27.328  30.410  1.00  0.00     0.034 A 
ATOM     52  C   UNL A   1      45.529  34.082  28.697  1.00  0.00     0.034 A 
ATOM     53  C   UNL A   1      45.977  27.660  29.864  1.00  0.00     0.049 A 
ATOM     54  C   UNL A   1      46.651  33.081  28.580  1.00  0.00     0.074 A 
ATOM     55  C   UNL A   1      47.058  26.828  29.640  1.00  0.00     0.029 A 
ATOM     56  N   UNL A   1      46.365  28.935  29.479  1.00  0.00    -0.354 N 
ATOM     57  N   UNL A   1      46.632  31.788  28.800  1.00  0.00    -0.248 NA
ATOM     58  C   UNL A   1      47.954  33.592  28.131  1.00  0.00     0.031 C 
ATOM     59  C   UNL A   1      48.114  27.609  29.159  1.00  0.00     0.029 A 
ATOM     60  C   UNL A   1      47.675  28.917  29.035  1.00  0.00     0.049 A 
ATOM     61  H   UNL A   1      45.791  29.734  29.517  1.00  0.00     0.167 HD
ATOM     62  C   UNL A   1      47.904  31.325  28.481  1.00  0.00     0.074 A 
ATOM     63  C   UNL A   1      48.664  32.476  28.037  1.00  0.00     0.031 C 
ATOM     64  C   UNL A   1      48.402  30.065  28.555  1.00  0.00     0.034 A 
BRANCH  51  65
ATOM     65  C   UNL A   1      44.433  25.912  30.853  1.00  0.00     0.023 A 
ATOM     66  C   UNL A   1      43.992  24.950  29.921  1.00  0.00     0.012 A 
ATOM     67  C   UNL A   1      44.644  25.532  32.192  1.00  0.00     0.148 A 
ATOM     68  C   UNL A   1      43.724  23.643  30.324  1.00  0.00     0.002 A 
ATOM     69  C   UNL A   1      44.423  24.214  32.576  1.00  0.00     0.091 A 
ATOM     70  F   UNL A   1      45.035  26.467  33.069  1.00  0.00    -0.205 F 
ATOM     71  C   UNL A   1      43.949  23.273  31.648  1.00  0.00     0.022 A 
BRANCH  69  72
ATOM     72  S   UNL A   1      44.761  23.622  34.236  1.00  0.00     0.127 S 
ATOM     73  O   UNL A   1      46.196  23.871  34.353  1.00  0.00    -0.237 OA
ATOM     74  O   UNL A   1      43.920  24.500  35.051  1.00  0.00    -0.237 OA
ATOM     75  O   UNL A   1      44.367  22.220  34.252  1.00  0.00    -0.744 OA
ENDBRANCH  69  72
ENDBRANCH  51  65
BRANCH  52  76
ATOM     76  C   UNL A   1      45.750  35.523  28.383  1.00  0.00     0.023 A 
ATOM     77  C   UNL A   1      45.586  35.985  27.063  1.00  0.00     0.012 A 
ATOM     78  C   UNL A   1      46.106  36.439  29.392  1.00  0.00     0.148 A 
ATOM     79  C   UNL A   1      45.799  37.328  26.749  1.00  0.00     0.002 A 
ATOM     80  C   UNL A   1      46.260  37.785  29.083  1.00  0.00     0.091 A 
ATOM     81  F   UNL A   1      46.272  35.976  30.638  1.00  0.00    -0.205 F 
ATOM     82  C   UNL A   1      46.126  38.229  27.760  1.00  0.00     0.022 A 
BRANCH  80  83
ATOM     83  S   UNL A   1      46.555  39.036  30.338  1.00  0.00     0.127 S 
ATOM     84  O   UNL A   1      45.444  38.807  31.258  1.00  0.00    -0.237 OA
ATOM     85  O   UNL A   1      47.869  38.643  30.848  1.00  0.00    -0.237 OA
ATOM     86  O   UNL A   1      46.537  40.313  29.638  1.00  0.00    -0.744 OA
ENDBRANCH  80  83
ENDBRANCH  52  76
BRANCH  64  87
ATOM     87  C   UNL A   1      49.823  29.843  28.101  1.00  0.00     0.023 A 
ATOM     88  C   UNL A   1      50.897  30.130  28.966  1.00  0.00     0.012 A 
ATOM     89  C   UNL A   1      50.084  29.269  26.840  1.00  0.00     0.148 A 
ATOM     90  C   UNL A   1      52.212  29.883  28.569  1.00  0.00     0.002 A 
ATOM     91  C   UNL A   1      51.392  28.976  26.474  1.00  0.00     0.091 A 
ATOM     92  F   UNL A   1      49.050  29.017  26.026  1.00  0.00    -0.205 F 
ATOM     93  C   UNL A   1      52.457  29.295  27.329  1.00  0.00     0.022 A 
BRANCH  91  94
ATOM     94  S   UNL A   1      51.796  28.126  24.943  1.00  0.00     0.127 S 
ATOM     95  O   UNL A   1      53.258  28.140  24.973  1.00  0.00    -0.237 OA
ATOM     96  O   UNL A   1      51.194  26.810  25.152  1.00  0.00    -0.237 OA
ATOM     97  O   UNL A   1      51.188  28.908  23.875  1.00  0.00    -0.744 OA
ENDBRANCH  91  94
ENDBRANCH  64  87
ENDBRANCH  38  39
ENDBRANCH  31  33
ENDBRANCH  30  31
ENDBRANCH  29  30
ENDBRANCH  28  29
ENDBRANCH  27  28
ENDBRANCH  26  27
ENDBRANCH  25  26
ENDBRANCH  24  25
ENDBRANCH   1  24
TORSDOF 28
ENDMDL
