MODEL 1
REMARK VINA RESULT:      -8.2      0.000      0.000
REMARK SMILES Cc1ccc(C)c(CC(=O)N(CC(=O)OCCOCCOCCOCCOC(=O)c2ccc(-c3c4nc(c(-c5cccc(S(=O)(=O)[O-])c5F)c5ccc([nH]5)c(-c5cccc(S(=O)(=O)[O-])c5F)c5nc(c(-c6cccc(S(=O)(=O)[O-])c6F)c6ccc3[nH]6)C=C5)C=C4)cc2)CC(F)(F)F)c1
REMARK SMILES IDX 20 1 19 2 18 3 17 4 16 5 15 6 13 7 14 8 12 9 11 10 9 11
REMARK SMILES IDX 10 12 8 13 7 14 1 15 2 16 3 17 98 18 4 19 5 20 6 21 93 22
REMARK SMILES IDX 94 23 95 24 96 25 97 26 21 27 22 28 23 29 24 30 25 31 26 32
REMARK SMILES IDX 27 33 28 34 29 35 30 36 31 37 92 38 32 39 91 40 33 41 34 42
REMARK SMILES IDX 35 43 85 44 36 45 90 46 84 47 86 48 37 49 89 50 83 51 82 52
REMARK SMILES IDX 38 54 70 55 50 56 69 57 51 58 54 59 68 60 87 61 52 62 53 63
REMARK SMILES IDX 67 65 88 66 55 67 39 68 40 69 48 70 41 71 43 72 49 73 42 74
REMARK SMILES IDX 44 75 45 76 46 77 47 78 71 79 72 80 80 81 73 82 75 83 81 84
REMARK SMILES IDX 74 85 76 86 77 87 78 88 79 89 56 90 57 91 65 92 58 93 60 94
REMARK SMILES IDX 66 95 59 96 61 97 62 98 63 99 64 100
REMARK H PARENT 86 53 54 64
REMARK Flexibility Score: inf
ROOT
ATOM      1  C   UNL A   1      46.289  18.762  38.852  1.00  0.00     0.188 C 
ENDROOT
BRANCH   1   2
ATOM      2  C   UNL A   1      46.230  17.432  39.586  1.00  0.00     0.188 C 
BRANCH   2   3
ATOM      3  O   UNL A   1      45.231  16.522  39.197  1.00  0.00    -0.376 OA
BRANCH   3   4
ATOM      4  C   UNL A   1      43.885  16.958  39.232  1.00  0.00     0.202 C 
BRANCH   4   5
ATOM      5  C   UNL A   1      42.798  16.126  39.925  1.00  0.00     0.261 C 
BRANCH   5   6
ATOM      6  O   UNL A   1      42.780  14.724  39.559  1.00  0.00    -0.462 OA
BRANCH   6   7
ATOM      7  C   UNL A   1      41.945  13.943  40.299  1.00  0.00     0.325 C 
ATOM      8  O   UNL A   1      41.380  12.954  39.840  1.00  0.00    -0.250 OA
BRANCH   7   9
ATOM      9  C   UNL A   1      41.797  14.287  41.812  1.00  0.00     0.242 C 
BRANCH   9  10
ATOM     10  N   UNL A   1      42.485  13.722  43.012  1.00  0.00    -0.322 N 
BRANCH  10  11
ATOM     11  C   UNL A   1      42.264  14.180  44.303  1.00  0.00     0.227 C 
ATOM     12  O   UNL A   1      41.111  14.281  44.742  1.00  0.00    -0.275 OA
BRANCH  11  13
ATOM     13  C   UNL A   1      43.415  14.653  45.161  1.00  0.00     0.136 C 
BRANCH  13  14
ATOM     14  C   UNL A   1      43.997  13.665  46.141  1.00  0.00    -0.035 A 
ATOM     15  C   UNL A   1      43.131  12.651  49.711  1.00  0.00     0.044 C 
ATOM     16  C   UNL A   1      43.759  12.623  48.346  1.00  0.00    -0.051 A 
ATOM     17  C   UNL A   1      44.884  11.843  48.095  1.00  0.00     0.004 A 
ATOM     18  C   UNL A   1      43.277  13.455  47.334  1.00  0.00     0.008 A 
ATOM     19  C   UNL A   1      45.604  12.023  46.915  1.00  0.00     0.004 A 
ATOM     20  C   UNL A   1      45.198  12.957  45.943  1.00  0.00    -0.047 A 
ATOM     21  C   UNL A   1      46.143  13.185  44.796  1.00  0.00     0.044 C 
ENDBRANCH  13  14
ENDBRANCH  11  13
ENDBRANCH  10  11
BRANCH  10  22
ATOM     22  C   UNL A   1      43.025  12.330  42.932  1.00  0.00     0.235 C 
BRANCH  22  23
ATOM     23  C   UNL A   1      42.123  11.153  43.405  1.00  0.00     0.406 C 
ATOM     24  F   UNL A   1      40.812  11.380  43.156  1.00  0.00    -0.169 F 
ATOM     25  F   UNL A   1      42.436  10.021  42.712  1.00  0.00    -0.169 F 
ATOM     26  F   UNL A   1      42.252  10.850  44.713  1.00  0.00    -0.169 F 
ENDBRANCH  22  23
ENDBRANCH  10  22
ENDBRANCH   9  10
ENDBRANCH   7   9
ENDBRANCH   6   7
ENDBRANCH   5   6
ENDBRANCH   4   5
ENDBRANCH   3   4
ENDBRANCH   2   3
ENDBRANCH   1   2
BRANCH   1  27
ATOM     27  O   UNL A   1      46.030  18.847  37.465  1.00  0.00    -0.377 OA
BRANCH  27  28
ATOM     28  C   UNL A   1      46.672  19.885  36.744  1.00  0.00     0.188 C 
BRANCH  28  29
ATOM     29  C   UNL A   1      45.741  20.804  35.953  1.00  0.00     0.188 C 
BRANCH  29  30
ATOM     30  O   UNL A   1      45.323  21.896  36.755  1.00  0.00    -0.376 OA
BRANCH  30  31
ATOM     31  C   UNL A   1      45.197  23.135  36.082  1.00  0.00     0.202 C 
BRANCH  31  32
ATOM     32  C   UNL A   1      44.349  23.013  34.818  1.00  0.00     0.261 C 
BRANCH  32  33
ATOM     33  O   UNL A   1      43.548  24.137  34.360  1.00  0.00    -0.460 OA
BRANCH  33  34
ATOM     34  C   UNL A   1      42.525  24.652  35.094  1.00  0.00     0.338 C 
ATOM     35  O   UNL A   1      41.625  23.978  35.550  1.00  0.00    -0.246 OA
BRANCH  34  36
ATOM     36  C   UNL A   1      42.687  26.105  35.367  1.00  0.00     0.060 A 
ATOM     37  C   UNL A   1      41.866  26.667  36.338  1.00  0.00     0.016 A 
ATOM     38  C   UNL A   1      43.485  26.924  34.551  1.00  0.00     0.016 A 
ATOM     39  C   UNL A   1      41.697  28.042  36.333  1.00  0.00     0.010 A 
ATOM     40  C   UNL A   1      43.260  28.298  34.505  1.00  0.00     0.010 A 
ATOM     41  C   UNL A   1      42.284  28.846  35.326  1.00  0.00    -0.014 A 
BRANCH  41  42
ATOM     42  C   UNL A   1      41.920  30.279  35.321  1.00  0.00     0.031 A 
ATOM     43  C   UNL A   1      41.122  30.569  34.112  1.00  0.00     0.074 A 
ATOM     44  C   UNL A   1      42.244  31.226  36.242  1.00  0.00     0.049 A 
ATOM     45  N   UNL A   1      41.423  31.371  33.141  1.00  0.00    -0.248 NA
ATOM     46  C   UNL A   1      39.984  29.663  33.830  1.00  0.00     0.031 C 
ATOM     47  C   UNL A   1      42.967  30.976  37.491  1.00  0.00     0.029 A 
ATOM     48  N   UNL A   1      41.967  32.584  36.328  1.00  0.00    -0.354 N 
ATOM     49  C   UNL A   1      40.303  31.312  32.323  1.00  0.00     0.074 A 
ATOM     50  C   UNL A   1      39.606  30.086  32.627  1.00  0.00     0.031 C 
ATOM     51  C   UNL A   1      42.893  32.066  38.283  1.00  0.00     0.029 A 
ATOM     52  C   UNL A   1      42.128  33.111  37.620  1.00  0.00     0.049 A 
ATOM     53  H   UNL A   1      41.683  33.127  35.557  1.00  0.00     0.167 HD
ATOM     54  C   UNL A   1      39.728  32.482  31.950  1.00  0.00     0.034 A 
ATOM     55  C   UNL A   1      41.627  34.257  38.169  1.00  0.00     0.034 A 
ATOM     56  C   UNL A   1      40.651  33.565  31.852  1.00  0.00     0.049 A 
ATOM     57  C   UNL A   1      41.179  35.160  37.087  1.00  0.00     0.074 A 
ATOM     58  C   UNL A   1      41.723  33.889  31.052  1.00  0.00     0.029 A 
ATOM     59  N   UNL A   1      40.723  34.349  32.967  1.00  0.00    -0.354 N 
ATOM     60  N   UNL A   1      41.960  35.965  36.428  1.00  0.00    -0.248 NA
ATOM     61  C   UNL A   1      39.821  35.035  36.568  1.00  0.00     0.031 C 
ATOM     62  C   UNL A   1      42.436  34.913  31.731  1.00  0.00     0.029 A 
ATOM     63  C   UNL A   1      41.768  35.228  32.913  1.00  0.00     0.049 A 
ATOM     64  H   UNL A   1      40.094  34.287  33.722  1.00  0.00     0.167 HD
ATOM     65  C   UNL A   1      41.355  36.069  35.187  1.00  0.00     0.074 A 
ATOM     66  C   UNL A   1      39.980  35.640  35.391  1.00  0.00     0.031 C 
ATOM     67  C   UNL A   1      42.109  36.065  34.050  1.00  0.00     0.034 A 
BRANCH  54  68
ATOM     68  C   UNL A   1      38.280  32.695  32.297  1.00  0.00     0.023 A 
ATOM     69  C   UNL A   1      37.873  32.711  33.634  1.00  0.00     0.012 A 
ATOM     70  C   UNL A   1      37.270  32.707  31.304  1.00  0.00     0.148 A 
ATOM     71  C   UNL A   1      36.516  32.840  33.957  1.00  0.00     0.002 A 
ATOM     72  C   UNL A   1      35.956  32.986  31.619  1.00  0.00     0.091 A 
ATOM     73  F   UNL A   1      37.567  32.316  30.056  1.00  0.00    -0.205 F 
ATOM     74  C   UNL A   1      35.564  33.034  32.954  1.00  0.00     0.022 A 
BRANCH  72  75
ATOM     75  S   UNL A   1      34.780  33.404  30.328  1.00  0.00     0.127 S 
ATOM     76  O   UNL A   1      33.691  33.995  31.097  1.00  0.00    -0.237 OA
ATOM     77  O   UNL A   1      35.550  34.340  29.510  1.00  0.00    -0.237 OA
ATOM     78  O   UNL A   1      34.492  32.137  29.662  1.00  0.00    -0.744 OA
ENDBRANCH  72  75
ENDBRANCH  54  68
BRANCH  55  79
ATOM     79  C   UNL A   1      41.369  34.657  39.597  1.00  0.00     0.023 A 
ATOM     80  C   UNL A   1      42.286  35.505  40.271  1.00  0.00     0.012 A 
ATOM     81  C   UNL A   1      40.135  34.434  40.239  1.00  0.00     0.148 A 
ATOM     82  C   UNL A   1      41.961  36.134  41.486  1.00  0.00     0.002 A 
ATOM     83  C   UNL A   1      39.828  35.033  41.460  1.00  0.00     0.091 A 
ATOM     84  F   UNL A   1      39.190  33.718  39.625  1.00  0.00    -0.205 F 
ATOM     85  C   UNL A   1      40.727  35.902  42.081  1.00  0.00     0.022 A 
BRANCH  83  86
ATOM     86  S   UNL A   1      38.237  34.729  42.238  1.00  0.00     0.127 S 
ATOM     87  O   UNL A   1      38.297  33.299  42.542  1.00  0.00    -0.237 OA
ATOM     88  O   UNL A   1      38.293  35.608  43.402  1.00  0.00    -0.237 OA
ATOM     89  O   UNL A   1      37.250  35.074  41.219  1.00  0.00    -0.744 OA
ENDBRANCH  83  86
ENDBRANCH  55  79
BRANCH  67  90
ATOM     90  C   UNL A   1      43.402  36.838  34.033  1.00  0.00     0.023 A 
ATOM     91  C   UNL A   1      43.497  38.202  33.706  1.00  0.00     0.012 A 
ATOM     92  C   UNL A   1      44.582  36.157  34.399  1.00  0.00     0.148 A 
ATOM     93  C   UNL A   1      44.728  38.862  33.716  1.00  0.00     0.002 A 
ATOM     94  C   UNL A   1      45.789  36.836  34.493  1.00  0.00     0.091 A 
ATOM     95  F   UNL A   1      44.507  34.843  34.660  1.00  0.00    -0.205 F 
ATOM     96  C   UNL A   1      45.871  38.187  34.132  1.00  0.00     0.022 A 
BRANCH  94  97
ATOM     97  S   UNL A   1      47.273  36.056  35.132  1.00  0.00     0.127 S 
ATOM     98  O   UNL A   1      48.082  37.209  35.518  1.00  0.00    -0.237 OA
ATOM     99  O   UNL A   1      46.745  35.275  36.251  1.00  0.00    -0.237 OA
ATOM    100  O   UNL A   1      47.821  35.258  34.043  1.00  0.00    -0.744 OA
ENDBRANCH  94  97
ENDBRANCH  67  90
ENDBRANCH  41  42
ENDBRANCH  34  36
ENDBRANCH  33  34
ENDBRANCH  32  33
ENDBRANCH  31  32
ENDBRANCH  30  31
ENDBRANCH  29  30
ENDBRANCH  28  29
ENDBRANCH  27  28
ENDBRANCH   1  27
TORSDOF 29
ENDMDL
MODEL 2
REMARK VINA RESULT:      -7.5      9.475     22.681
REMARK SMILES Cc1ccc(C)c(CC(=O)N(CC(=O)OCCOCCOCCOCCOC(=O)c2ccc(-c3c4nc(c(-c5cccc(S(=O)(=O)[O-])c5F)c5ccc([nH]5)c(-c5cccc(S(=O)(=O)[O-])c5F)c5nc(c(-c6cccc(S(=O)(=O)[O-])c6F)c6ccc3[nH]6)C=C5)C=C4)cc2)CC(F)(F)F)c1
REMARK SMILES IDX 20 1 19 2 18 3 17 4 16 5 15 6 13 7 14 8 12 9 11 10 9 11
REMARK SMILES IDX 10 12 8 13 7 14 1 15 2 16 3 17 98 18 4 19 5 20 6 21 93 22
REMARK SMILES IDX 94 23 95 24 96 25 97 26 21 27 22 28 23 29 24 30 25 31 26 32
REMARK SMILES IDX 27 33 28 34 29 35 30 36 31 37 92 38 32 39 91 40 33 41 34 42
REMARK SMILES IDX 35 43 85 44 36 45 90 46 84 47 86 48 37 49 89 50 83 51 82 52
REMARK SMILES IDX 38 54 70 55 50 56 69 57 51 58 54 59 68 60 87 61 52 62 53 63
REMARK SMILES IDX 67 65 88 66 55 67 39 68 40 69 48 70 41 71 43 72 49 73 42 74
REMARK SMILES IDX 44 75 45 76 46 77 47 78 71 79 72 80 80 81 73 82 75 83 81 84
REMARK SMILES IDX 74 85 76 86 77 87 78 88 79 89 56 90 57 91 65 92 58 93 60 94
REMARK SMILES IDX 66 95 59 96 61 97 62 98 63 99 64 100
REMARK H PARENT 86 53 54 64
REMARK Flexibility Score: inf
ROOT
ATOM      1  C   UNL A   1      50.054  44.352  29.514  1.00  0.00     0.188 C 
ENDROOT
BRANCH   1   2
ATOM      2  C   UNL A   1      49.344  45.192  28.465  1.00  0.00     0.188 C 
BRANCH   2   3
ATOM      3  O   UNL A   1      49.349  44.713  27.142  1.00  0.00    -0.376 OA
BRANCH   3   4
ATOM      4  C   UNL A   1      48.114  44.649  26.454  1.00  0.00     0.202 C 
BRANCH   4   5
ATOM      5  C   UNL A   1      48.054  44.700  24.922  1.00  0.00     0.261 C 
BRANCH   5   6
ATOM      6  O   UNL A   1      46.886  44.069  24.339  1.00  0.00    -0.462 OA
BRANCH   6   7
ATOM      7  C   UNL A   1      45.802  44.880  24.192  1.00  0.00     0.325 C 
ATOM      8  O   UNL A   1      45.139  45.282  25.145  1.00  0.00    -0.250 OA
BRANCH   7   9
ATOM      9  C   UNL A   1      45.473  45.381  22.753  1.00  0.00     0.242 C 
BRANCH   9  10
ATOM     10  N   UNL A   1      45.057  44.629  21.530  1.00  0.00    -0.322 N 
BRANCH  10  11
ATOM     11  C   UNL A   1      44.948  45.213  20.276  1.00  0.00     0.227 C 
ATOM     12  O   UNL A   1      44.115  44.795  19.462  1.00  0.00    -0.275 OA
BRANCH  11  13
ATOM     13  C   UNL A   1      45.905  46.302  19.846  1.00  0.00     0.136 C 
BRANCH  13  14
ATOM     14  C   UNL A   1      45.405  47.297  18.829  1.00  0.00    -0.035 A 
ATOM     15  C   UNL A   1      43.219  50.412  19.023  1.00  0.00     0.044 C 
ATOM     16  C   UNL A   1      44.168  49.382  18.478  1.00  0.00    -0.051 A 
ATOM     17  C   UNL A   1      44.415  49.295  17.110  1.00  0.00     0.004 A 
ATOM     18  C   UNL A   1      44.741  48.434  19.328  1.00  0.00     0.008 A 
ATOM     19  C   UNL A   1      45.084  48.184  16.596  1.00  0.00     0.004 A 
ATOM     20  C   UNL A   1      45.552  47.156  17.435  1.00  0.00    -0.047 A 
ATOM     21  C   UNL A   1      46.102  45.933  16.755  1.00  0.00     0.044 C 
ENDBRANCH  13  14
ENDBRANCH  11  13
ENDBRANCH  10  11
BRANCH  10  22
ATOM     22  C   UNL A   1      45.246  43.146  21.509  1.00  0.00     0.235 C 
BRANCH  22  23
ATOM     23  C   UNL A   1      46.559  42.572  20.902  1.00  0.00     0.406 C 
ATOM     24  F   UNL A   1      47.640  42.843  21.671  1.00  0.00    -0.169 F 
ATOM     25  F   UNL A   1      46.485  41.211  20.842  1.00  0.00    -0.169 F 
ATOM     26  F   UNL A   1      46.822  42.998  19.650  1.00  0.00    -0.169 F 
ENDBRANCH  22  23
ENDBRANCH  10  22
ENDBRANCH   9  10
ENDBRANCH   7   9
ENDBRANCH   6   7
ENDBRANCH   5   6
ENDBRANCH   4   5
ENDBRANCH   3   4
ENDBRANCH   2   3
ENDBRANCH   1   2
BRANCH   1  27
ATOM     27  O   UNL A   1      50.038  42.940  29.459  1.00  0.00    -0.377 OA
BRANCH  27  28
ATOM     28  C   UNL A   1      48.842  42.318  29.018  1.00  0.00     0.188 C 
BRANCH  28  29
ATOM     29  C   UNL A   1      48.083  41.531  30.086  1.00  0.00     0.188 C 
BRANCH  29  30
ATOM     30  O   UNL A   1      46.786  42.073  30.271  1.00  0.00    -0.376 OA
BRANCH  30  31
ATOM     31  C   UNL A   1      45.789  41.587  29.392  1.00  0.00     0.202 C 
BRANCH  31  32
ATOM     32  C   UNL A   1      45.462  40.119  29.656  1.00  0.00     0.261 C 
BRANCH  32  33
ATOM     33  O   UNL A   1      44.742  39.336  28.663  1.00  0.00    -0.460 OA
BRANCH  33  34
ATOM     34  C   UNL A   1      43.480  38.874  28.874  1.00  0.00     0.338 C 
ATOM     35  O   UNL A   1      42.493  39.578  28.825  1.00  0.00    -0.246 OA
BRANCH  34  36
ATOM     36  C   UNL A   1      43.432  37.400  29.063  1.00  0.00     0.060 A 
ATOM     37  C   UNL A   1      42.719  36.659  28.126  1.00  0.00     0.016 A 
ATOM     38  C   UNL A   1      43.908  36.791  30.236  1.00  0.00     0.016 A 
ATOM     39  C   UNL A   1      42.313  35.382  28.477  1.00  0.00     0.010 A 
ATOM     40  C   UNL A   1      43.439  35.533  30.612  1.00  0.00     0.010 A 
ATOM     41  C   UNL A   1      42.552  34.870  29.775  1.00  0.00    -0.014 A 
BRANCH  41  42
ATOM     42  C   UNL A   1      41.947  33.560  30.097  1.00  0.00     0.031 A 
ATOM     43  C   UNL A   1      40.749  33.775  30.935  1.00  0.00     0.074 A 
ATOM     44  C   UNL A   1      42.380  32.326  29.722  1.00  0.00     0.049 A 
ATOM     45  N   UNL A   1      40.552  33.368  32.148  1.00  0.00    -0.248 NA
ATOM     46  C   UNL A   1      39.774  34.782  30.458  1.00  0.00     0.031 C 
ATOM     47  C   UNL A   1      43.514  32.063  28.834  1.00  0.00     0.029 A 
ATOM     48  N   UNL A   1      41.900  31.048  29.974  1.00  0.00    -0.354 N 
ATOM     49  C   UNL A   1      39.254  33.782  32.413  1.00  0.00     0.074 A 
ATOM     50  C   UNL A   1      38.941  34.849  31.493  1.00  0.00     0.031 C 
ATOM     51  C   UNL A   1      43.509  30.765  28.466  1.00  0.00     0.029 A 
ATOM     52  C   UNL A   1      42.385  30.077  29.083  1.00  0.00     0.049 A 
ATOM     53  H   UNL A   1      41.277  30.840  30.708  1.00  0.00     0.167 HD
ATOM     54  C   UNL A   1      38.379  32.862  32.890  1.00  0.00     0.034 A 
ATOM     55  C   UNL A   1      41.893  28.840  28.779  1.00  0.00     0.034 A 
ATOM     56  C   UNL A   1      38.996  31.841  33.671  1.00  0.00     0.049 A 
ATOM     57  C   UNL A   1      40.948  28.420  29.836  1.00  0.00     0.074 A 
ATOM     58  C   UNL A   1      39.655  31.773  34.877  1.00  0.00     0.029 A 
ATOM     59  N   UNL A   1      39.291  30.702  32.980  1.00  0.00    -0.354 N 
ATOM     60  N   UNL A   1      41.296  27.869  30.962  1.00  0.00    -0.248 NA
ATOM     61  C   UNL A   1      39.543  28.799  29.729  1.00  0.00     0.031 C 
ATOM     62  C   UNL A   1      40.351  30.534  34.886  1.00  0.00     0.029 A 
ATOM     63  C   UNL A   1      40.074  29.847  33.705  1.00  0.00     0.049 A 
ATOM     64  H   UNL A   1      38.977  30.518  32.066  1.00  0.00     0.167 HD
ATOM     65  C   UNL A   1      40.301  28.258  31.841  1.00  0.00     0.074 A 
ATOM     66  C   UNL A   1      39.180  28.658  31.004  1.00  0.00     0.031 C 
ATOM     67  C   UNL A   1      40.615  28.636  33.114  1.00  0.00     0.034 A 
BRANCH  54  68
ATOM     68  C   UNL A   1      37.120  32.617  32.105  1.00  0.00     0.023 A 
ATOM     69  C   UNL A   1      35.872  32.729  32.723  1.00  0.00     0.012 A 
ATOM     70  C   UNL A   1      37.154  32.101  30.785  1.00  0.00     0.148 A 
ATOM     71  C   UNL A   1      34.702  32.435  32.011  1.00  0.00     0.002 A 
ATOM     72  C   UNL A   1      36.001  31.959  30.040  1.00  0.00     0.091 A 
ATOM     73  F   UNL A   1      38.305  31.622  30.293  1.00  0.00    -0.205 F 
ATOM     74  C   UNL A   1      34.761  32.105  30.656  1.00  0.00     0.022 A 
BRANCH  72  75
ATOM     75  S   UNL A   1      36.091  31.706  28.265  1.00  0.00     0.127 S 
ATOM     76  O   UNL A   1      37.290  30.884  28.141  1.00  0.00    -0.237 OA
ATOM     77  O   UNL A   1      34.829  31.019  27.993  1.00  0.00    -0.237 OA
ATOM     78  O   UNL A   1      36.164  33.051  27.700  1.00  0.00    -0.744 OA
ENDBRANCH  72  75
ENDBRANCH  54  68
BRANCH  55  79
ATOM     79  C   UNL A   1      42.062  27.961  27.569  1.00  0.00     0.023 A 
ATOM     80  C   UNL A   1      41.780  28.474  26.277  1.00  0.00     0.012 A 
ATOM     81  C   UNL A   1      42.721  26.716  27.618  1.00  0.00     0.148 A 
ATOM     82  C   UNL A   1      42.185  27.807  25.107  1.00  0.00     0.002 A 
ATOM     83  C   UNL A   1      43.092  26.040  26.456  1.00  0.00     0.091 A 
ATOM     84  F   UNL A   1      43.095  26.212  28.796  1.00  0.00    -0.205 F 
ATOM     85  C   UNL A   1      42.847  26.588  25.196  1.00  0.00     0.022 A 
BRANCH  83  86
ATOM     86  S   UNL A   1      43.940  24.459  26.566  1.00  0.00     0.127 S 
ATOM     87  O   UNL A   1      45.078  24.766  27.434  1.00  0.00    -0.237 OA
ATOM     88  O   UNL A   1      42.920  23.607  27.169  1.00  0.00    -0.237 OA
ATOM     89  O   UNL A   1      44.316  24.140  25.192  1.00  0.00    -0.744 OA
ENDBRANCH  83  86
ENDBRANCH  55  79
BRANCH  67  90
ATOM     90  C   UNL A   1      41.658  27.852  33.868  1.00  0.00     0.023 A 
ATOM     91  C   UNL A   1      41.378  26.715  34.645  1.00  0.00     0.012 A 
ATOM     92  C   UNL A   1      43.002  28.269  33.758  1.00  0.00     0.148 A 
ATOM     93  C   UNL A   1      42.395  26.030  35.314  1.00  0.00     0.002 A 
ATOM     94  C   UNL A   1      44.020  27.535  34.351  1.00  0.00     0.091 A 
ATOM     95  F   UNL A   1      43.270  29.384  33.062  1.00  0.00    -0.205 F 
ATOM     96  C   UNL A   1      43.718  26.424  35.149  1.00  0.00     0.022 A 
BRANCH  94  97
ATOM     97  S   UNL A   1      45.752  27.920  34.084  1.00  0.00     0.127 S 
ATOM     98  O   UNL A   1      46.419  26.900  34.889  1.00  0.00    -0.237 OA
ATOM     99  O   UNL A   1      45.880  27.742  32.638  1.00  0.00    -0.237 OA
ATOM    100  O   UNL A   1      45.946  29.289  34.545  1.00  0.00    -0.744 OA
ENDBRANCH  94  97
ENDBRANCH  67  90
ENDBRANCH  41  42
ENDBRANCH  34  36
ENDBRANCH  33  34
ENDBRANCH  32  33
ENDBRANCH  31  32
ENDBRANCH  30  31
ENDBRANCH  29  30
ENDBRANCH  28  29
ENDBRANCH  27  28
ENDBRANCH   1  27
TORSDOF 29
ENDMDL
MODEL 3
REMARK VINA RESULT:      -7.4      1.701      2.350
REMARK SMILES Cc1ccc(C)c(CC(=O)N(CC(=O)OCCOCCOCCOCCOC(=O)c2ccc(-c3c4nc(c(-c5cccc(S(=O)(=O)[O-])c5F)c5ccc([nH]5)c(-c5cccc(S(=O)(=O)[O-])c5F)c5nc(c(-c6cccc(S(=O)(=O)[O-])c6F)c6ccc3[nH]6)C=C5)C=C4)cc2)CC(F)(F)F)c1
REMARK SMILES IDX 20 1 19 2 18 3 17 4 16 5 15 6 13 7 14 8 12 9 11 10 9 11
REMARK SMILES IDX 10 12 8 13 7 14 1 15 2 16 3 17 98 18 4 19 5 20 6 21 93 22
REMARK SMILES IDX 94 23 95 24 96 25 97 26 21 27 22 28 23 29 24 30 25 31 26 32
REMARK SMILES IDX 27 33 28 34 29 35 30 36 31 37 92 38 32 39 91 40 33 41 34 42
REMARK SMILES IDX 35 43 85 44 36 45 90 46 84 47 86 48 37 49 89 50 83 51 82 52
REMARK SMILES IDX 38 54 70 55 50 56 69 57 51 58 54 59 68 60 87 61 52 62 53 63
REMARK SMILES IDX 67 65 88 66 55 67 39 68 40 69 48 70 41 71 43 72 49 73 42 74
REMARK SMILES IDX 44 75 45 76 46 77 47 78 71 79 72 80 80 81 73 82 75 83 81 84
REMARK SMILES IDX 74 85 76 86 77 87 78 88 79 89 56 90 57 91 65 92 58 93 60 94
REMARK SMILES IDX 66 95 59 96 61 97 62 98 63 99 64 100
REMARK H PARENT 86 53 54 64
REMARK Flexibility Score: inf
ROOT
ATOM      1  C   UNL A   1      46.326  18.885  38.674  1.00  0.00     0.188 C 
ENDROOT
BRANCH   1   2
ATOM      2  C   UNL A   1      46.220  17.582  39.449  1.00  0.00     0.188 C 
BRANCH   2   3
ATOM      3  O   UNL A   1      45.231  16.667  39.044  1.00  0.00    -0.376 OA
BRANCH   3   4
ATOM      4  C   UNL A   1      43.899  17.134  38.933  1.00  0.00     0.202 C 
BRANCH   4   5
ATOM      5  C   UNL A   1      42.738  16.391  39.604  1.00  0.00     0.261 C 
BRANCH   5   6
ATOM      6  O   UNL A   1      42.678  14.972  39.317  1.00  0.00    -0.462 OA
BRANCH   6   7
ATOM      7  C   UNL A   1      41.983  14.227  40.221  1.00  0.00     0.325 C 
ATOM      8  O   UNL A   1      41.194  13.346  39.891  1.00  0.00    -0.250 OA
BRANCH   7   9
ATOM      9  C   UNL A   1      42.298  14.458  41.731  1.00  0.00     0.242 C 
BRANCH   9  10
ATOM     10  N   UNL A   1      42.975  13.579  42.732  1.00  0.00    -0.322 N 
BRANCH  10  11
ATOM     11  C   UNL A   1      43.500  14.049  43.927  1.00  0.00     0.227 C 
ATOM     12  O   UNL A   1      44.059  13.271  44.712  1.00  0.00    -0.275 OA
BRANCH  11  13
ATOM     13  C   UNL A   1      43.316  15.492  44.337  1.00  0.00     0.136 C 
BRANCH  13  14
ATOM     14  C   UNL A   1      44.562  16.282  44.655  1.00  0.00    -0.035 A 
ATOM     15  C   UNL A   1      47.639  17.296  42.650  1.00  0.00     0.044 C 
ATOM     16  C   UNL A   1      46.628  17.248  43.760  1.00  0.00    -0.051 A 
ATOM     17  C   UNL A   1      46.923  17.771  45.016  1.00  0.00     0.004 A 
ATOM     18  C   UNL A   1      45.411  16.590  43.574  1.00  0.00     0.008 A 
ATOM     19  C   UNL A   1      46.089  17.491  46.098  1.00  0.00     0.004 A 
ATOM     20  C   UNL A   1      44.924  16.716  45.945  1.00  0.00    -0.047 A 
ATOM     21  C   UNL A   1      44.199  16.338  47.206  1.00  0.00     0.044 C 
ENDBRANCH  13  14
ENDBRANCH  11  13
ENDBRANCH  10  11
BRANCH  10  22
ATOM     22  C   UNL A   1      42.653  12.119  42.727  1.00  0.00     0.235 C 
BRANCH  22  23
ATOM     23  C   UNL A   1      41.252  11.664  43.227  1.00  0.00     0.406 C 
ATOM     24  F   UNL A   1      40.640  12.614  43.973  1.00  0.00    -0.169 F 
ATOM     25  F   UNL A   1      40.427  11.448  42.163  1.00  0.00    -0.169 F 
ATOM     26  F   UNL A   1      41.265  10.519  43.941  1.00  0.00    -0.169 F 
ENDBRANCH  22  23
ENDBRANCH  10  22
ENDBRANCH   9  10
ENDBRANCH   7   9
ENDBRANCH   6   7
ENDBRANCH   5   6
ENDBRANCH   4   5
ENDBRANCH   3   4
ENDBRANCH   2   3
ENDBRANCH   1   2
BRANCH   1  27
ATOM     27  O   UNL A   1      46.124  18.926  37.275  1.00  0.00    -0.377 OA
BRANCH  27  28
ATOM     28  C   UNL A   1      46.727  19.992  36.560  1.00  0.00     0.188 C 
BRANCH  28  29
ATOM     29  C   UNL A   1      45.768  20.849  35.734  1.00  0.00     0.188 C 
BRANCH  29  30
ATOM     30  O   UNL A   1      45.275  21.928  36.510  1.00  0.00    -0.376 OA
BRANCH  30  31
ATOM     31  C   UNL A   1      45.051  23.135  35.804  1.00  0.00     0.202 C 
BRANCH  31  32
ATOM     32  C   UNL A   1      44.016  22.963  34.695  1.00  0.00     0.261 C 
BRANCH  32  33
ATOM     33  O   UNL A   1      43.159  24.074  34.311  1.00  0.00    -0.460 OA
BRANCH  33  34
ATOM     34  C   UNL A   1      42.277  24.648  35.172  1.00  0.00     0.338 C 
ATOM     35  O   UNL A   1      41.419  24.025  35.763  1.00  0.00    -0.246 OA
BRANCH  34  36
ATOM     36  C   UNL A   1      42.546  26.093  35.394  1.00  0.00     0.060 A 
ATOM     37  C   UNL A   1      41.813  26.734  36.388  1.00  0.00     0.016 A 
ATOM     38  C   UNL A   1      43.351  26.837  34.516  1.00  0.00     0.016 A 
ATOM     39  C   UNL A   1      41.733  28.115  36.351  1.00  0.00     0.010 A 
ATOM     40  C   UNL A   1      43.213  28.221  34.441  1.00  0.00     0.010 A 
ATOM     41  C   UNL A   1      42.318  28.853  35.293  1.00  0.00    -0.014 A 
BRANCH  41  42
ATOM     42  C   UNL A   1      42.047  30.307  35.264  1.00  0.00     0.031 A 
ATOM     43  C   UNL A   1      41.251  30.624  34.060  1.00  0.00     0.074 A 
ATOM     44  C   UNL A   1      42.445  31.247  36.162  1.00  0.00     0.049 A 
ATOM     45  N   UNL A   1      41.590  31.386  33.070  1.00  0.00    -0.248 NA
ATOM     46  C   UNL A   1      40.054  29.788  33.812  1.00  0.00     0.031 C 
ATOM     47  C   UNL A   1      43.168  30.976  37.405  1.00  0.00     0.029 A 
ATOM     48  N   UNL A   1      42.257  32.622  36.224  1.00  0.00    -0.354 N 
ATOM     49  C   UNL A   1      40.457  31.384  32.268  1.00  0.00     0.074 A 
ATOM     50  C   UNL A   1      39.686  30.212  32.606  1.00  0.00     0.031 C 
ATOM     51  C   UNL A   1      43.177  32.083  38.176  1.00  0.00     0.029 A 
ATOM     52  C   UNL A   1      42.471  33.163  37.503  1.00  0.00     0.049 A 
ATOM     53  H   UNL A   1      41.997  33.167  35.447  1.00  0.00     0.167 HD
ATOM     54  C   UNL A   1      39.952  32.582  31.879  1.00  0.00     0.034 A 
ATOM     55  C   UNL A   1      42.052  34.348  38.035  1.00  0.00     0.034 A 
ATOM     56  C   UNL A   1      40.942  33.600  31.747  1.00  0.00     0.049 A 
ATOM     57  C   UNL A   1      41.648  35.258  36.942  1.00  0.00     0.074 A 
ATOM     58  C   UNL A   1      42.020  33.839  30.927  1.00  0.00     0.029 A 
ATOM     59  N   UNL A   1      41.080  34.399  32.845  1.00  0.00    -0.354 N 
ATOM     60  N   UNL A   1      42.470  35.998  36.256  1.00  0.00    -0.248 NA
ATOM     61  C   UNL A   1      40.277  35.211  36.444  1.00  0.00     0.031 C 
ATOM     62  C   UNL A   1      42.808  34.827  31.575  1.00  0.00     0.029 A 
ATOM     63  C   UNL A   1      42.179  35.208  32.760  1.00  0.00     0.049 A 
ATOM     64  H   UNL A   1      40.460  34.393  33.610  1.00  0.00     0.167 HD
ATOM     65  C   UNL A   1      41.854  36.117  35.022  1.00  0.00     0.074 A 
ATOM     66  C   UNL A   1      40.457  35.782  35.252  1.00  0.00     0.031 C 
ATOM     67  C   UNL A   1      42.589  36.042  33.875  1.00  0.00     0.034 A 
BRANCH  54  68
ATOM     68  C   UNL A   1      38.526  32.894  32.242  1.00  0.00     0.023 A 
ATOM     69  C   UNL A   1      38.173  33.119  33.574  1.00  0.00     0.012 A 
ATOM     70  C   UNL A   1      37.479  32.798  31.292  1.00  0.00     0.148 A 
ATOM     71  C   UNL A   1      36.834  33.342  33.922  1.00  0.00     0.002 A 
ATOM     72  C   UNL A   1      36.187  33.166  31.609  1.00  0.00     0.091 A 
ATOM     73  F   UNL A   1      37.714  32.220  30.106  1.00  0.00    -0.205 F 
ATOM     74  C   UNL A   1      35.850  33.422  32.935  1.00  0.00     0.022 A 
BRANCH  72  75
ATOM     75  S   UNL A   1      34.975  33.434  30.312  1.00  0.00     0.127 S 
ATOM     76  O   UNL A   1      33.901  34.101  31.041  1.00  0.00    -0.237 OA
ATOM     77  O   UNL A   1      35.715  34.280  29.376  1.00  0.00    -0.237 OA
ATOM     78  O   UNL A   1      34.680  32.101  29.796  1.00  0.00    -0.744 OA
ENDBRANCH  72  75
ENDBRANCH  54  68
BRANCH  55  79
ATOM     79  C   UNL A   1      41.842  34.792  39.458  1.00  0.00     0.023 A 
ATOM     80  C   UNL A   1      42.788  35.647  40.081  1.00  0.00     0.012 A 
ATOM     81  C   UNL A   1      40.625  34.603  40.143  1.00  0.00     0.148 A 
ATOM     82  C   UNL A   1      42.507  36.314  41.286  1.00  0.00     0.002 A 
ATOM     83  C   UNL A   1      40.362  35.239  41.355  1.00  0.00     0.091 A 
ATOM     84  F   UNL A   1      39.654  33.881  39.577  1.00  0.00    -0.205 F 
ATOM     85  C   UNL A   1      41.289  36.114  41.924  1.00  0.00     0.022 A 
BRANCH  83  86
ATOM     86  S   UNL A   1      38.791  34.976  42.188  1.00  0.00     0.127 S 
ATOM     87  O   UNL A   1      37.822  35.134  41.103  1.00  0.00    -0.237 OA
ATOM     88  O   UNL A   1      38.936  33.614  42.689  1.00  0.00    -0.237 OA
ATOM     89  O   UNL A   1      38.722  36.029  43.196  1.00  0.00    -0.744 OA
ENDBRANCH  83  86
ENDBRANCH  55  79
BRANCH  67  90
ATOM     90  C   UNL A   1      43.929  36.730  33.825  1.00  0.00     0.023 A 
ATOM     91  C   UNL A   1      45.159  36.066  33.972  1.00  0.00     0.012 A 
ATOM     92  C   UNL A   1      43.947  38.121  33.585  1.00  0.00     0.148 A 
ATOM     93  C   UNL A   1      46.368  36.764  33.909  1.00  0.00     0.002 A 
ATOM     94  C   UNL A   1      45.151  38.796  33.435  1.00  0.00     0.091 A 
ATOM     95  F   UNL A   1      42.776  38.769  33.498  1.00  0.00    -0.205 F 
ATOM     96  C   UNL A   1      46.367  38.123  33.618  1.00  0.00     0.022 A 
BRANCH  94  97
ATOM     97  S   UNL A   1      45.221  40.520  32.946  1.00  0.00     0.127 S 
ATOM     98  O   UNL A   1      46.657  40.789  32.981  1.00  0.00    -0.237 OA
ATOM     99  O   UNL A   1      44.638  40.477  31.606  1.00  0.00    -0.237 OA
ATOM    100  O   UNL A   1      44.434  41.259  33.926  1.00  0.00    -0.744 OA
ENDBRANCH  94  97
ENDBRANCH  67  90
ENDBRANCH  41  42
ENDBRANCH  34  36
ENDBRANCH  33  34
ENDBRANCH  32  33
ENDBRANCH  31  32
ENDBRANCH  30  31
ENDBRANCH  29  30
ENDBRANCH  28  29
ENDBRANCH  27  28
ENDBRANCH   1  27
TORSDOF 29
ENDMDL
