MODEL 1
REMARK VINA RESULT:      -6.8      0.000      0.000
REMARK SMILES C[C@H]1SC[C@H](C(=O)OCCOCCOCCOCCOC(=O)c2ccc(-c3c4nc(c(-c5cccc(S(=O)(=O)[O-])c5F)c5ccc([nH]5)c(-c5cccc(S(=O)(=O)[O-])c5F)c5nc(c(-c6cccc(S(=O)(=O)[O-])c6F)c6ccc3[nH]6)C=C5)C=C4)cc2)N1C(=O)[C@@H]1CSc2ccccc21
REMARK SMILES IDX 15 1 14 2 13 3 12 4 11 5 10 6 9 7 8 8 6 9 7 10 5 11 1 12
REMARK SMILES IDX 2 13 3 14 86 15 4 16 87 17 88 18 89 19 90 20 97 21 91 22
REMARK SMILES IDX 92 23 96 24 93 25 95 26 94 27 16 28 17 29 18 30 19 31 20 32
REMARK SMILES IDX 21 33 22 34 23 35 24 36 85 37 25 38 84 39 26 40 27 41 28 42
REMARK SMILES IDX 78 43 29 44 83 45 77 46 79 47 30 48 82 49 76 50 75 51 31 53
REMARK SMILES IDX 63 54 43 55 62 56 44 57 47 58 61 59 80 60 45 61 46 62 60 64
REMARK SMILES IDX 81 65 48 66 32 67 33 68 41 69 34 70 36 71 42 72 35 73 37 74
REMARK SMILES IDX 38 75 39 76 40 77 64 78 65 79 73 80 66 81 68 82 74 83 67 84
REMARK SMILES IDX 69 85 70 86 71 87 72 88 49 89 50 90 58 91 51 92 53 93 59 94
REMARK SMILES IDX 52 95 54 96 55 97 56 98 57 99
REMARK H PARENT 79 52 47 63
REMARK Flexibility Score: inf
ROOT
ATOM      1  C   UNL A   1      44.228  20.774  25.023  1.00  0.00     0.188 C 
ENDROOT
BRANCH   1   2
ATOM      2  O   UNL A   1      44.537  22.135  24.760  1.00  0.00    -0.377 OA
BRANCH   2   3
ATOM      3  C   UNL A   1      44.274  23.042  25.806  1.00  0.00     0.188 C 
BRANCH   3   4
ATOM      4  C   UNL A   1      45.460  23.912  26.260  1.00  0.00     0.188 C 
BRANCH   4   5
ATOM      5  O   UNL A   1      45.291  25.228  26.771  1.00  0.00    -0.376 OA
BRANCH   5   6
ATOM      6  C   UNL A   1      45.603  26.381  26.005  1.00  0.00     0.202 C 
BRANCH   6   7
ATOM      7  C   UNL A   1      46.637  27.401  26.497  1.00  0.00     0.261 C 
BRANCH   7   8
ATOM      8  O   UNL A   1      46.113  28.627  27.019  1.00  0.00    -0.462 OA
BRANCH   8   9
ATOM      9  C   UNL A   1      46.019  29.639  26.121  1.00  0.00     0.329 C 
ATOM     10  O   UNL A   1      46.556  29.662  25.017  1.00  0.00    -0.250 OA
BRANCH   9  11
ATOM     11  C   UNL A   1      45.219  30.826  26.673  1.00  0.00     0.206 C 
ATOM     12  C   UNL A   1      44.211  33.697  26.087  1.00  0.00     0.043 C 
ATOM     13  C   UNL A   1      45.008  33.148  27.270  1.00  0.00     0.141 C 
ATOM     14  S   UNL A   1      43.790  32.319  28.359  1.00  0.00    -0.135 SA
ATOM     15  N   UNL A   1      45.936  32.094  26.871  1.00  0.00    -0.316 N 
ATOM     16  C   UNL A   1      44.353  30.637  27.917  1.00  0.00     0.109 C 
BRANCH  15  17
ATOM     17  C   UNL A   1      47.313  32.056  27.085  1.00  0.00     0.232 C 
ATOM     18  O   UNL A   1      48.096  32.461  26.222  1.00  0.00    -0.274 OA
BRANCH  17  19
ATOM     19  C   UNL A   1      47.874  31.564  28.406  1.00  0.00     0.120 C 
ATOM     20  C   UNL A   1      48.250  32.773  29.293  1.00  0.00     0.093 C 
ATOM     21  C   UNL A   1      49.154  30.753  28.329  1.00  0.00    -0.021 A 
ATOM     22  S   UNL A   1      49.344  32.109  30.585  1.00  0.00    -0.125 SA
ATOM     23  C   UNL A   1      49.952  30.870  29.474  1.00  0.00     0.011 A 
ATOM     24  C   UNL A   1      49.556  29.885  27.321  1.00  0.00     0.006 A 
ATOM     25  C   UNL A   1      51.087  30.094  29.649  1.00  0.00     0.015 A 
ATOM     26  C   UNL A   1      50.667  29.064  27.503  1.00  0.00     0.000 A 
ATOM     27  C   UNL A   1      51.426  29.161  28.668  1.00  0.00     0.001 A 
ENDBRANCH  17  19
ENDBRANCH  15  17
ENDBRANCH   9  11
ENDBRANCH   8   9
ENDBRANCH   7   8
ENDBRANCH   6   7
ENDBRANCH   5   6
ENDBRANCH   4   5
ENDBRANCH   3   4
ENDBRANCH   2   3
ENDBRANCH   1   2
BRANCH   1  28
ATOM     28  C   UNL A   1      43.281  20.501  26.209  1.00  0.00     0.188 C 
BRANCH  28  29
ATOM     29  O   UNL A   1      42.270  19.538  25.931  1.00  0.00    -0.376 OA
BRANCH  29  30
ATOM     30  C   UNL A   1      40.911  19.867  26.170  1.00  0.00     0.202 C 
BRANCH  30  31
ATOM     31  C   UNL A   1      40.592  21.217  26.834  1.00  0.00     0.261 C 
BRANCH  31  32
ATOM     32  O   UNL A   1      40.270  22.307  25.959  1.00  0.00    -0.460 OA
BRANCH  32  33
ATOM     33  C   UNL A   1      39.114  22.967  26.172  1.00  0.00     0.338 C 
ATOM     34  O   UNL A   1      37.985  22.540  25.991  1.00  0.00    -0.246 OA
BRANCH  33  35
ATOM     35  C   UNL A   1      39.435  24.225  26.878  1.00  0.00     0.060 A 
ATOM     36  C   UNL A   1      40.257  25.165  26.241  1.00  0.00     0.016 A 
ATOM     37  C   UNL A   1      38.922  24.482  28.152  1.00  0.00     0.016 A 
ATOM     38  C   UNL A   1      40.605  26.345  26.894  1.00  0.00     0.010 A 
ATOM     39  C   UNL A   1      39.293  25.652  28.816  1.00  0.00     0.010 A 
ATOM     40  C   UNL A   1      40.170  26.566  28.205  1.00  0.00    -0.014 A 
BRANCH  40  41
ATOM     41  C   UNL A   1      40.811  27.632  29.010  1.00  0.00     0.031 A 
ATOM     42  C   UNL A   1      40.038  28.899  29.254  1.00  0.00     0.074 A 
ATOM     43  C   UNL A   1      42.045  27.485  29.518  1.00  0.00     0.049 A 
ATOM     44  N   UNL A   1      40.398  29.984  29.885  1.00  0.00    -0.248 NA
ATOM     45  C   UNL A   1      38.672  28.944  28.704  1.00  0.00     0.031 C 
ATOM     46  C   UNL A   1      42.890  26.303  29.359  1.00  0.00     0.029 A 
ATOM     47  N   UNL A   1      42.814  28.357  30.247  1.00  0.00    -0.354 N 
ATOM     48  C   UNL A   1      39.320  30.854  29.780  1.00  0.00     0.074 A 
ATOM     49  C   UNL A   1      38.300  30.176  29.011  1.00  0.00     0.031 C 
ATOM     50  C   UNL A   1      44.079  26.541  29.935  1.00  0.00     0.029 A 
ATOM     51  C   UNL A   1      44.088  27.900  30.479  1.00  0.00     0.049 A 
ATOM     52  H   UNL A   1      42.484  29.226  30.573  1.00  0.00     0.167 HD
ATOM     53  C   UNL A   1      39.183  32.102  30.289  1.00  0.00     0.034 A 
ATOM     54  C   UNL A   1      45.149  28.520  31.031  1.00  0.00     0.034 A 
ATOM     55  C   UNL A   1      40.201  32.773  31.049  1.00  0.00     0.049 A 
ATOM     56  C   UNL A   1      44.994  29.922  31.559  1.00  0.00     0.074 A 
ATOM     57  C   UNL A   1      40.148  34.020  31.645  1.00  0.00     0.029 A 
ATOM     58  N   UNL A   1      41.466  32.264  31.299  1.00  0.00    -0.354 N 
ATOM     59  N   UNL A   1      43.935  30.697  31.551  1.00  0.00    -0.248 NA
ATOM     60  C   UNL A   1      46.169  30.525  32.203  1.00  0.00     0.031 C 
ATOM     61  C   UNL A   1      41.397  34.283  32.216  1.00  0.00     0.029 A 
ATOM     62  C   UNL A   1      42.212  33.179  32.021  1.00  0.00     0.049 A 
ATOM     63  H   UNL A   1      41.787  31.381  31.005  1.00  0.00     0.167 HD
ATOM     64  C   UNL A   1      44.304  31.862  32.215  1.00  0.00     0.074 A 
ATOM     65  C   UNL A   1      45.683  31.684  32.627  1.00  0.00     0.031 C 
ATOM     66  C   UNL A   1      43.573  32.979  32.456  1.00  0.00     0.034 A 
BRANCH  53  67
ATOM     67  C   UNL A   1      37.882  32.814  30.023  1.00  0.00     0.023 A 
ATOM     68  C   UNL A   1      37.591  33.295  28.728  1.00  0.00     0.012 A 
ATOM     69  C   UNL A   1      36.942  33.005  31.055  1.00  0.00     0.148 A 
ATOM     70  C   UNL A   1      36.415  34.001  28.478  1.00  0.00     0.002 A 
ATOM     71  C   UNL A   1      35.749  33.664  30.786  1.00  0.00     0.091 A 
ATOM     72  F   UNL A   1      37.243  32.564  32.284  1.00  0.00    -0.205 F 
ATOM     73  C   UNL A   1      35.492  34.178  29.505  1.00  0.00     0.022 A 
BRANCH  71  74
ATOM     74  S   UNL A   1      34.461  33.869  32.020  1.00  0.00     0.127 S 
ATOM     75  O   UNL A   1      35.165  34.616  33.060  1.00  0.00    -0.237 OA
ATOM     76  O   UNL A   1      33.456  34.641  31.290  1.00  0.00    -0.237 OA
ATOM     77  O   UNL A   1      34.042  32.524  32.389  1.00  0.00    -0.744 OA
ENDBRANCH  71  74
ENDBRANCH  53  67
BRANCH  54  78
ATOM     78  C   UNL A   1      46.453  27.807  31.110  1.00  0.00     0.023 A 
ATOM     79  C   UNL A   1      47.433  28.017  30.122  1.00  0.00     0.012 A 
ATOM     80  C   UNL A   1      46.740  26.954  32.195  1.00  0.00     0.148 A 
ATOM     81  C   UNL A   1      48.670  27.376  30.204  1.00  0.00     0.002 A 
ATOM     82  C   UNL A   1      47.991  26.364  32.301  1.00  0.00     0.091 A 
ATOM     83  F   UNL A   1      45.785  26.760  33.117  1.00  0.00    -0.205 F 
ATOM     84  C   UNL A   1      48.955  26.562  31.298  1.00  0.00     0.022 A 
BRANCH  82  85
ATOM     85  S   UNL A   1      48.489  25.401  33.733  1.00  0.00     0.127 S 
ATOM     86  O   UNL A   1      48.706  26.444  34.733  1.00  0.00    -0.237 OA
ATOM     87  O   UNL A   1      47.308  24.568  33.955  1.00  0.00    -0.237 OA
ATOM     88  O   UNL A   1      49.680  24.668  33.326  1.00  0.00    -0.744 OA
ENDBRANCH  82  85
ENDBRANCH  54  78
BRANCH  66  89
ATOM     89  C   UNL A   1      44.224  34.092  33.238  1.00  0.00     0.023 A 
ATOM     90  C   UNL A   1      44.163  34.100  34.645  1.00  0.00     0.012 A 
ATOM     91  C   UNL A   1      44.967  35.090  32.575  1.00  0.00     0.148 A 
ATOM     92  C   UNL A   1      44.800  35.103  35.378  1.00  0.00     0.002 A 
ATOM     93  C   UNL A   1      45.643  36.054  33.312  1.00  0.00     0.091 A 
ATOM     94  F   UNL A   1      45.002  35.075  31.234  1.00  0.00    -0.205 F 
ATOM     95  C   UNL A   1      45.550  36.071  34.712  1.00  0.00     0.022 A 
BRANCH  93  96
ATOM     96  S   UNL A   1      46.713  37.279  32.548  1.00  0.00     0.127 S 
ATOM     97  O   UNL A   1      45.789  37.954  31.638  1.00  0.00    -0.237 OA
ATOM     98  O   UNL A   1      47.134  38.080  33.697  1.00  0.00    -0.237 OA
ATOM     99  O   UNL A   1      47.786  36.533  31.904  1.00  0.00    -0.744 OA
ENDBRANCH  93  96
ENDBRANCH  66  89
ENDBRANCH  40  41
ENDBRANCH  33  35
ENDBRANCH  32  33
ENDBRANCH  31  32
ENDBRANCH  30  31
ENDBRANCH  29  30
ENDBRANCH  28  29
ENDBRANCH   1  28
TORSDOF 25
ENDMDL
MODEL 2
REMARK VINA RESULT:      -6.6      5.328     12.278
REMARK SMILES C[C@H]1SC[C@H](C(=O)OCCOCCOCCOCCOC(=O)c2ccc(-c3c4nc(c(-c5cccc(S(=O)(=O)[O-])c5F)c5ccc([nH]5)c(-c5cccc(S(=O)(=O)[O-])c5F)c5nc(c(-c6cccc(S(=O)(=O)[O-])c6F)c6ccc3[nH]6)C=C5)C=C4)cc2)N1C(=O)[C@@H]1CSc2ccccc21
REMARK SMILES IDX 15 1 14 2 13 3 12 4 11 5 10 6 9 7 8 8 6 9 7 10 5 11 1 12
REMARK SMILES IDX 2 13 3 14 86 15 4 16 87 17 88 18 89 19 90 20 97 21 91 22
REMARK SMILES IDX 92 23 96 24 93 25 95 26 94 27 16 28 17 29 18 30 19 31 20 32
REMARK SMILES IDX 21 33 22 34 23 35 24 36 85 37 25 38 84 39 26 40 27 41 28 42
REMARK SMILES IDX 78 43 29 44 83 45 77 46 79 47 30 48 82 49 76 50 75 51 31 53
REMARK SMILES IDX 63 54 43 55 62 56 44 57 47 58 61 59 80 60 45 61 46 62 60 64
REMARK SMILES IDX 81 65 48 66 32 67 33 68 41 69 34 70 36 71 42 72 35 73 37 74
REMARK SMILES IDX 38 75 39 76 40 77 64 78 65 79 73 80 66 81 68 82 74 83 67 84
REMARK SMILES IDX 69 85 70 86 71 87 72 88 49 89 50 90 58 91 51 92 53 93 59 94
REMARK SMILES IDX 52 95 54 96 55 97 56 98 57 99
REMARK H PARENT 79 52 47 63
REMARK Flexibility Score: inf
ROOT
ATOM      1  C   UNL A   1      34.496  34.264  29.173  1.00  0.00     0.188 C 
ENDROOT
BRANCH   1   2
ATOM      2  O   UNL A   1      33.968  33.069  28.615  1.00  0.00    -0.377 OA
BRANCH   2   3
ATOM      3  C   UNL A   1      33.021  33.232  27.586  1.00  0.00     0.188 C 
BRANCH   3   4
ATOM      4  C   UNL A   1      32.075  32.042  27.344  1.00  0.00     0.188 C 
BRANCH   4   5
ATOM      5  O   UNL A   1      32.180  31.202  26.201  1.00  0.00    -0.376 OA
BRANCH   5   6
ATOM      6  C   UNL A   1      33.049  30.081  26.166  1.00  0.00     0.202 C 
BRANCH   6   7
ATOM      7  C   UNL A   1      33.249  29.276  24.875  1.00  0.00     0.261 C 
BRANCH   7   8
ATOM      8  O   UNL A   1      34.059  28.100  24.986  1.00  0.00    -0.462 OA
BRANCH   8   9
ATOM      9  C   UNL A   1      33.385  26.968  25.308  1.00  0.00     0.329 C 
ATOM     10  O   UNL A   1      33.547  26.313  26.335  1.00  0.00    -0.250 OA
BRANCH   9  11
ATOM     11  C   UNL A   1      32.433  26.525  24.190  1.00  0.00     0.206 C 
ATOM     12  C   UNL A   1      30.240  24.491  23.384  1.00  0.00     0.043 C 
ATOM     13  C   UNL A   1      31.549  24.864  22.689  1.00  0.00     0.141 C 
ATOM     14  S   UNL A   1      31.226  26.440  21.813  1.00  0.00    -0.135 SA
ATOM     15  N   UNL A   1      32.612  25.173  23.642  1.00  0.00    -0.316 N 
ATOM     16  C   UNL A   1      32.211  27.438  22.985  1.00  0.00     0.109 C 
BRANCH  15  17
ATOM     17  C   UNL A   1      33.871  24.580  23.724  1.00  0.00     0.232 C 
ATOM     18  O   UNL A   1      34.790  24.949  22.988  1.00  0.00    -0.274 OA
BRANCH  17  19
ATOM     19  C   UNL A   1      34.151  23.505  24.757  1.00  0.00     0.120 C 
ATOM     20  C   UNL A   1      35.672  23.422  25.022  1.00  0.00     0.093 C 
ATOM     21  C   UNL A   1      33.768  22.089  24.370  1.00  0.00    -0.021 A 
ATOM     22  S   UNL A   1      35.937  21.826  25.850  1.00  0.00    -0.125 SA
ATOM     23  C   UNL A   1      34.567  21.114  24.981  1.00  0.00     0.011 A 
ATOM     24  C   UNL A   1      32.706  21.678  23.575  1.00  0.00     0.006 A 
ATOM     25  C   UNL A   1      34.280  19.763  24.863  1.00  0.00     0.015 A 
ATOM     26  C   UNL A   1      32.376  20.328  23.485  1.00  0.00     0.000 A 
ATOM     27  C   UNL A   1      33.155  19.372  24.135  1.00  0.00     0.001 A 
ENDBRANCH  17  19
ENDBRANCH  15  17
ENDBRANCH   9  11
ENDBRANCH   8   9
ENDBRANCH   7   8
ENDBRANCH   6   7
ENDBRANCH   5   6
ENDBRANCH   4   5
ENDBRANCH   3   4
ENDBRANCH   2   3
ENDBRANCH   1   2
BRANCH   1  28
ATOM     28  C   UNL A   1      33.847  34.758  30.481  1.00  0.00     0.188 C 
BRANCH  28  29
ATOM     29  O   UNL A   1      34.171  33.967  31.620  1.00  0.00    -0.376 OA
BRANCH  29  30
ATOM     30  C   UNL A   1      35.424  33.306  31.674  1.00  0.00     0.202 C 
BRANCH  30  31
ATOM     31  C   UNL A   1      35.442  31.768  31.629  1.00  0.00     0.261 C 
BRANCH  31  32
ATOM     32  O   UNL A   1      36.645  31.124  32.069  1.00  0.00    -0.460 OA
BRANCH  32  33
ATOM     33  C   UNL A   1      36.941  29.916  31.547  1.00  0.00     0.338 C 
ATOM     34  O   UNL A   1      36.261  29.272  30.765  1.00  0.00    -0.246 OA
BRANCH  33  35
ATOM     35  C   UNL A   1      38.339  29.599  31.907  1.00  0.00     0.060 A 
ATOM     36  C   UNL A   1      39.334  30.554  31.655  1.00  0.00     0.016 A 
ATOM     37  C   UNL A   1      38.666  28.376  32.499  1.00  0.00     0.016 A 
ATOM     38  C   UNL A   1      40.665  30.272  31.953  1.00  0.00     0.010 A 
ATOM     39  C   UNL A   1      40.003  28.083  32.771  1.00  0.00     0.010 A 
ATOM     40  C   UNL A   1      41.011  29.014  32.459  1.00  0.00    -0.014 A 
BRANCH  40  41
ATOM     41  C   UNL A   1      42.431  28.595  32.448  1.00  0.00     0.031 A 
ATOM     42  C   UNL A   1      42.968  27.941  31.204  1.00  0.00     0.074 A 
ATOM     43  C   UNL A   1      43.232  28.791  33.508  1.00  0.00     0.049 A 
ATOM     44  N   UNL A   1      44.155  27.451  30.968  1.00  0.00    -0.248 NA
ATOM     45  C   UNL A   1      42.030  27.821  30.075  1.00  0.00     0.031 C 
ATOM     46  C   UNL A   1      42.832  29.420  34.764  1.00  0.00     0.029 A 
ATOM     47  N   UNL A   1      44.546  28.445  33.702  1.00  0.00    -0.354 N 
ATOM     48  C   UNL A   1      44.100  26.935  29.679  1.00  0.00     0.074 A 
ATOM     49  C   UNL A   1      42.757  27.156  29.191  1.00  0.00     0.031 C 
ATOM     50  C   UNL A   1      43.868  29.377  35.618  1.00  0.00     0.029 A 
ATOM     51  C   UNL A   1      44.992  28.693  34.977  1.00  0.00     0.049 A 
ATOM     52  H   UNL A   1      45.113  28.058  32.996  1.00  0.00     0.167 HD
ATOM     53  C   UNL A   1      45.081  26.341  28.960  1.00  0.00     0.034 A 
ATOM     54  C   UNL A   1      46.158  28.371  35.569  1.00  0.00     0.034 A 
ATOM     55  C   UNL A   1      46.413  26.120  29.451  1.00  0.00     0.049 A 
ATOM     56  C   UNL A   1      47.228  27.676  34.768  1.00  0.00     0.074 A 
ATOM     57  C   UNL A   1      47.493  25.565  28.789  1.00  0.00     0.029 A 
ATOM     58  N   UNL A   1      46.843  26.420  30.734  1.00  0.00    -0.354 N 
ATOM     59  N   UNL A   1      47.203  27.290  33.515  1.00  0.00    -0.248 NA
ATOM     60  C   UNL A   1      48.500  27.404  35.451  1.00  0.00     0.031 C 
ATOM     61  C   UNL A   1      48.562  25.488  29.687  1.00  0.00     0.029 A 
ATOM     62  C   UNL A   1      48.164  26.043  30.894  1.00  0.00     0.049 A 
ATOM     63  H   UNL A   1      46.288  26.839  31.431  1.00  0.00     0.167 HD
ATOM     64  C   UNL A   1      48.460  26.759  33.249  1.00  0.00     0.074 A 
ATOM     65  C   UNL A   1      49.231  26.889  34.470  1.00  0.00     0.031 C 
ATOM     66  C   UNL A   1      48.933  26.208  32.103  1.00  0.00     0.034 A 
BRANCH  53  67
ATOM     67  C   UNL A   1      44.731  25.885  27.567  1.00  0.00     0.023 A 
ATOM     68  C   UNL A   1      44.730  26.809  26.500  1.00  0.00     0.012 A 
ATOM     69  C   UNL A   1      44.406  24.539  27.310  1.00  0.00     0.148 A 
ATOM     70  C   UNL A   1      44.359  26.414  25.216  1.00  0.00     0.002 A 
ATOM     71  C   UNL A   1      44.088  24.141  26.018  1.00  0.00     0.091 A 
ATOM     72  F   UNL A   1      44.387  23.678  28.338  1.00  0.00    -0.205 F 
ATOM     73  C   UNL A   1      44.046  25.080  24.974  1.00  0.00     0.022 A 
BRANCH  71  74
ATOM     74  S   UNL A   1      43.750  22.430  25.591  1.00  0.00     0.127 S 
ATOM     75  O   UNL A   1      43.426  22.539  24.170  1.00  0.00    -0.237 OA
ATOM     76  O   UNL A   1      45.032  21.784  25.876  1.00  0.00    -0.237 OA
ATOM     77  O   UNL A   1      42.655  22.011  26.454  1.00  0.00    -0.744 OA
ENDBRANCH  71  74
ENDBRANCH  53  67
BRANCH  54  78
ATOM     78  C   UNL A   1      46.368  28.711  37.004  1.00  0.00     0.023 A 
ATOM     79  C   UNL A   1      46.825  29.991  37.366  1.00  0.00     0.012 A 
ATOM     80  C   UNL A   1      46.068  27.774  38.014  1.00  0.00     0.148 A 
ATOM     81  C   UNL A   1      46.996  30.329  38.710  1.00  0.00     0.002 A 
ATOM     82  C   UNL A   1      46.186  28.134  39.349  1.00  0.00     0.091 A 
ATOM     83  F   UNL A   1      45.646  26.557  37.643  1.00  0.00    -0.205 F 
ATOM     84  C   UNL A   1      46.664  29.407  39.700  1.00  0.00     0.022 A 
BRANCH  82  85
ATOM     85  S   UNL A   1      45.666  27.059  40.690  1.00  0.00     0.127 S 
ATOM     86  O   UNL A   1      46.060  25.744  40.189  1.00  0.00    -0.237 OA
ATOM     87  O   UNL A   1      46.470  27.562  41.803  1.00  0.00    -0.237 OA
ATOM     88  O   UNL A   1      44.232  27.268  40.835  1.00  0.00    -0.744 OA
ENDBRANCH  82  85
ENDBRANCH  54  78
BRANCH  66  89
ATOM     89  C   UNL A   1      50.365  25.737  32.087  1.00  0.00     0.023 A 
ATOM     90  C   UNL A   1      51.404  26.635  31.771  1.00  0.00     0.012 A 
ATOM     91  C   UNL A   1      50.688  24.417  32.463  1.00  0.00     0.148 A 
ATOM     92  C   UNL A   1      52.736  26.218  31.796  1.00  0.00     0.002 A 
ATOM     93  C   UNL A   1      52.018  24.023  32.539  1.00  0.00     0.091 A 
ATOM     94  F   UNL A   1      49.685  23.572  32.746  1.00  0.00    -0.205 F 
ATOM     95  C   UNL A   1      53.042  24.917  32.192  1.00  0.00     0.022 A 
BRANCH  93  96
ATOM     96  S   UNL A   1      52.513  22.402  33.133  1.00  0.00     0.127 S 
ATOM     97  O   UNL A   1      51.944  21.524  32.111  1.00  0.00    -0.237 OA
ATOM     98  O   UNL A   1      53.972  22.498  33.112  1.00  0.00    -0.237 OA
ATOM     99  O   UNL A   1      51.934  22.265  34.463  1.00  0.00    -0.744 OA
ENDBRANCH  93  96
ENDBRANCH  66  89
ENDBRANCH  40  41
ENDBRANCH  33  35
ENDBRANCH  32  33
ENDBRANCH  31  32
ENDBRANCH  30  31
ENDBRANCH  29  30
ENDBRANCH  28  29
ENDBRANCH   1  28
TORSDOF 25
ENDMDL
MODEL 3
REMARK VINA RESULT:      -6.6      5.700     11.484
REMARK SMILES C[C@H]1SC[C@H](C(=O)OCCOCCOCCOCCOC(=O)c2ccc(-c3c4nc(c(-c5cccc(S(=O)(=O)[O-])c5F)c5ccc([nH]5)c(-c5cccc(S(=O)(=O)[O-])c5F)c5nc(c(-c6cccc(S(=O)(=O)[O-])c6F)c6ccc3[nH]6)C=C5)C=C4)cc2)N1C(=O)[C@@H]1CSc2ccccc21
REMARK SMILES IDX 15 1 14 2 13 3 12 4 11 5 10 6 9 7 8 8 6 9 7 10 5 11 1 12
REMARK SMILES IDX 2 13 3 14 86 15 4 16 87 17 88 18 89 19 90 20 97 21 91 22
REMARK SMILES IDX 92 23 96 24 93 25 95 26 94 27 16 28 17 29 18 30 19 31 20 32
REMARK SMILES IDX 21 33 22 34 23 35 24 36 85 37 25 38 84 39 26 40 27 41 28 42
REMARK SMILES IDX 78 43 29 44 83 45 77 46 79 47 30 48 82 49 76 50 75 51 31 53
REMARK SMILES IDX 63 54 43 55 62 56 44 57 47 58 61 59 80 60 45 61 46 62 60 64
REMARK SMILES IDX 81 65 48 66 32 67 33 68 41 69 34 70 36 71 42 72 35 73 37 74
REMARK SMILES IDX 38 75 39 76 40 77 64 78 65 79 73 80 66 81 68 82 74 83 67 84
REMARK SMILES IDX 69 85 70 86 71 87 72 88 49 89 50 90 58 91 51 92 53 93 59 94
REMARK SMILES IDX 52 95 54 96 55 97 56 98 57 99
REMARK H PARENT 79 52 47 63
REMARK Flexibility Score: inf
ROOT
ATOM      1  C   UNL A   1      35.404  33.828  29.882  1.00  0.00     0.188 C 
ENDROOT
BRANCH   1   2
ATOM      2  O   UNL A   1      35.750  33.370  28.583  1.00  0.00    -0.377 OA
BRANCH   2   3
ATOM      3  C   UNL A   1      34.723  32.737  27.855  1.00  0.00     0.188 C 
BRANCH   3   4
ATOM      4  C   UNL A   1      34.384  31.298  28.280  1.00  0.00     0.188 C 
BRANCH   4   5
ATOM      5  O   UNL A   1      35.006  30.161  27.695  1.00  0.00    -0.376 OA
BRANCH   5   6
ATOM      6  C   UNL A   1      34.306  28.945  27.479  1.00  0.00     0.202 C 
BRANCH   6   7
ATOM      7  C   UNL A   1      33.782  28.572  26.087  1.00  0.00     0.261 C 
BRANCH   7   8
ATOM      8  O   UNL A   1      32.364  28.405  25.972  1.00  0.00    -0.462 OA
BRANCH   8   9
ATOM      9  C   UNL A   1      31.873  27.270  26.529  1.00  0.00     0.329 C 
ATOM     10  O   UNL A   1      31.079  27.225  27.466  1.00  0.00    -0.250 OA
BRANCH   9  11
ATOM     11  C   UNL A   1      32.490  26.010  25.910  1.00  0.00     0.206 C 
ATOM     12  C   UNL A   1      34.189  24.907  23.566  1.00  0.00     0.043 C 
ATOM     13  C   UNL A   1      32.811  24.487  24.074  1.00  0.00     0.141 C 
ATOM     14  S   UNL A   1      33.110  23.442  25.547  1.00  0.00    -0.135 SA
ATOM     15  N   UNL A   1      32.035  25.621  24.567  1.00  0.00    -0.316 N 
ATOM     16  C   UNL A   1      32.540  24.719  26.724  1.00  0.00     0.109 C 
BRANCH  15  17
ATOM     17  C   UNL A   1      30.765  26.021  24.150  1.00  0.00     0.232 C 
ATOM     18  O   UNL A   1      29.755  25.614  24.728  1.00  0.00    -0.274 OA
BRANCH  17  19
ATOM     19  C   UNL A   1      30.605  27.007  23.009  1.00  0.00     0.120 C 
ATOM     20  C   UNL A   1      31.800  27.988  22.997  1.00  0.00     0.093 C 
ATOM     21  C   UNL A   1      29.388  27.912  23.072  1.00  0.00    -0.021 A 
ATOM     22  S   UNL A   1      31.274  29.387  21.961  1.00  0.00    -0.125 SA
ATOM     23  C   UNL A   1      29.587  29.149  22.446  1.00  0.00     0.011 A 
ATOM     24  C   UNL A   1      28.133  27.621  23.591  1.00  0.00     0.006 A 
ATOM     25  C   UNL A   1      28.548  30.051  22.276  1.00  0.00     0.015 A 
ATOM     26  C   UNL A   1      27.068  28.495  23.386  1.00  0.00     0.000 A 
ATOM     27  C   UNL A   1      27.271  29.704  22.722  1.00  0.00     0.001 A 
ENDBRANCH  17  19
ENDBRANCH  15  17
ENDBRANCH   9  11
ENDBRANCH   8   9
ENDBRANCH   7   8
ENDBRANCH   6   7
ENDBRANCH   5   6
ENDBRANCH   4   5
ENDBRANCH   3   4
ENDBRANCH   2   3
ENDBRANCH   1   2
BRANCH   1  28
ATOM     28  C   UNL A   1      36.511  33.758  30.953  1.00  0.00     0.188 C 
BRANCH  28  29
ATOM     29  O   UNL A   1      36.024  33.781  32.290  1.00  0.00    -0.376 OA
BRANCH  29  30
ATOM     30  C   UNL A   1      35.631  32.566  32.908  1.00  0.00     0.202 C 
BRANCH  30  31
ATOM     31  C   UNL A   1      36.038  31.241  32.241  1.00  0.00     0.261 C 
BRANCH  31  32
ATOM     32  O   UNL A   1      36.997  30.435  32.939  1.00  0.00    -0.460 OA
BRANCH  32  33
ATOM     33  C   UNL A   1      37.737  29.568  32.218  1.00  0.00     0.338 C 
ATOM     34  O   UNL A   1      37.427  28.431  31.900  1.00  0.00    -0.246 OA
BRANCH  33  35
ATOM     35  C   UNL A   1      38.901  30.305  31.681  1.00  0.00     0.060 A 
ATOM     36  C   UNL A   1      39.060  30.394  30.292  1.00  0.00     0.016 A 
ATOM     37  C   UNL A   1      39.821  30.913  32.540  1.00  0.00     0.016 A 
ATOM     38  C   UNL A   1      40.164  31.053  29.756  1.00  0.00     0.010 A 
ATOM     39  C   UNL A   1      40.941  31.549  32.002  1.00  0.00     0.010 A 
ATOM     40  C   UNL A   1      41.137  31.583  30.610  1.00  0.00    -0.014 A 
BRANCH  40  41
ATOM     41  C   UNL A   1      42.456  31.967  30.055  1.00  0.00     0.031 A 
ATOM     42  C   UNL A   1      42.706  33.421  29.763  1.00  0.00     0.074 A 
ATOM     43  C   UNL A   1      43.412  31.055  29.818  1.00  0.00     0.049 A 
ATOM     44  N   UNL A   1      43.755  33.995  29.237  1.00  0.00    -0.248 NA
ATOM     45  C   UNL A   1      41.618  34.352  30.109  1.00  0.00     0.031 C 
ATOM     46  C   UNL A   1      43.293  29.620  30.067  1.00  0.00     0.029 A 
ATOM     47  N   UNL A   1      44.666  31.205  29.280  1.00  0.00    -0.354 N 
ATOM     48  C   UNL A   1      43.444  35.346  29.158  1.00  0.00     0.074 A 
ATOM     49  C   UNL A   1      42.102  35.504  29.673  1.00  0.00     0.031 C 
ATOM     50  C   UNL A   1      44.413  29.014  29.641  1.00  0.00     0.029 A 
ATOM     51  C   UNL A   1      45.314  30.013  29.066  1.00  0.00     0.049 A 
ATOM     52  H   UNL A   1      45.062  32.081  29.069  1.00  0.00     0.167 HD
ATOM     53  C   UNL A   1      44.209  36.369  28.708  1.00  0.00     0.034 A 
ATOM     54  C   UNL A   1      46.481  29.756  28.444  1.00  0.00     0.034 A 
ATOM     55  C   UNL A   1      45.540  36.207  28.193  1.00  0.00     0.049 A 
ATOM     56  C   UNL A   1      47.305  30.899  27.914  1.00  0.00     0.074 A 
ATOM     57  C   UNL A   1      46.416  37.181  27.751  1.00  0.00     0.029 A 
ATOM     58  N   UNL A   1      46.182  34.989  28.027  1.00  0.00    -0.354 N 
ATOM     59  N   UNL A   1      47.049  32.186  27.942  1.00  0.00    -0.248 NA
ATOM     60  C   UNL A   1      48.596  30.561  27.298  1.00  0.00     0.031 C 
ATOM     61  C   UNL A   1      47.569  36.548  27.275  1.00  0.00     0.029 A 
ATOM     62  C   UNL A   1      47.433  35.182  27.470  1.00  0.00     0.049 A 
ATOM     63  H   UNL A   1      45.802  34.114  28.270  1.00  0.00     0.167 HD
ATOM     64  C   UNL A   1      48.155  32.812  27.379  1.00  0.00     0.074 A 
ATOM     65  C   UNL A   1      49.094  31.762  27.033  1.00  0.00     0.031 C 
ATOM     66  C   UNL A   1      48.374  34.133  27.161  1.00  0.00     0.034 A 
BRANCH  53  67
ATOM     67  C   UNL A   1      43.606  37.749  28.751  1.00  0.00     0.023 A 
ATOM     68  C   UNL A   1      43.789  38.565  29.888  1.00  0.00     0.012 A 
ATOM     69  C   UNL A   1      42.858  38.243  27.664  1.00  0.00     0.148 A 
ATOM     70  C   UNL A   1      43.194  39.823  29.965  1.00  0.00     0.002 A 
ATOM     71  C   UNL A   1      42.312  39.519  27.726  1.00  0.00     0.091 A 
ATOM     72  F   UNL A   1      42.673  37.446  26.601  1.00  0.00    -0.205 F 
ATOM     73  C   UNL A   1      42.463  40.303  28.881  1.00  0.00     0.022 A 
BRANCH  71  74
ATOM     74  S   UNL A   1      41.425  40.256  26.350  1.00  0.00     0.127 S 
ATOM     75  O   UNL A   1      40.709  39.103  25.808  1.00  0.00    -0.237 OA
ATOM     76  O   UNL A   1      40.576  41.239  27.024  1.00  0.00    -0.237 OA
ATOM     77  O   UNL A   1      42.441  40.829  25.479  1.00  0.00    -0.744 OA
ENDBRANCH  71  74
ENDBRANCH  53  67
BRANCH  54  78
ATOM     78  C   UNL A   1      46.934  28.345  28.293  1.00  0.00     0.023 A 
ATOM     79  C   UNL A   1      47.714  27.745  29.299  1.00  0.00     0.012 A 
ATOM     80  C   UNL A   1      46.548  27.583  27.172  1.00  0.00     0.148 A 
ATOM     81  C   UNL A   1      48.118  26.413  29.181  1.00  0.00     0.002 A 
ATOM     82  C   UNL A   1      46.906  26.245  27.088  1.00  0.00     0.091 A 
ATOM     83  F   UNL A   1      45.815  28.182  26.222  1.00  0.00    -0.205 F 
ATOM     84  C   UNL A   1      47.704  25.661  28.085  1.00  0.00     0.022 A 
BRANCH  82  85
ATOM     85  S   UNL A   1      46.316  25.167  25.778  1.00  0.00     0.127 S 
ATOM     86  O   UNL A   1      44.872  25.192  25.997  1.00  0.00    -0.237 OA
ATOM     87  O   UNL A   1      46.771  25.876  24.583  1.00  0.00    -0.237 OA
ATOM     88  O   UNL A   1      46.959  23.880  26.001  1.00  0.00    -0.744 OA
ENDBRANCH  82  85
ENDBRANCH  54  78
BRANCH  66  89
ATOM     89  C   UNL A   1      49.694  34.539  26.556  1.00  0.00     0.023 A 
ATOM     90  C   UNL A   1      49.807  34.735  25.166  1.00  0.00     0.012 A 
ATOM     91  C   UNL A   1      50.807  34.802  27.382  1.00  0.00     0.148 A 
ATOM     92  C   UNL A   1      51.015  35.152  24.603  1.00  0.00     0.002 A 
ATOM     93  C   UNL A   1      51.989  35.269  26.821  1.00  0.00     0.091 A 
ATOM     94  F   UNL A   1      50.685  34.595  28.701  1.00  0.00    -0.205 F 
ATOM     95  C   UNL A   1      52.100  35.431  25.432  1.00  0.00     0.022 A 
BRANCH  93  96
ATOM     96  S   UNL A   1      53.406  35.748  27.817  1.00  0.00     0.127 S 
ATOM     97  O   UNL A   1      54.445  35.905  26.799  1.00  0.00    -0.237 OA
ATOM     98  O   UNL A   1      52.949  37.001  28.420  1.00  0.00    -0.237 OA
ATOM     99  O   UNL A   1      53.621  34.663  28.763  1.00  0.00    -0.744 OA
ENDBRANCH  93  96
ENDBRANCH  66  89
ENDBRANCH  40  41
ENDBRANCH  33  35
ENDBRANCH  32  33
ENDBRANCH  31  32
ENDBRANCH  30  31
ENDBRANCH  29  30
ENDBRANCH  28  29
ENDBRANCH   1  28
TORSDOF 25
ENDMDL
