MODEL 1
REMARK VINA RESULT:      -8.4      0.000      0.000
REMARK SMILES CCC[NH2+][C@@]1(C(=O)OCCOCCOCCOCCOC(=O)c2ccc(-c3c4nc(c(-c5cccc(S(=O)(=O)[O-])c5F)c5ccc([nH]5)c(-c5cccc(S(=O)(=O)[O-])c5F)c5nc(c(-c6cccc(S(=O)(=O)[O-])c6F)c6ccc3[nH]6)C=C5)C=C4)cc2)CC[C@@H](Sc2ccc(Cl)cc2)C1
REMARK SMILES IDX 14 1 13 2 12 3 11 4 10 5 9 6 8 7 6 8 7 9 5 10 86 11 97 12
REMARK SMILES IDX 87 13 88 14 4 15 3 18 2 19 1 20 89 21 90 22 91 23 96 24
REMARK SMILES IDX 92 25 95 26 93 27 94 28 15 29 16 30 17 31 18 32 19 33 20 34
REMARK SMILES IDX 21 35 22 36 23 37 24 38 85 39 25 40 84 41 26 42 27 43 28 44
REMARK SMILES IDX 78 45 29 46 83 47 77 48 79 49 30 50 82 51 76 52 75 53 31 55
REMARK SMILES IDX 63 56 43 57 62 58 44 59 47 60 61 61 80 62 45 63 46 64 60 66
REMARK SMILES IDX 81 67 48 68 32 69 33 70 41 71 34 72 36 73 42 74 35 75 37 76
REMARK SMILES IDX 38 77 39 78 40 79 64 80 65 81 73 82 66 83 68 84 74 85 67 86
REMARK SMILES IDX 69 87 70 88 71 89 72 90 49 91 50 92 58 93 51 94 53 95 59 96
REMARK SMILES IDX 52 97 54 98 55 99 56 100 57 101
REMARK H PARENT 4 16 4 17 79 54 47 65
REMARK Flexibility Score: inf
ROOT
ATOM      1  O   UNL A   1      34.382  34.164  27.698  1.00  0.00    -0.377 OA
ENDROOT
BRANCH   1   2
ATOM      2  C   UNL A   1      33.476  33.086  27.755  1.00  0.00     0.188 C 
BRANCH   2   3
ATOM      3  C   UNL A   1      34.114  31.696  27.851  1.00  0.00     0.188 C 
BRANCH   3   4
ATOM      4  O   UNL A   1      33.746  30.705  26.915  1.00  0.00    -0.376 OA
BRANCH   4   5
ATOM      5  C   UNL A   1      32.368  30.429  26.690  1.00  0.00     0.202 C 
BRANCH   5   6
ATOM      6  C   UNL A   1      31.826  29.655  25.461  1.00  0.00     0.261 C 
BRANCH   6   7
ATOM      7  O   UNL A   1      31.402  28.284  25.634  1.00  0.00    -0.459 OA
BRANCH   7   8
ATOM      8  C   UNL A   1      31.002  27.628  24.514  1.00  0.00     0.368 C 
ATOM      9  O   UNL A   1      30.297  28.136  23.641  1.00  0.00    -0.245 OA
BRANCH   8  10
ATOM     10  C   UNL A   1      31.529  26.156  24.374  1.00  0.00     0.195 C 
ATOM     11  C   UNL A   1      33.065  26.213  24.505  1.00  0.00     0.082 C 
ATOM     12  C   UNL A   1      31.359  25.406  23.037  1.00  0.00     0.096 C 
ATOM     13  C   UNL A   1      33.577  26.430  23.083  1.00  0.00     0.022 C 
ATOM     14  C   UNL A   1      32.594  25.693  22.182  1.00  0.00     0.059 C 
BRANCH  10  15
ATOM     15  N   UNL A   1      31.000  25.367  25.551  1.00  0.00    -0.332 N 
ATOM     16  H   UNL A   1      30.439  25.990  26.131  1.00  0.00     0.347 HD
ATOM     17  H   UNL A   1      30.457  24.592  25.166  1.00  0.00     0.347 HD
BRANCH  15  18
ATOM     18  C   UNL A   1      32.042  24.772  26.392  1.00  0.00     0.261 C 
BRANCH  18  19
ATOM     19  C   UNL A   1      31.809  23.310  26.780  1.00  0.00     0.058 C 
ATOM     20  C   UNL A   1      30.450  22.779  26.353  1.00  0.00     0.010 C 
ENDBRANCH  18  19
ENDBRANCH  15  18
ENDBRANCH  10  15
BRANCH  14  21
ATOM     21  S   UNL A   1      33.218  24.197  21.300  1.00  0.00    -0.122 SA
BRANCH  21  22
ATOM     22  C   UNL A   1      33.170  22.921  22.543  1.00  0.00     0.008 A 
ATOM     23  C   UNL A   1      34.195  22.852  23.491  1.00  0.00     0.016 A 
ATOM     24  C   UNL A   1      32.187  21.925  22.533  1.00  0.00     0.016 A 
ATOM     25  C   UNL A   1      34.207  21.835  24.450  1.00  0.00     0.021 A 
ATOM     26  C   UNL A   1      32.180  20.922  23.506  1.00  0.00     0.021 A 
ATOM     27  C   UNL A   1      33.190  20.883  24.462  1.00  0.00     0.041 A 
ATOM     28  Cl  UNL A   1      33.190  19.638  25.651  1.00  0.00    -0.084 Cl
ENDBRANCH  21  22
ENDBRANCH  14  21
ENDBRANCH   8  10
ENDBRANCH   7   8
ENDBRANCH   6   7
ENDBRANCH   5   6
ENDBRANCH   4   5
ENDBRANCH   3   4
ENDBRANCH   2   3
ENDBRANCH   1   2
BRANCH   1  29
ATOM     29  C   UNL A   1      34.522  34.963  28.865  1.00  0.00     0.188 C 
BRANCH  29  30
ATOM     30  C   UNL A   1      33.298  35.142  29.783  1.00  0.00     0.188 C 
BRANCH  30  31
ATOM     31  O   UNL A   1      33.469  34.620  31.095  1.00  0.00    -0.376 OA
BRANCH  31  32
ATOM     32  C   UNL A   1      34.754  34.178  31.507  1.00  0.00     0.202 C 
BRANCH  32  33
ATOM     33  C   UNL A   1      35.109  32.685  31.406  1.00  0.00     0.261 C 
BRANCH  33  34
ATOM     34  O   UNL A   1      35.321  31.972  32.633  1.00  0.00    -0.460 OA
BRANCH  34  35
ATOM     35  C   UNL A   1      36.099  32.514  33.592  1.00  0.00     0.338 C 
ATOM     36  O   UNL A   1      35.729  33.117  34.585  1.00  0.00    -0.246 OA
BRANCH  35  37
ATOM     37  C   UNL A   1      37.480  32.041  33.341  1.00  0.00     0.060 A 
ATOM     38  C   UNL A   1      38.535  32.568  34.102  1.00  0.00     0.016 A 
ATOM     39  C   UNL A   1      37.722  31.029  32.412  1.00  0.00     0.016 A 
ATOM     40  C   UNL A   1      39.832  32.076  33.939  1.00  0.00     0.010 A 
ATOM     41  C   UNL A   1      39.026  30.565  32.223  1.00  0.00     0.010 A 
ATOM     42  C   UNL A   1      40.089  31.095  32.977  1.00  0.00    -0.014 A 
BRANCH  42  43
ATOM     43  C   UNL A   1      41.483  30.718  32.637  1.00  0.00     0.031 A 
ATOM     44  C   UNL A   1      42.188  31.492  31.560  1.00  0.00     0.074 A 
ATOM     45  C   UNL A   1      42.090  29.676  33.235  1.00  0.00     0.049 A 
ATOM     46  N   UNL A   1      43.350  31.272  31.008  1.00  0.00    -0.248 NA
ATOM     47  C   UNL A   1      41.484  32.674  31.031  1.00  0.00     0.031 C 
ATOM     48  C   UNL A   1      41.519  28.867  34.310  1.00  0.00     0.029 A 
ATOM     49  N   UNL A   1      43.310  29.097  32.988  1.00  0.00    -0.354 N 
ATOM     50  C   UNL A   1      43.498  32.254  30.036  1.00  0.00     0.074 A 
ATOM     51  C   UNL A   1      42.315  33.084  30.085  1.00  0.00     0.031 C 
ATOM     52  C   UNL A   1      42.371  27.866  34.600  1.00  0.00     0.029 A 
ATOM     53  C   UNL A   1      43.523  27.941  33.704  1.00  0.00     0.049 A 
ATOM     54  H   UNL A   1      43.969  29.472  32.360  1.00  0.00     0.167 HD
ATOM     55  C   UNL A   1      44.526  32.441  29.178  1.00  0.00     0.034 A 
ATOM     56  C   UNL A   1      44.511  27.027  33.611  1.00  0.00     0.034 A 
ATOM     57  C   UNL A   1      45.707  31.624  29.144  1.00  0.00     0.049 A 
ATOM     58  C   UNL A   1      45.615  27.235  32.600  1.00  0.00     0.074 A 
ATOM     59  C   UNL A   1      46.835  31.782  28.358  1.00  0.00     0.029 A 
ATOM     60  N   UNL A   1      45.901  30.481  29.901  1.00  0.00    -0.354 N 
ATOM     61  N   UNL A   1      45.813  28.244  31.787  1.00  0.00    -0.248 NA
ATOM     62  C   UNL A   1      46.641  26.184  32.507  1.00  0.00     0.031 C 
ATOM     63  C   UNL A   1      47.690  30.703  28.604  1.00  0.00     0.029 A 
ATOM     64  C   UNL A   1      47.114  29.900  29.574  1.00  0.00     0.049 A 
ATOM     65  H   UNL A   1      45.270  30.134  30.572  1.00  0.00     0.167 HD
ATOM     66  C   UNL A   1      46.999  27.965  31.112  1.00  0.00     0.074 A 
ATOM     67  C   UNL A   1      47.489  26.707  31.632  1.00  0.00     0.031 C 
ATOM     68  C   UNL A   1      47.618  28.676  30.137  1.00  0.00     0.034 A 
BRANCH  55  69
ATOM     69  C   UNL A   1      44.430  33.570  28.190  1.00  0.00     0.023 A 
ATOM     70  C   UNL A   1      44.083  33.308  26.850  1.00  0.00     0.012 A 
ATOM     71  C   UNL A   1      44.584  34.903  28.620  1.00  0.00     0.148 A 
ATOM     72  C   UNL A   1      43.905  34.357  25.949  1.00  0.00     0.002 A 
ATOM     73  C   UNL A   1      44.361  35.943  27.728  1.00  0.00     0.091 A 
ATOM     74  F   UNL A   1      44.937  35.124  29.895  1.00  0.00    -0.205 F 
ATOM     75  C   UNL A   1      44.029  35.672  26.390  1.00  0.00     0.022 A 
BRANCH  73  76
ATOM     76  S   UNL A   1      44.416  37.670  28.218  1.00  0.00     0.127 S 
ATOM     77  O   UNL A   1      45.608  38.138  27.512  1.00  0.00    -0.237 OA
ATOM     78  O   UNL A   1      43.152  38.178  27.685  1.00  0.00    -0.237 OA
ATOM     79  O   UNL A   1      44.515  37.676  29.671  1.00  0.00    -0.744 OA
ENDBRANCH  73  76
ENDBRANCH  55  69
BRANCH  56  80
ATOM     80  C   UNL A   1      44.513  25.813  34.479  1.00  0.00     0.023 A 
ATOM     81  C   UNL A   1      43.798  24.669  34.075  1.00  0.00     0.012 A 
ATOM     82  C   UNL A   1      45.183  25.798  35.719  1.00  0.00     0.148 A 
ATOM     83  C   UNL A   1      43.710  23.551  34.907  1.00  0.00     0.002 A 
ATOM     84  C   UNL A   1      45.143  24.659  36.515  1.00  0.00     0.091 A 
ATOM     85  F   UNL A   1      45.841  26.902  36.101  1.00  0.00    -0.205 F 
ATOM     86  C   UNL A   1      44.388  23.543  36.122  1.00  0.00     0.022 A 
BRANCH  84  87
ATOM     87  S   UNL A   1      46.088  24.511  38.035  1.00  0.00     0.127 S 
ATOM     88  O   UNL A   1      47.394  24.089  37.537  1.00  0.00    -0.237 OA
ATOM     89  O   UNL A   1      46.039  25.879  38.554  1.00  0.00    -0.237 OA
ATOM     90  O   UNL A   1      45.373  23.537  38.848  1.00  0.00    -0.744 OA
ENDBRANCH  84  87
ENDBRANCH  56  80
BRANCH  68  91
ATOM     91  C   UNL A   1      48.911  28.138  29.582  1.00  0.00     0.023 A 
ATOM     92  C   UNL A   1      50.137  28.531  30.155  1.00  0.00     0.012 A 
ATOM     93  C   UNL A   1      48.906  27.171  28.556  1.00  0.00     0.148 A 
ATOM     94  C   UNL A   1      51.339  27.992  29.696  1.00  0.00     0.002 A 
ATOM     95  C   UNL A   1      50.102  26.600  28.140  1.00  0.00     0.091 A 
ATOM     96  F   UNL A   1      47.730  26.818  28.018  1.00  0.00    -0.205 F 
ATOM     97  C   UNL A   1      51.320  27.019  28.699  1.00  0.00     0.022 A 
BRANCH  95  98
ATOM     98  S   UNL A   1      50.174  25.272  26.932  1.00  0.00     0.127 S 
ATOM     99  O   UNL A   1      51.599  24.946  26.932  1.00  0.00    -0.237 OA
ATOM    100  O   UNL A   1      49.316  24.255  27.544  1.00  0.00    -0.237 OA
ATOM    101  O   UNL A   1      49.665  25.828  25.686  1.00  0.00    -0.744 OA
ENDBRANCH  95  98
ENDBRANCH  68  91
ENDBRANCH  42  43
ENDBRANCH  35  37
ENDBRANCH  34  35
ENDBRANCH  33  34
ENDBRANCH  32  33
ENDBRANCH  31  32
ENDBRANCH  30  31
ENDBRANCH  29  30
ENDBRANCH   1  29
TORSDOF 28
ENDMDL
MODEL 2
REMARK VINA RESULT:      -8.3      4.173      5.863
REMARK SMILES CCC[NH2+][C@@]1(C(=O)OCCOCCOCCOCCOC(=O)c2ccc(-c3c4nc(c(-c5cccc(S(=O)(=O)[O-])c5F)c5ccc([nH]5)c(-c5cccc(S(=O)(=O)[O-])c5F)c5nc(c(-c6cccc(S(=O)(=O)[O-])c6F)c6ccc3[nH]6)C=C5)C=C4)cc2)CC[C@@H](Sc2ccc(Cl)cc2)C1
REMARK SMILES IDX 14 1 13 2 12 3 11 4 10 5 9 6 8 7 6 8 7 9 5 10 86 11 97 12
REMARK SMILES IDX 87 13 88 14 4 15 3 18 2 19 1 20 89 21 90 22 91 23 96 24
REMARK SMILES IDX 92 25 95 26 93 27 94 28 15 29 16 30 17 31 18 32 19 33 20 34
REMARK SMILES IDX 21 35 22 36 23 37 24 38 85 39 25 40 84 41 26 42 27 43 28 44
REMARK SMILES IDX 78 45 29 46 83 47 77 48 79 49 30 50 82 51 76 52 75 53 31 55
REMARK SMILES IDX 63 56 43 57 62 58 44 59 47 60 61 61 80 62 45 63 46 64 60 66
REMARK SMILES IDX 81 67 48 68 32 69 33 70 41 71 34 72 36 73 42 74 35 75 37 76
REMARK SMILES IDX 38 77 39 78 40 79 64 80 65 81 73 82 66 83 68 84 74 85 67 86
REMARK SMILES IDX 69 87 70 88 71 89 72 90 49 91 50 92 58 93 51 94 53 95 59 96
REMARK SMILES IDX 52 97 54 98 55 99 56 100 57 101
REMARK H PARENT 4 16 4 17 79 54 47 65
REMARK Flexibility Score: inf
ROOT
ATOM      1  O   UNL A   1      33.059  32.963  27.800  1.00  0.00    -0.377 OA
ENDROOT
BRANCH   1   2
ATOM      2  C   UNL A   1      33.133  31.589  27.494  1.00  0.00     0.188 C 
BRANCH   2   3
ATOM      3  C   UNL A   1      31.955  31.032  26.687  1.00  0.00     0.188 C 
BRANCH   3   4
ATOM      4  O   UNL A   1      32.010  29.699  26.223  1.00  0.00    -0.376 OA
BRANCH   4   5
ATOM      5  C   UNL A   1      31.660  28.635  27.101  1.00  0.00     0.202 C 
BRANCH   5   6
ATOM      6  C   UNL A   1      32.141  27.172  26.928  1.00  0.00     0.261 C 
BRANCH   6   7
ATOM      7  O   UNL A   1      31.792  26.464  25.717  1.00  0.00    -0.459 OA
BRANCH   7   8
ATOM      8  C   UNL A   1      32.809  25.843  25.064  1.00  0.00     0.368 C 
ATOM      9  O   UNL A   1      33.951  25.748  25.515  1.00  0.00    -0.245 OA
BRANCH   8  10
ATOM     10  C   UNL A   1      32.430  25.208  23.679  1.00  0.00     0.195 C 
ATOM     11  C   UNL A   1      30.947  24.796  23.763  1.00  0.00     0.082 C 
ATOM     12  C   UNL A   1      33.095  23.889  23.234  1.00  0.00     0.096 C 
ATOM     13  C   UNL A   1      30.961  23.369  24.305  1.00  0.00     0.022 C 
ATOM     14  C   UNL A   1      32.231  22.737  23.746  1.00  0.00     0.059 C 
BRANCH  10  15
ATOM     15  N   UNL A   1      32.543  26.295  22.632  1.00  0.00    -0.332 N 
ATOM     16  H   UNL A   1      33.005  27.101  23.053  1.00  0.00     0.347 HD
ATOM     17  H   UNL A   1      33.072  25.900  21.854  1.00  0.00     0.347 HD
BRANCH  15  18
ATOM     18  C   UNL A   1      31.257  26.737  22.085  1.00  0.00     0.261 C 
BRANCH  18  19
ATOM     19  C   UNL A   1      30.908  28.203  22.349  1.00  0.00     0.058 C 
ATOM     20  C   UNL A   1      29.929  28.397  23.496  1.00  0.00     0.010 C 
ENDBRANCH  18  19
ENDBRANCH  15  18
ENDBRANCH  10  15
BRANCH  14  21
ATOM     21  S   UNL A   1      32.024  21.389  22.504  1.00  0.00    -0.122 SA
BRANCH  21  22
ATOM     22  C   UNL A   1      32.400  19.907  23.420  1.00  0.00     0.008 A 
ATOM     23  C   UNL A   1      32.467  18.686  22.743  1.00  0.00     0.016 A 
ATOM     24  C   UNL A   1      32.529  19.919  24.813  1.00  0.00     0.016 A 
ATOM     25  C   UNL A   1      32.715  17.500  23.442  1.00  0.00     0.021 A 
ATOM     26  C   UNL A   1      32.803  18.741  25.513  1.00  0.00     0.021 A 
ATOM     27  C   UNL A   1      32.898  17.536  24.823  1.00  0.00     0.041 A 
ATOM     28  Cl  UNL A   1      33.221  16.083  25.687  1.00  0.00    -0.084 Cl
ENDBRANCH  21  22
ENDBRANCH  14  21
ENDBRANCH   8  10
ENDBRANCH   7   8
ENDBRANCH   6   7
ENDBRANCH   5   6
ENDBRANCH   4   5
ENDBRANCH   3   4
ENDBRANCH   2   3
ENDBRANCH   1   2
BRANCH   1  29
ATOM     29  C   UNL A   1      34.254  33.603  28.223  1.00  0.00     0.188 C 
BRANCH  29  30
ATOM     30  C   UNL A   1      34.501  33.774  29.734  1.00  0.00     0.188 C 
BRANCH  30  31
ATOM     31  O   UNL A   1      35.496  32.909  30.266  1.00  0.00    -0.376 OA
BRANCH  31  32
ATOM     32  C   UNL A   1      36.254  32.093  29.386  1.00  0.00     0.202 C 
BRANCH  32  33
ATOM     33  C   UNL A   1      36.164  30.562  29.508  1.00  0.00     0.261 C 
BRANCH  33  34
ATOM     34  O   UNL A   1      37.245  29.888  30.168  1.00  0.00    -0.460 OA
BRANCH  34  35
ATOM     35  C   UNL A   1      37.332  29.930  31.513  1.00  0.00     0.338 C 
ATOM     36  O   UNL A   1      36.416  30.081  32.305  1.00  0.00    -0.246 OA
BRANCH  35  37
ATOM     37  C   UNL A   1      38.711  29.523  31.866  1.00  0.00     0.060 A 
ATOM     38  C   UNL A   1      39.717  30.499  31.942  1.00  0.00     0.016 A 
ATOM     39  C   UNL A   1      38.995  28.196  32.192  1.00  0.00     0.016 A 
ATOM     40  C   UNL A   1      41.006  30.149  32.352  1.00  0.00     0.010 A 
ATOM     41  C   UNL A   1      40.294  27.842  32.566  1.00  0.00     0.010 A 
ATOM     42  C   UNL A   1      41.308  28.814  32.636  1.00  0.00    -0.014 A 
BRANCH  42  43
ATOM     43  C   UNL A   1      42.711  28.389  32.859  1.00  0.00     0.031 A 
ATOM     44  C   UNL A   1      43.539  28.008  31.665  1.00  0.00     0.074 A 
ATOM     45  C   UNL A   1      43.221  28.293  34.101  1.00  0.00     0.049 A 
ATOM     46  N   UNL A   1      44.737  27.492  31.619  1.00  0.00    -0.248 NA
ATOM     47  C   UNL A   1      42.931  28.238  30.342  1.00  0.00     0.031 C 
ATOM     48  C   UNL A   1      42.527  28.658  35.333  1.00  0.00     0.029 A 
ATOM     49  N   UNL A   1      44.437  27.815  34.527  1.00  0.00    -0.354 N 
ATOM     50  C   UNL A   1      45.009  27.289  30.272  1.00  0.00     0.074 A 
ATOM     51  C   UNL A   1      43.859  27.756  29.530  1.00  0.00     0.031 C 
ATOM     52  C   UNL A   1      43.310  28.349  36.383  1.00  0.00     0.029 A 
ATOM     53  C   UNL A   1      44.540  27.727  35.897  1.00  0.00     0.049 A 
ATOM     54  H   UNL A   1      45.163  27.561  33.914  1.00  0.00     0.167 HD
ATOM     55  C   UNL A   1      46.117  26.758  29.707  1.00  0.00     0.034 A 
ATOM     56  C   UNL A   1      45.497  27.166  36.665  1.00  0.00     0.034 A 
ATOM     57  C   UNL A   1      47.264  26.311  30.447  1.00  0.00     0.049 A 
ATOM     58  C   UNL A   1      46.694  26.527  36.001  1.00  0.00     0.074 A 
ATOM     59  C   UNL A   1      48.463  25.826  29.956  1.00  0.00     0.029 A 
ATOM     60  N   UNL A   1      47.345  26.263  31.828  1.00  0.00    -0.354 N 
ATOM     61  N   UNL A   1      47.003  26.471  34.728  1.00  0.00    -0.248 NA
ATOM     62  C   UNL A   1      47.685  25.888  36.883  1.00  0.00     0.031 C 
ATOM     63  C   UNL A   1      49.251  25.436  31.043  1.00  0.00     0.029 A 
ATOM     64  C   UNL A   1      48.560  25.720  32.209  1.00  0.00     0.049 A 
ATOM     65  H   UNL A   1      46.644  26.570  32.447  1.00  0.00     0.167 HD
ATOM     66  C   UNL A   1      48.234  25.823  34.660  1.00  0.00     0.074 A 
ATOM     67  C   UNL A   1      48.627  25.530  36.022  1.00  0.00     0.031 C 
ATOM     68  C   UNL A   1      48.964  25.483  33.570  1.00  0.00     0.034 A 
BRANCH  55  69
ATOM     69  C   UNL A   1      46.152  26.616  28.210  1.00  0.00     0.023 A 
ATOM     70  C   UNL A   1      46.673  27.656  27.415  1.00  0.00     0.012 A 
ATOM     71  C   UNL A   1      45.760  25.406  27.604  1.00  0.00     0.148 A 
ATOM     72  C   UNL A   1      46.791  27.497  26.035  1.00  0.00     0.002 A 
ATOM     73  C   UNL A   1      45.923  25.239  26.236  1.00  0.00     0.091 A 
ATOM     74  F   UNL A   1      45.247  24.441  28.380  1.00  0.00    -0.205 F 
ATOM     75  C   UNL A   1      46.430  26.287  25.448  1.00  0.00     0.022 A 
BRANCH  73  76
ATOM     76  S   UNL A   1      45.566  23.692  25.398  1.00  0.00     0.127 S 
ATOM     77  O   UNL A   1      46.265  23.878  24.126  1.00  0.00    -0.237 OA
ATOM     78  O   UNL A   1      46.179  22.712  26.293  1.00  0.00    -0.237 OA
ATOM     79  O   UNL A   1      44.116  23.610  25.299  1.00  0.00    -0.744 OA
ENDBRANCH  73  76
ENDBRANCH  55  69
BRANCH  56  80
ATOM     80  C   UNL A   1      45.375  27.157  38.152  1.00  0.00     0.023 A 
ATOM     81  C   UNL A   1      44.756  26.064  38.791  1.00  0.00     0.012 A 
ATOM     82  C   UNL A   1      45.830  28.237  38.934  1.00  0.00     0.148 A 
ATOM     83  C   UNL A   1      44.550  26.069  40.172  1.00  0.00     0.002 A 
ATOM     84  C   UNL A   1      45.677  28.207  40.315  1.00  0.00     0.091 A 
ATOM     85  F   UNL A   1      46.397  29.280  38.310  1.00  0.00    -0.205 F 
ATOM     86  C   UNL A   1      45.017  27.135  40.934  1.00  0.00     0.022 A 
BRANCH  84  87
ATOM     87  S   UNL A   1      46.359  29.476  41.388  1.00  0.00     0.127 S 
ATOM     88  O   UNL A   1      46.011  28.968  42.712  1.00  0.00    -0.237 OA
ATOM     89  O   UNL A   1      47.784  29.415  41.059  1.00  0.00    -0.237 OA
ATOM     90  O   UNL A   1      45.706  30.717  40.992  1.00  0.00    -0.744 OA
ENDBRANCH  84  87
ENDBRANCH  56  80
BRANCH  68  91
ATOM     91  C   UNL A   1      50.281  24.784  33.790  1.00  0.00     0.023 A 
ATOM     92  C   UNL A   1      51.467  25.539  33.885  1.00  0.00     0.012 A 
ATOM     93  C   UNL A   1      50.330  23.390  33.997  1.00  0.00     0.148 A 
ATOM     94  C   UNL A   1      52.685  24.914  34.154  1.00  0.00     0.002 A 
ATOM     95  C   UNL A   1      51.537  22.782  34.316  1.00  0.00     0.091 A 
ATOM     96  F   UNL A   1      49.191  22.690  33.892  1.00  0.00    -0.205 F 
ATOM     97  C   UNL A   1      52.718  23.539  34.382  1.00  0.00     0.022 A 
BRANCH  95  98
ATOM     98  S   UNL A   1      51.665  21.036  34.722  1.00  0.00     0.127 S 
ATOM     99  O   UNL A   1      53.093  20.900  35.003  1.00  0.00    -0.237 OA
ATOM    100  O   UNL A   1      50.798  20.930  35.896  1.00  0.00    -0.237 OA
ATOM    101  O   UNL A   1      51.194  20.312  33.549  1.00  0.00    -0.744 OA
ENDBRANCH  95  98
ENDBRANCH  68  91
ENDBRANCH  42  43
ENDBRANCH  35  37
ENDBRANCH  34  35
ENDBRANCH  33  34
ENDBRANCH  32  33
ENDBRANCH  31  32
ENDBRANCH  30  31
ENDBRANCH  29  30
ENDBRANCH   1  29
TORSDOF 28
ENDMDL
MODEL 3
REMARK VINA RESULT:      -8.2      4.245      6.525
REMARK SMILES CCC[NH2+][C@@]1(C(=O)OCCOCCOCCOCCOC(=O)c2ccc(-c3c4nc(c(-c5cccc(S(=O)(=O)[O-])c5F)c5ccc([nH]5)c(-c5cccc(S(=O)(=O)[O-])c5F)c5nc(c(-c6cccc(S(=O)(=O)[O-])c6F)c6ccc3[nH]6)C=C5)C=C4)cc2)CC[C@@H](Sc2ccc(Cl)cc2)C1
REMARK SMILES IDX 14 1 13 2 12 3 11 4 10 5 9 6 8 7 6 8 7 9 5 10 86 11 97 12
REMARK SMILES IDX 87 13 88 14 4 15 3 18 2 19 1 20 89 21 90 22 91 23 96 24
REMARK SMILES IDX 92 25 95 26 93 27 94 28 15 29 16 30 17 31 18 32 19 33 20 34
REMARK SMILES IDX 21 35 22 36 23 37 24 38 85 39 25 40 84 41 26 42 27 43 28 44
REMARK SMILES IDX 78 45 29 46 83 47 77 48 79 49 30 50 82 51 76 52 75 53 31 55
REMARK SMILES IDX 63 56 43 57 62 58 44 59 47 60 61 61 80 62 45 63 46 64 60 66
REMARK SMILES IDX 81 67 48 68 32 69 33 70 41 71 34 72 36 73 42 74 35 75 37 76
REMARK SMILES IDX 38 77 39 78 40 79 64 80 65 81 73 82 66 83 68 84 74 85 67 86
REMARK SMILES IDX 69 87 70 88 71 89 72 90 49 91 50 92 58 93 51 94 53 95 59 96
REMARK SMILES IDX 52 97 54 98 55 99 56 100 57 101
REMARK H PARENT 4 16 4 17 79 54 47 65
REMARK Flexibility Score: inf
ROOT
ATOM      1  O   UNL A   1      32.688  31.602  27.347  1.00  0.00    -0.377 OA
ENDROOT
BRANCH   1   2
ATOM      2  C   UNL A   1      32.217  30.415  26.751  1.00  0.00     0.188 C 
BRANCH   2   3
ATOM      3  C   UNL A   1      31.566  30.585  25.374  1.00  0.00     0.188 C 
BRANCH   3   4
ATOM      4  O   UNL A   1      30.695  29.581  24.897  1.00  0.00    -0.376 OA
BRANCH   4   5
ATOM      5  C   UNL A   1      29.914  29.824  23.732  1.00  0.00     0.202 C 
BRANCH   5   6
ATOM      6  C   UNL A   1      29.555  28.739  22.685  1.00  0.00     0.261 C 
BRANCH   6   7
ATOM      7  O   UNL A   1      30.232  27.464  22.744  1.00  0.00    -0.459 OA
BRANCH   7   8
ATOM      8  C   UNL A   1      29.803  26.594  23.695  1.00  0.00     0.368 C 
ATOM      9  O   UNL A   1      28.617  26.322  23.885  1.00  0.00    -0.245 OA
BRANCH   8  10
ATOM     10  C   UNL A   1      30.936  25.909  24.539  1.00  0.00     0.195 C 
ATOM     11  C   UNL A   1      31.852  25.167  23.545  1.00  0.00     0.082 C 
ATOM     12  C   UNL A   1      30.578  24.783  25.531  1.00  0.00     0.096 C 
ATOM     13  C   UNL A   1      31.245  23.773  23.409  1.00  0.00     0.022 C 
ATOM     14  C   UNL A   1      30.647  23.457  24.775  1.00  0.00     0.059 C 
BRANCH  10  15
ATOM     15  N   UNL A   1      31.754  27.008  25.182  1.00  0.00    -0.332 N 
ATOM     16  H   UNL A   1      31.664  27.850  24.614  1.00  0.00     0.347 HD
ATOM     17  H   UNL A   1      31.392  27.129  26.128  1.00  0.00     0.347 HD
BRANCH  15  18
ATOM     18  C   UNL A   1      33.180  26.694  25.315  1.00  0.00     0.261 C 
BRANCH  18  19
ATOM     19  C   UNL A   1      34.131  27.722  24.699  1.00  0.00     0.058 C 
ATOM     20  C   UNL A   1      33.619  28.319  23.398  1.00  0.00     0.010 C 
ENDBRANCH  18  19
ENDBRANCH  15  18
ENDBRANCH  10  15
BRANCH  14  21
ATOM     21  S   UNL A   1      31.450  22.115  25.754  1.00  0.00    -0.122 SA
BRANCH  21  22
ATOM     22  C   UNL A   1      33.193  22.425  25.550  1.00  0.00     0.008 A 
ATOM     23  C   UNL A   1      33.928  21.631  24.664  1.00  0.00     0.016 A 
ATOM     24  C   UNL A   1      33.865  23.375  26.327  1.00  0.00     0.016 A 
ATOM     25  C   UNL A   1      35.305  21.822  24.517  1.00  0.00     0.021 A 
ATOM     26  C   UNL A   1      35.236  23.587  26.165  1.00  0.00     0.021 A 
ATOM     27  C   UNL A   1      35.950  22.811  25.257  1.00  0.00     0.041 A 
ATOM     28  Cl  UNL A   1      37.642  23.062  25.068  1.00  0.00    -0.084 Cl
ENDBRANCH  21  22
ENDBRANCH  14  21
ENDBRANCH   8  10
ENDBRANCH   7   8
ENDBRANCH   6   7
ENDBRANCH   5   6
ENDBRANCH   4   5
ENDBRANCH   3   4
ENDBRANCH   2   3
ENDBRANCH   1   2
BRANCH   1  29
ATOM     29  C   UNL A   1      34.016  31.597  27.852  1.00  0.00     0.188 C 
BRANCH  29  30
ATOM     30  C   UNL A   1      34.707  32.948  28.115  1.00  0.00     0.188 C 
BRANCH  30  31
ATOM     31  O   UNL A   1      35.472  32.991  29.313  1.00  0.00    -0.376 OA
BRANCH  31  32
ATOM     32  C   UNL A   1      35.320  31.958  30.275  1.00  0.00     0.202 C 
BRANCH  32  33
ATOM     33  C   UNL A   1      35.011  32.325  31.737  1.00  0.00     0.261 C 
BRANCH  33  34
ATOM     34  O   UNL A   1      35.901  31.824  32.745  1.00  0.00    -0.460 OA
BRANCH  34  35
ATOM     35  C   UNL A   1      36.961  32.568  33.126  1.00  0.00     0.338 C 
ATOM     36  O   UNL A   1      36.935  33.660  33.668  1.00  0.00    -0.246 OA
BRANCH  35  37
ATOM     37  C   UNL A   1      38.160  31.711  32.978  1.00  0.00     0.060 A 
ATOM     38  C   UNL A   1      38.117  30.385  33.436  1.00  0.00     0.016 A 
ATOM     39  C   UNL A   1      39.295  32.192  32.325  1.00  0.00     0.016 A 
ATOM     40  C   UNL A   1      39.207  29.537  33.233  1.00  0.00     0.010 A 
ATOM     41  C   UNL A   1      40.399  31.353  32.157  1.00  0.00     0.010 A 
ATOM     42  C   UNL A   1      40.365  30.026  32.620  1.00  0.00    -0.014 A 
BRANCH  42  43
ATOM     43  C   UNL A   1      41.604  29.211  32.591  1.00  0.00     0.031 A 
ATOM     44  C   UNL A   1      42.552  29.315  33.753  1.00  0.00     0.074 A 
ATOM     45  C   UNL A   1      41.907  28.438  31.532  1.00  0.00     0.049 A 
ATOM     46  N   UNL A   1      43.744  28.802  33.896  1.00  0.00    -0.248 NA
ATOM     47  C   UNL A   1      42.093  30.107  34.908  1.00  0.00     0.031 C 
ATOM     48  C   UNL A   1      41.058  28.236  30.360  1.00  0.00     0.029 A 
ATOM     49  N   UNL A   1      43.039  27.710  31.257  1.00  0.00    -0.354 N 
ATOM     50  C   UNL A   1      44.199  29.247  35.132  1.00  0.00     0.074 A 
ATOM     51  C   UNL A   1      43.147  30.056  35.708  1.00  0.00     0.031 C 
ATOM     52  C   UNL A   1      41.717  27.473  29.470  1.00  0.00     0.029 A 
ATOM     53  C   UNL A   1      43.049  27.169  29.992  1.00  0.00     0.049 A 
ATOM     54  H   UNL A   1      43.773  27.587  31.902  1.00  0.00     0.167 HD
ATOM     55  C   UNL A   1      45.388  29.004  35.728  1.00  0.00     0.034 A 
ATOM     56  C   UNL A   1      44.036  26.543  29.319  1.00  0.00     0.034 A 
ATOM     57  C   UNL A   1      46.423  28.186  35.160  1.00  0.00     0.049 A 
ATOM     58  C   UNL A   1      45.374  26.340  29.992  1.00  0.00     0.074 A 
ATOM     59  C   UNL A   1      47.633  27.823  35.724  1.00  0.00     0.029 A 
ATOM     60  N   UNL A   1      46.388  27.632  33.892  1.00  0.00    -0.354 N 
ATOM     61  N   UNL A   1      45.739  26.642  31.214  1.00  0.00    -0.248 NA
ATOM     62  C   UNL A   1      46.430  25.694  29.196  1.00  0.00     0.031 C 
ATOM     63  C   UNL A   1      48.353  27.092  34.774  1.00  0.00     0.029 A 
ATOM     64  C   UNL A   1      47.571  26.961  33.638  1.00  0.00     0.049 A 
ATOM     65  H   UNL A   1      45.632  27.704  33.264  1.00  0.00     0.167 HD
ATOM     66  C   UNL A   1      47.052  26.194  31.343  1.00  0.00     0.074 A 
ATOM     67  C   UNL A   1      47.407  25.576  30.084  1.00  0.00     0.031 C 
ATOM     68  C   UNL A   1      47.894  26.302  32.400  1.00  0.00     0.034 A 
BRANCH  55  69
ATOM     69  C   UNL A   1      45.652  29.634  37.067  1.00  0.00     0.023 A 
ATOM     70  C   UNL A   1      45.347  28.933  38.250  1.00  0.00     0.012 A 
ATOM     71  C   UNL A   1      46.297  30.884  37.147  1.00  0.00     0.148 A 
ATOM     72  C   UNL A   1      45.670  29.473  39.494  1.00  0.00     0.002 A 
ATOM     73  C   UNL A   1      46.656  31.394  38.387  1.00  0.00     0.091 A 
ATOM     74  F   UNL A   1      46.555  31.542  36.008  1.00  0.00    -0.205 F 
ATOM     75  C   UNL A   1      46.335  30.694  39.562  1.00  0.00     0.022 A 
BRANCH  73  76
ATOM     76  S   UNL A   1      47.587  32.918  38.577  1.00  0.00     0.127 S 
ATOM     77  O   UNL A   1      46.725  33.878  37.887  1.00  0.00    -0.237 OA
ATOM     78  O   UNL A   1      47.628  33.071  40.031  1.00  0.00    -0.237 OA
ATOM     79  O   UNL A   1      48.879  32.684  37.948  1.00  0.00    -0.744 OA
ENDBRANCH  73  76
ENDBRANCH  55  69
BRANCH  56  80
ATOM     80  C   UNL A   1      43.824  26.068  27.920  1.00  0.00     0.023 A 
ATOM     81  C   UNL A   1      44.076  26.942  26.844  1.00  0.00     0.012 A 
ATOM     82  C   UNL A   1      43.339  24.773  27.649  1.00  0.00     0.148 A 
ATOM     83  C   UNL A   1      43.804  26.554  25.531  1.00  0.00     0.002 A 
ATOM     84  C   UNL A   1      43.129  24.371  26.335  1.00  0.00     0.091 A 
ATOM     85  F   UNL A   1      43.083  23.960  28.684  1.00  0.00    -0.205 F 
ATOM     86  C   UNL A   1      43.338  25.268  25.276  1.00  0.00     0.022 A 
BRANCH  84  87
ATOM     87  S   UNL A   1      42.652  22.694  25.904  1.00  0.00     0.127 S 
ATOM     88  O   UNL A   1      41.211  22.721  26.140  1.00  0.00    -0.237 OA
ATOM     89  O   UNL A   1      43.045  22.622  24.496  1.00  0.00    -0.237 OA
ATOM     90  O   UNL A   1      43.424  21.828  26.785  1.00  0.00    -0.744 OA
ENDBRANCH  84  87
ENDBRANCH  56  80
BRANCH  68  91
ATOM     91  C   UNL A   1      49.275  25.714  32.267  1.00  0.00     0.023 A 
ATOM     92  C   UNL A   1      50.282  26.435  31.595  1.00  0.00     0.012 A 
ATOM     93  C   UNL A   1      49.599  24.492  32.891  1.00  0.00     0.148 A 
ATOM     94  C   UNL A   1      51.582  25.935  31.521  1.00  0.00     0.002 A 
ATOM     95  C   UNL A   1      50.907  24.027  32.858  1.00  0.00     0.091 A 
ATOM     96  F   UNL A   1      48.624  23.818  33.518  1.00  0.00    -0.205 F 
ATOM     97  C   UNL A   1      51.897  24.739  32.162  1.00  0.00     0.022 A 
BRANCH  95  98
ATOM     98  S   UNL A   1      51.432  22.548  33.734  1.00  0.00     0.127 S 
ATOM     99  O   UNL A   1      51.299  21.525  32.698  1.00  0.00    -0.237 OA
ATOM    100  O   UNL A   1      52.812  22.878  34.093  1.00  0.00    -0.237 OA
ATOM    101  O   UNL A   1      50.527  22.404  34.866  1.00  0.00    -0.744 OA
ENDBRANCH  95  98
ENDBRANCH  68  91
ENDBRANCH  42  43
ENDBRANCH  35  37
ENDBRANCH  34  35
ENDBRANCH  33  34
ENDBRANCH  32  33
ENDBRANCH  31  32
ENDBRANCH  30  31
ENDBRANCH  29  30
ENDBRANCH   1  29
TORSDOF 28
ENDMDL
