MODEL 1
REMARK VINA RESULT:      -9.4      0.000      0.000
REMARK SMILES Nc1cc(F)c([C@H]([NH3+])C(=O)OCCOCCOCCOCCOC(=O)c2ccc(-c3c4nc(c(-c5cccc(S(=O)(=O)[O-])c5F)c5ccc([nH]5)c(-c5cccc(S(=O)(=O)[O-])c5F)c5nc(c(-c6cccc(S(=O)(=O)[O-])c6F)c6ccc3[nH]6)C=C5)C=C4)cc2)cc1F
REMARK SMILES IDX 18 1 17 2 16 3 15 4 14 5 13 6 12 7 11 8 9 9 10 10 7 11 6 12
REMARK SMILES IDX 2 13 3 14 90 15 4 16 89 17 91 18 5 19 1 20 8 23 19 27 20 28
REMARK SMILES IDX 21 29 22 30 23 31 24 32 25 33 26 34 27 35 88 36 28 37 87 38
REMARK SMILES IDX 29 39 30 40 31 41 81 42 32 43 86 44 80 45 82 46 33 47 85 48
REMARK SMILES IDX 79 49 78 50 34 52 66 53 46 54 65 55 47 56 50 57 64 58 83 59
REMARK SMILES IDX 48 60 49 61 63 63 84 64 51 65 35 66 36 67 44 68 37 69 39 70
REMARK SMILES IDX 45 71 38 72 40 73 41 74 42 75 43 76 67 77 68 78 76 79 69 80
REMARK SMILES IDX 71 81 77 82 70 83 72 84 73 85 74 86 75 87 52 88 53 89 61 90
REMARK SMILES IDX 54 91 56 92 62 93 55 94 57 95 58 96 59 97 60 98
REMARK H PARENT 1 21 1 22 8 24 8 25 8 26 82 51 50 62
REMARK Flexibility Score: inf
ROOT
ATOM      1  C   UNL A   1      31.667  28.504  26.061  1.00  0.00     0.188 C 
ENDROOT
BRANCH   1   2
ATOM      2  O   UNL A   1      32.603  27.633  26.697  1.00  0.00    -0.377 OA
BRANCH   2   3
ATOM      3  C   UNL A   1      32.270  26.262  26.731  1.00  0.00     0.188 C 
BRANCH   3   4
ATOM      4  C   UNL A   1      33.190  25.363  25.896  1.00  0.00     0.188 C 
BRANCH   4   5
ATOM      5  O   UNL A   1      32.759  24.788  24.673  1.00  0.00    -0.376 OA
BRANCH   5   6
ATOM      6  C   UNL A   1      33.666  24.190  23.755  1.00  0.00     0.202 C 
BRANCH   6   7
ATOM      7  C   UNL A   1      33.487  24.272  22.233  1.00  0.00     0.261 C 
BRANCH   7   8
ATOM      8  O   UNL A   1      33.638  25.576  21.661  1.00  0.00    -0.459 OA
BRANCH   8   9
ATOM      9  C   UNL A   1      32.489  26.290  21.518  1.00  0.00     0.369 C 
ATOM     10  O   UNL A   1      31.624  26.047  20.683  1.00  0.00    -0.245 OA
BRANCH   9  11
ATOM     11  C   UNL A   1      32.385  27.444  22.539  1.00  0.00     0.326 C 
BRANCH  11  12
ATOM     12  C   UNL A   1      30.977  27.967  22.610  1.00  0.00     0.060 A 
ATOM     13  C   UNL A   1      28.324  28.899  22.812  1.00  0.00     0.071 A 
ATOM     14  C   UNL A   1      28.679  27.662  23.347  1.00  0.00     0.068 A 
ATOM     15  C   UNL A   1      29.301  29.636  22.130  1.00  0.00     0.146 A 
ATOM     16  C   UNL A   1      29.994  27.215  23.258  1.00  0.00     0.135 A 
ATOM     17  C   UNL A   1      30.607  29.183  22.020  1.00  0.00     0.055 A 
ATOM     18  F   UNL A   1      28.982  30.822  21.588  1.00  0.00    -0.205 F 
ATOM     19  F   UNL A   1      30.315  26.043  23.825  1.00  0.00    -0.206 F 
BRANCH  13  20
ATOM     20  N   UNL A   1      27.016  29.352  22.880  1.00  0.00    -0.396 N 
ATOM     21  H   UNL A   1      26.827  30.317  22.837  1.00  0.00     0.156 HD
ATOM     22  H   UNL A   1      26.276  28.709  22.971  1.00  0.00     0.156 HD
ENDBRANCH  13  20
ENDBRANCH  11  12
BRANCH  11  23
ATOM     23  N   UNL A   1      33.338  28.557  22.303  1.00  0.00    -0.342 N 
ATOM     24  H   UNL A   1      33.187  28.940  21.370  1.00  0.00     0.345 HD
ATOM     25  H   UNL A   1      34.294  28.207  22.376  1.00  0.00     0.345 HD
ATOM     26  H   UNL A   1      33.188  29.286  22.999  1.00  0.00     0.345 HD
ENDBRANCH  11  23
ENDBRANCH   9  11
ENDBRANCH   8   9
ENDBRANCH   7   8
ENDBRANCH   6   7
ENDBRANCH   5   6
ENDBRANCH   4   5
ENDBRANCH   3   4
ENDBRANCH   2   3
ENDBRANCH   1   2
BRANCH   1  27
ATOM     27  C   UNL A   1      32.132  29.921  25.648  1.00  0.00     0.188 C 
BRANCH  27  28
ATOM     28  O   UNL A   1      31.685  30.960  26.511  1.00  0.00    -0.376 OA
BRANCH  28  29
ATOM     29  C   UNL A   1      32.659  31.775  27.149  1.00  0.00     0.202 C 
BRANCH  29  30
ATOM     30  C   UNL A   1      32.414  33.293  27.159  1.00  0.00     0.261 C 
BRANCH  30  31
ATOM     31  O   UNL A   1      32.364  33.929  28.446  1.00  0.00    -0.460 OA
BRANCH  31  32
ATOM     32  C   UNL A   1      33.333  34.813  28.772  1.00  0.00     0.338 C 
ATOM     33  O   UNL A   1      33.218  36.020  28.869  1.00  0.00    -0.246 OA
BRANCH  32  34
ATOM     34  C   UNL A   1      34.504  34.023  29.218  1.00  0.00     0.060 A 
ATOM     35  C   UNL A   1      35.781  34.307  28.730  1.00  0.00     0.016 A 
ATOM     36  C   UNL A   1      34.306  32.952  30.101  1.00  0.00     0.016 A 
ATOM     37  C   UNL A   1      36.868  33.538  29.152  1.00  0.00     0.010 A 
ATOM     38  C   UNL A   1      35.393  32.174  30.510  1.00  0.00     0.010 A 
ATOM     39  C   UNL A   1      36.686  32.479  30.061  1.00  0.00    -0.014 A 
BRANCH  39  40
ATOM     40  C   UNL A   1      37.864  31.856  30.709  1.00  0.00     0.031 A 
ATOM     41  C   UNL A   1      38.317  32.215  32.090  1.00  0.00     0.074 A 
ATOM     42  C   UNL A   1      38.552  30.947  29.992  1.00  0.00     0.049 A 
ATOM     43  N   UNL A   1      39.286  31.685  32.792  1.00  0.00    -0.248 NA
ATOM     44  C   UNL A   1      37.606  33.305  32.771  1.00  0.00     0.031 C 
ATOM     45  C   UNL A   1      38.238  30.562  28.614  1.00  0.00     0.029 A 
ATOM     46  N   UNL A   1      39.648  30.188  30.311  1.00  0.00    -0.354 N 
ATOM     47  C   UNL A   1      39.301  32.364  34.003  1.00  0.00     0.074 A 
ATOM     48  C   UNL A   1      38.259  33.368  33.928  1.00  0.00     0.031 C 
ATOM     49  C   UNL A   1      39.112  29.629  28.211  1.00  0.00     0.029 A 
ATOM     50  C   UNL A   1      40.052  29.358  29.295  1.00  0.00     0.049 A 
ATOM     51  H   UNL A   1      40.101  30.235  31.184  1.00  0.00     0.167 HD
ATOM     52  C   UNL A   1      40.091  32.146  35.082  1.00  0.00     0.034 A 
ATOM     53  C   UNL A   1      41.059  28.466  29.236  1.00  0.00     0.034 A 
ATOM     54  C   UNL A   1      41.129  31.149  35.147  1.00  0.00     0.049 A 
ATOM     55  C   UNL A   1      41.920  28.244  30.441  1.00  0.00     0.074 A 
ATOM     56  C   UNL A   1      41.952  30.836  36.216  1.00  0.00     0.029 A 
ATOM     57  N   UNL A   1      41.496  30.310  34.106  1.00  0.00    -0.354 N 
ATOM     58  N   UNL A   1      41.843  28.814  31.618  1.00  0.00    -0.248 NA
ATOM     59  C   UNL A   1      42.984  27.238  30.327  1.00  0.00     0.031 C 
ATOM     60  C   UNL A   1      42.824  29.818  35.818  1.00  0.00     0.029 A 
ATOM     61  C   UNL A   1      42.533  29.483  34.506  1.00  0.00     0.049 A 
ATOM     62  H   UNL A   1      41.082  30.304  33.213  1.00  0.00     0.167 HD
ATOM     63  C   UNL A   1      42.832  28.224  32.392  1.00  0.00     0.074 A 
ATOM     64  C   UNL A   1      43.491  27.244  31.554  1.00  0.00     0.031 C 
ATOM     65  C   UNL A   1      43.164  28.484  33.679  1.00  0.00     0.034 A 
BRANCH  52  66
ATOM     66  C   UNL A   1      39.820  32.951  36.325  1.00  0.00     0.023 A 
ATOM     67  C   UNL A   1      40.372  34.243  36.428  1.00  0.00     0.012 A 
ATOM     68  C   UNL A   1      38.945  32.489  37.328  1.00  0.00     0.148 A 
ATOM     69  C   UNL A   1      40.070  35.061  37.517  1.00  0.00     0.002 A 
ATOM     70  C   UNL A   1      38.627  33.320  38.397  1.00  0.00     0.091 A 
ATOM     71  F   UNL A   1      38.436  31.254  37.212  1.00  0.00    -0.205 F 
ATOM     72  C   UNL A   1      39.192  34.603  38.494  1.00  0.00     0.022 A 
BRANCH  70  73
ATOM     73  S   UNL A   1      37.468  32.850  39.688  1.00  0.00     0.127 S 
ATOM     74  O   UNL A   1      37.619  33.954  40.634  1.00  0.00    -0.237 OA
ATOM     75  O   UNL A   1      36.194  32.833  38.967  1.00  0.00    -0.237 OA
ATOM     76  O   UNL A   1      37.912  31.552  40.174  1.00  0.00    -0.744 OA
ENDBRANCH  70  73
ENDBRANCH  52  66
BRANCH  53  77
ATOM     77  C   UNL A   1      41.218  27.664  27.996  1.00  0.00     0.023 A 
ATOM     78  C   UNL A   1      41.887  28.232  26.897  1.00  0.00     0.012 A 
ATOM     79  C   UNL A   1      40.838  26.309  27.957  1.00  0.00     0.148 A 
ATOM     80  C   UNL A   1      42.179  27.459  25.773  1.00  0.00     0.002 A 
ATOM     81  C   UNL A   1      41.165  25.537  26.851  1.00  0.00     0.091 A 
ATOM     82  F   UNL A   1      40.217  25.796  29.028  1.00  0.00    -0.205 F 
ATOM     83  C   UNL A   1      41.830  26.111  25.754  1.00  0.00     0.022 A 
BRANCH  81  84
ATOM     84  S   UNL A   1      40.857  23.769  26.776  1.00  0.00     0.127 S 
ATOM     85  O   UNL A   1      39.439  23.729  26.423  1.00  0.00    -0.237 OA
ATOM     86  O   UNL A   1      41.770  23.355  25.711  1.00  0.00    -0.237 OA
ATOM     87  O   UNL A   1      41.182  23.251  28.097  1.00  0.00    -0.744 OA
ENDBRANCH  81  84
ENDBRANCH  53  77
BRANCH  65  88
ATOM     88  C   UNL A   1      44.294  27.700  34.291  1.00  0.00     0.023 A 
ATOM     89  C   UNL A   1      45.602  28.223  34.250  1.00  0.00     0.012 A 
ATOM     90  C   UNL A   1      44.042  26.512  35.004  1.00  0.00     0.148 A 
ATOM     91  C   UNL A   1      46.644  27.571  34.907  1.00  0.00     0.002 A 
ATOM     92  C   UNL A   1      45.080  25.886  35.685  1.00  0.00     0.091 A 
ATOM     93  F   UNL A   1      42.791  26.031  35.020  1.00  0.00    -0.205 F 
ATOM     94  C   UNL A   1      46.381  26.411  35.634  1.00  0.00     0.022 A 
BRANCH  92  95
ATOM     95  S   UNL A   1      44.833  24.426  36.702  1.00  0.00     0.127 S 
ATOM     96  O   UNL A   1      43.788  24.876  37.622  1.00  0.00    -0.237 OA
ATOM     97  O   UNL A   1      44.395  23.436  35.720  1.00  0.00    -0.237 OA
ATOM     98  O   UNL A   1      46.120  24.142  37.324  1.00  0.00    -0.744 OA
ENDBRANCH  92  95
ENDBRANCH  65  88
ENDBRANCH  39  40
ENDBRANCH  32  34
ENDBRANCH  31  32
ENDBRANCH  30  31
ENDBRANCH  29  30
ENDBRANCH  28  29
ENDBRANCH  27  28
ENDBRANCH   1  27
TORSDOF 26
ENDMDL
MODEL 2
REMARK VINA RESULT:      -9.3      2.303      4.032
REMARK SMILES Nc1cc(F)c([C@H]([NH3+])C(=O)OCCOCCOCCOCCOC(=O)c2ccc(-c3c4nc(c(-c5cccc(S(=O)(=O)[O-])c5F)c5ccc([nH]5)c(-c5cccc(S(=O)(=O)[O-])c5F)c5nc(c(-c6cccc(S(=O)(=O)[O-])c6F)c6ccc3[nH]6)C=C5)C=C4)cc2)cc1F
REMARK SMILES IDX 18 1 17 2 16 3 15 4 14 5 13 6 12 7 11 8 9 9 10 10 7 11 6 12
REMARK SMILES IDX 2 13 3 14 90 15 4 16 89 17 91 18 5 19 1 20 8 23 19 27 20 28
REMARK SMILES IDX 21 29 22 30 23 31 24 32 25 33 26 34 27 35 88 36 28 37 87 38
REMARK SMILES IDX 29 39 30 40 31 41 81 42 32 43 86 44 80 45 82 46 33 47 85 48
REMARK SMILES IDX 79 49 78 50 34 52 66 53 46 54 65 55 47 56 50 57 64 58 83 59
REMARK SMILES IDX 48 60 49 61 63 63 84 64 51 65 35 66 36 67 44 68 37 69 39 70
REMARK SMILES IDX 45 71 38 72 40 73 41 74 42 75 43 76 67 77 68 78 76 79 69 80
REMARK SMILES IDX 71 81 77 82 70 83 72 84 73 85 74 86 75 87 52 88 53 89 61 90
REMARK SMILES IDX 54 91 56 92 62 93 55 94 57 95 58 96 59 97 60 98
REMARK H PARENT 1 21 1 22 8 24 8 25 8 26 82 51 50 62
REMARK Flexibility Score: inf
ROOT
ATOM      1  C   UNL A   1      31.311  27.453  23.215  1.00  0.00     0.188 C 
ENDROOT
BRANCH   1   2
ATOM      2  O   UNL A   1      31.235  26.153  23.801  1.00  0.00    -0.377 OA
BRANCH   2   3
ATOM      3  C   UNL A   1      30.006  25.798  24.396  1.00  0.00     0.188 C 
BRANCH   3   4
ATOM      4  C   UNL A   1      29.970  25.951  25.921  1.00  0.00     0.188 C 
BRANCH   4   5
ATOM      5  O   UNL A   1      30.113  24.836  26.786  1.00  0.00    -0.376 OA
BRANCH   5   6
ATOM      6  C   UNL A   1      31.077  23.816  26.556  1.00  0.00     0.202 C 
BRANCH   6   7
ATOM      7  C   UNL A   1      30.813  22.610  25.645  1.00  0.00     0.261 C 
BRANCH   7   8
ATOM      8  O   UNL A   1      31.584  22.564  24.440  1.00  0.00    -0.459 OA
BRANCH   8   9
ATOM      9  C   UNL A   1      32.648  21.717  24.458  1.00  0.00     0.369 C 
ATOM     10  O   UNL A   1      32.713  20.703  25.144  1.00  0.00    -0.245 OA
BRANCH   9  11
ATOM     11  C   UNL A   1      33.773  22.169  23.500  1.00  0.00     0.326 C 
BRANCH  11  12
ATOM     12  C   UNL A   1      35.020  22.512  24.268  1.00  0.00     0.060 A 
ATOM     13  C   UNL A   1      37.311  23.203  25.758  1.00  0.00     0.071 A 
ATOM     14  C   UNL A   1      36.206  24.053  25.729  1.00  0.00     0.068 A 
ATOM     15  C   UNL A   1      37.273  22.033  24.989  1.00  0.00     0.146 A 
ATOM     16  C   UNL A   1      35.072  23.698  25.004  1.00  0.00     0.135 A 
ATOM     17  C   UNL A   1      36.152  21.687  24.249  1.00  0.00     0.055 A 
ATOM     18  F   UNL A   1      38.330  21.207  24.983  1.00  0.00    -0.205 F 
ATOM     19  F   UNL A   1      34.008  24.513  25.037  1.00  0.00    -0.206 F 
BRANCH  13  20
ATOM     20  N   UNL A   1      38.453  23.549  26.463  1.00  0.00    -0.396 N 
ATOM     21  H   UNL A   1      39.285  23.041  26.329  1.00  0.00     0.156 HD
ATOM     22  H   UNL A   1      38.432  24.302  27.096  1.00  0.00     0.156 HD
ENDBRANCH  13  20
ENDBRANCH  11  12
BRANCH  11  23
ATOM     23  N   UNL A   1      33.397  23.287  22.600  1.00  0.00    -0.342 N 
ATOM     24  H   UNL A   1      32.923  22.915  21.777  1.00  0.00     0.345 HD
ATOM     25  H   UNL A   1      34.238  23.787  22.310  1.00  0.00     0.345 HD
ATOM     26  H   UNL A   1      32.774  23.926  23.092  1.00  0.00     0.345 HD
ENDBRANCH  11  23
ENDBRANCH   9  11
ENDBRANCH   8   9
ENDBRANCH   7   8
ENDBRANCH   6   7
ENDBRANCH   5   6
ENDBRANCH   4   5
ENDBRANCH   3   4
ENDBRANCH   2   3
ENDBRANCH   1   2
BRANCH   1  27
ATOM     27  C   UNL A   1      31.827  28.629  24.079  1.00  0.00     0.188 C 
BRANCH  27  28
ATOM     28  O   UNL A   1      31.025  29.802  24.011  1.00  0.00    -0.376 OA
BRANCH  28  29
ATOM     29  C   UNL A   1      30.861  30.579  25.190  1.00  0.00     0.202 C 
BRANCH  29  30
ATOM     30  C   UNL A   1      31.796  30.273  26.373  1.00  0.00     0.261 C 
BRANCH  30  31
ATOM     31  O   UNL A   1      33.122  30.819  26.302  1.00  0.00    -0.460 OA
BRANCH  31  32
ATOM     32  C   UNL A   1      33.496  31.739  27.218  1.00  0.00     0.338 C 
ATOM     33  O   UNL A   1      32.819  32.649  27.658  1.00  0.00    -0.246 OA
BRANCH  32  34
ATOM     34  C   UNL A   1      34.801  31.298  27.764  1.00  0.00     0.060 A 
ATOM     35  C   UNL A   1      35.817  32.224  28.012  1.00  0.00     0.016 A 
ATOM     36  C   UNL A   1      35.021  29.932  27.981  1.00  0.00     0.016 A 
ATOM     37  C   UNL A   1      37.045  31.783  28.510  1.00  0.00     0.010 A 
ATOM     38  C   UNL A   1      36.256  29.491  28.465  1.00  0.00     0.010 A 
ATOM     39  C   UNL A   1      37.267  30.417  28.760  1.00  0.00    -0.014 A 
BRANCH  39  40
ATOM     40  C   UNL A   1      38.456  29.995  29.539  1.00  0.00     0.031 A 
ATOM     41  C   UNL A   1      38.771  30.537  30.899  1.00  0.00     0.074 A 
ATOM     42  C   UNL A   1      39.285  29.103  28.964  1.00  0.00     0.049 A 
ATOM     43  N   UNL A   1      39.738  30.189  31.709  1.00  0.00    -0.248 NA
ATOM     44  C   UNL A   1      37.902  31.602  31.419  1.00  0.00     0.031 C 
ATOM     45  C   UNL A   1      39.111  28.553  27.617  1.00  0.00     0.029 A 
ATOM     46  N   UNL A   1      40.430  28.508  29.425  1.00  0.00    -0.354 N 
ATOM     47  C   UNL A   1      39.596  30.981  32.841  1.00  0.00     0.074 A 
ATOM     48  C   UNL A   1      38.461  31.850  32.600  1.00  0.00     0.031 C 
ATOM     49  C   UNL A   1      40.105  27.689  27.367  1.00  0.00     0.029 A 
ATOM     50  C   UNL A   1      40.989  27.633  28.527  1.00  0.00     0.049 A 
ATOM     51  H   UNL A   1      40.813  28.690  30.313  1.00  0.00     0.167 HD
ATOM     52  C   UNL A   1      40.326  30.959  33.982  1.00  0.00     0.034 A 
ATOM     53  C   UNL A   1      42.086  26.857  28.622  1.00  0.00     0.034 A 
ATOM     54  C   UNL A   1      41.456  30.096  34.212  1.00  0.00     0.049 A 
ATOM     55  C   UNL A   1      42.879  26.852  29.893  1.00  0.00     0.074 A 
ATOM     56  C   UNL A   1      42.230  29.984  35.356  1.00  0.00     0.029 A 
ATOM     57  N   UNL A   1      41.982  29.206  33.289  1.00  0.00    -0.354 N 
ATOM     58  N   UNL A   1      42.659  27.523  30.996  1.00  0.00    -0.248 NA
ATOM     59  C   UNL A   1      44.049  25.965  29.947  1.00  0.00     0.031 C 
ATOM     60  C   UNL A   1      43.231  29.036  35.119  1.00  0.00     0.029 A 
ATOM     61  C   UNL A   1      43.070  28.543  33.834  1.00  0.00     0.049 A 
ATOM     62  H   UNL A   1      41.635  29.066  32.379  1.00  0.00     0.167 HD
ATOM     63  C   UNL A   1      43.648  27.126  31.885  1.00  0.00     0.074 A 
ATOM     64  C   UNL A   1      44.464  26.148  31.195  1.00  0.00     0.031 C 
ATOM     65  C   UNL A   1      43.860  27.546  33.156  1.00  0.00     0.034 A 
BRANCH  52  66
ATOM     66  C   UNL A   1      39.885  31.846  35.116  1.00  0.00     0.023 A 
ATOM     67  C   UNL A   1      40.255  33.206  35.095  1.00  0.00     0.012 A 
ATOM     68  C   UNL A   1      39.025  31.378  36.129  1.00  0.00     0.148 A 
ATOM     69  C   UNL A   1      39.790  34.084  36.072  1.00  0.00     0.002 A 
ATOM     70  C   UNL A   1      38.543  32.266  37.085  1.00  0.00     0.091 A 
ATOM     71  F   UNL A   1      38.691  30.079  36.132  1.00  0.00    -0.205 F 
ATOM     72  C   UNL A   1      38.928  33.617  37.059  1.00  0.00     0.022 A 
BRANCH  70  73
ATOM     73  S   UNL A   1      37.389  31.780  38.374  1.00  0.00     0.127 S 
ATOM     74  O   UNL A   1      38.191  31.990  39.579  1.00  0.00    -0.237 OA
ATOM     75  O   UNL A   1      36.301  32.741  38.191  1.00  0.00    -0.237 OA
ATOM     76  O   UNL A   1      37.036  30.395  38.098  1.00  0.00    -0.744 OA
ENDBRANCH  70  73
ENDBRANCH  52  66
BRANCH  53  77
ATOM     77  C   UNL A   1      42.417  25.961  27.485  1.00  0.00     0.023 A 
ATOM     78  C   UNL A   1      43.244  26.442  26.453  1.00  0.00     0.012 A 
ATOM     79  C   UNL A   1      42.033  24.606  27.495  1.00  0.00     0.148 A 
ATOM     80  C   UNL A   1      43.689  25.585  25.448  1.00  0.00     0.002 A 
ATOM     81  C   UNL A   1      42.510  23.751  26.512  1.00  0.00     0.091 A 
ATOM     82  F   UNL A   1      41.257  24.178  28.501  1.00  0.00    -0.205 F 
ATOM     83  C   UNL A   1      43.332  24.239  25.483  1.00  0.00     0.022 A 
BRANCH  81  84
ATOM     84  S   UNL A   1      42.197  21.982  26.531  1.00  0.00     0.127 S 
ATOM     85  O   UNL A   1      40.746  21.935  26.372  1.00  0.00    -0.237 OA
ATOM     86  O   UNL A   1      42.961  21.536  25.365  1.00  0.00    -0.237 OA
ATOM     87  O   UNL A   1      42.698  21.502  27.811  1.00  0.00    -0.744 OA
ENDBRANCH  81  84
ENDBRANCH  53  77
BRANCH  65  88
ATOM     88  C   UNL A   1      45.020  26.956  33.912  1.00  0.00     0.023 A 
ATOM     89  C   UNL A   1      46.149  27.755  34.180  1.00  0.00     0.012 A 
ATOM     90  C   UNL A   1      44.940  25.660  34.456  1.00  0.00     0.148 A 
ATOM     91  C   UNL A   1      47.186  27.269  34.975  1.00  0.00     0.002 A 
ATOM     92  C   UNL A   1      45.963  25.194  35.275  1.00  0.00     0.091 A 
ATOM     93  F   UNL A   1      43.859  24.917  34.179  1.00  0.00    -0.205 F 
ATOM     94  C   UNL A   1      47.087  25.995  35.532  1.00  0.00     0.022 A 
BRANCH  92  95
ATOM     95  S   UNL A   1      45.900  23.596  36.093  1.00  0.00     0.127 S 
ATOM     96  O   UNL A   1      47.012  22.891  35.456  1.00  0.00    -0.237 OA
ATOM     97  O   UNL A   1      46.129  23.957  37.492  1.00  0.00    -0.237 OA
ATOM     98  O   UNL A   1      44.580  23.047  35.812  1.00  0.00    -0.744 OA
ENDBRANCH  92  95
ENDBRANCH  65  88
ENDBRANCH  39  40
ENDBRANCH  32  34
ENDBRANCH  31  32
ENDBRANCH  30  31
ENDBRANCH  29  30
ENDBRANCH  28  29
ENDBRANCH  27  28
ENDBRANCH   1  27
TORSDOF 26
ENDMDL
MODEL 3
REMARK VINA RESULT:      -9.2      6.154     11.039
REMARK SMILES Nc1cc(F)c([C@H]([NH3+])C(=O)OCCOCCOCCOCCOC(=O)c2ccc(-c3c4nc(c(-c5cccc(S(=O)(=O)[O-])c5F)c5ccc([nH]5)c(-c5cccc(S(=O)(=O)[O-])c5F)c5nc(c(-c6cccc(S(=O)(=O)[O-])c6F)c6ccc3[nH]6)C=C5)C=C4)cc2)cc1F
REMARK SMILES IDX 18 1 17 2 16 3 15 4 14 5 13 6 12 7 11 8 9 9 10 10 7 11 6 12
REMARK SMILES IDX 2 13 3 14 90 15 4 16 89 17 91 18 5 19 1 20 8 23 19 27 20 28
REMARK SMILES IDX 21 29 22 30 23 31 24 32 25 33 26 34 27 35 88 36 28 37 87 38
REMARK SMILES IDX 29 39 30 40 31 41 81 42 32 43 86 44 80 45 82 46 33 47 85 48
REMARK SMILES IDX 79 49 78 50 34 52 66 53 46 54 65 55 47 56 50 57 64 58 83 59
REMARK SMILES IDX 48 60 49 61 63 63 84 64 51 65 35 66 36 67 44 68 37 69 39 70
REMARK SMILES IDX 45 71 38 72 40 73 41 74 42 75 43 76 67 77 68 78 76 79 69 80
REMARK SMILES IDX 71 81 77 82 70 83 72 84 73 85 74 86 75 87 52 88 53 89 61 90
REMARK SMILES IDX 54 91 56 92 62 93 55 94 57 95 58 96 59 97 60 98
REMARK H PARENT 1 21 1 22 8 24 8 25 8 26 82 51 50 62
REMARK Flexibility Score: inf
ROOT
ATOM      1  C   UNL A   1      35.610  22.030  25.306  1.00  0.00     0.188 C 
ENDROOT
BRANCH   1   2
ATOM      2  O   UNL A   1      34.699  21.051  24.804  1.00  0.00    -0.377 OA
BRANCH   2   3
ATOM      3  C   UNL A   1      33.455  20.948  25.461  1.00  0.00     0.188 C 
BRANCH   3   4
ATOM      4  C   UNL A   1      32.248  20.827  24.523  1.00  0.00     0.188 C 
BRANCH   4   5
ATOM      5  O   UNL A   1      32.227  21.456  23.251  1.00  0.00    -0.376 OA
BRANCH   5   6
ATOM      6  C   UNL A   1      32.040  22.858  23.101  1.00  0.00     0.202 C 
BRANCH   6   7
ATOM      7  C   UNL A   1      33.152  23.800  22.624  1.00  0.00     0.261 C 
BRANCH   7   8
ATOM      8  O   UNL A   1      33.152  25.106  23.211  1.00  0.00    -0.459 OA
BRANCH   8   9
ATOM      9  C   UNL A   1      32.713  26.110  22.406  1.00  0.00     0.369 C 
ATOM     10  O   UNL A   1      32.584  26.016  21.190  1.00  0.00    -0.245 OA
BRANCH   9  11
ATOM     11  C   UNL A   1      32.378  27.393  23.199  1.00  0.00     0.326 C 
BRANCH  11  12
ATOM     12  C   UNL A   1      30.904  27.687  23.140  1.00  0.00     0.060 A 
ATOM     13  C   UNL A   1      28.131  28.192  23.100  1.00  0.00     0.071 A 
ATOM     14  C   UNL A   1      28.632  27.058  23.738  1.00  0.00     0.068 A 
ATOM     15  C   UNL A   1      29.031  29.037  22.439  1.00  0.00     0.146 A 
ATOM     16  C   UNL A   1      30.003  26.822  23.768  1.00  0.00     0.135 A 
ATOM     17  C   UNL A   1      30.397  28.794  22.448  1.00  0.00     0.055 A 
ATOM     18  F   UNL A   1      28.575  30.126  21.800  1.00  0.00    -0.205 F 
ATOM     19  F   UNL A   1      30.458  25.750  24.431  1.00  0.00    -0.206 F 
BRANCH  13  20
ATOM     20  N   UNL A   1      26.768  28.433  23.049  1.00  0.00    -0.396 N 
ATOM     21  H   UNL A   1      26.418  29.327  23.264  1.00  0.00     0.156 HD
ATOM     22  H   UNL A   1      26.149  27.709  22.796  1.00  0.00     0.156 HD
ENDBRANCH  13  20
ENDBRANCH  11  12
BRANCH  11  23
ATOM     23  N   UNL A   1      33.159  28.586  22.791  1.00  0.00    -0.342 N 
ATOM     24  H   UNL A   1      32.579  29.187  22.206  1.00  0.00     0.345 HD
ATOM     25  H   UNL A   1      33.981  28.290  22.263  1.00  0.00     0.345 HD
ATOM     26  H   UNL A   1      33.455  29.100  23.619  1.00  0.00     0.345 HD
ENDBRANCH  11  23
ENDBRANCH   9  11
ENDBRANCH   8   9
ENDBRANCH   7   8
ENDBRANCH   6   7
ENDBRANCH   5   6
ENDBRANCH   4   5
ENDBRANCH   3   4
ENDBRANCH   2   3
ENDBRANCH   1   2
BRANCH   1  27
ATOM     27  C   UNL A   1      37.119  21.865  25.006  1.00  0.00     0.188 C 
BRANCH  27  28
ATOM     28  O   UNL A   1      37.967  22.695  25.792  1.00  0.00    -0.376 OA
BRANCH  28  29
ATOM     29  C   UNL A   1      39.175  22.141  26.297  1.00  0.00     0.202 C 
BRANCH  29  30
ATOM     30  C   UNL A   1      39.546  20.721  25.839  1.00  0.00     0.261 C 
BRANCH  30  31
ATOM     31  O   UNL A   1      40.563  20.046  26.597  1.00  0.00    -0.460 OA
BRANCH  31  32
ATOM     32  C   UNL A   1      41.808  19.958  26.079  1.00  0.00     0.338 C 
ATOM     33  O   UNL A   1      42.227  19.102  25.323  1.00  0.00    -0.246 OA
BRANCH  32  34
ATOM     34  C   UNL A   1      42.503  21.222  26.414  1.00  0.00     0.060 A 
ATOM     35  C   UNL A   1      42.944  22.080  25.404  1.00  0.00     0.016 A 
ATOM     36  C   UNL A   1      42.760  21.523  27.758  1.00  0.00     0.016 A 
ATOM     37  C   UNL A   1      43.614  23.258  25.743  1.00  0.00     0.010 A 
ATOM     38  C   UNL A   1      43.443  22.695  28.095  1.00  0.00     0.010 A 
ATOM     39  C   UNL A   1      43.850  23.585  27.090  1.00  0.00    -0.014 A 
BRANCH  39  40
ATOM     40  C   UNL A   1      44.306  24.950  27.447  1.00  0.00     0.031 A 
ATOM     41  C   UNL A   1      45.734  25.385  27.335  1.00  0.00     0.074 A 
ATOM     42  C   UNL A   1      43.378  25.807  27.913  1.00  0.00     0.049 A 
ATOM     43  N   UNL A   1      46.241  26.573  27.544  1.00  0.00    -0.248 NA
ATOM     44  C   UNL A   1      46.721  24.369  26.945  1.00  0.00     0.031 C 
ATOM     45  C   UNL A   1      41.967  25.473  28.123  1.00  0.00     0.029 A 
ATOM     46  N   UNL A   1      43.473  27.119  28.296  1.00  0.00    -0.354 N 
ATOM     47  C   UNL A   1      47.604  26.459  27.304  1.00  0.00     0.074 A 
ATOM     48  C   UNL A   1      47.850  25.072  26.960  1.00  0.00     0.031 C 
ATOM     49  C   UNL A   1      41.325  26.557  28.582  1.00  0.00     0.029 A 
ATOM     50  C   UNL A   1      42.279  27.655  28.710  1.00  0.00     0.049 A 
ATOM     51  H   UNL A   1      44.317  27.627  28.277  1.00  0.00     0.167 HD
ATOM     52  C   UNL A   1      48.551  27.427  27.340  1.00  0.00     0.034 A 
ATOM     53  C   UNL A   1      41.972  28.896  29.135  1.00  0.00     0.034 A 
ATOM     54  C   UNL A   1      48.300  28.802  27.688  1.00  0.00     0.049 A 
ATOM     55  C   UNL A   1      43.037  29.949  29.168  1.00  0.00     0.074 A 
ATOM     56  C   UNL A   1      49.197  29.858  27.713  1.00  0.00     0.029 A 
ATOM     57  N   UNL A   1      47.074  29.316  28.081  1.00  0.00    -0.354 N 
ATOM     58  N   UNL A   1      44.297  29.849  28.824  1.00  0.00    -0.248 NA
ATOM     59  C   UNL A   1      42.636  31.290  29.614  1.00  0.00     0.031 C 
ATOM     60  C   UNL A   1      48.516  31.005  28.132  1.00  0.00     0.029 A 
ATOM     61  C   UNL A   1      47.190  30.670  28.351  1.00  0.00     0.049 A 
ATOM     62  H   UNL A   1      46.242  28.794  28.157  1.00  0.00     0.167 HD
ATOM     63  C   UNL A   1      44.838  31.117  28.992  1.00  0.00     0.074 A 
ATOM     64  C   UNL A   1      43.766  31.972  29.459  1.00  0.00     0.031 C 
ATOM     65  C   UNL A   1      46.113  31.525  28.784  1.00  0.00     0.034 A 
BRANCH  52  66
ATOM     66  C   UNL A   1      49.949  27.060  26.917  1.00  0.00     0.023 A 
ATOM     67  C   UNL A   1      50.775  26.379  27.833  1.00  0.00     0.012 A 
ATOM     68  C   UNL A   1      50.404  27.279  25.602  1.00  0.00     0.148 A 
ATOM     69  C   UNL A   1      52.042  25.935  27.453  1.00  0.00     0.002 A 
ATOM     70  C   UNL A   1      51.657  26.810  25.222  1.00  0.00     0.091 A 
ATOM     71  F   UNL A   1      49.602  27.934  24.750  1.00  0.00    -0.205 F 
ATOM     72  C   UNL A   1      52.477  26.142  26.148  1.00  0.00     0.022 A 
BRANCH  70  73
ATOM     73  S   UNL A   1      52.298  26.979  23.552  1.00  0.00     0.127 S 
ATOM     74  O   UNL A   1      52.861  28.328  23.591  1.00  0.00    -0.237 OA
ATOM     75  O   UNL A   1      53.290  25.905  23.493  1.00  0.00    -0.237 OA
ATOM     76  O   UNL A   1      51.158  26.809  22.664  1.00  0.00    -0.744 OA
ENDBRANCH  70  73
ENDBRANCH  52  66
BRANCH  53  77
ATOM     77  C   UNL A   1      40.557  29.196  29.471  1.00  0.00     0.023 A 
ATOM     78  C   UNL A   1      39.654  29.481  28.430  1.00  0.00     0.012 A 
ATOM     79  C   UNL A   1      40.082  29.064  30.789  1.00  0.00     0.148 A 
ATOM     80  C   UNL A   1      38.293  29.626  28.697  1.00  0.00     0.002 A 
ATOM     81  C   UNL A   1      38.721  29.172  31.042  1.00  0.00     0.091 A 
ATOM     82  F   UNL A   1      40.967  28.777  31.754  1.00  0.00    -0.205 F 
ATOM     83  C   UNL A   1      37.825  29.461  29.999  1.00  0.00     0.022 A 
BRANCH  81  84
ATOM     84  S   UNL A   1      38.009  28.869  32.662  1.00  0.00     0.127 S 
ATOM     85  O   UNL A   1      36.630  29.314  32.469  1.00  0.00    -0.237 OA
ATOM     86  O   UNL A   1      38.177  27.421  32.792  1.00  0.00    -0.237 OA
ATOM     87  O   UNL A   1      38.792  29.662  33.598  1.00  0.00    -0.744 OA
ENDBRANCH  81  84
ENDBRANCH  53  77
BRANCH  65  88
ATOM     88  C   UNL A   1      46.446  32.968  29.049  1.00  0.00     0.023 A 
ATOM     89  C   UNL A   1      46.973  33.338  30.303  1.00  0.00     0.012 A 
ATOM     90  C   UNL A   1      46.349  33.930  28.025  1.00  0.00     0.148 A 
ATOM     91  C   UNL A   1      47.395  34.646  30.534  1.00  0.00     0.002 A 
ATOM     92  C   UNL A   1      46.802  35.224  28.252  1.00  0.00     0.091 A 
ATOM     93  F   UNL A   1      45.835  33.555  26.845  1.00  0.00    -0.205 F 
ATOM     94  C   UNL A   1      47.322  35.585  29.506  1.00  0.00     0.022 A 
BRANCH  92  95
ATOM     95  S   UNL A   1      46.812  36.489  26.976  1.00  0.00     0.127 S 
ATOM     96  O   UNL A   1      47.621  37.536  27.600  1.00  0.00    -0.237 OA
ATOM     97  O   UNL A   1      47.461  35.798  25.863  1.00  0.00    -0.237 OA
ATOM     98  O   UNL A   1      45.418  36.843  26.745  1.00  0.00    -0.744 OA
ENDBRANCH  92  95
ENDBRANCH  65  88
ENDBRANCH  39  40
ENDBRANCH  32  34
ENDBRANCH  31  32
ENDBRANCH  30  31
ENDBRANCH  29  30
ENDBRANCH  28  29
ENDBRANCH  27  28
ENDBRANCH   1  27
TORSDOF 26
ENDMDL
