MODEL 1
REMARK VINA RESULT:      -8.4      0.000      0.000
REMARK SMILES O=C(/C=C/c1ccccc1Oc1cccc(Cl)c1)OCCOCCOCCOCCOC(=O)c1ccc(-c2c3nc(c(-c4cccc(S(=O)(=O)[O-])c4F)c4ccc([nH]4)c(-c4cccc(S(=O)(=O)[O-])c4F)c4nc(c(-c5cccc(S(=O)(=O)[O-])c5F)c5ccc2[nH]5)C=C4)C=C3)cc1
REMARK SMILES IDX 25 1 24 2 23 3 22 4 21 5 20 6 19 7 2 8 1 9 3 10 4 11 5 12
REMARK SMILES IDX 6 13 10 14 7 15 9 16 8 17 11 18 12 19 13 20 18 21 14 22
REMARK SMILES IDX 16 23 15 24 17 25 26 26 27 27 28 28 29 29 30 30 31 31 32 32
REMARK SMILES IDX 33 33 34 34 35 35 96 36 36 37 95 38 37 39 38 40 39 41 89 42
REMARK SMILES IDX 40 43 94 44 88 45 90 46 41 47 93 48 87 49 86 50 42 52 74 53
REMARK SMILES IDX 54 54 73 55 55 56 58 57 72 58 91 59 56 60 57 61 71 63 92 64
REMARK SMILES IDX 59 65 43 66 44 67 52 68 45 69 47 70 53 71 46 72 48 73 49 74
REMARK SMILES IDX 50 75 51 76 75 77 76 78 84 79 77 80 79 81 85 82 78 83 80 84
REMARK SMILES IDX 81 85 82 86 83 87 60 88 61 89 69 90 62 91 64 92 70 93 63 94
REMARK SMILES IDX 65 95 66 96 67 97 68 98
REMARK H PARENT 90 51 58 62
REMARK Flexibility Score: inf
ROOT
ATOM      1  O   UNL A   1      43.800  19.499  24.603  1.00  0.00    -0.377 OA
ENDROOT
BRANCH   1   2
ATOM      2  C   UNL A   1      43.311  19.598  25.929  1.00  0.00     0.188 C 
BRANCH   2   3
ATOM      3  C   UNL A   1      41.861  20.035  26.146  1.00  0.00     0.188 C 
BRANCH   3   4
ATOM      4  O   UNL A   1      41.312  21.292  25.759  1.00  0.00    -0.376 OA
BRANCH   4   5
ATOM      5  C   UNL A   1      41.459  22.577  26.334  1.00  0.00     0.202 C 
BRANCH   5   6
ATOM      6  C   UNL A   1      40.357  23.341  27.061  1.00  0.00     0.261 C 
BRANCH   6   7
ATOM      7  O   UNL A   1      40.493  24.748  27.211  1.00  0.00    -0.460 OA
BRANCH   7   8
ATOM      8  C   UNL A   1      41.013  25.398  28.263  1.00  0.00     0.330 C 
ATOM      9  O   UNL A   1      42.082  25.017  28.735  1.00  0.00    -0.247 OA
BRANCH   8  10
ATOM     10  C   UNL A   1      40.229  26.405  29.005  1.00  0.00     0.094 C 
ATOM     11  C   UNL A   1      39.275  27.255  28.603  1.00  0.00     0.019 C 
BRANCH  11  12
ATOM     12  C   UNL A   1      38.600  28.127  29.577  1.00  0.00     0.017 A 
ATOM     13  C   UNL A   1      38.832  27.800  30.932  1.00  0.00     0.012 A 
ATOM     14  C   UNL A   1      37.761  29.217  29.278  1.00  0.00     0.134 A 
ATOM     15  C   UNL A   1      38.218  28.500  31.972  1.00  0.00     0.001 A 
ATOM     16  C   UNL A   1      37.148  29.909  30.342  1.00  0.00     0.048 A 
ATOM     17  C   UNL A   1      37.365  29.550  31.675  1.00  0.00     0.004 A 
BRANCH  14  18
ATOM     18  O   UNL A   1      37.382  29.738  28.050  1.00  0.00    -0.457 OA
BRANCH  18  19
ATOM     19  C   UNL A   1      36.093  30.140  27.825  1.00  0.00     0.128 A 
ATOM     20  C   UNL A   1      35.724  31.457  28.113  1.00  0.00     0.047 A 
ATOM     21  C   UNL A   1      35.155  29.228  27.336  1.00  0.00     0.067 A 
ATOM     22  C   UNL A   1      34.428  31.889  27.822  1.00  0.00     0.005 A 
ATOM     23  C   UNL A   1      33.878  29.677  27.010  1.00  0.00     0.044 A 
ATOM     24  C   UNL A   1      33.509  31.000  27.254  1.00  0.00     0.021 A 
ATOM     25  Cl  UNL A   1      32.794  28.621  26.195  1.00  0.00    -0.084 Cl
ENDBRANCH  18  19
ENDBRANCH  14  18
ENDBRANCH  11  12
ENDBRANCH   8  10
ENDBRANCH   7   8
ENDBRANCH   6   7
ENDBRANCH   5   6
ENDBRANCH   4   5
ENDBRANCH   3   4
ENDBRANCH   2   3
ENDBRANCH   1   2
BRANCH   1  26
ATOM     26  C   UNL A   1      45.125  19.972  24.453  1.00  0.00     0.188 C 
BRANCH  26  27
ATOM     27  C   UNL A   1      45.428  21.162  25.385  1.00  0.00     0.188 C 
BRANCH  27  28
ATOM     28  O   UNL A   1      46.406  22.042  24.850  1.00  0.00    -0.376 OA
BRANCH  28  29
ATOM     29  C   UNL A   1      46.029  23.383  24.571  1.00  0.00     0.202 C 
BRANCH  29  30
ATOM     30  C   UNL A   1      44.622  23.925  24.902  1.00  0.00     0.261 C 
BRANCH  30  31
ATOM     31  O   UNL A   1      44.512  25.275  25.376  1.00  0.00    -0.460 OA
BRANCH  31  32
ATOM     32  C   UNL A   1      43.354  25.944  25.201  1.00  0.00     0.338 C 
ATOM     33  O   UNL A   1      42.360  25.537  24.625  1.00  0.00    -0.246 OA
BRANCH  32  34
ATOM     34  C   UNL A   1      43.406  27.137  26.091  1.00  0.00     0.060 A 
ATOM     35  C   UNL A   1      42.576  28.226  25.783  1.00  0.00     0.016 A 
ATOM     36  C   UNL A   1      44.135  27.131  27.289  1.00  0.00     0.016 A 
ATOM     37  C   UNL A   1      42.500  29.320  26.647  1.00  0.00     0.010 A 
ATOM     38  C   UNL A   1      44.087  28.244  28.138  1.00  0.00     0.010 A 
ATOM     39  C   UNL A   1      43.304  29.361  27.793  1.00  0.00    -0.014 A 
BRANCH  39  40
ATOM     40  C   UNL A   1      43.584  30.685  28.402  1.00  0.00     0.031 A 
ATOM     41  C   UNL A   1      42.665  31.120  29.515  1.00  0.00     0.074 A 
ATOM     42  C   UNL A   1      44.625  31.456  28.039  1.00  0.00     0.049 A 
ATOM     43  N   UNL A   1      42.696  32.199  30.250  1.00  0.00    -0.248 NA
ATOM     44  C   UNL A   1      41.561  30.199  29.848  1.00  0.00     0.031 C 
ATOM     45  C   UNL A   1      45.591  31.148  26.988  1.00  0.00     0.029 A 
ATOM     46  N   UNL A   1      45.029  32.678  28.520  1.00  0.00    -0.354 N 
ATOM     47  C   UNL A   1      41.621  32.088  31.122  1.00  0.00     0.074 A 
ATOM     48  C   UNL A   1      40.938  30.854  30.812  1.00  0.00     0.031 C 
ATOM     49  C   UNL A   1      46.459  32.171  26.881  1.00  0.00     0.029 A 
ATOM     50  C   UNL A   1      46.104  33.211  27.846  1.00  0.00     0.049 A 
ATOM     51  H   UNL A   1      44.591  33.131  29.276  1.00  0.00     0.167 HD
ATOM     52  C   UNL A   1      41.240  32.924  32.114  1.00  0.00     0.034 A 
ATOM     53  C   UNL A   1      46.712  34.408  27.988  1.00  0.00     0.034 A 
ATOM     54  C   UNL A   1      41.908  34.157  32.419  1.00  0.00     0.049 A 
ATOM     55  C   UNL A   1      46.239  35.350  29.070  1.00  0.00     0.074 A 
ATOM     56  C   UNL A   1      41.602  35.078  33.403  1.00  0.00     0.029 A 
ATOM     57  N   UNL A   1      43.008  34.645  31.734  1.00  0.00    -0.354 N 
ATOM     58  N   UNL A   1      45.288  35.182  29.959  1.00  0.00    -0.248 NA
ATOM     59  C   UNL A   1      46.950  36.632  29.196  1.00  0.00     0.031 C 
ATOM     60  C   UNL A   1      42.509  36.137  33.300  1.00  0.00     0.029 A 
ATOM     61  C   UNL A   1      43.396  35.858  32.273  1.00  0.00     0.049 A 
ATOM     62  H   UNL A   1      43.449  34.196  30.978  1.00  0.00     0.167 HD
ATOM     63  C   UNL A   1      45.313  36.315  30.767  1.00  0.00     0.074 A 
ATOM     64  C   UNL A   1      46.390  37.151  30.280  1.00  0.00     0.031 C 
ATOM     65  C   UNL A   1      44.509  36.645  31.809  1.00  0.00     0.034 A 
BRANCH  52  66
ATOM     66  C   UNL A   1      40.060  32.511  32.949  1.00  0.00     0.023 A 
ATOM     67  C   UNL A   1      40.233  31.547  33.964  1.00  0.00     0.012 A 
ATOM     68  C   UNL A   1      38.793  33.088  32.749  1.00  0.00     0.148 A 
ATOM     69  C   UNL A   1      39.154  31.143  34.750  1.00  0.00     0.002 A 
ATOM     70  C   UNL A   1      37.733  32.713  33.566  1.00  0.00     0.091 A 
ATOM     71  F   UNL A   1      38.645  33.977  31.757  1.00  0.00    -0.205 F 
ATOM     72  C   UNL A   1      37.909  31.733  34.558  1.00  0.00     0.022 A 
BRANCH  70  73
ATOM     73  S   UNL A   1      36.107  33.466  33.450  1.00  0.00     0.127 S 
ATOM     74  O   UNL A   1      35.513  33.083  34.730  1.00  0.00    -0.237 OA
ATOM     75  O   UNL A   1      36.437  34.886  33.330  1.00  0.00    -0.237 OA
ATOM     76  O   UNL A   1      35.477  32.885  32.273  1.00  0.00    -0.744 OA
ENDBRANCH  70  73
ENDBRANCH  52  66
BRANCH  53  77
ATOM     77  C   UNL A   1      47.847  34.791  27.098  1.00  0.00     0.023 A 
ATOM     78  C   UNL A   1      47.594  35.438  25.872  1.00  0.00     0.012 A 
ATOM     79  C   UNL A   1      49.178  34.491  27.449  1.00  0.00     0.148 A 
ATOM     80  C   UNL A   1      48.639  35.743  24.997  1.00  0.00     0.002 A 
ATOM     81  C   UNL A   1      50.219  34.848  26.600  1.00  0.00     0.091 A 
ATOM     82  F   UNL A   1      49.400  33.852  28.606  1.00  0.00    -0.205 F 
ATOM     83  C   UNL A   1      49.951  35.457  25.364  1.00  0.00     0.022 A 
BRANCH  81  84
ATOM     84  S   UNL A   1      51.943  34.630  27.049  1.00  0.00     0.127 S 
ATOM     85  O   UNL A   1      52.190  33.252  26.629  1.00  0.00    -0.237 OA
ATOM     86  O   UNL A   1      52.599  35.652  26.233  1.00  0.00    -0.237 OA
ATOM     87  O   UNL A   1      52.007  34.878  28.483  1.00  0.00    -0.744 OA
ENDBRANCH  81  84
ENDBRANCH  53  77
BRANCH  65  88
ATOM     88  C   UNL A   1      44.789  37.940  32.529  1.00  0.00     0.023 A 
ATOM     89  C   UNL A   1      45.795  37.996  33.513  1.00  0.00     0.012 A 
ATOM     90  C   UNL A   1      44.103  39.119  32.172  1.00  0.00     0.148 A 
ATOM     91  C   UNL A   1      46.085  39.196  34.161  1.00  0.00     0.002 A 
ATOM     92  C   UNL A   1      44.434  40.321  32.786  1.00  0.00     0.091 A 
ATOM     93  F   UNL A   1      43.140  39.043  31.243  1.00  0.00    -0.205 F 
ATOM     94  C   UNL A   1      45.414  40.359  33.790  1.00  0.00     0.022 A 
BRANCH  92  95
ATOM     95  S   UNL A   1      43.693  41.884  32.300  1.00  0.00     0.127 S 
ATOM     96  O   UNL A   1      42.286  41.661  32.631  1.00  0.00    -0.237 OA
ATOM     97  O   UNL A   1      44.380  42.839  33.170  1.00  0.00    -0.237 OA
ATOM     98  O   UNL A   1      43.985  42.041  30.881  1.00  0.00    -0.744 OA
ENDBRANCH  92  95
ENDBRANCH  65  88
ENDBRANCH  39  40
ENDBRANCH  32  34
ENDBRANCH  31  32
ENDBRANCH  30  31
ENDBRANCH  29  30
ENDBRANCH  28  29
ENDBRANCH  27  28
ENDBRANCH  26  27
ENDBRANCH   1  26
TORSDOF 26
ENDMDL
MODEL 2
REMARK VINA RESULT:      -7.9      6.081     11.726
REMARK SMILES O=C(/C=C/c1ccccc1Oc1cccc(Cl)c1)OCCOCCOCCOCCOC(=O)c1ccc(-c2c3nc(c(-c4cccc(S(=O)(=O)[O-])c4F)c4ccc([nH]4)c(-c4cccc(S(=O)(=O)[O-])c4F)c4nc(c(-c5cccc(S(=O)(=O)[O-])c5F)c5ccc2[nH]5)C=C4)C=C3)cc1
REMARK SMILES IDX 25 1 24 2 23 3 22 4 21 5 20 6 19 7 2 8 1 9 3 10 4 11 5 12
REMARK SMILES IDX 6 13 10 14 7 15 9 16 8 17 11 18 12 19 13 20 18 21 14 22
REMARK SMILES IDX 16 23 15 24 17 25 26 26 27 27 28 28 29 29 30 30 31 31 32 32
REMARK SMILES IDX 33 33 34 34 35 35 96 36 36 37 95 38 37 39 38 40 39 41 89 42
REMARK SMILES IDX 40 43 94 44 88 45 90 46 41 47 93 48 87 49 86 50 42 52 74 53
REMARK SMILES IDX 54 54 73 55 55 56 58 57 72 58 91 59 56 60 57 61 71 63 92 64
REMARK SMILES IDX 59 65 43 66 44 67 52 68 45 69 47 70 53 71 46 72 48 73 49 74
REMARK SMILES IDX 50 75 51 76 75 77 76 78 84 79 77 80 79 81 85 82 78 83 80 84
REMARK SMILES IDX 81 85 82 86 83 87 60 88 61 89 69 90 62 91 64 92 70 93 63 94
REMARK SMILES IDX 65 95 66 96 67 97 68 98
REMARK H PARENT 90 51 58 62
REMARK Flexibility Score: inf
ROOT
ATOM      1  O   UNL A   1      31.369  28.968  25.836  1.00  0.00    -0.377 OA
ENDROOT
BRANCH   1   2
ATOM      2  C   UNL A   1      31.536  27.775  26.581  1.00  0.00     0.188 C 
BRANCH   2   3
ATOM      3  C   UNL A   1      31.284  26.434  25.886  1.00  0.00     0.188 C 
BRANCH   3   4
ATOM      4  O   UNL A   1      30.170  26.137  25.049  1.00  0.00    -0.376 OA
BRANCH   4   5
ATOM      5  C   UNL A   1      29.899  26.509  23.711  1.00  0.00     0.202 C 
BRANCH   5   6
ATOM      6  C   UNL A   1      30.841  27.307  22.816  1.00  0.00     0.261 C 
BRANCH   6   7
ATOM      7  O   UNL A   1      31.553  26.619  21.796  1.00  0.00    -0.460 OA
BRANCH   7   8
ATOM      8  C   UNL A   1      32.681  25.909  21.942  1.00  0.00     0.330 C 
ATOM      9  O   UNL A   1      33.750  26.398  21.581  1.00  0.00    -0.247 OA
BRANCH   8  10
ATOM     10  C   UNL A   1      32.645  24.479  22.307  1.00  0.00     0.094 C 
ATOM     11  C   UNL A   1      33.441  23.748  23.098  1.00  0.00     0.019 C 
BRANCH  11  12
ATOM     12  C   UNL A   1      33.141  22.329  23.344  1.00  0.00     0.017 A 
ATOM     13  C   UNL A   1      32.419  21.683  22.315  1.00  0.00     0.012 A 
ATOM     14  C   UNL A   1      33.493  21.589  24.489  1.00  0.00     0.134 A 
ATOM     15  C   UNL A   1      32.013  20.353  22.426  1.00  0.00     0.001 A 
ATOM     16  C   UNL A   1      33.070  20.249  24.583  1.00  0.00     0.048 A 
ATOM     17  C   UNL A   1      32.330  19.637  23.569  1.00  0.00     0.004 A 
BRANCH  14  18
ATOM     18  O   UNL A   1      34.193  21.981  25.621  1.00  0.00    -0.457 OA
BRANCH  18  19
ATOM     19  C   UNL A   1      35.556  22.114  25.592  1.00  0.00     0.128 A 
ATOM     20  C   UNL A   1      36.131  23.357  25.871  1.00  0.00     0.047 A 
ATOM     21  C   UNL A   1      36.354  21.016  25.262  1.00  0.00     0.067 A 
ATOM     22  C   UNL A   1      37.522  23.478  25.909  1.00  0.00     0.005 A 
ATOM     23  C   UNL A   1      37.739  21.137  25.343  1.00  0.00     0.044 A 
ATOM     24  C   UNL A   1      38.327  22.361  25.660  1.00  0.00     0.021 A 
ATOM     25  Cl  UNL A   1      38.720  19.736  25.165  1.00  0.00    -0.084 Cl
ENDBRANCH  18  19
ENDBRANCH  14  18
ENDBRANCH  11  12
ENDBRANCH   8  10
ENDBRANCH   7   8
ENDBRANCH   6   7
ENDBRANCH   5   6
ENDBRANCH   4   5
ENDBRANCH   3   4
ENDBRANCH   2   3
ENDBRANCH   1   2
BRANCH   1  26
ATOM     26  C   UNL A   1      32.568  29.697  25.661  1.00  0.00     0.188 C 
BRANCH  26  27
ATOM     27  C   UNL A   1      32.960  30.486  26.928  1.00  0.00     0.188 C 
BRANCH  27  28
ATOM     28  O   UNL A   1      34.357  30.726  27.013  1.00  0.00    -0.376 OA
BRANCH  28  29
ATOM     29  C   UNL A   1      34.816  31.742  27.894  1.00  0.00     0.202 C 
BRANCH  29  30
ATOM     30  C   UNL A   1      34.018  33.040  28.135  1.00  0.00     0.261 C 
BRANCH  30  31
ATOM     31  O   UNL A   1      33.379  33.213  29.409  1.00  0.00    -0.460 OA
BRANCH  31  32
ATOM     32  C   UNL A   1      33.821  34.176  30.243  1.00  0.00     0.338 C 
ATOM     33  O   UNL A   1      33.194  35.147  30.631  1.00  0.00    -0.246 OA
BRANCH  32  34
ATOM     34  C   UNL A   1      35.095  33.681  30.836  1.00  0.00     0.060 A 
ATOM     35  C   UNL A   1      35.062  32.479  31.561  1.00  0.00     0.016 A 
ATOM     36  C   UNL A   1      36.324  34.296  30.559  1.00  0.00     0.016 A 
ATOM     37  C   UNL A   1      36.244  31.912  32.038  1.00  0.00     0.010 A 
ATOM     38  C   UNL A   1      37.507  33.746  31.068  1.00  0.00     0.010 A 
ATOM     39  C   UNL A   1      37.463  32.577  31.849  1.00  0.00    -0.014 A 
BRANCH  39  40
ATOM     40  C   UNL A   1      38.587  32.244  32.759  1.00  0.00     0.031 A 
ATOM     41  C   UNL A   1      39.676  31.372  32.188  1.00  0.00     0.074 A 
ATOM     42  C   UNL A   1      38.686  32.721  34.012  1.00  0.00     0.049 A 
ATOM     43  N   UNL A   1      40.788  30.959  32.734  1.00  0.00    -0.248 NA
ATOM     44  C   UNL A   1      39.483  30.910  30.800  1.00  0.00     0.031 C 
ATOM     45  C   UNL A   1      37.709  33.579  34.679  1.00  0.00     0.029 A 
ATOM     46  N   UNL A   1      39.666  32.530  34.956  1.00  0.00    -0.354 N 
ATOM     47  C   UNL A   1      41.419  30.190  31.764  1.00  0.00     0.074 A 
ATOM     48  C   UNL A   1      40.559  30.168  30.604  1.00  0.00     0.031 C 
ATOM     49  C   UNL A   1      38.125  33.815  35.938  1.00  0.00     0.029 A 
ATOM     50  C   UNL A   1      39.388  33.115  36.170  1.00  0.00     0.049 A 
ATOM     51  H   UNL A   1      40.490  32.021  34.781  1.00  0.00     0.167 HD
ATOM     52  C   UNL A   1      42.620  29.572  31.816  1.00  0.00     0.034 A 
ATOM     53  C   UNL A   1      40.073  33.071  37.333  1.00  0.00     0.034 A 
ATOM     54  C   UNL A   1      43.473  29.582  32.969  1.00  0.00     0.049 A 
ATOM     55  C   UNL A   1      41.389  32.332  37.384  1.00  0.00     0.074 A 
ATOM     56  C   UNL A   1      44.710  28.985  33.127  1.00  0.00     0.029 A 
ATOM     57  N   UNL A   1      43.170  30.210  34.166  1.00  0.00    -0.354 N 
ATOM     58  N   UNL A   1      42.024  31.700  36.425  1.00  0.00    -0.248 NA
ATOM     59  C   UNL A   1      42.104  32.333  38.670  1.00  0.00     0.031 C 
ATOM     60  C   UNL A   1      45.147  29.237  34.432  1.00  0.00     0.029 A 
ATOM     61  C   UNL A   1      44.197  30.016  35.071  1.00  0.00     0.049 A 
ATOM     62  H   UNL A   1      42.347  30.719  34.345  1.00  0.00     0.167 HD
ATOM     63  C   UNL A   1      43.224  31.265  36.980  1.00  0.00     0.074 A 
ATOM     64  C   UNL A   1      43.240  31.727  38.352  1.00  0.00     0.031 C 
ATOM     65  C   UNL A   1      44.218  30.535  36.414  1.00  0.00     0.034 A 
BRANCH  52  66
ATOM     66  C   UNL A   1      43.081  28.856  30.576  1.00  0.00     0.023 A 
ATOM     67  C   UNL A   1      42.877  27.466  30.463  1.00  0.00     0.012 A 
ATOM     68  C   UNL A   1      43.689  29.557  29.519  1.00  0.00     0.148 A 
ATOM     69  C   UNL A   1      43.299  26.777  29.326  1.00  0.00     0.002 A 
ATOM     70  C   UNL A   1      44.065  28.872  28.371  1.00  0.00     0.091 A 
ATOM     71  F   UNL A   1      43.901  30.873  29.663  1.00  0.00    -0.205 F 
ATOM     72  C   UNL A   1      43.882  27.482  28.277  1.00  0.00     0.022 A 
BRANCH  70  73
ATOM     73  S   UNL A   1      44.757  29.697  26.934  1.00  0.00     0.127 S 
ATOM     74  O   UNL A   1      44.937  28.578  26.009  1.00  0.00    -0.237 OA
ATOM     75  O   UNL A   1      43.685  30.623  26.569  1.00  0.00    -0.237 OA
ATOM     76  O   UNL A   1      45.985  30.334  27.386  1.00  0.00    -0.744 OA
ENDBRANCH  70  73
ENDBRANCH  52  66
BRANCH  53  77
ATOM     77  C   UNL A   1      39.544  33.756  38.549  1.00  0.00     0.023 A 
ATOM     78  C   UNL A   1      38.829  33.022  39.516  1.00  0.00     0.012 A 
ATOM     79  C   UNL A   1      39.724  35.140  38.738  1.00  0.00     0.148 A 
ATOM     80  C   UNL A   1      38.270  33.659  40.626  1.00  0.00     0.002 A 
ATOM     81  C   UNL A   1      39.214  35.759  39.874  1.00  0.00     0.091 A 
ATOM     82  F   UNL A   1      40.384  35.829  37.797  1.00  0.00    -0.205 F 
ATOM     83  C   UNL A   1      38.470  35.024  40.810  1.00  0.00     0.022 A 
BRANCH  81  84
ATOM     84  S   UNL A   1      39.531  37.486  40.251  1.00  0.00     0.127 S 
ATOM     85  O   UNL A   1      40.937  37.621  39.876  1.00  0.00    -0.237 OA
ATOM     86  O   UNL A   1      38.587  38.166  39.365  1.00  0.00    -0.237 OA
ATOM     87  O   UNL A   1      39.235  37.636  41.669  1.00  0.00    -0.744 OA
ENDBRANCH  81  84
ENDBRANCH  53  77
BRANCH  65  88
ATOM     88  C   UNL A   1      45.431  30.229  37.256  1.00  0.00     0.023 A 
ATOM     89  C   UNL A   1      46.473  31.172  37.358  1.00  0.00     0.012 A 
ATOM     90  C   UNL A   1      45.500  29.037  38.004  1.00  0.00     0.148 A 
ATOM     91  C   UNL A   1      47.584  30.914  38.161  1.00  0.00     0.002 A 
ATOM     92  C   UNL A   1      46.586  28.811  38.842  1.00  0.00     0.091 A 
ATOM     93  F   UNL A   1      44.505  28.146  37.884  1.00  0.00    -0.205 F 
ATOM     94  C   UNL A   1      47.635  29.740  38.910  1.00  0.00     0.022 A 
BRANCH  92  95
ATOM     95  S   UNL A   1      46.686  27.376  39.918  1.00  0.00     0.127 S 
ATOM     96  O   UNL A   1      46.777  26.284  38.950  1.00  0.00    -0.237 OA
ATOM     97  O   UNL A   1      47.918  27.632  40.666  1.00  0.00    -0.237 OA
ATOM     98  O   UNL A   1      45.474  27.397  40.727  1.00  0.00    -0.744 OA
ENDBRANCH  92  95
ENDBRANCH  65  88
ENDBRANCH  39  40
ENDBRANCH  32  34
ENDBRANCH  31  32
ENDBRANCH  30  31
ENDBRANCH  29  30
ENDBRANCH  28  29
ENDBRANCH  27  28
ENDBRANCH  26  27
ENDBRANCH   1  26
TORSDOF 26
ENDMDL
MODEL 3
REMARK VINA RESULT:      -7.7      6.830     12.618
REMARK SMILES O=C(/C=C/c1ccccc1Oc1cccc(Cl)c1)OCCOCCOCCOCCOC(=O)c1ccc(-c2c3nc(c(-c4cccc(S(=O)(=O)[O-])c4F)c4ccc([nH]4)c(-c4cccc(S(=O)(=O)[O-])c4F)c4nc(c(-c5cccc(S(=O)(=O)[O-])c5F)c5ccc2[nH]5)C=C4)C=C3)cc1
REMARK SMILES IDX 25 1 24 2 23 3 22 4 21 5 20 6 19 7 2 8 1 9 3 10 4 11 5 12
REMARK SMILES IDX 6 13 10 14 7 15 9 16 8 17 11 18 12 19 13 20 18 21 14 22
REMARK SMILES IDX 16 23 15 24 17 25 26 26 27 27 28 28 29 29 30 30 31 31 32 32
REMARK SMILES IDX 33 33 34 34 35 35 96 36 36 37 95 38 37 39 38 40 39 41 89 42
REMARK SMILES IDX 40 43 94 44 88 45 90 46 41 47 93 48 87 49 86 50 42 52 74 53
REMARK SMILES IDX 54 54 73 55 55 56 58 57 72 58 91 59 56 60 57 61 71 63 92 64
REMARK SMILES IDX 59 65 43 66 44 67 52 68 45 69 47 70 53 71 46 72 48 73 49 74
REMARK SMILES IDX 50 75 51 76 75 77 76 78 84 79 77 80 79 81 85 82 78 83 80 84
REMARK SMILES IDX 81 85 82 86 83 87 60 88 61 89 69 90 62 91 64 92 70 93 63 94
REMARK SMILES IDX 65 95 66 96 67 97 68 98
REMARK H PARENT 90 51 58 62
REMARK Flexibility Score: inf
ROOT
ATOM      1  O   UNL A   1      32.558  34.930  29.472  1.00  0.00    -0.377 OA
ENDROOT
BRANCH   1   2
ATOM      2  C   UNL A   1      33.612  34.563  28.599  1.00  0.00     0.188 C 
BRANCH   2   3
ATOM      3  C   UNL A   1      33.628  33.144  28.025  1.00  0.00     0.188 C 
BRANCH   3   4
ATOM      4  O   UNL A   1      34.777  32.306  27.934  1.00  0.00    -0.376 OA
BRANCH   4   5
ATOM      5  C   UNL A   1      34.900  30.950  27.546  1.00  0.00     0.202 C 
BRANCH   5   6
ATOM      6  C   UNL A   1      33.817  30.141  26.840  1.00  0.00     0.261 C 
BRANCH   6   7
ATOM      7  O   UNL A   1      34.200  28.973  26.126  1.00  0.00    -0.460 OA
BRANCH   7   8
ATOM      8  C   UNL A   1      33.416  27.934  25.803  1.00  0.00     0.330 C 
ATOM      9  O   UNL A   1      32.214  27.988  26.057  1.00  0.00    -0.247 OA
BRANCH   8  10
ATOM     10  C   UNL A   1      33.991  26.646  25.366  1.00  0.00     0.094 C 
ATOM     11  C   UNL A   1      34.118  25.475  26.001  1.00  0.00     0.019 C 
BRANCH  11  12
ATOM     12  C   UNL A   1      34.684  24.310  25.303  1.00  0.00     0.017 A 
ATOM     13  C   UNL A   1      36.058  24.081  25.542  1.00  0.00     0.012 A 
ATOM     14  C   UNL A   1      33.994  23.440  24.437  1.00  0.00     0.134 A 
ATOM     15  C   UNL A   1      36.751  23.048  24.910  1.00  0.00     0.001 A 
ATOM     16  C   UNL A   1      34.713  22.406  23.806  1.00  0.00     0.048 A 
ATOM     17  C   UNL A   1      36.079  22.215  24.030  1.00  0.00     0.004 A 
BRANCH  14  18
ATOM     18  O   UNL A   1      32.663  23.445  24.046  1.00  0.00    -0.457 OA
BRANCH  18  19
ATOM     19  C   UNL A   1      32.113  24.544  23.443  1.00  0.00     0.128 A 
ATOM     20  C   UNL A   1      32.732  25.091  22.316  1.00  0.00     0.047 A 
ATOM     21  C   UNL A   1      30.957  25.122  23.972  1.00  0.00     0.067 A 
ATOM     22  C   UNL A   1      32.136  26.171  21.659  1.00  0.00     0.005 A 
ATOM     23  C   UNL A   1      30.348  26.170  23.288  1.00  0.00     0.044 A 
ATOM     24  C   UNL A   1      30.933  26.700  22.138  1.00  0.00     0.021 A 
ATOM     25  Cl  UNL A   1      28.807  26.733  23.803  1.00  0.00    -0.084 Cl
ENDBRANCH  18  19
ENDBRANCH  14  18
ENDBRANCH  11  12
ENDBRANCH   8  10
ENDBRANCH   7   8
ENDBRANCH   6   7
ENDBRANCH   5   6
ENDBRANCH   4   5
ENDBRANCH   3   4
ENDBRANCH   2   3
ENDBRANCH   1   2
BRANCH   1  26
ATOM     26  C   UNL A   1      33.004  35.484  30.694  1.00  0.00     0.188 C 
BRANCH  26  27
ATOM     27  C   UNL A   1      34.296  34.810  31.202  1.00  0.00     0.188 C 
BRANCH  27  28
ATOM     28  O   UNL A   1      34.039  33.700  32.049  1.00  0.00    -0.376 OA
BRANCH  28  29
ATOM     29  C   UNL A   1      34.566  32.433  31.681  1.00  0.00     0.202 C 
BRANCH  29  30
ATOM     30  C   UNL A   1      36.023  32.258  31.204  1.00  0.00     0.261 C 
BRANCH  30  31
ATOM     31  O   UNL A   1      36.825  31.250  31.838  1.00  0.00    -0.460 OA
BRANCH  31  32
ATOM     32  C   UNL A   1      37.028  30.076  31.207  1.00  0.00     0.338 C 
ATOM     33  O   UNL A   1      36.440  29.669  30.220  1.00  0.00    -0.246 OA
BRANCH  32  34
ATOM     34  C   UNL A   1      38.295  29.509  31.748  1.00  0.00     0.060 A 
ATOM     35  C   UNL A   1      39.328  30.401  32.079  1.00  0.00     0.016 A 
ATOM     36  C   UNL A   1      38.416  28.151  32.071  1.00  0.00     0.016 A 
ATOM     37  C   UNL A   1      40.490  29.935  32.697  1.00  0.00     0.010 A 
ATOM     38  C   UNL A   1      39.596  27.677  32.657  1.00  0.00     0.010 A 
ATOM     39  C   UNL A   1      40.655  28.563  32.928  1.00  0.00    -0.014 A 
BRANCH  39  40
ATOM     40  C   UNL A   1      42.035  28.047  33.104  1.00  0.00     0.031 A 
ATOM     41  C   UNL A   1      42.773  27.664  31.846  1.00  0.00     0.074 A 
ATOM     42  C   UNL A   1      42.642  27.962  34.301  1.00  0.00     0.049 A 
ATOM     43  N   UNL A   1      43.994  27.226  31.695  1.00  0.00    -0.248 NA
ATOM     44  C   UNL A   1      42.026  27.804  30.581  1.00  0.00     0.031 C 
ATOM     45  C   UNL A   1      42.044  28.309  35.588  1.00  0.00     0.029 A 
ATOM     46  N   UNL A   1      43.908  27.537  34.621  1.00  0.00    -0.354 N 
ATOM     47  C   UNL A   1      44.157  27.036  30.329  1.00  0.00     0.074 A 
ATOM     48  C   UNL A   1      42.906  27.378  29.692  1.00  0.00     0.031 C 
ATOM     49  C   UNL A   1      42.935  28.052  36.564  1.00  0.00     0.029 A 
ATOM     50  C   UNL A   1      44.159  27.512  35.973  1.00  0.00     0.049 A 
ATOM     51  H   UNL A   1      44.575  27.274  33.946  1.00  0.00     0.167 HD
ATOM     52  C   UNL A   1      45.255  26.635  29.651  1.00  0.00     0.034 A 
ATOM     53  C   UNL A   1      45.248  27.083  36.648  1.00  0.00     0.034 A 
ATOM     54  C   UNL A   1      46.497  26.284  30.278  1.00  0.00     0.049 A 
ATOM     55  C   UNL A   1      46.447  26.592  35.872  1.00  0.00     0.074 A 
ATOM     56  C   UNL A   1      47.671  25.863  29.682  1.00  0.00     0.029 A 
ATOM     57  N   UNL A   1      46.719  26.300  31.645  1.00  0.00    -0.354 N 
ATOM     58  N   UNL A   1      46.623  26.521  34.574  1.00  0.00    -0.248 NA
ATOM     59  C   UNL A   1      47.614  26.157  36.655  1.00  0.00     0.031 C 
ATOM     60  C   UNL A   1      48.600  25.605  30.695  1.00  0.00     0.029 A 
ATOM     61  C   UNL A   1      48.013  25.896  31.915  1.00  0.00     0.049 A 
ATOM     62  H   UNL A   1      46.055  26.561  32.323  1.00  0.00     0.167 HD
ATOM     63  C   UNL A   1      47.928  26.072  34.388  1.00  0.00     0.074 A 
ATOM     64  C   UNL A   1      48.506  25.912  35.705  1.00  0.00     0.031 C 
ATOM     65  C   UNL A   1      48.586  25.801  33.233  1.00  0.00     0.034 A 
BRANCH  52  66
ATOM     66  C   UNL A   1      45.158  26.582  28.151  1.00  0.00     0.023 A 
ATOM     67  C   UNL A   1      45.311  27.768  27.404  1.00  0.00     0.012 A 
ATOM     68  C   UNL A   1      44.942  25.364  27.482  1.00  0.00     0.148 A 
ATOM     69  C   UNL A   1      45.221  27.747  26.012  1.00  0.00     0.002 A 
ATOM     70  C   UNL A   1      44.898  25.344  26.093  1.00  0.00     0.091 A 
ATOM     71  F   UNL A   1      44.767  24.255  28.214  1.00  0.00    -0.205 F 
ATOM     72  C   UNL A   1      45.026  26.534  25.358  1.00  0.00     0.022 A 
BRANCH  70  73
ATOM     73  S   UNL A   1      44.726  23.825  25.151  1.00  0.00     0.127 S 
ATOM     74  O   UNL A   1      44.966  22.812  26.179  1.00  0.00    -0.237 OA
ATOM     75  O   UNL A   1      43.340  23.908  24.689  1.00  0.00    -0.237 OA
ATOM     76  O   UNL A   1      45.726  23.889  24.095  1.00  0.00    -0.744 OA
ENDBRANCH  70  73
ENDBRANCH  52  66
BRANCH  53  77
ATOM     77  C   UNL A   1      45.273  27.110  38.140  1.00  0.00     0.023 A 
ATOM     78  C   UNL A   1      44.795  26.005  38.872  1.00  0.00     0.012 A 
ATOM     79  C   UNL A   1      45.745  28.239  38.838  1.00  0.00     0.148 A 
ATOM     80  C   UNL A   1      44.748  26.040  40.268  1.00  0.00     0.002 A 
ATOM     81  C   UNL A   1      45.749  28.245  40.228  1.00  0.00     0.091 A 
ATOM     82  F   UNL A   1      46.173  29.292  38.127  1.00  0.00    -0.205 F 
ATOM     83  C   UNL A   1      45.234  27.154  40.946  1.00  0.00     0.022 A 
BRANCH  81  84
ATOM     84  S   UNL A   1      46.470  29.586  41.180  1.00  0.00     0.127 S 
ATOM     85  O   UNL A   1      46.553  28.995  42.514  1.00  0.00    -0.237 OA
ATOM     86  O   UNL A   1      47.755  29.776  40.507  1.00  0.00    -0.237 OA
ATOM     87  O   UNL A   1      45.548  30.705  41.037  1.00  0.00    -0.744 OA
ENDBRANCH  81  84
ENDBRANCH  53  77
BRANCH  65  88
ATOM     88  C   UNL A   1      50.022  25.350  33.332  1.00  0.00     0.023 A 
ATOM     89  C   UNL A   1      51.056  26.303  33.401  1.00  0.00     0.012 A 
ATOM     90  C   UNL A   1      50.335  23.980  33.434  1.00  0.00     0.148 A 
ATOM     91  C   UNL A   1      52.385  25.898  33.527  1.00  0.00     0.002 A 
ATOM     92  C   UNL A   1      51.656  23.586  33.611  1.00  0.00     0.091 A 
ATOM     93  F   UNL A   1      49.338  23.086  33.353  1.00  0.00    -0.205 F 
ATOM     94  C   UNL A   1      52.684  24.542  33.644  1.00  0.00     0.022 A 
BRANCH  92  95
ATOM     95  S   UNL A   1      52.121  21.870  33.871  1.00  0.00     0.127 S 
ATOM     96  O   UNL A   1      51.254  21.492  34.985  1.00  0.00    -0.237 OA
ATOM     97  O   UNL A   1      51.772  21.255  32.590  1.00  0.00    -0.237 OA
ATOM     98  O   UNL A   1      53.549  21.883  34.165  1.00  0.00    -0.744 OA
ENDBRANCH  92  95
ENDBRANCH  65  88
ENDBRANCH  39  40
ENDBRANCH  32  34
ENDBRANCH  31  32
ENDBRANCH  30  31
ENDBRANCH  29  30
ENDBRANCH  28  29
ENDBRANCH  27  28
ENDBRANCH  26  27
ENDBRANCH   1  26
TORSDOF 26
ENDMDL
