MODEL 1
REMARK VINA RESULT:      -9.0      0.000      0.000
REMARK SMILES Cc1ccc(Cl)cc1NC(=O)N[C@@](C)(C(=O)OCCOCCOCCOCCOC(=O)c1ccc(-c2c3nc(c(-c4cccc(S(=O)(=O)[O-])c4F)c4ccc([nH]4)c(-c4cccc(S(=O)(=O)[O-])c4F)c4nc(c(-c5cccc(S(=O)(=O)[O-])c5F)c5ccc2[nH]5)C=C4)C=C3)cc1)C(F)(F)F
REMARK SMILES IDX 24 1 23 2 22 3 21 4 20 5 19 6 18 7 17 8 15 9 16 10 13 11
REMARK SMILES IDX 14 12 12 13 9 14 10 15 11 17 8 19 1 20 2 21 3 22 4 23 7 24
REMARK SMILES IDX 5 25 6 26 95 27 96 28 97 29 98 30 25 31 26 32 27 33 28 34
REMARK SMILES IDX 29 35 30 36 31 37 32 38 33 39 94 40 34 41 93 42 35 43 36 44
REMARK SMILES IDX 37 45 87 46 38 47 92 48 86 49 88 50 39 51 91 52 85 53 84 54
REMARK SMILES IDX 40 56 72 57 52 58 71 59 53 60 56 61 70 62 89 63 54 64 55 65
REMARK SMILES IDX 69 67 90 68 57 69 41 70 42 71 50 72 43 73 45 74 51 75 44 76
REMARK SMILES IDX 46 77 47 78 48 79 49 80 73 81 74 82 82 83 75 84 77 85 83 86
REMARK SMILES IDX 76 87 78 88 79 89 80 90 81 91 58 92 59 93 67 94 60 95 62 96
REMARK SMILES IDX 68 97 61 98 63 99 64 100 65 101 66 102
REMARK H PARENT 9 16 12 18 88 55 56 66
REMARK Flexibility Score: inf
ROOT
ATOM      1  C   UNL A   1      40.480  21.190  26.649  1.00  0.00     0.188 C 
ENDROOT
BRANCH   1   2
ATOM      2  O   UNL A   1      39.719  22.034  25.792  1.00  0.00    -0.377 OA
BRANCH   2   3
ATOM      3  C   UNL A   1      38.304  21.967  25.827  1.00  0.00     0.188 C 
BRANCH   3   4
ATOM      4  C   UNL A   1      37.497  23.278  25.817  1.00  0.00     0.188 C 
BRANCH   4   5
ATOM      5  O   UNL A   1      36.257  23.216  26.491  1.00  0.00    -0.376 OA
BRANCH   5   6
ATOM      6  C   UNL A   1      35.057  23.460  25.778  1.00  0.00     0.202 C 
BRANCH   6   7
ATOM      7  C   UNL A   1      34.956  24.469  24.613  1.00  0.00     0.261 C 
BRANCH   7   8
ATOM      8  O   UNL A   1      33.688  25.137  24.473  1.00  0.00    -0.461 OA
BRANCH   8   9
ATOM      9  C   UNL A   1      32.922  24.718  23.433  1.00  0.00     0.341 C 
ATOM     10  O   UNL A   1      33.257  24.872  22.261  1.00  0.00    -0.249 OA
BRANCH   9  11
ATOM     11  C   UNL A   1      31.815  23.717  23.861  1.00  0.00     0.232 C 
ATOM     12  C   UNL A   1      30.558  24.235  23.142  1.00  0.00     0.058 C 
BRANCH  11  13
ATOM     13  N   UNL A   1      31.419  23.642  25.319  1.00  0.00    -0.314 N 
ATOM     14  N   UNL A   1      31.284  25.760  26.514  1.00  0.00    -0.308 N 
ATOM     15  C   UNL A   1      31.369  24.423  26.408  1.00  0.00     0.320 C 
ATOM     16  H   UNL A   1      31.235  26.035  27.458  1.00  0.00     0.171 HD
ATOM     17  O   UNL A   1      31.278  23.819  27.487  1.00  0.00    -0.248 OA
ATOM     18  H   UNL A   1      31.097  22.737  25.536  1.00  0.00     0.166 HD
BRANCH  14  19
ATOM     19  C   UNL A   1      31.246  26.876  25.665  1.00  0.00     0.047 A 
ATOM     20  C   UNL A   1      33.506  27.762  26.551  1.00  0.00     0.046 C 
ATOM     21  C   UNL A   1      32.200  27.909  25.815  1.00  0.00    -0.027 A 
ATOM     22  C   UNL A   1      31.977  29.144  25.177  1.00  0.00     0.007 A 
ATOM     23  C   UNL A   1      30.926  29.301  24.283  1.00  0.00     0.021 A 
ATOM     24  C   UNL A   1      30.319  26.981  24.634  1.00  0.00     0.047 A 
ATOM     25  C   UNL A   1      30.166  28.190  23.942  1.00  0.00     0.043 A 
ATOM     26  Cl  UNL A   1      28.985  28.333  22.695  1.00  0.00    -0.084 Cl
ENDBRANCH  14  19
ENDBRANCH  11  13
BRANCH  11  27
ATOM     27  C   UNL A   1      32.458  22.446  23.258  1.00  0.00     0.422 C 
ATOM     28  F   UNL A   1      32.829  21.566  24.218  1.00  0.00    -0.168 F 
ATOM     29  F   UNL A   1      31.617  21.831  22.405  1.00  0.00    -0.168 F 
ATOM     30  F   UNL A   1      33.587  22.640  22.531  1.00  0.00    -0.168 F 
ENDBRANCH  11  27
ENDBRANCH   9  11
ENDBRANCH   8   9
ENDBRANCH   7   8
ENDBRANCH   6   7
ENDBRANCH   5   6
ENDBRANCH   4   5
ENDBRANCH   3   4
ENDBRANCH   2   3
ENDBRANCH   1   2
BRANCH   1  31
ATOM     31  C   UNL A   1      41.283  19.993  26.087  1.00  0.00     0.188 C 
BRANCH  31  32
ATOM     32  O   UNL A   1      42.639  19.925  26.492  1.00  0.00    -0.376 OA
BRANCH  32  33
ATOM     33  C   UNL A   1      43.632  19.808  25.486  1.00  0.00     0.202 C 
BRANCH  33  34
ATOM     34  C   UNL A   1      44.831  20.771  25.515  1.00  0.00     0.261 C 
BRANCH  34  35
ATOM     35  O   UNL A   1      45.324  21.226  24.248  1.00  0.00    -0.460 OA
BRANCH  35  36
ATOM     36  C   UNL A   1      44.736  22.305  23.690  1.00  0.00     0.338 C 
ATOM     37  O   UNL A   1      44.147  22.350  22.622  1.00  0.00    -0.246 OA
BRANCH  36  38
ATOM     38  C   UNL A   1      44.730  23.376  24.710  1.00  0.00     0.060 A 
ATOM     39  C   UNL A   1      45.955  23.866  25.189  1.00  0.00     0.016 A 
ATOM     40  C   UNL A   1      43.527  23.938  25.144  1.00  0.00     0.016 A 
ATOM     41  C   UNL A   1      45.978  24.900  26.122  1.00  0.00     0.010 A 
ATOM     42  C   UNL A   1      43.550  24.947  26.108  1.00  0.00     0.010 A 
ATOM     43  C   UNL A   1      44.775  25.408  26.625  1.00  0.00    -0.014 A 
BRANCH  43  44
ATOM     44  C   UNL A   1      44.796  26.220  27.864  1.00  0.00     0.031 A 
ATOM     45  C   UNL A   1      44.936  27.711  27.714  1.00  0.00     0.074 A 
ATOM     46  C   UNL A   1      44.692  25.662  29.083  1.00  0.00     0.049 A 
ATOM     47  N   UNL A   1      45.027  28.630  28.635  1.00  0.00    -0.248 NA
ATOM     48  C   UNL A   1      44.983  28.232  26.335  1.00  0.00     0.031 C 
ATOM     49  C   UNL A   1      44.537  24.235  29.355  1.00  0.00     0.029 A 
ATOM     50  N   UNL A   1      44.734  26.241  30.328  1.00  0.00    -0.354 N 
ATOM     51  C   UNL A   1      45.181  29.830  27.952  1.00  0.00     0.074 A 
ATOM     52  C   UNL A   1      45.168  29.526  26.540  1.00  0.00     0.031 C 
ATOM     53  C   UNL A   1      44.541  24.043  30.686  1.00  0.00     0.029 A 
ATOM     54  C   UNL A   1      44.728  25.329  31.358  1.00  0.00     0.049 A 
ATOM     55  H   UNL A   1      44.767  27.214  30.470  1.00  0.00     0.167 HD
ATOM     56  C   UNL A   1      45.319  31.078  28.457  1.00  0.00     0.034 A 
ATOM     57  C   UNL A   1      44.893  25.513  32.684  1.00  0.00     0.034 A 
ATOM     58  C   UNL A   1      45.317  31.380  29.860  1.00  0.00     0.049 A 
ATOM     59  C   UNL A   1      45.067  26.914  33.218  1.00  0.00     0.074 A 
ATOM     60  C   UNL A   1      45.392  32.620  30.469  1.00  0.00     0.029 A 
ATOM     61  N   UNL A   1      45.259  30.437  30.872  1.00  0.00    -0.354 N 
ATOM     62  N   UNL A   1      45.084  28.052  32.565  1.00  0.00    -0.248 NA
ATOM     63  C   UNL A   1      45.212  27.061  34.674  1.00  0.00     0.031 C 
ATOM     64  C   UNL A   1      45.426  32.423  31.851  1.00  0.00     0.029 A 
ATOM     65  C   UNL A   1      45.318  31.065  32.103  1.00  0.00     0.049 A 
ATOM     66  H   UNL A   1      45.188  29.465  30.736  1.00  0.00     0.167 HD
ATOM     67  C   UNL A   1      45.200  29.046  33.532  1.00  0.00     0.074 A 
ATOM     68  C   UNL A   1      45.228  28.379  34.816  1.00  0.00     0.031 C 
ATOM     69  C   UNL A   1      45.286  30.390  33.374  1.00  0.00     0.034 A 
BRANCH  56  70
ATOM     70  C   UNL A   1      45.488  32.215  27.489  1.00  0.00     0.023 A 
ATOM     71  C   UNL A   1      44.357  32.842  26.931  1.00  0.00     0.012 A 
ATOM     72  C   UNL A   1      46.773  32.714  27.200  1.00  0.00     0.148 A 
ATOM     73  C   UNL A   1      44.504  33.940  26.084  1.00  0.00     0.002 A 
ATOM     74  C   UNL A   1      46.908  33.836  26.395  1.00  0.00     0.091 A 
ATOM     75  F   UNL A   1      47.835  32.083  27.721  1.00  0.00    -0.205 F 
ATOM     76  C   UNL A   1      45.777  34.444  25.828  1.00  0.00     0.022 A 
BRANCH  74  77
ATOM     77  S   UNL A   1      48.496  34.612  26.076  1.00  0.00     0.127 S 
ATOM     78  O   UNL A   1      49.156  33.602  25.249  1.00  0.00    -0.237 OA
ATOM     79  O   UNL A   1      48.103  35.825  25.358  1.00  0.00    -0.237 OA
ATOM     80  O   UNL A   1      49.105  34.842  27.377  1.00  0.00    -0.744 OA
ENDBRANCH  74  77
ENDBRANCH  56  70
BRANCH  57  81
ATOM     81  C   UNL A   1      44.908  24.345  33.612  1.00  0.00     0.023 A 
ATOM     82  C   UNL A   1      43.697  23.755  34.024  1.00  0.00     0.012 A 
ATOM     83  C   UNL A   1      46.123  23.835  34.112  1.00  0.00     0.148 A 
ATOM     84  C   UNL A   1      43.692  22.711  34.951  1.00  0.00     0.002 A 
ATOM     85  C   UNL A   1      46.113  22.756  34.987  1.00  0.00     0.091 A 
ATOM     86  F   UNL A   1      47.264  24.422  33.727  1.00  0.00    -0.205 F 
ATOM     87  C   UNL A   1      44.899  22.206  35.425  1.00  0.00     0.022 A 
BRANCH  85  88
ATOM     88  S   UNL A   1      47.624  21.962  35.549  1.00  0.00     0.127 S 
ATOM     89  O   UNL A   1      47.113  20.724  36.130  1.00  0.00    -0.237 OA
ATOM     90  O   UNL A   1      48.361  21.798  34.295  1.00  0.00    -0.237 OA
ATOM     91  O   UNL A   1      48.233  22.897  36.485  1.00  0.00    -0.744 OA
ENDBRANCH  85  88
ENDBRANCH  57  81
BRANCH  69  92
ATOM     92  C   UNL A   1      45.353  31.246  34.613  1.00  0.00     0.023 A 
ATOM     93  C   UNL A   1      44.169  31.705  35.224  1.00  0.00     0.012 A 
ATOM     94  C   UNL A   1      46.596  31.522  35.218  1.00  0.00     0.148 A 
ATOM     95  C   UNL A   1      44.226  32.456  36.398  1.00  0.00     0.002 A 
ATOM     96  C   UNL A   1      46.640  32.222  36.417  1.00  0.00     0.091 A 
ATOM     97  F   UNL A   1      47.711  31.087  34.614  1.00  0.00    -0.205 F 
ATOM     98  C   UNL A   1      45.457  32.702  37.000  1.00  0.00     0.022 A 
BRANCH  96  99
ATOM     99  S   UNL A   1      48.170  32.497  37.317  1.00  0.00     0.127 S 
ATOM    100  O   UNL A   1      47.677  33.042  38.581  1.00  0.00    -0.237 OA
ATOM    101  O   UNL A   1      48.722  31.145  37.408  1.00  0.00    -0.237 OA
ATOM    102  O   UNL A   1      48.955  33.418  36.506  1.00  0.00    -0.744 OA
ENDBRANCH  96  99
ENDBRANCH  69  92
ENDBRANCH  43  44
ENDBRANCH  36  38
ENDBRANCH  35  36
ENDBRANCH  34  35
ENDBRANCH  33  34
ENDBRANCH  32  33
ENDBRANCH  31  32
ENDBRANCH   1  31
TORSDOF 26
ENDMDL
MODEL 2
REMARK VINA RESULT:      -8.4      2.269      3.124
REMARK SMILES Cc1ccc(Cl)cc1NC(=O)N[C@@](C)(C(=O)OCCOCCOCCOCCOC(=O)c1ccc(-c2c3nc(c(-c4cccc(S(=O)(=O)[O-])c4F)c4ccc([nH]4)c(-c4cccc(S(=O)(=O)[O-])c4F)c4nc(c(-c5cccc(S(=O)(=O)[O-])c5F)c5ccc2[nH]5)C=C4)C=C3)cc1)C(F)(F)F
REMARK SMILES IDX 24 1 23 2 22 3 21 4 20 5 19 6 18 7 17 8 15 9 16 10 13 11
REMARK SMILES IDX 14 12 12 13 9 14 10 15 11 17 8 19 1 20 2 21 3 22 4 23 7 24
REMARK SMILES IDX 5 25 6 26 95 27 96 28 97 29 98 30 25 31 26 32 27 33 28 34
REMARK SMILES IDX 29 35 30 36 31 37 32 38 33 39 94 40 34 41 93 42 35 43 36 44
REMARK SMILES IDX 37 45 87 46 38 47 92 48 86 49 88 50 39 51 91 52 85 53 84 54
REMARK SMILES IDX 40 56 72 57 52 58 71 59 53 60 56 61 70 62 89 63 54 64 55 65
REMARK SMILES IDX 69 67 90 68 57 69 41 70 42 71 50 72 43 73 45 74 51 75 44 76
REMARK SMILES IDX 46 77 47 78 48 79 49 80 73 81 74 82 82 83 75 84 77 85 83 86
REMARK SMILES IDX 76 87 78 88 79 89 80 90 81 91 58 92 59 93 67 94 60 95 62 96
REMARK SMILES IDX 68 97 61 98 63 99 64 100 65 101 66 102
REMARK H PARENT 9 16 12 18 88 55 56 66
REMARK Flexibility Score: inf
ROOT
ATOM      1  C   UNL A   1      38.510  21.743  26.057  1.00  0.00     0.188 C 
ENDROOT
BRANCH   1   2
ATOM      2  O   UNL A   1      37.974  22.541  25.007  1.00  0.00    -0.377 OA
BRANCH   2   3
ATOM      3  C   UNL A   1      36.848  22.074  24.283  1.00  0.00     0.188 C 
BRANCH   3   4
ATOM      4  C   UNL A   1      36.220  22.986  23.214  1.00  0.00     0.188 C 
BRANCH   4   5
ATOM      5  O   UNL A   1      35.467  24.067  23.726  1.00  0.00    -0.376 OA
BRANCH   5   6
ATOM      6  C   UNL A   1      34.207  24.376  23.157  1.00  0.00     0.202 C 
BRANCH   6   7
ATOM      7  C   UNL A   1      33.777  25.813  22.785  1.00  0.00     0.261 C 
BRANCH   7   8
ATOM      8  O   UNL A   1      33.486  26.685  23.893  1.00  0.00    -0.461 OA
BRANCH   8   9
ATOM      9  C   UNL A   1      32.179  26.741  24.260  1.00  0.00     0.341 C 
ATOM     10  O   UNL A   1      31.263  26.474  23.486  1.00  0.00    -0.249 OA
BRANCH   9  11
ATOM     11  C   UNL A   1      31.984  26.793  25.800  1.00  0.00     0.232 C 
ATOM     12  C   UNL A   1      33.056  25.828  26.335  1.00  0.00     0.058 C 
BRANCH  11  13
ATOM     13  N   UNL A   1      30.687  26.291  26.392  1.00  0.00    -0.314 N 
ATOM     14  N   UNL A   1      30.182  23.932  26.045  1.00  0.00    -0.308 N 
ATOM     15  C   UNL A   1      29.894  25.209  26.351  1.00  0.00     0.320 C 
ATOM     16  H   UNL A   1      29.384  23.361  26.136  1.00  0.00     0.171 HD
ATOM     17  O   UNL A   1      28.738  25.387  26.763  1.00  0.00    -0.248 OA
ATOM     18  H   UNL A   1      30.305  26.968  26.996  1.00  0.00     0.166 HD
BRANCH  14  19
ATOM     19  C   UNL A   1      31.292  23.181  25.634  1.00  0.00     0.047 A 
ATOM     20  C   UNL A   1      30.634  23.376  23.142  1.00  0.00     0.046 C 
ATOM     21  C   UNL A   1      31.402  22.767  24.286  1.00  0.00    -0.027 A 
ATOM     22  C   UNL A   1      32.342  21.774  23.950  1.00  0.00     0.007 A 
ATOM     23  C   UNL A   1      33.261  21.321  24.888  1.00  0.00     0.021 A 
ATOM     24  C   UNL A   1      32.328  22.865  26.505  1.00  0.00     0.047 A 
ATOM     25  C   UNL A   1      33.312  21.942  26.129  1.00  0.00     0.043 A 
ATOM     26  Cl  UNL A   1      34.570  21.517  27.228  1.00  0.00    -0.084 Cl
ENDBRANCH  14  19
ENDBRANCH  11  13
BRANCH  11  27
ATOM     27  C   UNL A   1      32.285  28.299  25.984  1.00  0.00     0.422 C 
ATOM     28  F   UNL A   1      31.710  28.793  27.106  1.00  0.00    -0.168 F 
ATOM     29  F   UNL A   1      33.610  28.531  26.034  1.00  0.00    -0.168 F 
ATOM     30  F   UNL A   1      31.841  29.118  24.996  1.00  0.00    -0.168 F 
ENDBRANCH  11  27
ENDBRANCH   9  11
ENDBRANCH   8   9
ENDBRANCH   7   8
ENDBRANCH   6   7
ENDBRANCH   5   6
ENDBRANCH   4   5
ENDBRANCH   3   4
ENDBRANCH   2   3
ENDBRANCH   1   2
BRANCH   1  31
ATOM     31  C   UNL A   1      39.697  20.783  25.807  1.00  0.00     0.188 C 
BRANCH  31  32
ATOM     32  O   UNL A   1      40.855  21.030  26.587  1.00  0.00    -0.376 OA
BRANCH  32  33
ATOM     33  C   UNL A   1      42.100  20.550  26.106  1.00  0.00     0.202 C 
BRANCH  33  34
ATOM     34  C   UNL A   1      43.246  21.553  25.892  1.00  0.00     0.261 C 
BRANCH  34  35
ATOM     35  O   UNL A   1      44.058  21.367  24.725  1.00  0.00    -0.460 OA
BRANCH  35  36
ATOM     36  C   UNL A   1      44.420  22.462  24.025  1.00  0.00     0.338 C 
ATOM     37  O   UNL A   1      44.438  22.584  22.810  1.00  0.00    -0.246 OA
BRANCH  36  38
ATOM     38  C   UNL A   1      44.573  23.570  24.993  1.00  0.00     0.060 A 
ATOM     39  C   UNL A   1      45.811  23.749  25.630  1.00  0.00     0.016 A 
ATOM     40  C   UNL A   1      43.524  24.463  25.221  1.00  0.00     0.016 A 
ATOM     41  C   UNL A   1      45.993  24.808  26.517  1.00  0.00     0.010 A 
ATOM     42  C   UNL A   1      43.696  25.500  26.141  1.00  0.00     0.010 A 
ATOM     43  C   UNL A   1      44.920  25.655  26.817  1.00  0.00    -0.014 A 
BRANCH  43  44
ATOM     44  C   UNL A   1      44.999  26.523  28.015  1.00  0.00     0.031 A 
ATOM     45  C   UNL A   1      45.310  27.979  27.797  1.00  0.00     0.074 A 
ATOM     46  C   UNL A   1      44.800  26.045  29.255  1.00  0.00     0.049 A 
ATOM     47  N   UNL A   1      45.478  28.930  28.675  1.00  0.00    -0.248 NA
ATOM     48  C   UNL A   1      45.452  28.419  26.397  1.00  0.00     0.031 C 
ATOM     49  C   UNL A   1      44.478  24.659  29.591  1.00  0.00     0.029 A 
ATOM     50  N   UNL A   1      44.873  26.679  30.472  1.00  0.00    -0.354 N 
ATOM     51  C   UNL A   1      45.785  30.068  27.939  1.00  0.00     0.074 A 
ATOM     52  C   UNL A   1      45.776  29.694  26.544  1.00  0.00     0.031 C 
ATOM     53  C   UNL A   1      44.424  24.538  30.930  1.00  0.00     0.029 A 
ATOM     54  C   UNL A   1      44.736  25.829  31.544  1.00  0.00     0.049 A 
ATOM     55  H   UNL A   1      45.011  27.649  30.567  1.00  0.00     0.167 HD
ATOM     56  C   UNL A   1      46.049  31.317  28.387  1.00  0.00     0.034 A 
ATOM     57  C   UNL A   1      44.884  26.062  32.864  1.00  0.00     0.034 A 
ATOM     58  C   UNL A   1      46.043  31.691  29.772  1.00  0.00     0.049 A 
ATOM     59  C   UNL A   1      45.201  27.462  33.334  1.00  0.00     0.074 A 
ATOM     60  C   UNL A   1      46.240  32.945  30.322  1.00  0.00     0.029 A 
ATOM     61  N   UNL A   1      45.851  30.814  30.827  1.00  0.00    -0.354 N 
ATOM     62  N   UNL A   1      45.364  28.555  32.628  1.00  0.00    -0.248 NA
ATOM     63  C   UNL A   1      45.322  27.667  34.786  1.00  0.00     0.031 C 
ATOM     64  C   UNL A   1      46.214  32.818  31.713  1.00  0.00     0.029 A 
ATOM     65  C   UNL A   1      45.947  31.495  32.027  1.00  0.00     0.049 A 
ATOM     66  H   UNL A   1      45.675  29.850  30.736  1.00  0.00     0.167 HD
ATOM     67  C   UNL A   1      45.564  29.579  33.549  1.00  0.00     0.074 A 
ATOM     68  C   UNL A   1      45.482  28.981  34.864  1.00  0.00     0.031 C 
ATOM     69  C   UNL A   1      45.805  30.895  33.327  1.00  0.00     0.034 A 
BRANCH  56  70
ATOM     70  C   UNL A   1      46.371  32.376  27.370  1.00  0.00     0.023 A 
ATOM     71  C   UNL A   1      45.334  33.108  26.758  1.00  0.00     0.012 A 
ATOM     72  C   UNL A   1      47.712  32.702  27.087  1.00  0.00     0.148 A 
ATOM     73  C   UNL A   1      45.627  34.136  25.865  1.00  0.00     0.002 A 
ATOM     74  C   UNL A   1      47.996  33.758  26.234  1.00  0.00     0.091 A 
ATOM     75  F   UNL A   1      48.680  31.973  27.661  1.00  0.00    -0.205 F 
ATOM     76  C   UNL A   1      46.956  34.470  25.613  1.00  0.00     0.022 A 
BRANCH  74  77
ATOM     77  S   UNL A   1      49.671  34.320  25.914  1.00  0.00     0.127 S 
ATOM     78  O   UNL A   1      50.276  33.124  25.329  1.00  0.00    -0.237 OA
ATOM     79  O   UNL A   1      49.449  35.415  24.968  1.00  0.00    -0.237 OA
ATOM     80  O   UNL A   1      50.216  34.725  27.201  1.00  0.00    -0.744 OA
ENDBRANCH  74  77
ENDBRANCH  56  70
BRANCH  57  81
ATOM     81  C   UNL A   1      44.743  24.950  33.849  1.00  0.00     0.023 A 
ATOM     82  C   UNL A   1      43.487  24.672  34.423  1.00  0.00     0.012 A 
ATOM     83  C   UNL A   1      45.860  24.185  34.240  1.00  0.00     0.148 A 
ATOM     84  C   UNL A   1      43.355  23.684  35.401  1.00  0.00     0.002 A 
ATOM     85  C   UNL A   1      45.709  23.163  35.169  1.00  0.00     0.091 A 
ATOM     86  F   UNL A   1      47.051  24.477  33.700  1.00  0.00    -0.205 F 
ATOM     87  C   UNL A   1      44.462  22.925  35.767  1.00  0.00     0.022 A 
BRANCH  85  88
ATOM     88  S   UNL A   1      47.053  22.055  35.604  1.00  0.00     0.127 S 
ATOM     89  O   UNL A   1      47.287  21.358  34.342  1.00  0.00    -0.237 OA
ATOM     90  O   UNL A   1      48.104  22.996  35.993  1.00  0.00    -0.237 OA
ATOM     91  O   UNL A   1      46.548  21.235  36.697  1.00  0.00    -0.744 OA
ENDBRANCH  85  88
ENDBRANCH  57  81
BRANCH  69  92
ATOM     92  C   UNL A   1      45.934  31.802  34.524  1.00  0.00     0.023 A 
ATOM     93  C   UNL A   1      47.201  32.058  35.087  1.00  0.00     0.012 A 
ATOM     94  C   UNL A   1      44.803  32.470  35.035  1.00  0.00     0.148 A 
ATOM     95  C   UNL A   1      47.331  32.936  36.164  1.00  0.00     0.002 A 
ATOM     96  C   UNL A   1      44.949  33.384  36.071  1.00  0.00     0.091 A 
ATOM     97  F   UNL A   1      43.605  32.203  34.494  1.00  0.00    -0.205 F 
ATOM     98  C   UNL A   1      46.210  33.607  36.646  1.00  0.00     0.022 A 
BRANCH  96  99
ATOM     99  S   UNL A   1      43.581  34.370  36.686  1.00  0.00     0.127 S 
ATOM    100  O   UNL A   1      43.138  35.055  35.473  1.00  0.00    -0.237 OA
ATOM    101  O   UNL A   1      42.659  33.347  37.180  1.00  0.00    -0.237 OA
ATOM    102  O   UNL A   1      44.138  35.233  37.720  1.00  0.00    -0.744 OA
ENDBRANCH  96  99
ENDBRANCH  69  92
ENDBRANCH  43  44
ENDBRANCH  36  38
ENDBRANCH  35  36
ENDBRANCH  34  35
ENDBRANCH  33  34
ENDBRANCH  32  33
ENDBRANCH  31  32
ENDBRANCH   1  31
TORSDOF 26
ENDMDL
MODEL 3
REMARK VINA RESULT:      -8.2      6.681     11.306
REMARK SMILES Cc1ccc(Cl)cc1NC(=O)N[C@@](C)(C(=O)OCCOCCOCCOCCOC(=O)c1ccc(-c2c3nc(c(-c4cccc(S(=O)(=O)[O-])c4F)c4ccc([nH]4)c(-c4cccc(S(=O)(=O)[O-])c4F)c4nc(c(-c5cccc(S(=O)(=O)[O-])c5F)c5ccc2[nH]5)C=C4)C=C3)cc1)C(F)(F)F
REMARK SMILES IDX 24 1 23 2 22 3 21 4 20 5 19 6 18 7 17 8 15 9 16 10 13 11
REMARK SMILES IDX 14 12 12 13 9 14 10 15 11 17 8 19 1 20 2 21 3 22 4 23 7 24
REMARK SMILES IDX 5 25 6 26 95 27 96 28 97 29 98 30 25 31 26 32 27 33 28 34
REMARK SMILES IDX 29 35 30 36 31 37 32 38 33 39 94 40 34 41 93 42 35 43 36 44
REMARK SMILES IDX 37 45 87 46 38 47 92 48 86 49 88 50 39 51 91 52 85 53 84 54
REMARK SMILES IDX 40 56 72 57 52 58 71 59 53 60 56 61 70 62 89 63 54 64 55 65
REMARK SMILES IDX 69 67 90 68 57 69 41 70 42 71 50 72 43 73 45 74 51 75 44 76
REMARK SMILES IDX 46 77 47 78 48 79 49 80 73 81 74 82 82 83 75 84 77 85 83 86
REMARK SMILES IDX 76 87 78 88 79 89 80 90 81 91 58 92 59 93 67 94 60 95 62 96
REMARK SMILES IDX 68 97 61 98 63 99 64 100 65 101 66 102
REMARK H PARENT 9 16 12 18 88 55 56 66
REMARK Flexibility Score: inf
ROOT
ATOM      1  C   UNL A   1      50.399  23.624  33.135  1.00  0.00     0.188 C 
ENDROOT
BRANCH   1   2
ATOM      2  O   UNL A   1      50.787  23.880  31.790  1.00  0.00    -0.377 OA
BRANCH   2   3
ATOM      3  C   UNL A   1      50.888  25.220  31.338  1.00  0.00     0.188 C 
BRANCH   3   4
ATOM      4  C   UNL A   1      52.231  25.957  31.491  1.00  0.00     0.188 C 
BRANCH   4   5
ATOM      5  O   UNL A   1      52.658  26.656  30.339  1.00  0.00    -0.376 OA
BRANCH   5   6
ATOM      6  C   UNL A   1      52.590  26.029  29.071  1.00  0.00     0.202 C 
BRANCH   6   7
ATOM      7  C   UNL A   1      51.793  26.610  27.882  1.00  0.00     0.261 C 
BRANCH   7   8
ATOM      8  O   UNL A   1      50.495  26.031  27.656  1.00  0.00    -0.461 OA
BRANCH   8   9
ATOM      9  C   UNL A   1      49.444  26.876  27.823  1.00  0.00     0.341 C 
ATOM     10  O   UNL A   1      49.560  27.977  28.357  1.00  0.00    -0.249 OA
BRANCH   9  11
ATOM     11  C   UNL A   1      48.215  26.492  26.956  1.00  0.00     0.232 C 
ATOM     12  C   UNL A   1      48.804  25.564  25.880  1.00  0.00     0.058 C 
BRANCH  11  13
ATOM     13  N   UNL A   1      47.500  27.574  26.178  1.00  0.00    -0.314 N 
ATOM     14  N   UNL A   1      45.552  26.874  24.893  1.00  0.00    -0.308 N 
ATOM     15  C   UNL A   1      46.554  27.702  25.237  1.00  0.00     0.320 C 
ATOM     16  H   UNL A   1      45.001  27.267  24.177  1.00  0.00     0.171 HD
ATOM     17  O   UNL A   1      46.527  28.801  24.662  1.00  0.00    -0.248 OA
ATOM     18  H   UNL A   1      47.832  28.461  26.448  1.00  0.00     0.166 HD
BRANCH  14  19
ATOM     19  C   UNL A   1      45.066  25.612  25.264  1.00  0.00     0.047 A 
ATOM     20  C   UNL A   1      42.884  26.615  26.219  1.00  0.00     0.046 C 
ATOM     21  C   UNL A   1      43.895  25.511  26.050  1.00  0.00    -0.027 A 
ATOM     22  C   UNL A   1      43.588  24.282  26.665  1.00  0.00     0.007 A 
ATOM     23  C   UNL A   1      44.326  23.141  26.378  1.00  0.00     0.021 A 
ATOM     24  C   UNL A   1      45.675  24.437  24.838  1.00  0.00     0.047 A 
ATOM     25  C   UNL A   1      45.300  23.205  25.390  1.00  0.00     0.043 A 
ATOM     26  Cl  UNL A   1      46.089  21.755  24.895  1.00  0.00    -0.084 Cl
ENDBRANCH  14  19
ENDBRANCH  11  13
BRANCH  11  27
ATOM     27  C   UNL A   1      47.400  25.795  28.071  1.00  0.00     0.422 C 
ATOM     28  F   UNL A   1      48.064  25.791  29.251  1.00  0.00    -0.168 F 
ATOM     29  F   UNL A   1      46.204  26.388  28.245  1.00  0.00    -0.168 F 
ATOM     30  F   UNL A   1      47.097  24.490  27.857  1.00  0.00    -0.168 F 
ENDBRANCH  11  27
ENDBRANCH   9  11
ENDBRANCH   8   9
ENDBRANCH   7   8
ENDBRANCH   6   7
ENDBRANCH   5   6
ENDBRANCH   4   5
ENDBRANCH   3   4
ENDBRANCH   2   3
ENDBRANCH   1   2
BRANCH   1  31
ATOM     31  C   UNL A   1      49.464  24.594  33.897  1.00  0.00     0.188 C 
BRANCH  31  32
ATOM     32  O   UNL A   1      48.101  24.213  33.948  1.00  0.00    -0.376 OA
BRANCH  32  33
ATOM     33  C   UNL A   1      47.755  23.061  34.699  1.00  0.00     0.202 C 
BRANCH  33  34
ATOM     34  C   UNL A   1      46.267  22.730  34.904  1.00  0.00     0.261 C 
BRANCH  34  35
ATOM     35  O   UNL A   1      45.428  22.788  33.742  1.00  0.00    -0.460 OA
BRANCH  35  36
ATOM     36  C   UNL A   1      44.208  23.352  33.870  1.00  0.00     0.338 C 
ATOM     37  O   UNL A   1      43.278  22.944  34.546  1.00  0.00    -0.246 OA
BRANCH  36  38
ATOM     38  C   UNL A   1      44.272  24.682  33.226  1.00  0.00     0.060 A 
ATOM     39  C   UNL A   1      44.441  25.819  34.030  1.00  0.00     0.016 A 
ATOM     40  C   UNL A   1      44.230  24.800  31.835  1.00  0.00     0.016 A 
ATOM     41  C   UNL A   1      44.543  27.080  33.446  1.00  0.00     0.010 A 
ATOM     42  C   UNL A   1      44.291  26.069  31.253  1.00  0.00     0.010 A 
ATOM     43  C   UNL A   1      44.413  27.215  32.060  1.00  0.00    -0.014 A 
BRANCH  43  44
ATOM     44  C   UNL A   1      44.144  28.554  31.487  1.00  0.00     0.031 A 
ATOM     45  C   UNL A   1      45.276  29.245  30.776  1.00  0.00     0.074 A 
ATOM     46  C   UNL A   1      42.940  29.143  31.586  1.00  0.00     0.049 A 
ATOM     47  N   UNL A   1      45.312  30.431  30.233  1.00  0.00    -0.248 NA
ATOM     48  C   UNL A   1      46.541  28.494  30.668  1.00  0.00     0.031 C 
ATOM     49  C   UNL A   1      41.763  28.568  32.235  1.00  0.00     0.029 A 
ATOM     50  N   UNL A   1      42.520  30.380  31.161  1.00  0.00    -0.354 N 
ATOM     51  C   UNL A   1      46.608  30.585  29.755  1.00  0.00     0.074 A 
ATOM     52  C   UNL A   1      47.328  29.372  30.066  1.00  0.00     0.031 C 
ATOM     53  C   UNL A   1      40.766  29.470  32.205  1.00  0.00     0.029 A 
ATOM     54  C   UNL A   1      41.242  30.693  31.561  1.00  0.00     0.049 A 
ATOM     55  H   UNL A   1      43.081  30.985  30.624  1.00  0.00     0.167 HD
ATOM     56  C   UNL A   1      47.150  31.644  29.111  1.00  0.00     0.034 A 
ATOM     57  C   UNL A   1      40.554  31.849  31.450  1.00  0.00     0.034 A 
ATOM     58  C   UNL A   1      46.429  32.842  28.788  1.00  0.00     0.049 A 
ATOM     59  C   UNL A   1      41.193  33.022  30.745  1.00  0.00     0.074 A 
ATOM     60  C   UNL A   1      46.875  33.947  28.085  1.00  0.00     0.029 A 
ATOM     61  N   UNL A   1      45.123  33.104  29.165  1.00  0.00    -0.354 N 
ATOM     62  N   UNL A   1      42.376  33.107  30.187  1.00  0.00    -0.248 NA
ATOM     63  C   UNL A   1      40.388  34.247  30.626  1.00  0.00     0.031 C 
ATOM     64  C   UNL A   1      45.851  34.898  28.076  1.00  0.00     0.029 A 
ATOM     65  C   UNL A   1      44.751  34.363  28.728  1.00  0.00     0.049 A 
ATOM     66  H   UNL A   1      44.545  32.488  29.670  1.00  0.00     0.167 HD
ATOM     67  C   UNL A   1      42.441  34.376  29.617  1.00  0.00     0.074 A 
ATOM     68  C   UNL A   1      41.169  35.016  29.880  1.00  0.00     0.031 C 
ATOM     69  C   UNL A   1      43.462  34.963  28.946  1.00  0.00     0.034 A 
BRANCH  56  70
ATOM     70  C   UNL A   1      48.597  31.560  28.711  1.00  0.00     0.023 A 
ATOM     71  C   UNL A   1      48.947  31.159  27.406  1.00  0.00     0.012 A 
ATOM     72  C   UNL A   1      49.604  31.961  29.609  1.00  0.00     0.148 A 
ATOM     73  C   UNL A   1      50.283  31.143  27.008  1.00  0.00     0.002 A 
ATOM     74  C   UNL A   1      50.927  31.989  29.189  1.00  0.00     0.091 A 
ATOM     75  F   UNL A   1      49.247  32.312  30.853  1.00  0.00    -0.205 F 
ATOM     76  C   UNL A   1      51.270  31.570  27.894  1.00  0.00     0.022 A 
BRANCH  74  77
ATOM     77  S   UNL A   1      52.258  32.603  30.226  1.00  0.00     0.127 S 
ATOM     78  O   UNL A   1      51.804  33.963  30.513  1.00  0.00    -0.237 OA
ATOM     79  O   UNL A   1      52.201  31.688  31.367  1.00  0.00    -0.237 OA
ATOM     80  O   UNL A   1      53.471  32.510  29.427  1.00  0.00    -0.744 OA
ENDBRANCH  74  77
ENDBRANCH  56  70
BRANCH  57  81
ATOM     81  C   UNL A   1      39.182  31.969  32.023  1.00  0.00     0.023 A 
ATOM     82  C   UNL A   1      38.999  31.973  33.420  1.00  0.00     0.012 A 
ATOM     83  C   UNL A   1      38.053  32.051  31.184  1.00  0.00     0.148 A 
ATOM     84  C   UNL A   1      37.716  32.008  33.970  1.00  0.00     0.002 A 
ATOM     85  C   UNL A   1      36.783  32.147  31.739  1.00  0.00     0.091 A 
ATOM     86  F   UNL A   1      38.244  32.024  29.858  1.00  0.00    -0.205 F 
ATOM     87  C   UNL A   1      36.610  32.105  33.131  1.00  0.00     0.022 A 
BRANCH  85  88
ATOM     88  S   UNL A   1      35.314  32.401  30.737  1.00  0.00     0.127 S 
ATOM     89  O   UNL A   1      35.600  33.688  30.108  1.00  0.00    -0.237 OA
ATOM     90  O   UNL A   1      35.363  31.250  29.835  1.00  0.00    -0.237 OA
ATOM     91  O   UNL A   1      34.196  32.386  31.669  1.00  0.00    -0.744 OA
ENDBRANCH  85  88
ENDBRANCH  57  81
BRANCH  69  92
ATOM     92  C   UNL A   1      43.239  36.345  28.386  1.00  0.00     0.023 A 
ATOM     93  C   UNL A   1      42.497  36.519  27.201  1.00  0.00     0.012 A 
ATOM     94  C   UNL A   1      43.696  37.478  29.090  1.00  0.00     0.148 A 
ATOM     95  C   UNL A   1      42.246  37.799  26.706  1.00  0.00     0.002 A 
ATOM     96  C   UNL A   1      43.394  38.750  28.620  1.00  0.00     0.091 A 
ATOM     97  F   UNL A   1      44.410  37.289  30.209  1.00  0.00    -0.205 F 
ATOM     98  C   UNL A   1      42.683  38.912  27.421  1.00  0.00     0.022 A 
BRANCH  96  99
ATOM     99  S   UNL A   1      43.824  40.239  29.527  1.00  0.00     0.127 S 
ATOM    100  O   UNL A   1      43.326  41.285  28.636  1.00  0.00    -0.237 OA
ATOM    101  O   UNL A   1      43.062  40.078  30.766  1.00  0.00    -0.237 OA
ATOM    102  O   UNL A   1      45.271  40.203  29.698  1.00  0.00    -0.744 OA
ENDBRANCH  96  99
ENDBRANCH  69  92
ENDBRANCH  43  44
ENDBRANCH  36  38
ENDBRANCH  35  36
ENDBRANCH  34  35
ENDBRANCH  33  34
ENDBRANCH  32  33
ENDBRANCH  31  32
ENDBRANCH   1  31
TORSDOF 26
ENDMDL
