MODEL 1
REMARK VINA RESULT:      -8.8      0.000      0.000
REMARK SMILES O=C(OCCOCCOCCOCCOC(=O)c1ccc(C[NH2+][C@H]2CCCNC2=O)nc1)c1ccc(-c2c3nc(c(-c4cccc(S(=O)(=O)[O-])c4F)c4ccc([nH]4)c(-c4cccc(S(=O)(=O)[O-])c4F)c4nc(c(-c5cccc(S(=O)(=O)[O-])c5F)c5ccc2[nH]5)C=C4)C=C3)cc1
REMARK SMILES IDX 9 1 8 2 7 3 6 4 5 5 4 6 3 7 2 8 1 9 33 10 34 11 95 12 35 13
REMARK SMILES IDX 94 14 36 15 37 16 38 17 88 18 39 19 93 20 87 21 89 22 40 23
REMARK SMILES IDX 92 24 86 25 85 26 41 28 73 29 53 30 72 31 54 32 57 33 71 34
REMARK SMILES IDX 90 35 55 36 56 37 70 39 91 40 58 41 42 42 43 43 51 44 44 45
REMARK SMILES IDX 46 46 52 47 45 48 47 49 48 50 49 51 50 52 74 53 75 54 83 55
REMARK SMILES IDX 76 56 78 57 84 58 77 59 79 60 80 61 81 62 82 63 59 64 60 65
REMARK SMILES IDX 68 66 61 67 63 68 69 69 62 70 64 71 65 72 66 73 67 74 10 75
REMARK SMILES IDX 11 76 12 77 13 78 14 79 15 80 16 81 17 82 18 83 19 84 32 85
REMARK SMILES IDX 20 86 31 87 21 88 22 89 23 90 24 93 25 94 29 95 26 96 28 97
REMARK SMILES IDX 30 98 27 99
REMARK H PARENT 89 27 57 38 23 91 23 92 28 100
REMARK Flexibility Score: inf
ROOT
ATOM      1  O   UNL A   1      39.942  21.503  27.189  1.00  0.00    -0.377 OA
ENDROOT
BRANCH   1   2
ATOM      2  C   UNL A   1      41.361  21.547  27.036  1.00  0.00     0.188 C 
BRANCH   2   3
ATOM      3  C   UNL A   1      41.890  22.728  26.221  1.00  0.00     0.188 C 
BRANCH   3   4
ATOM      4  O   UNL A   1      42.566  22.289  25.041  1.00  0.00    -0.376 OA
BRANCH   4   5
ATOM      5  C   UNL A   1      43.908  21.837  25.227  1.00  0.00     0.202 C 
BRANCH   5   6
ATOM      6  C   UNL A   1      44.973  22.666  24.503  1.00  0.00     0.261 C 
BRANCH   6   7
ATOM      7  O   UNL A   1      44.655  24.064  24.469  1.00  0.00    -0.460 OA
BRANCH   7   8
ATOM      8  C   UNL A   1      45.406  25.097  24.930  1.00  0.00     0.338 C 
ATOM      9  O   UNL A   1      46.587  25.147  24.588  1.00  0.00    -0.246 OA
BRANCH   8  10
ATOM     10  C   UNL A   1      44.885  26.188  25.817  1.00  0.00     0.060 A 
ATOM     11  C   UNL A   1      44.227  27.341  25.385  1.00  0.00     0.016 A 
ATOM     12  C   UNL A   1      45.040  26.009  27.202  1.00  0.00     0.016 A 
ATOM     13  C   UNL A   1      43.836  28.336  26.265  1.00  0.00     0.010 A 
ATOM     14  C   UNL A   1      44.628  26.993  28.106  1.00  0.00     0.010 A 
ATOM     15  C   UNL A   1      44.075  28.184  27.624  1.00  0.00    -0.014 A 
BRANCH  15  16
ATOM     16  C   UNL A   1      43.971  29.395  28.454  1.00  0.00     0.031 A 
ATOM     17  C   UNL A   1      45.154  30.316  28.472  1.00  0.00     0.074 A 
ATOM     18  C   UNL A   1      42.799  29.728  29.020  1.00  0.00     0.049 A 
ATOM     19  N   UNL A   1      45.326  31.434  29.117  1.00  0.00    -0.248 NA
ATOM     20  C   UNL A   1      46.299  29.930  27.625  1.00  0.00     0.031 C 
ATOM     21  C   UNL A   1      41.562  28.950  28.919  1.00  0.00     0.029 A 
ATOM     22  N   UNL A   1      42.451  30.818  29.768  1.00  0.00    -0.354 N 
ATOM     23  C   UNL A   1      46.619  31.844  28.815  1.00  0.00     0.074 A 
ATOM     24  C   UNL A   1      47.182  30.873  27.908  1.00  0.00     0.031 C 
ATOM     25  C   UNL A   1      40.586  29.594  29.578  1.00  0.00     0.029 A 
ATOM     26  C   UNL A   1      41.145  30.791  30.196  1.00  0.00     0.049 A 
ATOM     27  H   UNL A   1      43.073  31.551  29.979  1.00  0.00     0.167 HD
ATOM     28  C   UNL A   1      47.277  32.933  29.270  1.00  0.00     0.034 A 
ATOM     29  C   UNL A   1      40.497  31.632  31.025  1.00  0.00     0.034 A 
ATOM     30  C   UNL A   1      46.676  33.887  30.156  1.00  0.00     0.049 A 
ATOM     31  C   UNL A   1      41.269  32.807  31.565  1.00  0.00     0.074 A 
ATOM     32  C   UNL A   1      47.236  35.010  30.729  1.00  0.00     0.029 A 
ATOM     33  N   UNL A   1      45.361  33.816  30.600  1.00  0.00    -0.354 N 
ATOM     34  N   UNL A   1      42.498  33.182  31.292  1.00  0.00    -0.248 NA
ATOM     35  C   UNL A   1      40.569  33.681  32.513  1.00  0.00     0.031 C 
ATOM     36  C   UNL A   1      46.266  35.601  31.548  1.00  0.00     0.029 A 
ATOM     37  C   UNL A   1      45.090  34.869  31.449  1.00  0.00     0.049 A 
ATOM     38  H   UNL A   1      44.716  33.116  30.346  1.00  0.00     0.167 HD
ATOM     39  C   UNL A   1      42.709  34.353  32.007  1.00  0.00     0.074 A 
ATOM     40  C   UNL A   1      41.472  34.632  32.713  1.00  0.00     0.031 C 
ATOM     41  C   UNL A   1      43.822  35.126  32.087  1.00  0.00     0.034 A 
BRANCH  28  42
ATOM     42  C   UNL A   1      48.719  33.078  28.865  1.00  0.00     0.023 A 
ATOM     43  C   UNL A   1      49.745  32.503  29.644  1.00  0.00     0.012 A 
ATOM     44  C   UNL A   1      49.059  33.846  27.735  1.00  0.00     0.148 A 
ATOM     45  C   UNL A   1      51.086  32.735  29.332  1.00  0.00     0.002 A 
ATOM     46  C   UNL A   1      50.395  34.035  27.405  1.00  0.00     0.091 A 
ATOM     47  F   UNL A   1      48.072  34.415  27.028  1.00  0.00    -0.205 F 
ATOM     48  C   UNL A   1      51.410  33.495  28.211  1.00  0.00     0.022 A 
BRANCH  46  49
ATOM     49  S   UNL A   1      50.908  34.948  25.947  1.00  0.00     0.127 S 
ATOM     50  O   UNL A   1      50.298  34.161  24.876  1.00  0.00    -0.237 OA
ATOM     51  O   UNL A   1      50.289  36.256  26.170  1.00  0.00    -0.237 OA
ATOM     52  O   UNL A   1      52.363  34.954  25.969  1.00  0.00    -0.744 OA
ENDBRANCH  46  49
ENDBRANCH  28  42
BRANCH  29  53
ATOM     53  C   UNL A   1      39.069  31.393  31.380  1.00  0.00     0.023 A 
ATOM     54  C   UNL A   1      38.747  30.523  32.438  1.00  0.00     0.012 A 
ATOM     55  C   UNL A   1      38.026  32.049  30.693  1.00  0.00     0.148 A 
ATOM     56  C   UNL A   1      37.416  30.292  32.792  1.00  0.00     0.002 A 
ATOM     57  C   UNL A   1      36.705  31.857  31.086  1.00  0.00     0.091 A 
ATOM     58  F   UNL A   1      38.347  32.860  29.676  1.00  0.00    -0.205 F 
ATOM     59  C   UNL A   1      36.397  30.967  32.124  1.00  0.00     0.022 A 
BRANCH  57  60
ATOM     60  S   UNL A   1      35.340  32.775  30.363  1.00  0.00     0.127 S 
ATOM     61  O   UNL A   1      34.265  32.516  31.319  1.00  0.00    -0.237 OA
ATOM     62  O   UNL A   1      35.858  34.144  30.374  1.00  0.00    -0.237 OA
ATOM     63  O   UNL A   1      35.148  32.216  29.032  1.00  0.00    -0.744 OA
ENDBRANCH  57  60
ENDBRANCH  29  53
BRANCH  41  64
ATOM     64  C   UNL A   1      43.730  36.373  32.921  1.00  0.00     0.023 A 
ATOM     65  C   UNL A   1      43.865  36.298  34.320  1.00  0.00     0.012 A 
ATOM     66  C   UNL A   1      43.608  37.628  32.297  1.00  0.00     0.148 A 
ATOM     67  C   UNL A   1      43.848  37.459  35.090  1.00  0.00     0.002 A 
ATOM     68  C   UNL A   1      43.649  38.783  33.065  1.00  0.00     0.091 A 
ATOM     69  F   UNL A   1      43.459  37.670  30.964  1.00  0.00    -0.205 F 
ATOM     70  C   UNL A   1      43.755  38.700  34.463  1.00  0.00     0.022 A 
BRANCH  68  71
ATOM     71  S   UNL A   1      43.656  40.418  32.325  1.00  0.00     0.127 S 
ATOM     72  O   UNL A   1      44.399  41.191  33.319  1.00  0.00    -0.237 OA
ATOM     73  O   UNL A   1      44.372  40.188  31.070  1.00  0.00    -0.237 OA
ATOM     74  O   UNL A   1      42.256  40.789  32.160  1.00  0.00    -0.744 OA
ENDBRANCH  68  71
ENDBRANCH  41  64
ENDBRANCH  15  16
ENDBRANCH   8  10
ENDBRANCH   7   8
ENDBRANCH   6   7
ENDBRANCH   5   6
ENDBRANCH   4   5
ENDBRANCH   3   4
ENDBRANCH   2   3
ENDBRANCH   1   2
BRANCH   1  75
ATOM     75  C   UNL A   1      39.176  21.515  25.987  1.00  0.00     0.188 C 
BRANCH  75  76
ATOM     76  C   UNL A   1      38.034  22.545  25.843  1.00  0.00     0.188 C 
BRANCH  76  77
ATOM     77  O   UNL A   1      37.068  22.201  24.865  1.00  0.00    -0.376 OA
BRANCH  77  78
ATOM     78  C   UNL A   1      35.709  22.422  25.225  1.00  0.00     0.202 C 
BRANCH  78  79
ATOM     79  C   UNL A   1      34.866  21.175  25.556  1.00  0.00     0.261 C 
BRANCH  79  80
ATOM     80  O   UNL A   1      34.059  20.655  24.482  1.00  0.00    -0.460 OA
BRANCH  80  81
ATOM     81  C   UNL A   1      32.722  20.562  24.674  1.00  0.00     0.339 C 
ATOM     82  O   UNL A   1      32.118  19.656  25.202  1.00  0.00    -0.246 OA
BRANCH  81  83
ATOM     83  C   UNL A   1      32.134  21.879  24.347  1.00  0.00     0.078 A 
ATOM     84  C   UNL A   1      32.376  22.567  23.158  1.00  0.00     0.019 A 
ATOM     85  C   UNL A   1      31.427  22.530  25.345  1.00  0.00     0.127 A 
ATOM     86  C   UNL A   1      31.885  23.871  23.008  1.00  0.00     0.031 A 
ATOM     87  N   UNL A   1      30.979  23.803  25.239  1.00  0.00    -0.254 NA
ATOM     88  C   UNL A   1      31.186  24.460  24.065  1.00  0.00     0.094 A 
BRANCH  88  89
ATOM     89  C   UNL A   1      30.595  25.864  23.951  1.00  0.00     0.318 C 
BRANCH  89  90
ATOM     90  N   UNL A   1      30.991  26.673  25.110  1.00  0.00    -0.331 N 
ATOM     91  H   UNL A   1      31.335  26.034  25.827  1.00  0.00     0.347 HD
ATOM     92  H   UNL A   1      30.152  27.198  25.360  1.00  0.00     0.347 HD
BRANCH  90  93
ATOM     93  C   UNL A   1      32.025  27.697  24.899  1.00  0.00     0.272 C 
ATOM     94  C   UNL A   1      33.391  27.103  24.525  1.00  0.00     0.077 C 
ATOM     95  C   UNL A   1      31.512  28.840  24.002  1.00  0.00     0.278 C 
ATOM     96  C   UNL A   1      33.752  27.274  23.057  1.00  0.00     0.028 C 
ATOM     97  N   UNL A   1      32.282  29.222  22.940  1.00  0.00    -0.351 N 
ATOM     98  O   UNL A   1      30.427  29.392  24.189  1.00  0.00    -0.268 OA
ATOM     99  C   UNL A   1      33.610  28.734  22.673  1.00  0.00     0.116 C 
ATOM    100  H   UNL A   1      31.902  29.879  22.314  1.00  0.00     0.163 HD
ENDBRANCH  90  93
ENDBRANCH  89  90
ENDBRANCH  88  89
ENDBRANCH  81  83
ENDBRANCH  80  81
ENDBRANCH  79  80
ENDBRANCH  78  79
ENDBRANCH  77  78
ENDBRANCH  76  77
ENDBRANCH  75  76
ENDBRANCH   1  75
TORSDOF 26
ENDMDL
MODEL 2
REMARK VINA RESULT:      -8.8      5.216      8.330
REMARK SMILES O=C(OCCOCCOCCOCCOC(=O)c1ccc(C[NH2+][C@H]2CCCNC2=O)nc1)c1ccc(-c2c3nc(c(-c4cccc(S(=O)(=O)[O-])c4F)c4ccc([nH]4)c(-c4cccc(S(=O)(=O)[O-])c4F)c4nc(c(-c5cccc(S(=O)(=O)[O-])c5F)c5ccc2[nH]5)C=C4)C=C3)cc1
REMARK SMILES IDX 9 1 8 2 7 3 6 4 5 5 4 6 3 7 2 8 1 9 33 10 34 11 95 12 35 13
REMARK SMILES IDX 94 14 36 15 37 16 38 17 88 18 39 19 93 20 87 21 89 22 40 23
REMARK SMILES IDX 92 24 86 25 85 26 41 28 73 29 53 30 72 31 54 32 57 33 71 34
REMARK SMILES IDX 90 35 55 36 56 37 70 39 91 40 58 41 42 42 43 43 51 44 44 45
REMARK SMILES IDX 46 46 52 47 45 48 47 49 48 50 49 51 50 52 74 53 75 54 83 55
REMARK SMILES IDX 76 56 78 57 84 58 77 59 79 60 80 61 81 62 82 63 59 64 60 65
REMARK SMILES IDX 68 66 61 67 63 68 69 69 62 70 64 71 65 72 66 73 67 74 10 75
REMARK SMILES IDX 11 76 12 77 13 78 14 79 15 80 16 81 17 82 18 83 19 84 32 85
REMARK SMILES IDX 20 86 31 87 21 88 22 89 23 90 24 93 25 94 29 95 26 96 28 97
REMARK SMILES IDX 30 98 27 99
REMARK H PARENT 89 27 57 38 23 91 23 92 28 100
REMARK Flexibility Score: inf
ROOT
ATOM      1  O   UNL A   1      41.882  20.434  26.981  1.00  0.00    -0.377 OA
ENDROOT
BRANCH   1   2
ATOM      2  C   UNL A   1      42.070  19.660  25.796  1.00  0.00     0.188 C 
BRANCH   2   3
ATOM      3  C   UNL A   1      43.519  19.276  25.493  1.00  0.00     0.188 C 
BRANCH   3   4
ATOM      4  O   UNL A   1      44.069  20.087  24.454  1.00  0.00    -0.376 OA
BRANCH   4   5
ATOM      5  C   UNL A   1      44.751  21.267  24.881  1.00  0.00     0.202 C 
BRANCH   5   6
ATOM      6  C   UNL A   1      44.410  22.531  24.088  1.00  0.00     0.261 C 
BRANCH   6   7
ATOM      7  O   UNL A   1      44.316  23.696  24.919  1.00  0.00    -0.460 OA
BRANCH   7   8
ATOM      8  C   UNL A   1      45.200  24.722  25.012  1.00  0.00     0.338 C 
ATOM      9  O   UNL A   1      46.236  24.651  24.352  1.00  0.00    -0.246 OA
BRANCH   8  10
ATOM     10  C   UNL A   1      44.988  25.943  25.856  1.00  0.00     0.060 A 
ATOM     11  C   UNL A   1      45.998  26.715  26.436  1.00  0.00     0.016 A 
ATOM     12  C   UNL A   1      43.661  26.364  26.042  1.00  0.00     0.016 A 
ATOM     13  C   UNL A   1      45.717  27.791  27.260  1.00  0.00     0.010 A 
ATOM     14  C   UNL A   1      43.361  27.465  26.852  1.00  0.00     0.010 A 
ATOM     15  C   UNL A   1      44.396  28.142  27.506  1.00  0.00    -0.014 A 
BRANCH  15  16
ATOM     16  C   UNL A   1      44.151  29.041  28.644  1.00  0.00     0.031 A 
ATOM     17  C   UNL A   1      44.212  28.440  30.017  1.00  0.00     0.074 A 
ATOM     18  C   UNL A   1      44.053  30.367  28.450  1.00  0.00     0.049 A 
ATOM     19  N   UNL A   1      44.030  29.002  31.178  1.00  0.00    -0.248 NA
ATOM     20  C   UNL A   1      44.546  27.005  30.090  1.00  0.00     0.031 C 
ATOM     21  C   UNL A   1      44.134  31.038  27.150  1.00  0.00     0.029 A 
ATOM     22  N   UNL A   1      43.892  31.388  29.345  1.00  0.00    -0.354 N 
ATOM     23  C   UNL A   1      44.152  27.978  32.109  1.00  0.00     0.074 A 
ATOM     24  C   UNL A   1      44.450  26.766  31.387  1.00  0.00     0.031 C 
ATOM     25  C   UNL A   1      44.028  32.363  27.335  1.00  0.00     0.029 A 
ATOM     26  C   UNL A   1      43.808  32.625  28.753  1.00  0.00     0.049 A 
ATOM     27  H   UNL A   1      43.841  31.251  30.319  1.00  0.00     0.167 HD
ATOM     28  C   UNL A   1      44.013  28.051  33.452  1.00  0.00     0.034 A 
ATOM     29  C   UNL A   1      43.549  33.825  29.307  1.00  0.00     0.034 A 
ATOM     30  C   UNL A   1      43.737  29.280  34.136  1.00  0.00     0.049 A 
ATOM     31  C   UNL A   1      43.341  33.872  30.797  1.00  0.00     0.074 A 
ATOM     32  C   UNL A   1      43.529  29.495  35.484  1.00  0.00     0.029 A 
ATOM     33  N   UNL A   1      43.625  30.514  33.506  1.00  0.00    -0.354 N 
ATOM     34  N   UNL A   1      43.439  32.899  31.674  1.00  0.00    -0.248 NA
ATOM     35  C   UNL A   1      43.001  35.175  31.379  1.00  0.00     0.031 C 
ATOM     36  C   UNL A   1      43.257  30.856  35.663  1.00  0.00     0.029 A 
ATOM     37  C   UNL A   1      43.340  31.495  34.433  1.00  0.00     0.049 A 
ATOM     38  H   UNL A   1      43.731  30.666  32.539  1.00  0.00     0.167 HD
ATOM     39  C   UNL A   1      43.207  33.476  32.916  1.00  0.00     0.074 A 
ATOM     40  C   UNL A   1      42.978  34.889  32.674  1.00  0.00     0.031 C 
ATOM     41  C   UNL A   1      43.172  32.898  34.143  1.00  0.00     0.034 A 
BRANCH  28  42
ATOM     42  C   UNL A   1      44.089  26.758  34.217  1.00  0.00     0.023 A 
ATOM     43  C   UNL A   1      42.914  26.061  34.568  1.00  0.00     0.012 A 
ATOM     44  C   UNL A   1      45.337  26.265  34.645  1.00  0.00     0.148 A 
ATOM     45  C   UNL A   1      42.980  24.923  35.376  1.00  0.00     0.002 A 
ATOM     46  C   UNL A   1      45.397  25.108  35.410  1.00  0.00     0.091 A 
ATOM     47  F   UNL A   1      46.440  26.960  34.333  1.00  0.00    -0.205 F 
ATOM     48  C   UNL A   1      44.219  24.444  35.791  1.00  0.00     0.022 A 
BRANCH  46  49
ATOM     49  S   UNL A   1      46.951  24.382  35.942  1.00  0.00     0.127 S 
ATOM     50  O   UNL A   1      46.492  23.190  36.654  1.00  0.00    -0.237 OA
ATOM     51  O   UNL A   1      47.615  24.111  34.666  1.00  0.00    -0.237 OA
ATOM     52  O   UNL A   1      47.604  25.390  36.764  1.00  0.00    -0.744 OA
ENDBRANCH  46  49
ENDBRANCH  28  42
BRANCH  29  53
ATOM     53  C   UNL A   1      43.479  35.050  28.460  1.00  0.00     0.023 A 
ATOM     54  C   UNL A   1      42.229  35.520  28.013  1.00  0.00     0.012 A 
ATOM     55  C   UNL A   1      44.641  35.771  28.119  1.00  0.00     0.148 A 
ATOM     56  C   UNL A   1      42.140  36.670  27.225  1.00  0.00     0.002 A 
ATOM     57  C   UNL A   1      44.541  36.946  27.381  1.00  0.00     0.091 A 
ATOM     58  F   UNL A   1      45.825  35.301  28.536  1.00  0.00    -0.205 F 
ATOM     59  C   UNL A   1      43.294  37.388  26.919  1.00  0.00     0.022 A 
BRANCH  57  60
ATOM     60  S   UNL A   1      45.958  37.998  27.042  1.00  0.00     0.127 S 
ATOM     61  O   UNL A   1      46.776  37.135  26.192  1.00  0.00    -0.237 OA
ATOM     62  O   UNL A   1      45.335  39.129  26.353  1.00  0.00    -0.237 OA
ATOM     63  O   UNL A   1      46.528  38.327  28.341  1.00  0.00    -0.744 OA
ENDBRANCH  57  60
ENDBRANCH  29  53
BRANCH  41  64
ATOM     64  C   UNL A   1      42.934  33.803  35.319  1.00  0.00     0.023 A 
ATOM     65  C   UNL A   1      44.023  34.304  36.056  1.00  0.00     0.012 A 
ATOM     66  C   UNL A   1      41.628  34.229  35.625  1.00  0.00     0.148 A 
ATOM     67  C   UNL A   1      43.810  35.197  37.105  1.00  0.00     0.002 A 
ATOM     68  C   UNL A   1      41.429  35.161  36.633  1.00  0.00     0.091 A 
ATOM     69  F   UNL A   1      40.606  33.719  34.921  1.00  0.00    -0.205 F 
ATOM     70  C   UNL A   1      42.517  35.636  37.383  1.00  0.00     0.022 A 
BRANCH  68  71
ATOM     71  S   UNL A   1      39.813  35.865  36.973  1.00  0.00     0.127 S 
ATOM     72  O   UNL A   1      40.150  36.956  37.885  1.00  0.00    -0.237 OA
ATOM     73  O   UNL A   1      39.375  36.294  35.643  1.00  0.00    -0.237 OA
ATOM     74  O   UNL A   1      39.020  34.787  37.549  1.00  0.00    -0.744 OA
ENDBRANCH  68  71
ENDBRANCH  41  64
ENDBRANCH  15  16
ENDBRANCH   8  10
ENDBRANCH   7   8
ENDBRANCH   6   7
ENDBRANCH   5   6
ENDBRANCH   4   5
ENDBRANCH   3   4
ENDBRANCH   2   3
ENDBRANCH   1   2
BRANCH   1  75
ATOM     75  C   UNL A   1      41.863  21.850  26.814  1.00  0.00     0.188 C 
BRANCH  75  76
ATOM     76  C   UNL A   1      42.285  22.744  28.000  1.00  0.00     0.188 C 
BRANCH  76  77
ATOM     77  O   UNL A   1      41.221  23.489  28.567  1.00  0.00    -0.376 OA
BRANCH  77  78
ATOM     78  C   UNL A   1      40.949  24.748  27.962  1.00  0.00     0.202 C 
BRANCH  78  79
ATOM     79  C   UNL A   1      39.499  25.261  28.047  1.00  0.00     0.261 C 
BRANCH  79  80
ATOM     80  O   UNL A   1      39.253  26.305  29.009  1.00  0.00    -0.460 OA
BRANCH  80  81
ATOM     81  C   UNL A   1      39.514  27.584  28.646  1.00  0.00     0.339 C 
ATOM     82  O   UNL A   1      39.729  28.000  27.530  1.00  0.00    -0.246 OA
BRANCH  81  83
ATOM     83  C   UNL A   1      39.250  28.441  29.821  1.00  0.00     0.078 A 
ATOM     84  C   UNL A   1      39.742  29.739  29.966  1.00  0.00     0.019 A 
ATOM     85  C   UNL A   1      38.605  27.864  30.903  1.00  0.00     0.127 A 
ATOM     86  C   UNL A   1      39.552  30.412  31.181  1.00  0.00     0.031 A 
ATOM     87  N   UNL A   1      38.448  28.479  32.098  1.00  0.00    -0.254 NA
ATOM     88  C   UNL A   1      38.897  29.756  32.226  1.00  0.00     0.094 A 
BRANCH  88  89
ATOM     89  C   UNL A   1      38.629  30.448  33.562  1.00  0.00     0.318 C 
BRANCH  89  90
ATOM     90  N   UNL A   1      37.222  30.860  33.642  1.00  0.00    -0.331 N 
ATOM     91  H   UNL A   1      36.910  30.703  34.600  1.00  0.00     0.347 HD
ATOM     92  H   UNL A   1      36.747  30.303  32.932  1.00  0.00     0.347 HD
BRANCH  90  93
ATOM     93  C   UNL A   1      36.906  32.255  33.298  1.00  0.00     0.272 C 
ATOM     94  C   UNL A   1      36.059  32.383  32.023  1.00  0.00     0.077 C 
ATOM     95  C   UNL A   1      36.405  33.039  34.527  1.00  0.00     0.278 C 
ATOM     96  C   UNL A   1      34.603  32.732  32.286  1.00  0.00     0.028 C 
ATOM     97  N   UNL A   1      35.251  33.759  34.407  1.00  0.00    -0.351 N 
ATOM     98  O   UNL A   1      36.987  33.010  35.612  1.00  0.00    -0.268 OA
ATOM     99  C   UNL A   1      34.534  33.960  33.173  1.00  0.00     0.116 C 
ATOM    100  H   UNL A   1      34.883  34.171  35.221  1.00  0.00     0.163 HD
ENDBRANCH  90  93
ENDBRANCH  89  90
ENDBRANCH  88  89
ENDBRANCH  81  83
ENDBRANCH  80  81
ENDBRANCH  79  80
ENDBRANCH  78  79
ENDBRANCH  77  78
ENDBRANCH  76  77
ENDBRANCH  75  76
ENDBRANCH   1  75
TORSDOF 26
ENDMDL
MODEL 3
REMARK VINA RESULT:      -8.7      4.501      8.070
REMARK SMILES O=C(OCCOCCOCCOCCOC(=O)c1ccc(C[NH2+][C@H]2CCCNC2=O)nc1)c1ccc(-c2c3nc(c(-c4cccc(S(=O)(=O)[O-])c4F)c4ccc([nH]4)c(-c4cccc(S(=O)(=O)[O-])c4F)c4nc(c(-c5cccc(S(=O)(=O)[O-])c5F)c5ccc2[nH]5)C=C4)C=C3)cc1
REMARK SMILES IDX 9 1 8 2 7 3 6 4 5 5 4 6 3 7 2 8 1 9 33 10 34 11 95 12 35 13
REMARK SMILES IDX 94 14 36 15 37 16 38 17 88 18 39 19 93 20 87 21 89 22 40 23
REMARK SMILES IDX 92 24 86 25 85 26 41 28 73 29 53 30 72 31 54 32 57 33 71 34
REMARK SMILES IDX 90 35 55 36 56 37 70 39 91 40 58 41 42 42 43 43 51 44 44 45
REMARK SMILES IDX 46 46 52 47 45 48 47 49 48 50 49 51 50 52 74 53 75 54 83 55
REMARK SMILES IDX 76 56 78 57 84 58 77 59 79 60 80 61 81 62 82 63 59 64 60 65
REMARK SMILES IDX 68 66 61 67 63 68 69 69 62 70 64 71 65 72 66 73 67 74 10 75
REMARK SMILES IDX 11 76 12 77 13 78 14 79 15 80 16 81 17 82 18 83 19 84 32 85
REMARK SMILES IDX 20 86 31 87 21 88 22 89 23 90 24 93 25 94 29 95 26 96 28 97
REMARK SMILES IDX 30 98 27 99
REMARK H PARENT 89 27 57 38 23 91 23 92 28 100
REMARK Flexibility Score: inf
ROOT
ATOM      1  O   UNL A   1      37.252  23.607  25.083  1.00  0.00    -0.377 OA
ENDROOT
BRANCH   1   2
ATOM      2  C   UNL A   1      38.123  23.165  26.124  1.00  0.00     0.188 C 
BRANCH   2   3
ATOM      3  C   UNL A   1      38.747  21.787  25.907  1.00  0.00     0.188 C 
BRANCH   3   4
ATOM      4  O   UNL A   1      40.051  21.704  26.486  1.00  0.00    -0.376 OA
BRANCH   4   5
ATOM      5  C   UNL A   1      40.832  22.899  26.429  1.00  0.00     0.202 C 
BRANCH   5   6
ATOM      6  C   UNL A   1      42.326  22.680  26.173  1.00  0.00     0.261 C 
BRANCH   6   7
ATOM      7  O   UNL A   1      42.816  23.456  25.071  1.00  0.00    -0.460 OA
BRANCH   7   8
ATOM      8  C   UNL A   1      43.825  24.364  25.081  1.00  0.00     0.338 C 
ATOM      9  O   UNL A   1      44.793  24.156  24.348  1.00  0.00    -0.246 OA
BRANCH   8  10
ATOM     10  C   UNL A   1      43.830  25.611  25.914  1.00  0.00     0.060 A 
ATOM     11  C   UNL A   1      44.946  26.155  26.554  1.00  0.00     0.016 A 
ATOM     12  C   UNL A   1      42.615  26.307  26.022  1.00  0.00     0.016 A 
ATOM     13  C   UNL A   1      44.853  27.274  27.363  1.00  0.00     0.010 A 
ATOM     14  C   UNL A   1      42.511  27.455  26.816  1.00  0.00     0.010 A 
ATOM     15  C   UNL A   1      43.627  27.901  27.531  1.00  0.00    -0.014 A 
BRANCH  15  16
ATOM     16  C   UNL A   1      43.512  28.844  28.656  1.00  0.00     0.031 A 
ATOM     17  C   UNL A   1      43.483  28.261  30.037  1.00  0.00     0.074 A 
ATOM     18  C   UNL A   1      43.610  30.166  28.442  1.00  0.00     0.049 A 
ATOM     19  N   UNL A   1      43.382  28.860  31.189  1.00  0.00    -0.248 NA
ATOM     20  C   UNL A   1      43.603  26.793  30.132  1.00  0.00     0.031 C 
ATOM     21  C   UNL A   1      43.791  30.799  27.133  1.00  0.00     0.029 A 
ATOM     22  N   UNL A   1      43.598  31.213  29.322  1.00  0.00    -0.354 N 
ATOM     23  C   UNL A   1      43.351  27.844  32.136  1.00  0.00     0.074 A 
ATOM     24  C   UNL A   1      43.470  26.590  31.432  1.00  0.00     0.031 C 
ATOM     25  C   UNL A   1      43.880  32.128  27.298  1.00  0.00     0.029 A 
ATOM     26  C   UNL A   1      43.698  32.441  28.711  1.00  0.00     0.049 A 
ATOM     27  H   UNL A   1      43.525  31.099  30.297  1.00  0.00     0.167 HD
ATOM     28  C   UNL A   1      43.221  27.955  33.476  1.00  0.00     0.034 A 
ATOM     29  C   UNL A   1      43.616  33.673  29.247  1.00  0.00     0.034 A 
ATOM     30  C   UNL A   1      43.126  29.222  34.142  1.00  0.00     0.049 A 
ATOM     31  C   UNL A   1      43.414  33.772  30.735  1.00  0.00     0.074 A 
ATOM     32  C   UNL A   1      42.949  29.485  35.485  1.00  0.00     0.029 A 
ATOM     33  N   UNL A   1      43.197  30.449  33.493  1.00  0.00    -0.354 N 
ATOM     34  N   UNL A   1      43.366  32.808  31.627  1.00  0.00    -0.248 NA
ATOM     35  C   UNL A   1      43.266  35.119  31.297  1.00  0.00     0.031 C 
ATOM     36  C   UNL A   1      42.879  30.874  35.644  1.00  0.00     0.029 A 
ATOM     37  C   UNL A   1      43.057  31.476  34.405  1.00  0.00     0.049 A 
ATOM     38  H   UNL A   1      43.327  30.570  32.524  1.00  0.00     0.167 HD
ATOM     39  C   UNL A   1      43.218  33.432  32.859  1.00  0.00     0.074 A 
ATOM     40  C   UNL A   1      43.199  34.859  32.596  1.00  0.00     0.031 C 
ATOM     41  C   UNL A   1      43.096  32.884  34.094  1.00  0.00     0.034 A 
BRANCH  28  42
ATOM     42  C   UNL A   1      43.106  26.677  34.260  1.00  0.00     0.023 A 
ATOM     43  C   UNL A   1      41.846  26.211  34.693  1.00  0.00     0.012 A 
ATOM     44  C   UNL A   1      44.266  25.966  34.624  1.00  0.00     0.148 A 
ATOM     45  C   UNL A   1      41.751  25.087  35.517  1.00  0.00     0.002 A 
ATOM     46  C   UNL A   1      44.159  24.824  35.407  1.00  0.00     0.091 A 
ATOM     47  F   UNL A   1      45.456  26.445  34.235  1.00  0.00    -0.205 F 
ATOM     48  C   UNL A   1      42.905  24.392  35.868  1.00  0.00     0.022 A 
BRANCH  46  49
ATOM     49  S   UNL A   1      45.584  23.829  35.860  1.00  0.00     0.127 S 
ATOM     50  O   UNL A   1      46.163  23.531  34.552  1.00  0.00    -0.237 OA
ATOM     51  O   UNL A   1      46.363  24.763  36.674  1.00  0.00    -0.237 OA
ATOM     52  O   UNL A   1      45.057  22.684  36.588  1.00  0.00    -0.744 OA
ENDBRANCH  46  49
ENDBRANCH  28  42
BRANCH  29  53
ATOM     53  C   UNL A   1      43.727  34.882  28.381  1.00  0.00     0.023 A 
ATOM     54  C   UNL A   1      42.578  35.405  27.759  1.00  0.00     0.012 A 
ATOM     55  C   UNL A   1      44.962  35.538  28.196  1.00  0.00     0.148 A 
ATOM     56  C   UNL A   1      42.658  36.542  26.952  1.00  0.00     0.002 A 
ATOM     57  C   UNL A   1      45.026  36.701  27.436  1.00  0.00     0.091 A 
ATOM     58  F   UNL A   1      46.051  35.018  28.780  1.00  0.00    -0.205 F 
ATOM     59  C   UNL A   1      43.879  37.195  26.799  1.00  0.00     0.022 A 
BRANCH  57  60
ATOM     60  S   UNL A   1      46.529  37.673  27.283  1.00  0.00     0.127 S 
ATOM     61  O   UNL A   1      46.561  37.954  25.849  1.00  0.00    -0.237 OA
ATOM     62  O   UNL A   1      46.227  38.829  28.130  1.00  0.00    -0.237 OA
ATOM     63  O   UNL A   1      47.602  36.826  27.784  1.00  0.00    -0.744 OA
ENDBRANCH  57  60
ENDBRANCH  29  53
BRANCH  41  64
ATOM     64  C   UNL A   1      42.991  33.832  35.256  1.00  0.00     0.023 A 
ATOM     65  C   UNL A   1      44.155  34.318  35.878  1.00  0.00     0.012 A 
ATOM     66  C   UNL A   1      41.730  34.309  35.660  1.00  0.00     0.148 A 
ATOM     67  C   UNL A   1      44.063  35.248  36.911  1.00  0.00     0.002 A 
ATOM     68  C   UNL A   1      41.650  35.277  36.651  1.00  0.00     0.091 A 
ATOM     69  F   UNL A   1      40.635  33.813  35.065  1.00  0.00    -0.205 F 
ATOM     70  C   UNL A   1      42.814  35.738  37.287  1.00  0.00     0.022 A 
BRANCH  68  71
ATOM     71  S   UNL A   1      40.093  36.044  37.107  1.00  0.00     0.127 S 
ATOM     72  O   UNL A   1      39.601  36.512  35.812  1.00  0.00    -0.237 OA
ATOM     73  O   UNL A   1      39.347  34.920  37.673  1.00  0.00    -0.237 OA
ATOM     74  O   UNL A   1      40.426  37.089  38.066  1.00  0.00    -0.744 OA
ENDBRANCH  68  71
ENDBRANCH  41  64
ENDBRANCH  15  16
ENDBRANCH   8  10
ENDBRANCH   7   8
ENDBRANCH   6   7
ENDBRANCH   5   6
ENDBRANCH   4   5
ENDBRANCH   3   4
ENDBRANCH   2   3
ENDBRANCH   1   2
BRANCH   1  75
ATOM     75  C   UNL A   1      36.012  24.178  25.495  1.00  0.00     0.188 C 
BRANCH  75  76
ATOM     76  C   UNL A   1      34.808  24.115  24.530  1.00  0.00     0.188 C 
BRANCH  76  77
ATOM     77  O   UNL A   1      34.124  25.347  24.381  1.00  0.00    -0.376 OA
BRANCH  77  78
ATOM     78  C   UNL A   1      34.059  26.169  25.541  1.00  0.00     0.202 C 
BRANCH  78  79
ATOM     79  C   UNL A   1      32.692  26.799  25.870  1.00  0.00     0.261 C 
BRANCH  79  80
ATOM     80  O   UNL A   1      32.729  28.062  26.562  1.00  0.00    -0.460 OA
BRANCH  80  81
ATOM     81  C   UNL A   1      33.331  29.110  25.949  1.00  0.00     0.339 C 
ATOM     82  O   UNL A   1      33.057  29.584  24.870  1.00  0.00    -0.246 OA
BRANCH  81  83
ATOM     83  C   UNL A   1      34.233  29.742  26.936  1.00  0.00     0.078 A 
ATOM     84  C   UNL A   1      35.373  29.130  27.455  1.00  0.00     0.019 A 
ATOM     85  C   UNL A   1      33.833  30.949  27.486  1.00  0.00     0.127 A 
ATOM     86  C   UNL A   1      36.078  29.758  28.490  1.00  0.00     0.031 A 
ATOM     87  N   UNL A   1      34.474  31.554  28.514  1.00  0.00    -0.254 NA
ATOM     88  C   UNL A   1      35.606  30.972  28.995  1.00  0.00     0.094 A 
BRANCH  88  89
ATOM     89  C   UNL A   1      36.349  31.724  30.098  1.00  0.00     0.318 C 
BRANCH  89  90
ATOM     90  N   UNL A   1      37.790  31.468  29.999  1.00  0.00    -0.331 N 
ATOM     91  H   UNL A   1      38.238  32.341  29.719  1.00  0.00     0.347 HD
ATOM     92  H   UNL A   1      37.874  30.701  29.331  1.00  0.00     0.347 HD
BRANCH  90  93
ATOM     93  C   UNL A   1      38.477  30.990  31.208  1.00  0.00     0.272 C 
ATOM     94  C   UNL A   1      37.619  30.032  32.048  1.00  0.00     0.077 C 
ATOM     95  C   UNL A   1      39.910  30.518  30.893  1.00  0.00     0.278 C 
ATOM     96  C   UNL A   1      38.041  28.575  31.940  1.00  0.00     0.028 C 
ATOM     97  N   UNL A   1      40.302  29.293  31.353  1.00  0.00    -0.351 N 
ATOM     98  O   UNL A   1      40.694  31.187  30.219  1.00  0.00    -0.268 OA
ATOM     99  C   UNL A   1      39.524  28.461  32.235  1.00  0.00     0.116 C 
ATOM    100  H   UNL A   1      41.179  28.955  31.061  1.00  0.00     0.163 HD
ENDBRANCH  90  93
ENDBRANCH  89  90
ENDBRANCH  88  89
ENDBRANCH  81  83
ENDBRANCH  80  81
ENDBRANCH  79  80
ENDBRANCH  78  79
ENDBRANCH  77  78
ENDBRANCH  76  77
ENDBRANCH  75  76
ENDBRANCH   1  75
TORSDOF 26
ENDMDL
