MODEL 1
REMARK VINA RESULT:      -9.2      0.000      0.000
REMARK SMILES C[C@H](NC(=O)[C@@H]1CCCN(S(=O)(=O)c2ccc(Cl)cc2)C1)C(=O)OCCOCCOCCOCCOC(=O)c1ccc(-c2c3nc(c(-c4cccc(S(=O)(=O)[O-])c4F)c4ccc([nH]4)c(-c4cccc(S(=O)(=O)[O-])c4F)c4nc(c(-c5cccc(S(=O)(=O)[O-])c5F)c5ccc2[nH]5)C=C4)C=C3)cc1
REMARK SMILES IDX 29 1 28 2 27 3 26 4 25 5 24 6 22 7 23 8 2 9 1 10 3 11 4 12
REMARK SMILES IDX 5 14 6 15 7 16 21 17 8 18 10 19 9 20 11 21 12 22 13 23 14 24
REMARK SMILES IDX 15 25 20 26 16 27 19 28 17 29 18 30 30 31 31 32 32 33 33 34
REMARK SMILES IDX 34 35 35 36 36 37 37 38 38 39 39 40 40 41 101 42 41 43
REMARK SMILES IDX 100 44 42 45 43 46 44 47 94 48 45 49 99 50 93 51 95 52 46 53
REMARK SMILES IDX 98 54 92 55 91 56 47 58 79 59 59 60 78 61 60 62 63 63 77 64
REMARK SMILES IDX 96 65 61 66 62 67 76 69 97 70 64 71 48 72 49 73 57 74 50 75
REMARK SMILES IDX 52 76 58 77 51 78 53 79 54 80 55 81 56 82 80 83 81 84 89 85
REMARK SMILES IDX 82 86 84 87 90 88 83 89 85 90 86 91 87 92 88 93 65 94 66 95
REMARK SMILES IDX 74 96 67 97 69 98 75 99 68 100 70 101 71 102 72 103 73 104
REMARK H PARENT 3 13 95 57 63 68
REMARK Flexibility Score: inf
ROOT
ATOM      1  C   UNL A   1      37.562  23.399  26.110  1.00  0.00     0.188 C 
ENDROOT
BRANCH   1   2
ATOM      2  C   UNL A   1      37.219  23.151  24.633  1.00  0.00     0.188 C 
BRANCH   2   3
ATOM      3  O   UNL A   1      36.893  21.858  24.169  1.00  0.00    -0.376 OA
BRANCH   3   4
ATOM      4  C   UNL A   1      36.300  20.847  24.970  1.00  0.00     0.202 C 
BRANCH   4   5
ATOM      5  C   UNL A   1      34.801  20.580  25.141  1.00  0.00     0.261 C 
BRANCH   5   6
ATOM      6  O   UNL A   1      33.921  21.652  24.815  1.00  0.00    -0.462 OA
BRANCH   6   7
ATOM      7  C   UNL A   1      32.944  21.319  23.940  1.00  0.00     0.328 C 
ATOM      8  O   UNL A   1      32.243  20.316  24.050  1.00  0.00    -0.250 OA
BRANCH   7   9
ATOM      9  C   UNL A   1      32.803  22.299  22.774  1.00  0.00     0.189 C 
ATOM     10  C   UNL A   1      34.062  23.108  22.581  1.00  0.00     0.043 C 
BRANCH   9  11
ATOM     11  N   UNL A   1      31.632  23.134  22.574  1.00  0.00    -0.343 N 
ATOM     12  C   UNL A   1      31.097  24.082  23.392  1.00  0.00     0.225 C 
ATOM     13  H   UNL A   1      31.155  22.995  21.724  1.00  0.00     0.164 HD
ATOM     14  O   UNL A   1      29.962  24.490  23.117  1.00  0.00    -0.275 OA
BRANCH  12  15
ATOM     15  C   UNL A   1      31.848  24.710  24.579  1.00  0.00     0.094 C 
ATOM     16  C   UNL A   1      31.178  24.487  25.933  1.00  0.00     0.016 C 
ATOM     17  C   UNL A   1      32.402  26.120  24.371  1.00  0.00     0.116 C 
ATOM     18  C   UNL A   1      30.427  25.678  26.506  1.00  0.00     0.018 C 
ATOM     19  N   UNL A   1      31.440  27.193  24.757  1.00  0.00    -0.197 NA
ATOM     20  C   UNL A   1      30.973  27.067  26.167  1.00  0.00     0.102 C 
BRANCH  19  21
ATOM     21  S   UNL A   1      31.912  28.788  24.261  1.00  0.00     0.243 S 
ATOM     22  O   UNL A   1      32.793  28.644  23.115  1.00  0.00    -0.207 OA
ATOM     23  O   UNL A   1      30.714  29.589  24.188  1.00  0.00    -0.207 OA
BRANCH  21  24
ATOM     24  C   UNL A   1      32.899  29.437  25.611  1.00  0.00     0.082 A 
ATOM     25  C   UNL A   1      32.446  30.525  26.363  1.00  0.00     0.023 A 
ATOM     26  C   UNL A   1      34.121  28.825  25.943  1.00  0.00     0.023 A 
ATOM     27  C   UNL A   1      33.243  31.041  27.393  1.00  0.00     0.022 A 
ATOM     28  C   UNL A   1      34.912  29.339  26.981  1.00  0.00     0.022 A 
ATOM     29  C   UNL A   1      34.474  30.454  27.693  1.00  0.00     0.041 A 
ATOM     30  Cl  UNL A   1      35.446  31.127  28.944  1.00  0.00    -0.084 Cl
ENDBRANCH  21  24
ENDBRANCH  19  21
ENDBRANCH  12  15
ENDBRANCH   9  11
ENDBRANCH   7   9
ENDBRANCH   6   7
ENDBRANCH   5   6
ENDBRANCH   4   5
ENDBRANCH   3   4
ENDBRANCH   2   3
ENDBRANCH   1   2
BRANCH   1  31
ATOM     31  O   UNL A   1      38.900  23.192  26.504  1.00  0.00    -0.377 OA
BRANCH  31  32
ATOM     32  C   UNL A   1      39.570  21.999  26.097  1.00  0.00     0.188 C 
BRANCH  32  33
ATOM     33  C   UNL A   1      40.969  21.629  26.643  1.00  0.00     0.188 C 
BRANCH  33  34
ATOM     34  O   UNL A   1      41.996  21.558  25.671  1.00  0.00    -0.376 OA
BRANCH  34  35
ATOM     35  C   UNL A   1      42.772  22.718  25.422  1.00  0.00     0.202 C 
BRANCH  35  36
ATOM     36  C   UNL A   1      42.824  23.804  26.507  1.00  0.00     0.261 C 
BRANCH  36  37
ATOM     37  O   UNL A   1      43.155  25.133  26.078  1.00  0.00    -0.460 OA
BRANCH  37  38
ATOM     38  C   UNL A   1      42.152  26.010  25.859  1.00  0.00     0.338 C 
ATOM     39  O   UNL A   1      41.072  25.779  25.347  1.00  0.00    -0.246 OA
BRANCH  38  40
ATOM     40  C   UNL A   1      42.512  27.269  26.549  1.00  0.00     0.060 A 
ATOM     41  C   UNL A   1      43.077  27.214  27.832  1.00  0.00     0.016 A 
ATOM     42  C   UNL A   1      42.308  28.498  25.919  1.00  0.00     0.016 A 
ATOM     43  C   UNL A   1      43.404  28.391  28.505  1.00  0.00     0.010 A 
ATOM     44  C   UNL A   1      42.613  29.675  26.603  1.00  0.00     0.010 A 
ATOM     45  C   UNL A   1      43.127  29.629  27.912  1.00  0.00    -0.014 A 
BRANCH  45  46
ATOM     46  C   UNL A   1      43.156  30.870  28.722  1.00  0.00     0.031 A 
ATOM     47  C   UNL A   1      44.423  31.677  28.726  1.00  0.00     0.074 A 
ATOM     48  C   UNL A   1      42.108  31.249  29.474  1.00  0.00     0.049 A 
ATOM     49  N   UNL A   1      44.744  32.717  29.447  1.00  0.00    -0.248 NA
ATOM     50  C   UNL A   1      45.478  31.239  27.796  1.00  0.00     0.031 C 
ATOM     51  C   UNL A   1      40.823  30.561  29.542  1.00  0.00     0.029 A 
ATOM     52  N   UNL A   1      41.986  32.290  30.363  1.00  0.00    -0.354 N 
ATOM     53  C   UNL A   1      46.052  33.028  29.097  1.00  0.00     0.074 A 
ATOM     54  C   UNL A   1      46.465  32.067  28.098  1.00  0.00     0.031 C 
ATOM     55  C   UNL A   1      40.056  31.165  30.466  1.00  0.00     0.029 A 
ATOM     56  C   UNL A   1      40.813  32.257  31.081  1.00  0.00     0.049 A 
ATOM     57  H   UNL A   1      42.669  32.989  30.475  1.00  0.00     0.167 HD
ATOM     58  C   UNL A   1      46.841  34.023  29.565  1.00  0.00     0.034 A 
ATOM     59  C   UNL A   1      40.419  32.987  32.144  1.00  0.00     0.034 A 
ATOM     60  C   UNL A   1      46.423  34.978  30.553  1.00  0.00     0.049 A 
ATOM     61  C   UNL A   1      41.322  34.073  32.673  1.00  0.00     0.074 A 
ATOM     62  C   UNL A   1      47.123  36.063  31.049  1.00  0.00     0.029 A 
ATOM     63  N   UNL A   1      45.207  34.947  31.218  1.00  0.00    -0.354 N 
ATOM     64  N   UNL A   1      42.513  34.432  32.256  1.00  0.00    -0.248 NA
ATOM     65  C   UNL A   1      40.820  34.872  33.802  1.00  0.00     0.031 C 
ATOM     66  C   UNL A   1      46.352  36.657  32.052  1.00  0.00     0.029 A 
ATOM     67  C   UNL A   1      45.147  35.978  32.140  1.00  0.00     0.049 A 
ATOM     68  H   UNL A   1      44.493  34.289  31.060  1.00  0.00     0.167 HD
ATOM     69  C   UNL A   1      42.884  35.519  33.041  1.00  0.00     0.074 A 
ATOM     70  C   UNL A   1      41.788  35.766  33.955  1.00  0.00     0.031 C 
ATOM     71  C   UNL A   1      44.030  36.244  33.011  1.00  0.00     0.034 A 
BRANCH  58  72
ATOM     72  C   UNL A   1      48.242  34.114  29.023  1.00  0.00     0.023 A 
ATOM     73  C   UNL A   1      49.311  33.502  29.710  1.00  0.00     0.012 A 
ATOM     74  C   UNL A   1      48.494  34.785  27.811  1.00  0.00     0.148 A 
ATOM     75  C   UNL A   1      50.614  33.597  29.224  1.00  0.00     0.002 A 
ATOM     76  C   UNL A   1      49.787  34.831  27.306  1.00  0.00     0.091 A 
ATOM     77  F   UNL A   1      47.470  35.383  27.185  1.00  0.00    -0.205 F 
ATOM     78  C   UNL A   1      50.850  34.251  28.017  1.00  0.00     0.022 A 
BRANCH  76  79
ATOM     79  S   UNL A   1      50.178  35.576  25.719  1.00  0.00     0.127 S 
ATOM     80  O   UNL A   1      51.494  36.154  25.982  1.00  0.00    -0.237 OA
ATOM     81  O   UNL A   1      50.189  34.415  24.830  1.00  0.00    -0.237 OA
ATOM     82  O   UNL A   1      49.115  36.535  25.453  1.00  0.00    -0.744 OA
ENDBRANCH  76  79
ENDBRANCH  58  72
BRANCH  59  83
ATOM     83  C   UNL A   1      39.101  32.706  32.782  1.00  0.00     0.023 A 
ATOM     84  C   UNL A   1      39.007  31.747  33.808  1.00  0.00     0.012 A 
ATOM     85  C   UNL A   1      37.946  33.416  32.397  1.00  0.00     0.148 A 
ATOM     86  C   UNL A   1      37.782  31.482  34.422  1.00  0.00     0.002 A 
ATOM     87  C   UNL A   1      36.743  33.194  33.057  1.00  0.00     0.091 A 
ATOM     88  F   UNL A   1      38.055  34.315  31.408  1.00  0.00    -0.205 F 
ATOM     89  C   UNL A   1      36.654  32.213  34.056  1.00  0.00     0.022 A 
BRANCH  87  90
ATOM     90  S   UNL A   1      35.276  34.186  32.750  1.00  0.00     0.127 S 
ATOM     91  O   UNL A   1      35.048  33.949  31.327  1.00  0.00    -0.237 OA
ATOM     92  O   UNL A   1      34.302  33.562  33.647  1.00  0.00    -0.237 OA
ATOM     93  O   UNL A   1      35.635  35.550  33.110  1.00  0.00    -0.744 OA
ENDBRANCH  87  90
ENDBRANCH  59  83
BRANCH  71  94
ATOM     94  C   UNL A   1      44.158  37.419  33.948  1.00  0.00     0.023 A 
ATOM     95  C   UNL A   1      44.627  37.232  35.262  1.00  0.00     0.012 A 
ATOM     96  C   UNL A   1      43.917  38.726  33.478  1.00  0.00     0.148 A 
ATOM     97  C   UNL A   1      44.835  38.327  36.101  1.00  0.00     0.002 A 
ATOM     98  C   UNL A   1      44.178  39.815  34.301  1.00  0.00     0.091 A 
ATOM     99  F   UNL A   1      43.457  38.880  32.228  1.00  0.00    -0.205 F 
ATOM    100  C   UNL A   1      44.625  39.617  35.617  1.00  0.00     0.022 A 
BRANCH  98 101
ATOM    101  S   UNL A   1      44.036  41.512  33.732  1.00  0.00     0.127 S 
ATOM    102  O   UNL A   1      44.302  41.370  32.300  1.00  0.00    -0.237 OA
ATOM    103  O   UNL A   1      42.649  41.835  34.066  1.00  0.00    -0.237 OA
ATOM    104  O   UNL A   1      45.034  42.273  34.472  1.00  0.00    -0.744 OA
ENDBRANCH  98 101
ENDBRANCH  71  94
ENDBRANCH  45  46
ENDBRANCH  38  40
ENDBRANCH  37  38
ENDBRANCH  36  37
ENDBRANCH  35  36
ENDBRANCH  34  35
ENDBRANCH  33  34
ENDBRANCH  32  33
ENDBRANCH  31  32
ENDBRANCH   1  31
TORSDOF 27
ENDMDL
MODEL 2
REMARK VINA RESULT:      -9.0      3.659      8.757
REMARK SMILES C[C@H](NC(=O)[C@@H]1CCCN(S(=O)(=O)c2ccc(Cl)cc2)C1)C(=O)OCCOCCOCCOCCOC(=O)c1ccc(-c2c3nc(c(-c4cccc(S(=O)(=O)[O-])c4F)c4ccc([nH]4)c(-c4cccc(S(=O)(=O)[O-])c4F)c4nc(c(-c5cccc(S(=O)(=O)[O-])c5F)c5ccc2[nH]5)C=C4)C=C3)cc1
REMARK SMILES IDX 29 1 28 2 27 3 26 4 25 5 24 6 22 7 23 8 2 9 1 10 3 11 4 12
REMARK SMILES IDX 5 14 6 15 7 16 21 17 8 18 10 19 9 20 11 21 12 22 13 23 14 24
REMARK SMILES IDX 15 25 20 26 16 27 19 28 17 29 18 30 30 31 31 32 32 33 33 34
REMARK SMILES IDX 34 35 35 36 36 37 37 38 38 39 39 40 40 41 101 42 41 43
REMARK SMILES IDX 100 44 42 45 43 46 44 47 94 48 45 49 99 50 93 51 95 52 46 53
REMARK SMILES IDX 98 54 92 55 91 56 47 58 79 59 59 60 78 61 60 62 63 63 77 64
REMARK SMILES IDX 96 65 61 66 62 67 76 69 97 70 64 71 48 72 49 73 57 74 50 75
REMARK SMILES IDX 52 76 58 77 51 78 53 79 54 80 55 81 56 82 80 83 81 84 89 85
REMARK SMILES IDX 82 86 84 87 90 88 83 89 85 90 86 91 87 92 88 93 65 94 66 95
REMARK SMILES IDX 74 96 67 97 69 98 75 99 68 100 70 101 71 102 72 103 73 104
REMARK H PARENT 3 13 95 57 63 68
REMARK Flexibility Score: inf
ROOT
ATOM      1  C   UNL A   1      33.539  35.016  29.708  1.00  0.00     0.188 C 
ENDROOT
BRANCH   1   2
ATOM      2  C   UNL A   1      34.051  33.579  29.534  1.00  0.00     0.188 C 
BRANCH   2   3
ATOM      3  O   UNL A   1      35.070  33.277  28.604  1.00  0.00    -0.376 OA
BRANCH   3   4
ATOM      4  C   UNL A   1      35.122  32.084  27.834  1.00  0.00     0.202 C 
BRANCH   4   5
ATOM      5  C   UNL A   1      34.027  31.017  27.731  1.00  0.00     0.261 C 
BRANCH   5   6
ATOM      6  O   UNL A   1      33.654  30.611  26.417  1.00  0.00    -0.462 OA
BRANCH   6   7
ATOM      7  C   UNL A   1      32.319  30.504  26.230  1.00  0.00     0.328 C 
ATOM      8  O   UNL A   1      31.512  31.368  26.567  1.00  0.00    -0.250 OA
BRANCH   7   9
ATOM      9  C   UNL A   1      31.892  29.188  25.577  1.00  0.00     0.189 C 
ATOM     10  C   UNL A   1      31.318  29.420  24.201  1.00  0.00     0.043 C 
BRANCH   9  11
ATOM     11  N   UNL A   1      31.136  28.163  26.273  1.00  0.00    -0.343 N 
ATOM     12  C   UNL A   1      31.055  26.828  26.019  1.00  0.00     0.225 C 
ATOM     13  H   UNL A   1      30.605  28.478  27.039  1.00  0.00     0.164 HD
ATOM     14  O   UNL A   1      30.161  26.197  26.596  1.00  0.00    -0.275 OA
BRANCH  12  15
ATOM     15  C   UNL A   1      32.044  26.066  25.120  1.00  0.00     0.094 C 
ATOM     16  C   UNL A   1      31.621  25.975  23.657  1.00  0.00     0.016 C 
ATOM     17  C   UNL A   1      32.633  24.775  25.691  1.00  0.00     0.116 C 
ATOM     18  C   UNL A   1      31.058  24.635  23.210  1.00  0.00     0.018 C 
ATOM     19  N   UNL A   1      31.822  23.565  25.367  1.00  0.00    -0.197 NA
ATOM     20  C   UNL A   1      31.613  23.388  23.902  1.00  0.00     0.102 C 
BRANCH  19  21
ATOM     21  S   UNL A   1      32.289  22.138  26.238  1.00  0.00     0.243 S 
ATOM     22  O   UNL A   1      32.080  22.404  27.651  1.00  0.00    -0.207 OA
ATOM     23  O   UNL A   1      31.663  21.012  25.588  1.00  0.00    -0.207 OA
BRANCH  21  24
ATOM     24  C   UNL A   1      34.057  21.979  25.983  1.00  0.00     0.082 A 
ATOM     25  C   UNL A   1      34.938  22.938  26.491  1.00  0.00     0.023 A 
ATOM     26  C   UNL A   1      34.568  20.860  25.300  1.00  0.00     0.023 A 
ATOM     27  C   UNL A   1      36.313  22.817  26.255  1.00  0.00     0.022 A 
ATOM     28  C   UNL A   1      35.948  20.738  25.074  1.00  0.00     0.022 A 
ATOM     29  C   UNL A   1      36.813  21.725  25.543  1.00  0.00     0.041 A 
ATOM     30  Cl  UNL A   1      38.504  21.616  25.243  1.00  0.00    -0.084 Cl
ENDBRANCH  21  24
ENDBRANCH  19  21
ENDBRANCH  12  15
ENDBRANCH   9  11
ENDBRANCH   7   9
ENDBRANCH   6   7
ENDBRANCH   5   6
ENDBRANCH   4   5
ENDBRANCH   3   4
ENDBRANCH   2   3
ENDBRANCH   1   2
BRANCH   1  31
ATOM     31  O   UNL A   1      34.124  35.789  30.732  1.00  0.00    -0.377 OA
BRANCH  31  32
ATOM     32  C   UNL A   1      33.631  35.666  32.066  1.00  0.00     0.188 C 
BRANCH  32  33
ATOM     33  C   UNL A   1      34.532  35.163  33.219  1.00  0.00     0.188 C 
BRANCH  33  34
ATOM     34  O   UNL A   1      35.924  35.268  32.986  1.00  0.00    -0.376 OA
BRANCH  34  35
ATOM     35  C   UNL A   1      36.600  34.158  32.421  1.00  0.00     0.202 C 
BRANCH  35  36
ATOM     36  C   UNL A   1      36.214  32.751  32.902  1.00  0.00     0.261 C 
BRANCH  36  37
ATOM     37  O   UNL A   1      37.265  31.942  33.451  1.00  0.00    -0.460 OA
BRANCH  37  38
ATOM     38  C   UNL A   1      37.610  30.806  32.806  1.00  0.00     0.338 C 
ATOM     39  O   UNL A   1      36.944  29.793  32.695  1.00  0.00    -0.246 OA
BRANCH  38  40
ATOM     40  C   UNL A   1      38.862  31.083  32.069  1.00  0.00     0.060 A 
ATOM     41  C   UNL A   1      39.954  31.640  32.751  1.00  0.00     0.016 A 
ATOM     42  C   UNL A   1      38.960  30.775  30.711  1.00  0.00     0.016 A 
ATOM     43  C   UNL A   1      41.136  31.926  32.067  1.00  0.00     0.010 A 
ATOM     44  C   UNL A   1      40.134  31.084  30.023  1.00  0.00     0.010 A 
ATOM     45  C   UNL A   1      41.213  31.695  30.688  1.00  0.00    -0.014 A 
BRANCH  45  46
ATOM     46  C   UNL A   1      42.314  32.286  29.890  1.00  0.00     0.031 A 
ATOM     47  C   UNL A   1      43.533  31.444  29.645  1.00  0.00     0.074 A 
ATOM     48  C   UNL A   1      42.260  33.550  29.436  1.00  0.00     0.049 A 
ATOM     49  N   UNL A   1      44.672  31.770  29.097  1.00  0.00    -0.248 NA
ATOM     50  C   UNL A   1      43.459  30.042  30.092  1.00  0.00     0.031 C 
ATOM     51  C   UNL A   1      41.129  34.459  29.597  1.00  0.00     0.029 A 
ATOM     52  N   UNL A   1      43.211  34.299  28.786  1.00  0.00    -0.354 N 
ATOM     53  C   UNL A   1      45.468  30.634  29.179  1.00  0.00     0.074 A 
ATOM     54  C   UNL A   1      44.681  29.608  29.828  1.00  0.00     0.031 C 
ATOM     55  C   UNL A   1      41.468  35.663  29.107  1.00  0.00     0.029 A 
ATOM     56  C   UNL A   1      42.854  35.618  28.634  1.00  0.00     0.049 A 
ATOM     57  H   UNL A   1      44.062  33.929  28.460  1.00  0.00     0.167 HD
ATOM     58  C   UNL A   1      46.741  30.458  28.753  1.00  0.00     0.034 A 
ATOM     59  C   UNL A   1      43.577  36.676  28.214  1.00  0.00     0.034 A 
ATOM     60  C   UNL A   1      47.516  31.479  28.103  1.00  0.00     0.049 A 
ATOM     61  C   UNL A   1      45.004  36.470  27.772  1.00  0.00     0.074 A 
ATOM     62  C   UNL A   1      48.791  31.383  27.577  1.00  0.00     0.029 A 
ATOM     63  N   UNL A   1      47.101  32.788  27.918  1.00  0.00    -0.354 N 
ATOM     64  N   UNL A   1      45.708  35.364  27.746  1.00  0.00    -0.248 NA
ATOM     65  C   UNL A   1      45.729  37.649  27.275  1.00  0.00     0.031 C 
ATOM     66  C   UNL A   1      49.168  32.649  27.120  1.00  0.00     0.029 A 
ATOM     67  C   UNL A   1      48.106  33.519  27.308  1.00  0.00     0.049 A 
ATOM     68  H   UNL A   1      46.223  33.145  28.180  1.00  0.00     0.167 HD
ATOM     69  C   UNL A   1      46.941  35.704  27.197  1.00  0.00     0.074 A 
ATOM     70  C   UNL A   1      46.885  37.120  26.896  1.00  0.00     0.031 C 
ATOM     71  C   UNL A   1      48.021  34.917  26.967  1.00  0.00     0.034 A 
BRANCH  58  72
ATOM     72  C   UNL A   1      47.377  29.116  28.995  1.00  0.00     0.023 A 
ATOM     73  C   UNL A   1      48.122  28.884  30.170  1.00  0.00     0.012 A 
ATOM     74  C   UNL A   1      47.209  28.071  28.067  1.00  0.00     0.148 A 
ATOM     75  C   UNL A   1      48.729  27.649  30.393  1.00  0.00     0.002 A 
ATOM     76  C   UNL A   1      47.772  26.827  28.320  1.00  0.00     0.091 A 
ATOM     77  F   UNL A   1      46.518  28.317  26.944  1.00  0.00    -0.205 F 
ATOM     78  C   UNL A   1      48.545  26.618  29.474  1.00  0.00     0.022 A 
BRANCH  76  79
ATOM     79  S   UNL A   1      47.520  25.414  27.240  1.00  0.00     0.127 S 
ATOM     80  O   UNL A   1      48.623  24.541  27.637  1.00  0.00    -0.237 OA
ATOM     81  O   UNL A   1      46.196  24.948  27.650  1.00  0.00    -0.237 OA
ATOM     82  O   UNL A   1      47.589  25.930  25.881  1.00  0.00    -0.744 OA
ENDBRANCH  76  79
ENDBRANCH  58  72
BRANCH  59  83
ATOM     83  C   UNL A   1      42.957  38.033  28.199  1.00  0.00     0.023 A 
ATOM     84  C   UNL A   1      42.182  38.439  27.097  1.00  0.00     0.012 A 
ATOM     85  C   UNL A   1      43.106  38.907  29.294  1.00  0.00     0.148 A 
ATOM     86  C   UNL A   1      41.587  39.701  27.076  1.00  0.00     0.002 A 
ATOM     87  C   UNL A   1      42.458  40.135  29.295  1.00  0.00     0.091 A 
ATOM     88  F   UNL A   1      43.861  38.504  30.327  1.00  0.00    -0.205 F 
ATOM     89  C   UNL A   1      41.715  40.544  28.178  1.00  0.00     0.022 A 
BRANCH  87  90
ATOM     90  S   UNL A   1      42.449  41.223  30.725  1.00  0.00     0.127 S 
ATOM     91  O   UNL A   1      43.587  42.095  30.444  1.00  0.00    -0.237 OA
ATOM     92  O   UNL A   1      41.137  41.859  30.609  1.00  0.00    -0.237 OA
ATOM     93  O   UNL A   1      42.595  40.356  31.886  1.00  0.00    -0.744 OA
ENDBRANCH  87  90
ENDBRANCH  59  83
BRANCH  71  94
ATOM     94  C   UNL A   1      49.227  35.534  26.306  1.00  0.00     0.023 A 
ATOM     95  C   UNL A   1      49.470  35.327  24.934  1.00  0.00     0.012 A 
ATOM     96  C   UNL A   1      50.055  36.416  27.030  1.00  0.00     0.148 A 
ATOM     97  C   UNL A   1      50.532  35.972  24.299  1.00  0.00     0.002 A 
ATOM     98  C   UNL A   1      51.077  37.097  26.379  1.00  0.00     0.091 A 
ATOM     99  F   UNL A   1      49.814  36.589  28.337  1.00  0.00    -0.205 F 
ATOM    100  C   UNL A   1      51.324  36.866  25.016  1.00  0.00     0.022 A 
BRANCH  98 101
ATOM    101  S   UNL A   1      52.081  38.342  27.194  1.00  0.00     0.127 S 
ATOM    102  O   UNL A   1      52.963  38.771  26.109  1.00  0.00    -0.237 OA
ATOM    103  O   UNL A   1      51.081  39.331  27.594  1.00  0.00    -0.237 OA
ATOM    104  O   UNL A   1      52.746  37.667  28.300  1.00  0.00    -0.744 OA
ENDBRANCH  98 101
ENDBRANCH  71  94
ENDBRANCH  45  46
ENDBRANCH  38  40
ENDBRANCH  37  38
ENDBRANCH  36  37
ENDBRANCH  35  36
ENDBRANCH  34  35
ENDBRANCH  33  34
ENDBRANCH  32  33
ENDBRANCH  31  32
ENDBRANCH   1  31
TORSDOF 27
ENDMDL
MODEL 3
REMARK VINA RESULT:      -8.9      4.028      9.086
REMARK SMILES C[C@H](NC(=O)[C@@H]1CCCN(S(=O)(=O)c2ccc(Cl)cc2)C1)C(=O)OCCOCCOCCOCCOC(=O)c1ccc(-c2c3nc(c(-c4cccc(S(=O)(=O)[O-])c4F)c4ccc([nH]4)c(-c4cccc(S(=O)(=O)[O-])c4F)c4nc(c(-c5cccc(S(=O)(=O)[O-])c5F)c5ccc2[nH]5)C=C4)C=C3)cc1
REMARK SMILES IDX 29 1 28 2 27 3 26 4 25 5 24 6 22 7 23 8 2 9 1 10 3 11 4 12
REMARK SMILES IDX 5 14 6 15 7 16 21 17 8 18 10 19 9 20 11 21 12 22 13 23 14 24
REMARK SMILES IDX 15 25 20 26 16 27 19 28 17 29 18 30 30 31 31 32 32 33 33 34
REMARK SMILES IDX 34 35 35 36 36 37 37 38 38 39 39 40 40 41 101 42 41 43
REMARK SMILES IDX 100 44 42 45 43 46 44 47 94 48 45 49 99 50 93 51 95 52 46 53
REMARK SMILES IDX 98 54 92 55 91 56 47 58 79 59 59 60 78 61 60 62 63 63 77 64
REMARK SMILES IDX 96 65 61 66 62 67 76 69 97 70 64 71 48 72 49 73 57 74 50 75
REMARK SMILES IDX 52 76 58 77 51 78 53 79 54 80 55 81 56 82 80 83 81 84 89 85
REMARK SMILES IDX 82 86 84 87 90 88 83 89 85 90 86 91 87 92 88 93 65 94 66 95
REMARK SMILES IDX 74 96 67 97 69 98 75 99 68 100 70 101 71 102 72 103 73 104
REMARK H PARENT 3 13 95 57 63 68
REMARK Flexibility Score: inf
ROOT
ATOM      1  C   UNL A   1      33.474  34.947  29.707  1.00  0.00     0.188 C 
ENDROOT
BRANCH   1   2
ATOM      2  C   UNL A   1      34.123  33.571  29.493  1.00  0.00     0.188 C 
BRANCH   2   3
ATOM      3  O   UNL A   1      34.813  33.270  28.298  1.00  0.00    -0.376 OA
BRANCH   3   4
ATOM      4  C   UNL A   1      34.943  31.963  27.757  1.00  0.00     0.202 C 
BRANCH   4   5
ATOM      5  C   UNL A   1      33.853  30.887  27.704  1.00  0.00     0.261 C 
BRANCH   5   6
ATOM      6  O   UNL A   1      33.642  30.255  26.445  1.00  0.00    -0.462 OA
BRANCH   6   7
ATOM      7  C   UNL A   1      32.343  30.183  26.074  1.00  0.00     0.328 C 
ATOM      8  O   UNL A   1      31.491  31.003  26.411  1.00  0.00    -0.250 OA
BRANCH   7   9
ATOM      9  C   UNL A   1      32.017  28.965  25.207  1.00  0.00     0.189 C 
ATOM     10  C   UNL A   1      31.086  29.330  24.077  1.00  0.00     0.043 C 
BRANCH   9  11
ATOM     11  N   UNL A   1      31.659  27.670  25.757  1.00  0.00    -0.343 N 
ATOM     12  C   UNL A   1      32.129  26.435  25.434  1.00  0.00     0.225 C 
ATOM     13  H   UNL A   1      30.977  27.687  26.467  1.00  0.00     0.164 HD
ATOM     14  O   UNL A   1      31.502  25.460  25.867  1.00  0.00    -0.275 OA
BRANCH  12  15
ATOM     15  C   UNL A   1      33.418  26.193  24.628  1.00  0.00     0.094 C 
ATOM     16  C   UNL A   1      33.198  26.039  23.125  1.00  0.00     0.016 C 
ATOM     17  C   UNL A   1      34.425  25.211  25.226  1.00  0.00     0.116 C 
ATOM     18  C   UNL A   1      33.267  24.618  22.588  1.00  0.00     0.018 C 
ATOM     19  N   UNL A   1      34.205  23.802  24.786  1.00  0.00    -0.197 NA
ATOM     20  C   UNL A   1      34.216  23.654  23.303  1.00  0.00     0.102 C 
BRANCH  19  21
ATOM     21  S   UNL A   1      35.130  22.627  25.666  1.00  0.00     0.243 S 
ATOM     22  O   UNL A   1      36.509  22.735  25.220  1.00  0.00    -0.207 OA
ATOM     23  O   UNL A   1      34.782  22.760  27.060  1.00  0.00    -0.207 OA
BRANCH  21  24
ATOM     24  C   UNL A   1      34.520  21.030  25.121  1.00  0.00     0.082 A 
ATOM     25  C   UNL A   1      35.389  19.945  24.987  1.00  0.00     0.023 A 
ATOM     26  C   UNL A   1      33.148  20.857  24.861  1.00  0.00     0.023 A 
ATOM     27  C   UNL A   1      34.903  18.714  24.528  1.00  0.00     0.022 A 
ATOM     28  C   UNL A   1      32.664  19.619  24.410  1.00  0.00     0.022 A 
ATOM     29  C   UNL A   1      33.548  18.557  24.234  1.00  0.00     0.041 A 
ATOM     30  Cl  UNL A   1      32.983  17.041  23.644  1.00  0.00    -0.084 Cl
ENDBRANCH  21  24
ENDBRANCH  19  21
ENDBRANCH  12  15
ENDBRANCH   9  11
ENDBRANCH   7   9
ENDBRANCH   6   7
ENDBRANCH   5   6
ENDBRANCH   4   5
ENDBRANCH   3   4
ENDBRANCH   2   3
ENDBRANCH   1   2
BRANCH   1  31
ATOM     31  O   UNL A   1      33.955  35.727  30.778  1.00  0.00    -0.377 OA
BRANCH  31  32
ATOM     32  C   UNL A   1      33.488  35.458  32.101  1.00  0.00     0.188 C 
BRANCH  32  33
ATOM     33  C   UNL A   1      34.447  34.977  33.216  1.00  0.00     0.188 C 
BRANCH  33  34
ATOM     34  O   UNL A   1      35.826  35.114  32.925  1.00  0.00    -0.376 OA
BRANCH  34  35
ATOM     35  C   UNL A   1      36.531  33.981  32.449  1.00  0.00     0.202 C 
BRANCH  35  36
ATOM     36  C   UNL A   1      36.110  32.595  32.961  1.00  0.00     0.261 C 
BRANCH  36  37
ATOM     37  O   UNL A   1      37.150  31.753  33.480  1.00  0.00    -0.460 OA
BRANCH  37  38
ATOM     38  C   UNL A   1      37.455  30.617  32.814  1.00  0.00     0.338 C 
ATOM     39  O   UNL A   1      36.752  29.633  32.681  1.00  0.00    -0.246 OA
BRANCH  38  40
ATOM     40  C   UNL A   1      38.721  30.862  32.088  1.00  0.00     0.060 A 
ATOM     41  C   UNL A   1      39.835  31.346  32.789  1.00  0.00     0.016 A 
ATOM     42  C   UNL A   1      38.808  30.593  30.721  1.00  0.00     0.016 A 
ATOM     43  C   UNL A   1      41.031  31.600  32.116  1.00  0.00     0.010 A 
ATOM     44  C   UNL A   1      39.996  30.871  30.044  1.00  0.00     0.010 A 
ATOM     45  C   UNL A   1      41.100  31.410  30.730  1.00  0.00    -0.014 A 
BRANCH  45  46
ATOM     46  C   UNL A   1      42.228  31.976  29.953  1.00  0.00     0.031 A 
ATOM     47  C   UNL A   1      43.367  31.061  29.601  1.00  0.00     0.074 A 
ATOM     48  C   UNL A   1      42.271  33.275  29.610  1.00  0.00     0.049 A 
ATOM     49  N   UNL A   1      44.517  31.340  29.050  1.00  0.00    -0.248 NA
ATOM     50  C   UNL A   1      43.186  29.637  29.931  1.00  0.00     0.031 C 
ATOM     51  C   UNL A   1      41.224  34.256  29.880  1.00  0.00     0.029 A 
ATOM     52  N   UNL A   1      43.266  33.997  28.997  1.00  0.00    -0.354 N 
ATOM     53  C   UNL A   1      45.216  30.140  29.012  1.00  0.00     0.074 A 
ATOM     54  C   UNL A   1      44.361  29.130  29.595  1.00  0.00     0.031 C 
ATOM     55  C   UNL A   1      41.653  35.467  29.483  1.00  0.00     0.029 A 
ATOM     56  C   UNL A   1      43.018  35.350  28.968  1.00  0.00     0.049 A 
ATOM     57  H   UNL A   1      44.076  33.588  28.616  1.00  0.00     0.167 HD
ATOM     58  C   UNL A   1      46.460  29.898  28.536  1.00  0.00     0.034 A 
ATOM     59  C   UNL A   1      43.818  36.377  28.618  1.00  0.00     0.034 A 
ATOM     60  C   UNL A   1      47.303  30.904  27.952  1.00  0.00     0.049 A 
ATOM     61  C   UNL A   1      45.213  36.094  28.118  1.00  0.00     0.074 A 
ATOM     62  C   UNL A   1      48.554  30.751  27.383  1.00  0.00     0.029 A 
ATOM     63  N   UNL A   1      46.996  32.254  27.890  1.00  0.00    -0.354 N 
ATOM     64  N   UNL A   1      45.821  34.940  27.978  1.00  0.00    -0.248 NA
ATOM     65  C   UNL A   1      46.023  37.249  27.702  1.00  0.00     0.031 C 
ATOM     66  C   UNL A   1      49.026  32.017  27.023  1.00  0.00     0.029 A 
ATOM     67  C   UNL A   1      48.045  32.951  27.315  1.00  0.00     0.049 A 
ATOM     68  H   UNL A   1      46.157  32.658  28.208  1.00  0.00     0.167 HD
ATOM     69  C   UNL A   1      47.065  35.225  27.424  1.00  0.00     0.074 A 
ATOM     70  C   UNL A   1      47.122  36.661  27.245  1.00  0.00     0.031 C 
ATOM     71  C   UNL A   1      48.070  34.375  27.097  1.00  0.00     0.034 A 
BRANCH  58  72
ATOM     72  C   UNL A   1      46.986  28.492  28.645  1.00  0.00     0.023 A 
ATOM     73  C   UNL A   1      46.770  27.570  27.600  1.00  0.00     0.012 A 
ATOM     74  C   UNL A   1      47.724  28.094  29.776  1.00  0.00     0.148 A 
ATOM     75  C   UNL A   1      47.240  26.261  27.701  1.00  0.00     0.002 A 
ATOM     76  C   UNL A   1      48.233  26.804  29.846  1.00  0.00     0.091 A 
ATOM     77  F   UNL A   1      47.898  28.976  30.771  1.00  0.00    -0.205 F 
ATOM     78  C   UNL A   1      47.980  25.882  28.818  1.00  0.00     0.022 A 
BRANCH  76  79
ATOM     79  S   UNL A   1      49.269  26.247  31.204  1.00  0.00     0.127 S 
ATOM     80  O   UNL A   1      50.043  27.451  31.496  1.00  0.00    -0.237 OA
ATOM     81  O   UNL A   1      48.277  25.897  32.221  1.00  0.00    -0.237 OA
ATOM     82  O   UNL A   1      50.034  25.120  30.689  1.00  0.00    -0.744 OA
ENDBRANCH  76  79
ENDBRANCH  58  72
BRANCH  59  83
ATOM     83  C   UNL A   1      43.314  37.776  28.736  1.00  0.00     0.023 A 
ATOM     84  C   UNL A   1      43.665  38.557  29.855  1.00  0.00     0.012 A 
ATOM     85  C   UNL A   1      42.518  38.345  27.723  1.00  0.00     0.148 A 
ATOM     86  C   UNL A   1      43.209  39.870  29.972  1.00  0.00     0.002 A 
ATOM     87  C   UNL A   1      42.123  39.674  27.815  1.00  0.00     0.091 A 
ATOM     88  F   UNL A   1      42.185  37.579  26.674  1.00  0.00    -0.205 F 
ATOM     89  C   UNL A   1      42.450  40.433  28.949  1.00  0.00     0.022 A 
BRANCH  87  90
ATOM     90  S   UNL A   1      41.265  40.522  26.483  1.00  0.00     0.127 S 
ATOM     91  O   UNL A   1      40.311  41.347  27.220  1.00  0.00    -0.237 OA
ATOM     92  O   UNL A   1      42.358  41.258  25.845  1.00  0.00    -0.237 OA
ATOM     93  O   UNL A   1      40.682  39.475  25.655  1.00  0.00    -0.744 OA
ENDBRANCH  87  90
ENDBRANCH  59  83
BRANCH  71  94
ATOM     94  C   UNL A   1      49.309  34.947  26.455  1.00  0.00     0.023 A 
ATOM     95  C   UNL A   1      49.330  35.228  25.074  1.00  0.00     0.012 A 
ATOM     96  C   UNL A   1      50.413  35.312  27.252  1.00  0.00     0.148 A 
ATOM     97  C   UNL A   1      50.440  35.843  24.495  1.00  0.00     0.002 A 
ATOM     98  C   UNL A   1      51.492  35.973  26.678  1.00  0.00     0.091 A 
ATOM     99  F   UNL A   1      50.377  35.024  28.561  1.00  0.00    -0.205 F 
ATOM    100  C   UNL A   1      51.512  36.228  25.297  1.00  0.00     0.022 A 
BRANCH  98 101
ATOM    101  S   UNL A   1      52.869  36.599  27.646  1.00  0.00     0.127 S 
ATOM    102  O   UNL A   1      53.686  37.245  26.619  1.00  0.00    -0.237 OA
ATOM    103  O   UNL A   1      52.204  37.521  28.567  1.00  0.00    -0.237 OA
ATOM    104  O   UNL A   1      53.478  35.438  28.282  1.00  0.00    -0.744 OA
ENDBRANCH  98 101
ENDBRANCH  71  94
ENDBRANCH  45  46
ENDBRANCH  38  40
ENDBRANCH  37  38
ENDBRANCH  36  37
ENDBRANCH  35  36
ENDBRANCH  34  35
ENDBRANCH  33  34
ENDBRANCH  32  33
ENDBRANCH  31  32
ENDBRANCH   1  31
TORSDOF 27
ENDMDL
