MODEL 1
REMARK VINA RESULT:      -9.5      0.000      0.000
REMARK SMILES CC1=C[C@@H]([C@@H]2N=N[C@H](S)N2/N=C/c2ccc(C(=O)OCCOCCOCCOCCOC(=O)c3ccc(-c4c5nc(c(-c6cccc(S(=O)(=O)[O-])c6F)c6ccc([nH]6)c(-c6cccc(S(=O)(=O)[O-])c6F)c6nc(c(-c7cccc(S(=O)(=O)[O-])c7F)c7ccc4[nH]7)C=C6)C=C5)cc3)cc2)N=N1
REMARK SMILES IDX 25 1 24 2 23 3 22 4 21 5 20 6 19 7 17 8 18 9 16 10 13 11
REMARK SMILES IDX 14 12 98 13 15 14 97 15 12 16 11 17 10 18 5 19 6 20 7 21
REMARK SMILES IDX 8 22 4 23 1 24 2 25 3 26 100 27 99 28 9 29 26 31 27 32 28 33
REMARK SMILES IDX 29 34 30 35 31 36 32 37 33 38 34 39 35 40 96 41 36 42 95 43
REMARK SMILES IDX 37 44 38 45 39 46 89 47 40 48 94 49 88 50 90 51 41 52 93 53
REMARK SMILES IDX 87 54 86 55 42 57 74 58 54 59 73 60 55 61 58 62 72 63 91 64
REMARK SMILES IDX 56 65 57 66 71 68 92 69 59 70 43 71 44 72 52 73 45 74 47 75
REMARK SMILES IDX 53 76 46 77 48 78 49 79 50 80 51 81 75 82 76 83 84 84 77 85
REMARK SMILES IDX 79 86 85 87 78 88 80 89 81 90 82 91 83 92 60 93 61 94 69 95
REMARK SMILES IDX 62 96 64 97 70 98 63 99 65 100 66 101 67 102 68 103
REMARK H PARENT 9 30 90 56 58 67
REMARK Flexibility Score: inf
ROOT
ATOM      1  O   UNL A   1      33.114  22.456  24.497  1.00  0.00    -0.377 OA
ENDROOT
BRANCH   1   2
ATOM      2  C   UNL A   1      31.706  22.482  24.326  1.00  0.00     0.188 C 
BRANCH   2   3
ATOM      3  C   UNL A   1      30.945  23.503  25.204  1.00  0.00     0.188 C 
BRANCH   3   4
ATOM      4  O   UNL A   1      31.215  24.903  25.201  1.00  0.00    -0.376 OA
BRANCH   4   5
ATOM      5  C   UNL A   1      31.019  25.687  24.038  1.00  0.00     0.202 C 
BRANCH   5   6
ATOM      6  C   UNL A   1      29.870  26.701  24.037  1.00  0.00     0.261 C 
BRANCH   6   7
ATOM      7  O   UNL A   1      30.272  28.070  24.144  1.00  0.00    -0.460 OA
BRANCH   7   8
ATOM      8  C   UNL A   1      31.513  28.339  23.675  1.00  0.00     0.338 C 
ATOM      9  O   UNL A   1      31.874  28.373  22.512  1.00  0.00    -0.246 OA
BRANCH   8  10
ATOM     10  C   UNL A   1      32.379  28.749  24.802  1.00  0.00     0.060 A 
ATOM     11  C   UNL A   1      33.940  29.626  26.924  1.00  0.00    -0.005 A 
ATOM     12  C   UNL A   1      32.745  30.288  26.638  1.00  0.00     0.010 A 
ATOM     13  C   UNL A   1      34.345  28.510  26.186  1.00  0.00     0.010 A 
ATOM     14  C   UNL A   1      31.978  29.863  25.556  1.00  0.00     0.016 A 
ATOM     15  C   UNL A   1      33.548  28.054  25.134  1.00  0.00     0.016 A 
BRANCH  11  16
ATOM     16  C   UNL A   1      34.805  30.197  27.967  1.00  0.00     0.141 C 
ATOM     17  N   UNL A   1      34.630  31.419  28.350  1.00  0.00    -0.180 NA
BRANCH  17  18
ATOM     18  N   UNL A   1      35.382  31.874  29.394  1.00  0.00    -0.233 NA
ATOM     19  C   UNL A   1      34.628  32.553  30.467  1.00  0.00     0.274 C 
ATOM     20  N   UNL A   1      35.186  32.142  31.780  1.00  0.00    -0.161 NA
ATOM     21  N   UNL A   1      36.084  31.287  31.621  1.00  0.00    -0.153 NA
ATOM     22  C   UNL A   1      36.297  31.028  30.184  1.00  0.00     0.298 C 
BRANCH  19  23
ATOM     23  C   UNL A   1      34.648  34.093  30.314  1.00  0.00     0.201 C 
ATOM     24  C   UNL A   1      33.710  36.284  33.146  1.00  0.00     0.068 C 
ATOM     25  C   UNL A   1      33.902  35.480  31.915  1.00  0.00     0.058 C 
ATOM     26  C   UNL A   1      35.008  34.834  31.554  1.00  0.00     0.031 C 
ATOM     27  N   UNL A   1      32.885  35.329  31.005  1.00  0.00    -0.160 NA
ATOM     28  N   UNL A   1      33.262  34.592  30.049  1.00  0.00    -0.177 NA
ENDBRANCH  19  23
BRANCH  22  29
ATOM     29  S   UNL A   1      38.027  31.300  29.651  1.00  0.00    -0.128 SA
ATOM     30  H   UNL A   1      38.332  32.621  29.758  1.00  0.00     0.106 HD
ENDBRANCH  22  29
ENDBRANCH  17  18
ENDBRANCH  11  16
ENDBRANCH   8  10
ENDBRANCH   7   8
ENDBRANCH   6   7
ENDBRANCH   5   6
ENDBRANCH   4   5
ENDBRANCH   3   4
ENDBRANCH   2   3
ENDBRANCH   1   2
BRANCH   1  31
ATOM     31  C   UNL A   1      33.863  22.594  23.292  1.00  0.00     0.188 C 
BRANCH  31  32
ATOM     32  C   UNL A   1      35.342  22.998  23.472  1.00  0.00     0.188 C 
BRANCH  32  33
ATOM     33  O   UNL A   1      36.057  22.148  24.371  1.00  0.00    -0.376 OA
BRANCH  33  34
ATOM     34  C   UNL A   1      37.414  22.460  24.659  1.00  0.00     0.202 C 
BRANCH  34  35
ATOM     35  C   UNL A   1      38.003  21.577  25.754  1.00  0.00     0.261 C 
BRANCH  35  36
ATOM     36  O   UNL A   1      39.404  21.399  25.622  1.00  0.00    -0.460 OA
BRANCH  36  37
ATOM     37  C   UNL A   1      40.147  21.696  26.707  1.00  0.00     0.338 C 
ATOM     38  O   UNL A   1      40.358  20.998  27.679  1.00  0.00    -0.246 OA
BRANCH  37  39
ATOM     39  C   UNL A   1      40.603  23.080  26.582  1.00  0.00     0.060 A 
ATOM     40  C   UNL A   1      41.853  23.245  25.983  1.00  0.00     0.016 A 
ATOM     41  C   UNL A   1      40.019  24.046  27.412  1.00  0.00     0.016 A 
ATOM     42  C   UNL A   1      42.664  24.230  26.482  1.00  0.00     0.010 A 
ATOM     43  C   UNL A   1      40.843  24.997  27.942  1.00  0.00     0.010 A 
ATOM     44  C   UNL A   1      42.176  25.002  27.538  1.00  0.00    -0.014 A 
BRANCH  44  45
ATOM     45  C   UNL A   1      43.117  25.825  28.253  1.00  0.00     0.031 A 
ATOM     46  C   UNL A   1      43.069  27.242  27.860  1.00  0.00     0.074 A 
ATOM     47  C   UNL A   1      43.844  25.321  29.265  1.00  0.00     0.049 A 
ATOM     48  N   UNL A   1      43.997  27.943  27.301  1.00  0.00    -0.248 NA
ATOM     49  C   UNL A   1      41.763  27.913  27.949  1.00  0.00     0.031 C 
ATOM     50  C   UNL A   1      43.673  24.022  29.925  1.00  0.00     0.029 A 
ATOM     51  N   UNL A   1      44.779  25.944  30.029  1.00  0.00    -0.354 N 
ATOM     52  C   UNL A   1      43.449  29.217  27.189  1.00  0.00     0.074 A 
ATOM     53  C   UNL A   1      42.032  29.076  27.364  1.00  0.00     0.031 C 
ATOM     54  C   UNL A   1      44.285  24.064  31.130  1.00  0.00     0.029 A 
ATOM     55  C   UNL A   1      44.968  25.341  31.265  1.00  0.00     0.049 A 
ATOM     56  H   UNL A   1      45.273  26.744  29.736  1.00  0.00     0.167 HD
ATOM     57  C   UNL A   1      44.229  30.325  27.269  1.00  0.00     0.034 A 
ATOM     58  C   UNL A   1      45.545  25.911  32.348  1.00  0.00     0.034 A 
ATOM     59  C   UNL A   1      45.613  30.019  27.014  1.00  0.00     0.049 A 
ATOM     60  C   UNL A   1      46.290  27.107  31.880  1.00  0.00     0.074 A 
ATOM     61  C   UNL A   1      46.307  29.440  25.970  1.00  0.00     0.029 A 
ATOM     62  N   UNL A   1      46.462  30.008  28.093  1.00  0.00    -0.354 N 
ATOM     63  N   UNL A   1      47.373  27.067  31.157  1.00  0.00    -0.248 NA
ATOM     64  C   UNL A   1      45.612  28.394  31.918  1.00  0.00     0.031 C 
ATOM     65  C   UNL A   1      47.388  28.741  26.578  1.00  0.00     0.029 A 
ATOM     66  C   UNL A   1      47.308  28.942  27.958  1.00  0.00     0.049 A 
ATOM     67  H   UNL A   1      46.463  30.657  28.834  1.00  0.00     0.167 HD
ATOM     68  C   UNL A   1      47.284  28.179  30.326  1.00  0.00     0.074 A 
ATOM     69  C   UNL A   1      46.261  29.022  30.935  1.00  0.00     0.031 C 
ATOM     70  C   UNL A   1      47.830  28.173  29.073  1.00  0.00     0.034 A 
BRANCH  57  71
ATOM     71  C   UNL A   1      43.801  31.607  27.953  1.00  0.00     0.023 A 
ATOM     72  C   UNL A   1      44.089  32.812  27.279  1.00  0.00     0.012 A 
ATOM     73  C   UNL A   1      43.386  31.717  29.303  1.00  0.00     0.148 A 
ATOM     74  C   UNL A   1      44.038  34.049  27.930  1.00  0.00     0.002 A 
ATOM     75  C   UNL A   1      43.249  32.956  29.919  1.00  0.00     0.091 A 
ATOM     76  F   UNL A   1      43.251  30.632  30.069  1.00  0.00    -0.205 F 
ATOM     77  C   UNL A   1      43.610  34.123  29.250  1.00  0.00     0.022 A 
BRANCH  75  78
ATOM     78  S   UNL A   1      42.633  33.088  31.602  1.00  0.00     0.127 S 
ATOM     79  O   UNL A   1      43.868  33.294  32.352  1.00  0.00    -0.237 OA
ATOM     80  O   UNL A   1      41.757  34.257  31.514  1.00  0.00    -0.237 OA
ATOM     81  O   UNL A   1      41.925  31.837  31.853  1.00  0.00    -0.744 OA
ENDBRANCH  75  78
ENDBRANCH  57  71
BRANCH  58  82
ATOM     82  C   UNL A   1      45.326  25.640  33.788  1.00  0.00     0.023 A 
ATOM     83  C   UNL A   1      46.428  25.286  34.591  1.00  0.00     0.012 A 
ATOM     84  C   UNL A   1      44.107  25.945  34.433  1.00  0.00     0.148 A 
ATOM     85  C   UNL A   1      46.327  25.258  35.986  1.00  0.00     0.002 A 
ATOM     86  C   UNL A   1      44.004  25.889  35.821  1.00  0.00     0.091 A 
ATOM     87  F   UNL A   1      43.073  26.386  33.704  1.00  0.00    -0.205 F 
ATOM     88  C   UNL A   1      45.116  25.559  36.602  1.00  0.00     0.022 A 
BRANCH  86  89
ATOM     89  S   UNL A   1      42.456  26.246  36.665  1.00  0.00     0.127 S 
ATOM     90  O   UNL A   1      42.882  26.381  38.058  1.00  0.00    -0.237 OA
ATOM     91  O   UNL A   1      42.041  27.492  36.029  1.00  0.00    -0.237 OA
ATOM     92  O   UNL A   1      41.608  25.085  36.417  1.00  0.00    -0.744 OA
ENDBRANCH  86  89
ENDBRANCH  58  82
BRANCH  70  93
ATOM     93  C   UNL A   1      48.814  27.085  28.720  1.00  0.00     0.023 A 
ATOM     94  C   UNL A   1      48.393  25.808  28.297  1.00  0.00     0.012 A 
ATOM     95  C   UNL A   1      50.179  27.415  28.622  1.00  0.00     0.148 A 
ATOM     96  C   UNL A   1      49.311  24.873  27.815  1.00  0.00     0.002 A 
ATOM     97  C   UNL A   1      51.082  26.499  28.092  1.00  0.00     0.091 A 
ATOM     98  F   UNL A   1      50.573  28.633  29.023  1.00  0.00    -0.205 F 
ATOM     99  C   UNL A   1      50.653  25.223  27.696  1.00  0.00     0.022 A 
BRANCH  97 100
ATOM    100  S   UNL A   1      52.792  26.952  27.776  1.00  0.00     0.127 S 
ATOM    101  O   UNL A   1      53.355  25.700  27.278  1.00  0.00    -0.237 OA
ATOM    102  O   UNL A   1      52.663  28.008  26.770  1.00  0.00    -0.237 OA
ATOM    103  O   UNL A   1      53.314  27.417  29.056  1.00  0.00    -0.744 OA
ENDBRANCH  97 100
ENDBRANCH  70  93
ENDBRANCH  44  45
ENDBRANCH  37  39
ENDBRANCH  36  37
ENDBRANCH  35  36
ENDBRANCH  34  35
ENDBRANCH  33  34
ENDBRANCH  32  33
ENDBRANCH  31  32
ENDBRANCH   1  31
TORSDOF 27
ENDMDL
MODEL 2
REMARK VINA RESULT:      -9.4      1.277      2.045
REMARK SMILES CC1=C[C@@H]([C@@H]2N=N[C@H](S)N2/N=C/c2ccc(C(=O)OCCOCCOCCOCCOC(=O)c3ccc(-c4c5nc(c(-c6cccc(S(=O)(=O)[O-])c6F)c6ccc([nH]6)c(-c6cccc(S(=O)(=O)[O-])c6F)c6nc(c(-c7cccc(S(=O)(=O)[O-])c7F)c7ccc4[nH]7)C=C6)C=C5)cc3)cc2)N=N1
REMARK SMILES IDX 25 1 24 2 23 3 22 4 21 5 20 6 19 7 17 8 18 9 16 10 13 11
REMARK SMILES IDX 14 12 98 13 15 14 97 15 12 16 11 17 10 18 5 19 6 20 7 21
REMARK SMILES IDX 8 22 4 23 1 24 2 25 3 26 100 27 99 28 9 29 26 31 27 32 28 33
REMARK SMILES IDX 29 34 30 35 31 36 32 37 33 38 34 39 35 40 96 41 36 42 95 43
REMARK SMILES IDX 37 44 38 45 39 46 89 47 40 48 94 49 88 50 90 51 41 52 93 53
REMARK SMILES IDX 87 54 86 55 42 57 74 58 54 59 73 60 55 61 58 62 72 63 91 64
REMARK SMILES IDX 56 65 57 66 71 68 92 69 59 70 43 71 44 72 52 73 45 74 47 75
REMARK SMILES IDX 53 76 46 77 48 78 49 79 50 80 51 81 75 82 76 83 84 84 77 85
REMARK SMILES IDX 79 86 85 87 78 88 80 89 81 90 82 91 83 92 60 93 61 94 69 95
REMARK SMILES IDX 62 96 64 97 70 98 63 99 65 100 66 101 67 102 68 103
REMARK H PARENT 9 30 90 56 58 67
REMARK Flexibility Score: inf
ROOT
ATOM      1  O   UNL A   1      33.378  23.078  24.483  1.00  0.00    -0.377 OA
ENDROOT
BRANCH   1   2
ATOM      2  C   UNL A   1      32.001  22.890  24.192  1.00  0.00     0.188 C 
BRANCH   2   3
ATOM      3  C   UNL A   1      31.100  22.568  25.408  1.00  0.00     0.188 C 
BRANCH   3   4
ATOM      4  O   UNL A   1      30.461  23.564  26.203  1.00  0.00    -0.376 OA
BRANCH   4   5
ATOM      5  C   UNL A   1      30.804  24.933  26.081  1.00  0.00     0.202 C 
BRANCH   5   6
ATOM      6  C   UNL A   1      30.064  25.770  25.032  1.00  0.00     0.261 C 
BRANCH   6   7
ATOM      7  O   UNL A   1      30.582  27.090  24.837  1.00  0.00    -0.460 OA
BRANCH   7   8
ATOM      8  C   UNL A   1      31.904  27.148  24.551  1.00  0.00     0.338 C 
ATOM      9  O   UNL A   1      32.486  26.611  23.626  1.00  0.00    -0.246 OA
BRANCH   8  10
ATOM     10  C   UNL A   1      32.556  28.111  25.466  1.00  0.00     0.060 A 
ATOM     11  C   UNL A   1      33.679  29.992  27.172  1.00  0.00    -0.005 A 
ATOM     12  C   UNL A   1      32.319  30.072  26.869  1.00  0.00     0.010 A 
ATOM     13  C   UNL A   1      34.475  28.961  26.662  1.00  0.00     0.010 A 
ATOM     14  C   UNL A   1      31.764  29.145  25.991  1.00  0.00     0.016 A 
ATOM     15  C   UNL A   1      33.905  28.001  25.824  1.00  0.00     0.016 A 
BRANCH  11  16
ATOM     16  C   UNL A   1      34.268  31.077  27.969  1.00  0.00     0.141 C 
ATOM     17  N   UNL A   1      35.263  30.829  28.756  1.00  0.00    -0.180 NA
BRANCH  17  18
ATOM     18  N   UNL A   1      35.849  31.884  29.395  1.00  0.00    -0.233 NA
ATOM     19  C   UNL A   1      37.313  31.786  29.563  1.00  0.00     0.274 C 
ATOM     20  N   UNL A   1      37.914  33.121  29.318  1.00  0.00    -0.161 NA
ATOM     21  N   UNL A   1      37.033  33.936  28.969  1.00  0.00    -0.153 NA
ATOM     22  C   UNL A   1      35.706  33.289  28.972  1.00  0.00     0.298 C 
BRANCH  19  23
ATOM     23  C   UNL A   1      37.709  31.247  30.958  1.00  0.00     0.201 C 
ATOM     24  C   UNL A   1      38.673  27.701  31.408  1.00  0.00     0.068 C 
ATOM     25  C   UNL A   1      38.109  29.072  31.348  1.00  0.00     0.058 C 
ATOM     26  C   UNL A   1      38.738  30.170  30.936  1.00  0.00     0.031 C 
ATOM     27  N   UNL A   1      36.815  29.319  31.731  1.00  0.00    -0.160 NA
ATOM     28  N   UNL A   1      36.542  30.545  31.579  1.00  0.00    -0.177 NA
ENDBRANCH  19  23
BRANCH  22  29
ATOM     29  S   UNL A   1      34.487  34.148  30.033  1.00  0.00    -0.128 SA
ATOM     30  H   UNL A   1      33.229  33.833  29.624  1.00  0.00     0.106 HD
ENDBRANCH  22  29
ENDBRANCH  17  18
ENDBRANCH  11  16
ENDBRANCH   8  10
ENDBRANCH   7   8
ENDBRANCH   6   7
ENDBRANCH   5   6
ENDBRANCH   4   5
ENDBRANCH   3   4
ENDBRANCH   2   3
ENDBRANCH   1   2
BRANCH   1  31
ATOM     31  C   UNL A   1      34.215  23.214  23.337  1.00  0.00     0.188 C 
BRANCH  31  32
ATOM     32  C   UNL A   1      35.709  23.462  23.632  1.00  0.00     0.188 C 
BRANCH  32  33
ATOM     33  O   UNL A   1      36.351  22.361  24.277  1.00  0.00    -0.376 OA
BRANCH  33  34
ATOM     34  C   UNL A   1      37.298  22.636  25.300  1.00  0.00     0.202 C 
BRANCH  34  35
ATOM     35  C   UNL A   1      38.021  21.385  25.788  1.00  0.00     0.261 C 
BRANCH  35  36
ATOM     36  O   UNL A   1      39.425  21.450  25.593  1.00  0.00    -0.460 OA
BRANCH  36  37
ATOM     37  C   UNL A   1      40.164  21.758  26.678  1.00  0.00     0.338 C 
ATOM     38  O   UNL A   1      40.369  21.070  27.658  1.00  0.00    -0.246 OA
BRANCH  37  39
ATOM     39  C   UNL A   1      40.621  23.141  26.541  1.00  0.00     0.060 A 
ATOM     40  C   UNL A   1      41.882  23.297  25.965  1.00  0.00     0.016 A 
ATOM     41  C   UNL A   1      40.021  24.119  27.345  1.00  0.00     0.016 A 
ATOM     42  C   UNL A   1      42.683  24.290  26.464  1.00  0.00     0.010 A 
ATOM     43  C   UNL A   1      40.834  25.078  27.877  1.00  0.00     0.010 A 
ATOM     44  C   UNL A   1      42.175  25.077  27.498  1.00  0.00    -0.014 A 
BRANCH  44  45
ATOM     45  C   UNL A   1      43.102  25.911  28.219  1.00  0.00     0.031 A 
ATOM     46  C   UNL A   1      43.082  27.316  27.783  1.00  0.00     0.074 A 
ATOM     47  C   UNL A   1      43.790  25.431  29.269  1.00  0.00     0.049 A 
ATOM     48  N   UNL A   1      44.036  27.991  27.234  1.00  0.00    -0.248 NA
ATOM     49  C   UNL A   1      41.782  28.004  27.809  1.00  0.00     0.031 C 
ATOM     50  C   UNL A   1      43.583  24.154  29.961  1.00  0.00     0.029 A 
ATOM     51  N   UNL A   1      44.706  26.067  30.044  1.00  0.00    -0.354 N 
ATOM     52  C   UNL A   1      43.506  29.267  27.066  1.00  0.00     0.074 A 
ATOM     53  C   UNL A   1      42.083  29.146  27.200  1.00  0.00     0.031 C 
ATOM     54  C   UNL A   1      44.156  24.225  31.184  1.00  0.00     0.029 A 
ATOM     55  C   UNL A   1      44.849  25.498  31.303  1.00  0.00     0.049 A 
ATOM     56  H   UNL A   1      45.218  26.853  29.744  1.00  0.00     0.167 HD
ATOM     57  C   UNL A   1      44.295  30.369  27.139  1.00  0.00     0.034 A 
ATOM     58  C   UNL A   1      45.397  26.095  32.387  1.00  0.00     0.034 A 
ATOM     59  C   UNL A   1      45.684  30.040  26.939  1.00  0.00     0.049 A 
ATOM     60  C   UNL A   1      46.170  27.269  31.909  1.00  0.00     0.074 A 
ATOM     61  C   UNL A   1      46.404  29.423  25.936  1.00  0.00     0.029 A 
ATOM     62  N   UNL A   1      46.498  30.053  28.044  1.00  0.00    -0.354 N 
ATOM     63  N   UNL A   1      47.276  27.196  31.222  1.00  0.00    -0.248 NA
ATOM     64  C   UNL A   1      45.506  28.563  31.886  1.00  0.00     0.031 C 
ATOM     65  C   UNL A   1      47.458  28.732  26.599  1.00  0.00     0.029 A 
ATOM     66  C   UNL A   1      47.335  28.975  27.969  1.00  0.00     0.049 A 
ATOM     67  H   UNL A   1      46.482  30.723  28.765  1.00  0.00     0.167 HD
ATOM     68  C   UNL A   1      47.226  28.283  30.357  1.00  0.00     0.074 A 
ATOM     69  C   UNL A   1      46.193  29.155  30.906  1.00  0.00     0.031 C 
ATOM     70  C   UNL A   1      47.812  28.234  29.122  1.00  0.00     0.034 A 
BRANCH  57  71
ATOM     71  C   UNL A   1      43.860  31.674  27.770  1.00  0.00     0.023 A 
ATOM     72  C   UNL A   1      44.146  32.853  27.051  1.00  0.00     0.012 A 
ATOM     73  C   UNL A   1      43.440  31.836  29.114  1.00  0.00     0.148 A 
ATOM     74  C   UNL A   1      44.089  34.114  27.653  1.00  0.00     0.002 A 
ATOM     75  C   UNL A   1      43.296  33.097  29.680  1.00  0.00     0.091 A 
ATOM     76  F   UNL A   1      43.306  30.782  29.922  1.00  0.00    -0.205 F 
ATOM     77  C   UNL A   1      43.655  34.239  28.967  1.00  0.00     0.022 A 
BRANCH  75  78
ATOM     78  S   UNL A   1      42.673  33.294  31.355  1.00  0.00     0.127 S 
ATOM     79  O   UNL A   1      43.590  34.293  31.894  1.00  0.00    -0.237 OA
ATOM     80  O   UNL A   1      41.308  33.766  31.118  1.00  0.00    -0.237 OA
ATOM     81  O   UNL A   1      42.743  31.964  31.951  1.00  0.00    -0.744 OA
ENDBRANCH  75  78
ENDBRANCH  57  71
BRANCH  58  82
ATOM     82  C   UNL A   1      45.129  25.869  33.826  1.00  0.00     0.023 A 
ATOM     83  C   UNL A   1      46.184  25.451  34.660  1.00  0.00     0.012 A 
ATOM     84  C   UNL A   1      43.922  26.276  34.439  1.00  0.00     0.148 A 
ATOM     85  C   UNL A   1      46.053  25.459  36.052  1.00  0.00     0.002 A 
ATOM     86  C   UNL A   1      43.787  26.256  35.825  1.00  0.00     0.091 A 
ATOM     87  F   UNL A   1      42.940  26.777  33.679  1.00  0.00    -0.205 F 
ATOM     88  C   UNL A   1      44.855  25.860  36.636  1.00  0.00     0.022 A 
BRANCH  86  89
ATOM     89  S   UNL A   1      42.253  26.742  36.627  1.00  0.00     0.127 S 
ATOM     90  O   UNL A   1      42.454  26.275  37.999  1.00  0.00    -0.237 OA
ATOM     91  O   UNL A   1      42.269  28.192  36.466  1.00  0.00    -0.237 OA
ATOM     92  O   UNL A   1      41.201  26.029  35.909  1.00  0.00    -0.744 OA
ENDBRANCH  86  89
ENDBRANCH  58  82
BRANCH  70  93
ATOM     93  C   UNL A   1      48.794  27.126  28.834  1.00  0.00     0.023 A 
ATOM     94  C   UNL A   1      48.377  25.863  28.369  1.00  0.00     0.012 A 
ATOM     95  C   UNL A   1      50.170  27.424  28.842  1.00  0.00     0.148 A 
ATOM     96  C   UNL A   1      49.307  24.909  27.948  1.00  0.00     0.002 A 
ATOM     97  C   UNL A   1      51.089  26.491  28.372  1.00  0.00     0.091 A 
ATOM     98  F   UNL A   1      50.561  28.629  29.283  1.00  0.00    -0.205 F 
ATOM     99  C   UNL A   1      50.662  25.228  27.934  1.00  0.00     0.022 A 
BRANCH  97 100
ATOM    100  S   UNL A   1      52.828  26.906  28.189  1.00  0.00     0.127 S 
ATOM    101  O   UNL A   1      52.766  28.238  27.594  1.00  0.00    -0.237 OA
ATOM    102  O   UNL A   1      53.312  26.875  29.570  1.00  0.00    -0.237 OA
ATOM    103  O   UNL A   1      53.390  25.859  27.343  1.00  0.00    -0.744 OA
ENDBRANCH  97 100
ENDBRANCH  70  93
ENDBRANCH  44  45
ENDBRANCH  37  39
ENDBRANCH  36  37
ENDBRANCH  35  36
ENDBRANCH  34  35
ENDBRANCH  33  34
ENDBRANCH  32  33
ENDBRANCH  31  32
ENDBRANCH   1  31
TORSDOF 27
ENDMDL
MODEL 3
REMARK VINA RESULT:      -9.3      4.446     11.393
REMARK SMILES CC1=C[C@@H]([C@@H]2N=N[C@H](S)N2/N=C/c2ccc(C(=O)OCCOCCOCCOCCOC(=O)c3ccc(-c4c5nc(c(-c6cccc(S(=O)(=O)[O-])c6F)c6ccc([nH]6)c(-c6cccc(S(=O)(=O)[O-])c6F)c6nc(c(-c7cccc(S(=O)(=O)[O-])c7F)c7ccc4[nH]7)C=C6)C=C5)cc3)cc2)N=N1
REMARK SMILES IDX 25 1 24 2 23 3 22 4 21 5 20 6 19 7 17 8 18 9 16 10 13 11
REMARK SMILES IDX 14 12 98 13 15 14 97 15 12 16 11 17 10 18 5 19 6 20 7 21
REMARK SMILES IDX 8 22 4 23 1 24 2 25 3 26 100 27 99 28 9 29 26 31 27 32 28 33
REMARK SMILES IDX 29 34 30 35 31 36 32 37 33 38 34 39 35 40 96 41 36 42 95 43
REMARK SMILES IDX 37 44 38 45 39 46 89 47 40 48 94 49 88 50 90 51 41 52 93 53
REMARK SMILES IDX 87 54 86 55 42 57 74 58 54 59 73 60 55 61 58 62 72 63 91 64
REMARK SMILES IDX 56 65 57 66 71 68 92 69 59 70 43 71 44 72 52 73 45 74 47 75
REMARK SMILES IDX 53 76 46 77 48 78 49 79 50 80 51 81 75 82 76 83 84 84 77 85
REMARK SMILES IDX 79 86 85 87 78 88 80 89 81 90 82 91 83 92 60 93 61 94 69 95
REMARK SMILES IDX 62 96 64 97 70 98 63 99 65 100 66 101 67 102 68 103
REMARK H PARENT 9 30 90 56 58 67
REMARK Flexibility Score: inf
ROOT
ATOM      1  O   UNL A   1      46.272  24.482  24.624  1.00  0.00    -0.377 OA
ENDROOT
BRANCH   1   2
ATOM      2  C   UNL A   1      47.556  24.816  25.127  1.00  0.00     0.188 C 
BRANCH   2   3
ATOM      3  C   UNL A   1      48.353  25.845  24.290  1.00  0.00     0.188 C 
BRANCH   3   4
ATOM      4  O   UNL A   1      48.164  27.256  24.384  1.00  0.00    -0.376 OA
BRANCH   4   5
ATOM      5  C   UNL A   1      46.889  27.840  24.187  1.00  0.00     0.202 C 
BRANCH   5   6
ATOM      6  C   UNL A   1      46.289  28.663  25.333  1.00  0.00     0.261 C 
BRANCH   6   7
ATOM      7  O   UNL A   1      46.339  28.034  26.618  1.00  0.00    -0.460 OA
BRANCH   7   8
ATOM      8  C   UNL A   1      45.335  27.161  26.866  1.00  0.00     0.338 C 
ATOM      9  O   UNL A   1      44.565  26.669  26.062  1.00  0.00    -0.246 OA
BRANCH   8  10
ATOM     10  C   UNL A   1      45.393  26.748  28.286  1.00  0.00     0.060 A 
ATOM     11  C   UNL A   1      45.469  25.859  30.915  1.00  0.00    -0.005 A 
ATOM     12  C   UNL A   1      45.434  24.924  29.880  1.00  0.00     0.010 A 
ATOM     13  C   UNL A   1      45.504  27.231  30.651  1.00  0.00     0.010 A 
ATOM     14  C   UNL A   1      45.368  25.372  28.564  1.00  0.00     0.016 A 
ATOM     15  C   UNL A   1      45.490  27.678  29.328  1.00  0.00     0.016 A 
BRANCH  11  16
ATOM     16  C   UNL A   1      45.374  25.358  32.294  1.00  0.00     0.141 C 
ATOM     17  N   UNL A   1      44.212  25.160  32.827  1.00  0.00    -0.180 NA
BRANCH  17  18
ATOM     18  N   UNL A   1      44.170  24.593  34.068  1.00  0.00    -0.233 NA
ATOM     19  C   UNL A   1      45.477  24.193  34.625  1.00  0.00     0.274 C 
ATOM     20  N   UNL A   1      45.507  24.527  36.071  1.00  0.00    -0.161 NA
ATOM     21  N   UNL A   1      44.454  25.115  36.401  1.00  0.00    -0.153 NA
ATOM     22  C   UNL A   1      43.543  25.224  35.245  1.00  0.00     0.298 C 
BRANCH  19  23
ATOM     23  C   UNL A   1      45.778  22.692  34.396  1.00  0.00     0.201 C 
ATOM     24  C   UNL A   1      46.177  20.388  37.267  1.00  0.00     0.068 C 
ATOM     25  C   UNL A   1      46.231  21.277  36.081  1.00  0.00     0.058 C 
ATOM     26  C   UNL A   1      45.193  21.781  35.419  1.00  0.00     0.031 C 
ATOM     27  N   UNL A   1      47.434  21.673  35.552  1.00  0.00    -0.160 NA
ATOM     28  N   UNL A   1      47.244  22.440  34.563  1.00  0.00    -0.177 NA
ENDBRANCH  19  23
BRANCH  22  29
ATOM     29  S   UNL A   1      41.895  24.491  35.554  1.00  0.00    -0.128 SA
ATOM     30  H   UNL A   1      41.546  24.693  36.853  1.00  0.00     0.106 HD
ENDBRANCH  22  29
ENDBRANCH  17  18
ENDBRANCH  11  16
ENDBRANCH   8  10
ENDBRANCH   7   8
ENDBRANCH   6   7
ENDBRANCH   5   6
ENDBRANCH   4   5
ENDBRANCH   3   4
ENDBRANCH   2   3
ENDBRANCH   1   2
BRANCH   1  31
ATOM     31  C   UNL A   1      45.851  23.149  24.906  1.00  0.00     0.188 C 
BRANCH  31  32
ATOM     32  C   UNL A   1      44.392  23.001  25.387  1.00  0.00     0.188 C 
BRANCH  32  33
ATOM     33  O   UNL A   1      43.921  21.653  25.367  1.00  0.00    -0.376 OA
BRANCH  33  34
ATOM     34  C   UNL A   1      42.722  21.346  26.066  1.00  0.00     0.202 C 
BRANCH  34  35
ATOM     35  C   UNL A   1      41.703  22.480  26.015  1.00  0.00     0.261 C 
BRANCH  35  36
ATOM     36  O   UNL A   1      41.189  22.815  27.295  1.00  0.00    -0.460 OA
BRANCH  36  37
ATOM     37  C   UNL A   1      40.379  23.892  27.348  1.00  0.00     0.338 C 
ATOM     38  O   UNL A   1      39.166  23.914  27.282  1.00  0.00    -0.246 OA
BRANCH  37  39
ATOM     39  C   UNL A   1      41.216  25.090  27.401  1.00  0.00     0.060 A 
ATOM     40  C   UNL A   1      41.790  25.362  28.644  1.00  0.00     0.016 A 
ATOM     41  C   UNL A   1      41.038  26.065  26.411  1.00  0.00     0.016 A 
ATOM     42  C   UNL A   1      41.881  26.676  29.020  1.00  0.00     0.010 A 
ATOM     43  C   UNL A   1      41.084  27.372  26.803  1.00  0.00     0.010 A 
ATOM     44  C   UNL A   1      41.407  27.642  28.131  1.00  0.00    -0.014 A 
BRANCH  44  45
ATOM     45  C   UNL A   1      41.227  28.980  28.633  1.00  0.00     0.031 A 
ATOM     46  C   UNL A   1      42.397  29.845  28.421  1.00  0.00     0.074 A 
ATOM     47  C   UNL A   1      40.037  29.382  29.112  1.00  0.00     0.049 A 
ATOM     48  N   UNL A   1      43.149  30.397  29.314  1.00  0.00    -0.248 NA
ATOM     49  C   UNL A   1      42.891  29.971  27.042  1.00  0.00     0.031 C 
ATOM     50  C   UNL A   1      38.753  28.678  29.015  1.00  0.00     0.029 A 
ATOM     51  N   UNL A   1      39.697  30.590  29.633  1.00  0.00    -0.354 N 
ATOM     52  C   UNL A   1      44.073  31.135  28.581  1.00  0.00     0.074 A 
ATOM     53  C   UNL A   1      44.021  30.644  27.234  1.00  0.00     0.031 C 
ATOM     54  C   UNL A   1      37.754  29.566  29.221  1.00  0.00     0.029 A 
ATOM     55  C   UNL A   1      38.336  30.854  29.564  1.00  0.00     0.049 A 
ATOM     56  H   UNL A   1      40.351  31.215  30.021  1.00  0.00     0.167 HD
ATOM     57  C   UNL A   1      44.584  32.296  29.064  1.00  0.00     0.034 A 
ATOM     58  C   UNL A   1      37.757  32.073  29.667  1.00  0.00     0.034 A 
ATOM     59  C   UNL A   1      44.432  32.388  30.494  1.00  0.00     0.049 A 
ATOM     60  C   UNL A   1      38.757  32.994  30.262  1.00  0.00     0.074 A 
ATOM     61  C   UNL A   1      44.820  31.612  31.567  1.00  0.00     0.029 A 
ATOM     62  N   UNL A   1      43.472  33.248  30.969  1.00  0.00    -0.354 N 
ATOM     63  N   UNL A   1      39.172  32.938  31.497  1.00  0.00    -0.248 NA
ATOM     64  C   UNL A   1      39.587  33.780  29.361  1.00  0.00     0.031 C 
ATOM     65  C   UNL A   1      43.788  31.765  32.536  1.00  0.00     0.029 A 
ATOM     66  C   UNL A   1      42.832  32.637  32.012  1.00  0.00     0.049 A 
ATOM     67  H   UNL A   1      43.280  34.148  30.620  1.00  0.00     0.167 HD
ATOM     68  C   UNL A   1      40.508  33.317  31.438  1.00  0.00     0.074 A 
ATOM     69  C   UNL A   1      40.662  33.952  30.134  1.00  0.00     0.031 C 
ATOM     70  C   UNL A   1      41.426  32.821  32.321  1.00  0.00     0.034 A 
BRANCH  57  71
ATOM     71  C   UNL A   1      44.871  33.510  28.206  1.00  0.00     0.023 A 
ATOM     72  C   UNL A   1      43.755  34.185  27.669  1.00  0.00     0.012 A 
ATOM     73  C   UNL A   1      46.139  33.864  27.683  1.00  0.00     0.148 A 
ATOM     74  C   UNL A   1      43.884  35.105  26.623  1.00  0.00     0.002 A 
ATOM     75  C   UNL A   1      46.272  34.846  26.708  1.00  0.00     0.091 A 
ATOM     76  F   UNL A   1      47.232  33.169  28.007  1.00  0.00    -0.205 F 
ATOM     77  C   UNL A   1      45.145  35.443  26.147  1.00  0.00     0.022 A 
BRANCH  75  78
ATOM     78  S   UNL A   1      47.893  35.354  26.121  1.00  0.00     0.127 S 
ATOM     79  O   UNL A   1      47.595  36.651  25.524  1.00  0.00    -0.237 OA
ATOM     80  O   UNL A   1      48.665  35.403  27.363  1.00  0.00    -0.237 OA
ATOM     81  O   UNL A   1      48.317  34.302  25.203  1.00  0.00    -0.744 OA
ENDBRANCH  75  78
ENDBRANCH  57  71
BRANCH  58  82
ATOM     82  C   UNL A   1      36.485  32.567  29.089  1.00  0.00     0.023 A 
ATOM     83  C   UNL A   1      35.837  31.795  28.106  1.00  0.00     0.012 A 
ATOM     84  C   UNL A   1      35.781  33.658  29.646  1.00  0.00     0.148 A 
ATOM     85  C   UNL A   1      34.528  32.083  27.706  1.00  0.00     0.002 A 
ATOM     86  C   UNL A   1      34.488  33.958  29.225  1.00  0.00     0.091 A 
ATOM     87  F   UNL A   1      36.331  34.345  30.656  1.00  0.00    -0.205 F 
ATOM     88  C   UNL A   1      33.853  33.165  28.264  1.00  0.00     0.022 A 
BRANCH  86  89
ATOM     89  S   UNL A   1      33.580  35.358  29.897  1.00  0.00     0.127 S 
ATOM     90  O   UNL A   1      34.211  36.494  29.224  1.00  0.00    -0.237 OA
ATOM     91  O   UNL A   1      32.216  35.072  29.468  1.00  0.00    -0.237 OA
ATOM     92  O   UNL A   1      33.822  35.316  31.336  1.00  0.00    -0.744 OA
ENDBRANCH  86  89
ENDBRANCH  58  82
BRANCH  70  93
ATOM     93  C   UNL A   1      40.928  32.122  33.562  1.00  0.00     0.023 A 
ATOM     94  C   UNL A   1      40.820  30.718  33.634  1.00  0.00     0.012 A 
ATOM     95  C   UNL A   1      40.753  32.876  34.738  1.00  0.00     0.148 A 
ATOM     96  C   UNL A   1      40.520  30.082  34.841  1.00  0.00     0.002 A 
ATOM     97  C   UNL A   1      40.507  32.235  35.948  1.00  0.00     0.091 A 
ATOM     98  F   UNL A   1      40.860  34.211  34.663  1.00  0.00    -0.205 F 
ATOM     99  C   UNL A   1      40.379  30.839  36.002  1.00  0.00     0.022 A 
BRANCH  97 100
ATOM    100  S   UNL A   1      40.470  33.147  37.495  1.00  0.00     0.127 S 
ATOM    101  O   UNL A   1      39.084  33.604  37.550  1.00  0.00    -0.237 OA
ATOM    102  O   UNL A   1      40.815  32.121  38.481  1.00  0.00    -0.237 OA
ATOM    103  O   UNL A   1      41.477  34.192  37.355  1.00  0.00    -0.744 OA
ENDBRANCH  97 100
ENDBRANCH  70  93
ENDBRANCH  44  45
ENDBRANCH  37  39
ENDBRANCH  36  37
ENDBRANCH  35  36
ENDBRANCH  34  35
ENDBRANCH  33  34
ENDBRANCH  32  33
ENDBRANCH  31  32
ENDBRANCH   1  31
TORSDOF 27
ENDMDL
