MODEL 1
REMARK VINA RESULT:      -7.3      0.000      0.000
REMARK SMILES O=C(OCCOCCOCCOCCOC(=O)[C@@H]1CCCN1S(=O)(=O)c1ccc2c3c(cccc13)C(=O)N2)c1ccc(-c2c3nc(c(-c4cccc(S(=O)(=O)[O-])c4F)c4ccc([nH]4)c(-c4cccc(S(=O)(=O)[O-])c4F)c4nc(c(-c5cccc(S(=O)(=O)[O-])c5F)c5ccc2[nH]5)C=C4)C=C3)cc1
REMARK SMILES IDX 8 1 7 2 6 3 5 4 4 5 3 6 2 7 1 8 39 9 40 10 101 11 41 12
REMARK SMILES IDX 100 13 42 14 43 15 44 16 94 17 45 18 99 19 93 20 95 21 46 22
REMARK SMILES IDX 98 23 92 24 91 25 47 27 79 28 59 29 78 30 60 31 63 32 77 33
REMARK SMILES IDX 96 34 61 35 62 36 76 38 97 39 64 40 48 41 49 42 57 43 50 44
REMARK SMILES IDX 52 45 58 46 51 47 53 48 54 49 55 50 56 51 80 52 81 53 89 54
REMARK SMILES IDX 82 55 84 56 90 57 83 58 85 59 86 60 87 61 88 62 65 63 66 64
REMARK SMILES IDX 74 65 67 66 69 67 75 68 68 69 70 70 71 71 72 72 73 73 9 74
REMARK SMILES IDX 10 75 11 76 12 77 13 78 14 79 15 80 16 81 17 82 18 83 19 84
REMARK SMILES IDX 22 85 20 86 21 87 23 88 24 89 25 90 26 91 27 92 35 93 28 94
REMARK SMILES IDX 30 95 34 96 29 97 31 98 33 99 38 100 32 101 36 102 37 104
REMARK H PARENT 95 26 63 37 38 103
REMARK Flexibility Score: inf
ROOT
ATOM      1  C   UNL A   1      46.428  26.519  30.172  1.00  0.00     0.188 C 
ENDROOT
BRANCH   1   2
ATOM      2  C   UNL A   1      47.715  27.148  31.536  1.00  0.00     0.188 C 
BRANCH   2   3
ATOM      3  O   UNL A   1      48.856  28.640  30.562  1.00  0.00    -0.376 OA
BRANCH   3   4
ATOM      4  C   UNL A   1      50.086  29.768  31.551  1.00  0.00     0.202 C 
BRANCH   4   5
ATOM      5  C   UNL A   1      51.661  29.541  32.795  1.00  0.00     0.261 C 
BRANCH   5   6
ATOM      6  O   UNL A   1      53.388  30.321  32.634  1.00  0.00    -0.460 OA
BRANCH   6   7
ATOM      7  C   UNL A   1      53.828  32.015  32.652  1.00  0.00     0.338 C 
ATOM      8  O   UNL A   1      55.007  32.319  32.526  1.00  0.00    -0.246 OA
BRANCH   7   9
ATOM      9  C   UNL A   1      52.399  33.266  32.843  1.00  0.00     0.060 A 
ATOM     10  C   UNL A   1      51.399  33.363  34.631  1.00  0.00     0.016 A 
ATOM     11  C   UNL A   1      51.317  33.387  31.382  1.00  0.00     0.016 A 
ATOM     12  C   UNL A   1      49.654  33.510  34.742  1.00  0.00     0.010 A 
ATOM     13  C   UNL A   1      49.525  33.516  31.666  1.00  0.00     0.010 A 
ATOM     14  C   UNL A   1      48.751  33.574  33.292  1.00  0.00    -0.014 A 
BRANCH  14  15
ATOM     15  C   UNL A   1      47.301  33.551  33.708  1.00  0.00     0.031 A 
ATOM     16  C   UNL A   1      46.547  34.854  33.709  1.00  0.00     0.074 A 
ATOM     17  C   UNL A   1      46.552  32.421  33.597  1.00  0.00     0.049 A 
ATOM     18  N   UNL A   1      45.319  35.090  34.076  1.00  0.00    -0.248 NA
ATOM     19  C   UNL A   1      47.245  36.047  33.201  1.00  0.00     0.031 C 
ATOM     20  C   UNL A   1      47.067  31.107  33.254  1.00  0.00     0.029 A 
ATOM     21  N   UNL A   1      45.200  32.170  33.715  1.00  0.00    -0.354 N 
ATOM     22  C   UNL A   1      45.149  36.463  33.965  1.00  0.00     0.074 A 
ATOM     23  C   UNL A   1      46.362  37.008  33.412  1.00  0.00     0.031 C 
ATOM     24  C   UNL A   1      46.095  30.195  33.175  1.00  0.00     0.029 A 
ATOM     25  C   UNL A   1      44.871  30.827  33.603  1.00  0.00     0.049 A 
ATOM     26  H   UNL A   1      44.531  32.878  33.863  1.00  0.00     0.167 HD
ATOM     27  C   UNL A   1      44.081  37.196  34.341  1.00  0.00     0.034 A 
ATOM     28  C   UNL A   1      43.757  30.142  33.926  1.00  0.00     0.034 A 
ATOM     29  C   UNL A   1      42.891  36.605  34.872  1.00  0.00     0.049 A 
ATOM     30  C   UNL A   1      42.646  30.940  34.524  1.00  0.00     0.074 A 
ATOM     31  C   UNL A   1      41.791  37.220  35.433  1.00  0.00     0.029 A 
ATOM     32  N   UNL A   1      42.655  35.236  34.898  1.00  0.00    -0.354 N 
ATOM     33  N   UNL A   1      42.572  32.244  34.650  1.00  0.00    -0.248 NA
ATOM     34  C   UNL A   1      41.495  30.205  35.055  1.00  0.00     0.031 C 
ATOM     35  C   UNL A   1      40.899  36.218  35.825  1.00  0.00     0.029 A 
ATOM     36  C   UNL A   1      41.422  34.984  35.459  1.00  0.00     0.049 A 
ATOM     37  H   UNL A   1      43.276  34.550  34.566  1.00  0.00     0.167 HD
ATOM     38  C   UNL A   1      41.358  32.494  35.259  1.00  0.00     0.074 A 
ATOM     39  C   UNL A   1      40.726  31.203  35.473  1.00  0.00     0.031 C 
ATOM     40  C   UNL A   1      40.820  33.684  35.610  1.00  0.00     0.034 A 
BRANCH  27  41
ATOM     41  C   UNL A   1      44.229  38.687  34.303  1.00  0.00     0.023 A 
ATOM     42  C   UNL A   1      44.799  39.385  35.384  1.00  0.00     0.012 A 
ATOM     43  C   UNL A   1      43.749  39.402  33.187  1.00  0.00     0.148 A 
ATOM     44  C   UNL A   1      44.869  40.779  35.364  1.00  0.00     0.002 A 
ATOM     45  C   UNL A   1      43.849  40.785  33.161  1.00  0.00     0.091 A 
ATOM     46  F   UNL A   1      43.183  38.712  32.187  1.00  0.00    -0.205 F 
ATOM     47  C   UNL A   1      44.401  41.477  34.251  1.00  0.00     0.022 A 
BRANCH  45  48
ATOM     48  S   UNL A   1      43.282  41.771  31.772  1.00  0.00     0.127 S 
ATOM     49  O   UNL A   1      41.880  41.365  31.673  1.00  0.00    -0.237 OA
ATOM     50  O   UNL A   1      43.490  43.132  32.265  1.00  0.00    -0.237 OA
ATOM     51  O   UNL A   1      44.110  41.390  30.637  1.00  0.00    -0.744 OA
ENDBRANCH  45  48
ENDBRANCH  27  41
BRANCH  28  52
ATOM     52  C   UNL A   1      43.698  28.648  33.805  1.00  0.00     0.023 A 
ATOM     53  C   UNL A   1      43.412  28.056  32.561  1.00  0.00     0.012 A 
ATOM     54  C   UNL A   1      43.984  27.808  34.905  1.00  0.00     0.148 A 
ATOM     55  C   UNL A   1      43.423  26.664  32.412  1.00  0.00     0.002 A 
ATOM     56  C   UNL A   1      44.029  26.425  34.742  1.00  0.00     0.091 A 
ATOM     57  F   UNL A   1      44.246  28.383  36.088  1.00  0.00    -0.205 F 
ATOM     58  C   UNL A   1      43.742  25.851  33.496  1.00  0.00     0.022 A 
BRANCH  56  59
ATOM     59  S   UNL A   1      44.508  25.295  36.058  1.00  0.00     0.127 S 
ATOM     60  O   UNL A   1      44.330  23.995  35.414  1.00  0.00    -0.237 OA
ATOM     61  O   UNL A   1      45.901  25.682  36.287  1.00  0.00    -0.237 OA
ATOM     62  O   UNL A   1      43.608  25.570  37.168  1.00  0.00    -0.744 OA
ENDBRANCH  56  59
ENDBRANCH  28  52
BRANCH  40  63
ATOM     63  C   UNL A   1      39.439  33.661  36.172  1.00  0.00     0.023 A 
ATOM     64  C   UNL A   1      38.324  33.677  35.317  1.00  0.00     0.012 A 
ATOM     65  C   UNL A   1      39.274  33.482  37.557  1.00  0.00     0.148 A 
ATOM     66  C   UNL A   1      37.047  33.512  35.844  1.00  0.00     0.002 A 
ATOM     67  C   UNL A   1      38.006  33.274  38.067  1.00  0.00     0.091 A 
ATOM     68  F   UNL A   1      40.366  33.489  38.335  1.00  0.00    -0.205 F 
ATOM     69  C   UNL A   1      36.889  33.292  37.213  1.00  0.00     0.022 A 
BRANCH  67  70
ATOM     70  S   UNL A   1      37.726  32.903  39.798  1.00  0.00     0.127 S 
ATOM     71  O   UNL A   1      36.338  32.445  39.781  1.00  0.00    -0.237 OA
ATOM     72  O   UNL A   1      38.715  31.856  40.051  1.00  0.00    -0.237 OA
ATOM     73  O   UNL A   1      37.958  34.146  40.523  1.00  0.00    -0.744 OA
ENDBRANCH  67  70
ENDBRANCH  40  63
ENDBRANCH  14  15
ENDBRANCH   7   9
ENDBRANCH   6   7
ENDBRANCH   5   6
ENDBRANCH   4   5
ENDBRANCH   3   4
ENDBRANCH   2   3
ENDBRANCH   1   2
BRANCH   1  74
ATOM     74  O   UNL A   1      46.818  26.828  28.452  1.00  0.00    -0.377 OA
BRANCH  74  75
ATOM     75  C   UNL A   1      45.892  27.302  27.054  1.00  0.00     0.188 C 
BRANCH  75  76
ATOM     76  C   UNL A   1      46.136  28.493  25.643  1.00  0.00     0.188 C 
BRANCH  76  77
ATOM     77  O   UNL A   1      46.965  29.674  25.856  1.00  0.00    -0.376 OA
BRANCH  77  78
ATOM     78  C   UNL A   1      46.821  30.735  26.865  1.00  0.00     0.202 C 
BRANCH  78  79
ATOM     79  C   UNL A   1      45.339  31.370  26.770  1.00  0.00     0.261 C 
BRANCH  79  80
ATOM     80  O   UNL A   1      44.601  31.223  27.988  1.00  0.00    -0.462 OA
BRANCH  80  81
ATOM     81  C   UNL A   1      45.123  31.991  28.950  1.00  0.00     0.324 C 
ATOM     82  O   UNL A   1      45.743  31.515  29.900  1.00  0.00    -0.250 OA
BRANCH  81  83
ATOM     83  C   UNL A   1      44.977  33.459  28.723  1.00  0.00     0.183 C 
ATOM     84  C   UNL A   1      46.364  34.083  28.790  1.00  0.00     0.034 C 
ATOM     85  N   UNL A   1      44.100  34.516  29.314  1.00  0.00    -0.184 NA
ATOM     86  C   UNL A   1      46.119  35.511  28.371  1.00  0.00     0.019 C 
ATOM     87  C   UNL A   1      44.718  35.834  28.875  1.00  0.00     0.103 C 
BRANCH  85  88
ATOM     88  S   UNL A   1      43.150  34.444  30.797  1.00  0.00     0.244 S 
ATOM     89  O   UNL A   1      43.746  33.516  31.732  1.00  0.00    -0.207 OA
ATOM     90  O   UNL A   1      43.209  35.846  31.181  1.00  0.00    -0.207 OA
BRANCH  88  91
ATOM     91  C   UNL A   1      40.999  33.652  30.545  1.00  0.00     0.090 A 
ATOM     92  C   UNL A   1      41.532  32.030  30.123  1.00  0.00     0.024 A 
ATOM     93  C   UNL A   1      39.375  33.558  31.736  1.00  0.00     0.005 A 
ATOM     94  C   UNL A   1      40.873  30.641  30.607  1.00  0.00     0.028 A 
ATOM     95  C   UNL A   1      38.957  31.798  32.202  1.00  0.00     0.019 A 
ATOM     96  C   UNL A   1      38.112  34.240  31.857  1.00  0.00     0.010 A 
ATOM     97  C   UNL A   1      39.729  30.626  31.592  1.00  0.00     0.050 A 
ATOM     98  C   UNL A   1      37.416  31.071  32.578  1.00  0.00     0.050 A 
ATOM     99  C   UNL A   1      36.232  33.873  31.840  1.00  0.00     0.002 A 
ATOM    100  N   UNL A   1      39.111  29.490  32.072  1.00  0.00    -0.321 N 
ATOM    101  C   UNL A   1      35.770  32.171  32.318  1.00  0.00     0.014 A 
ATOM    102  C   UNL A   1      37.919  29.643  32.826  1.00  0.00     0.256 C 
ATOM    103  H   UNL A   1      39.487  28.598  31.895  1.00  0.00     0.170 HD
ATOM    104  O   UNL A   1      37.513  28.698  33.500  1.00  0.00    -0.269 OA
ENDBRANCH  88  91
ENDBRANCH  85  88
ENDBRANCH  81  83
ENDBRANCH  80  81
ENDBRANCH  79  80
ENDBRANCH  78  79
ENDBRANCH  77  78
ENDBRANCH  76  77
ENDBRANCH  75  76
ENDBRANCH  74  75
ENDBRANCH   1  74
TORSDOF 25
ENDMDL
MODEL 2
REMARK VINA RESULT:      -7.3      4.898     11.325
REMARK SMILES O=C(OCCOCCOCCOCCOC(=O)[C@@H]1CCCN1S(=O)(=O)c1ccc2c3c(cccc13)C(=O)N2)c1ccc(-c2c3nc(c(-c4cccc(S(=O)(=O)[O-])c4F)c4ccc([nH]4)c(-c4cccc(S(=O)(=O)[O-])c4F)c4nc(c(-c5cccc(S(=O)(=O)[O-])c5F)c5ccc2[nH]5)C=C4)C=C3)cc1
REMARK SMILES IDX 8 1 7 2 6 3 5 4 4 5 3 6 2 7 1 8 39 9 40 10 101 11 41 12
REMARK SMILES IDX 100 13 42 14 43 15 44 16 94 17 45 18 99 19 93 20 95 21 46 22
REMARK SMILES IDX 98 23 92 24 91 25 47 27 79 28 59 29 78 30 60 31 63 32 77 33
REMARK SMILES IDX 96 34 61 35 62 36 76 38 97 39 64 40 48 41 49 42 57 43 50 44
REMARK SMILES IDX 52 45 58 46 51 47 53 48 54 49 55 50 56 51 80 52 81 53 89 54
REMARK SMILES IDX 82 55 84 56 90 57 83 58 85 59 86 60 87 61 88 62 65 63 66 64
REMARK SMILES IDX 74 65 67 66 69 67 75 68 68 69 70 70 71 71 72 72 73 73 9 74
REMARK SMILES IDX 10 75 11 76 12 77 13 78 14 79 15 80 16 81 17 82 18 83 19 84
REMARK SMILES IDX 22 85 20 86 21 87 23 88 24 89 25 90 26 91 27 92 35 93 28 94
REMARK SMILES IDX 30 95 34 96 29 97 31 98 33 99 38 100 32 101 36 102 37 104
REMARK H PARENT 95 26 63 37 38 103
REMARK Flexibility Score: inf
ROOT
ATOM      1  C   UNL A   1      41.598  28.107  34.146  1.00  0.00     0.188 C 
ENDROOT
BRANCH   1   2
ATOM      2  C   UNL A   1      40.624  29.768  33.693  1.00  0.00     0.188 C 
BRANCH   2   3
ATOM      3  O   UNL A   1      39.834  29.427  31.761  1.00  0.00    -0.376 OA
BRANCH   3   4
ATOM      4  C   UNL A   1      39.863  30.815  30.405  1.00  0.00     0.202 C 
BRANCH   4   5
ATOM      5  C   UNL A   1      38.652  32.286  29.737  1.00  0.00     0.261 C 
BRANCH   5   6
ATOM      6  O   UNL A   1      36.892  32.111  29.037  1.00  0.00    -0.460 OA
BRANCH   6   7
ATOM      7  C   UNL A   1      35.368  32.113  29.897  1.00  0.00     0.338 C 
ATOM      8  O   UNL A   1      34.331  31.991  29.259  1.00  0.00    -0.246 OA
BRANCH   7   9
ATOM      9  C   UNL A   1      35.461  32.280  31.797  1.00  0.00     0.060 A 
ATOM     10  C   UNL A   1      35.496  34.156  32.625  1.00  0.00     0.016 A 
ATOM     11  C   UNL A   1      36.596  31.097  32.593  1.00  0.00     0.016 A 
ATOM     12  C   UNL A   1      36.553  34.591  33.957  1.00  0.00     0.010 A 
ATOM     13  C   UNL A   1      37.640  31.710  33.949  1.00  0.00     0.010 A 
ATOM     14  C   UNL A   1      37.600  33.395  34.587  1.00  0.00    -0.014 A 
BRANCH  14  15
ATOM     15  C   UNL A   1      38.468  34.099  35.600  1.00  0.00     0.031 A 
ATOM     16  C   UNL A   1      38.258  33.775  37.055  1.00  0.00     0.074 A 
ATOM     17  C   UNL A   1      39.689  34.594  35.262  1.00  0.00     0.049 A 
ATOM     18  N   UNL A   1      38.842  34.289  38.102  1.00  0.00    -0.248 NA
ATOM     19  C   UNL A   1      37.293  32.712  37.385  1.00  0.00     0.031 C 
ATOM     20  C   UNL A   1      40.217  34.667  33.911  1.00  0.00     0.029 A 
ATOM     21  N   UNL A   1      40.742  35.094  36.002  1.00  0.00    -0.354 N 
ATOM     22  C   UNL A   1      38.224  33.707  39.200  1.00  0.00     0.074 A 
ATOM     23  C   UNL A   1      37.283  32.735  38.708  1.00  0.00     0.031 C 
ATOM     24  C   UNL A   1      41.459  35.157  33.886  1.00  0.00     0.029 A 
ATOM     25  C   UNL A   1      41.788  35.574  35.227  1.00  0.00     0.049 A 
ATOM     26  H   UNL A   1      40.751  35.108  36.986  1.00  0.00     0.167 HD
ATOM     27  C   UNL A   1      38.407  34.005  40.503  1.00  0.00     0.034 A 
ATOM     28  C   UNL A   1      42.835  36.371  35.520  1.00  0.00     0.034 A 
ATOM     29  C   UNL A   1      39.367  34.970  40.945  1.00  0.00     0.049 A 
ATOM     30  C   UNL A   1      42.917  36.853  36.930  1.00  0.00     0.074 A 
ATOM     31  C   UNL A   1      39.562  35.485  42.209  1.00  0.00     0.029 A 
ATOM     32  N   UNL A   1      40.304  35.563  40.109  1.00  0.00    -0.354 N 
ATOM     33  N   UNL A   1      42.174  36.490  37.948  1.00  0.00    -0.248 NA
ATOM     34  C   UNL A   1      43.932  37.863  37.240  1.00  0.00     0.031 C 
ATOM     35  C   UNL A   1      40.603  36.415  42.131  1.00  0.00     0.029 A 
ATOM     36  C   UNL A   1      41.089  36.436  40.830  1.00  0.00     0.049 A 
ATOM     37  H   UNL A   1      40.394  35.387  39.146  1.00  0.00     0.167 HD
ATOM     38  C   UNL A   1      42.638  37.213  39.030  1.00  0.00     0.074 A 
ATOM     39  C   UNL A   1      43.734  38.033  38.542  1.00  0.00     0.031 C 
ATOM     40  C   UNL A   1      42.194  37.197  40.307  1.00  0.00     0.034 A 
BRANCH  27  41
ATOM     41  C   UNL A   1      37.466  33.374  41.486  1.00  0.00     0.023 A 
ATOM     42  C   UNL A   1      36.126  33.795  41.576  1.00  0.00     0.012 A 
ATOM     43  C   UNL A   1      37.945  32.378  42.360  1.00  0.00     0.148 A 
ATOM     44  C   UNL A   1      35.280  33.246  42.542  1.00  0.00     0.002 A 
ATOM     45  C   UNL A   1      37.090  31.815  43.296  1.00  0.00     0.091 A 
ATOM     46  F   UNL A   1      39.234  32.020  42.271  1.00  0.00    -0.205 F 
ATOM     47  C   UNL A   1      35.760  32.253  43.395  1.00  0.00     0.022 A 
BRANCH  45  48
ATOM     48  S   UNL A   1      37.612  30.528  44.434  1.00  0.00     0.127 S 
ATOM     49  O   UNL A   1      38.717  31.182  45.135  1.00  0.00    -0.237 OA
ATOM     50  O   UNL A   1      36.407  30.333  45.240  1.00  0.00    -0.237 OA
ATOM     51  O   UNL A   1      37.997  29.390  43.612  1.00  0.00    -0.744 OA
ENDBRANCH  45  48
ENDBRANCH  27  41
BRANCH  28  52
ATOM     52  C   UNL A   1      43.779  36.840  34.454  1.00  0.00     0.023 A 
ATOM     53  C   UNL A   1      44.799  35.986  33.996  1.00  0.00     0.012 A 
ATOM     54  C   UNL A   1      43.632  38.108  33.846  1.00  0.00     0.148 A 
ATOM     55  C   UNL A   1      45.646  36.379  32.952  1.00  0.00     0.002 A 
ATOM     56  C   UNL A   1      44.454  38.478  32.783  1.00  0.00     0.091 A 
ATOM     57  F   UNL A   1      42.662  38.916  34.296  1.00  0.00    -0.205 F 
ATOM     58  C   UNL A   1      45.466  37.616  32.339  1.00  0.00     0.022 A 
BRANCH  56  59
ATOM     59  S   UNL A   1      44.252  40.018  31.875  1.00  0.00     0.127 S 
ATOM     60  O   UNL A   1      42.956  39.817  31.230  1.00  0.00    -0.237 OA
ATOM     61  O   UNL A   1      44.254  41.003  32.957  1.00  0.00    -0.237 OA
ATOM     62  O   UNL A   1      45.390  40.102  30.972  1.00  0.00    -0.744 OA
ENDBRANCH  56  59
ENDBRANCH  28  52
BRANCH  40  63
ATOM     63  C   UNL A   1      42.954  38.017  41.295  1.00  0.00     0.023 A 
ATOM     64  C   UNL A   1      44.083  37.487  41.940  1.00  0.00     0.012 A 
ATOM     65  C   UNL A   1      42.604  39.369  41.463  1.00  0.00     0.148 A 
ATOM     66  C   UNL A   1      44.864  38.305  42.749  1.00  0.00     0.002 A 
ATOM     67  C   UNL A   1      43.411  40.187  42.233  1.00  0.00     0.091 A 
ATOM     68  F   UNL A   1      41.509  39.827  40.839  1.00  0.00    -0.205 F 
ATOM     69  C   UNL A   1      44.540  39.656  42.881  1.00  0.00     0.022 A 
BRANCH  67  70
ATOM     70  S   UNL A   1      43.111  41.947  42.385  1.00  0.00     0.127 S 
ATOM     71  O   UNL A   1      44.345  42.402  43.025  1.00  0.00    -0.237 OA
ATOM     72  O   UNL A   1      42.958  42.354  40.989  1.00  0.00    -0.237 OA
ATOM     73  O   UNL A   1      41.907  42.086  43.195  1.00  0.00    -0.744 OA
ENDBRANCH  67  70
ENDBRANCH  40  63
ENDBRANCH  14  15
ENDBRANCH   7   9
ENDBRANCH   6   7
ENDBRANCH   5   6
ENDBRANCH   4   5
ENDBRANCH   3   4
ENDBRANCH   2   3
ENDBRANCH   1   2
BRANCH   1  74
ATOM     74  O   UNL A   1      43.387  28.172  34.182  1.00  0.00    -0.377 OA
BRANCH  74  75
ATOM     75  C   UNL A   1      44.626  28.447  32.989  1.00  0.00     0.188 C 
BRANCH  75  76
ATOM     76  C   UNL A   1      44.671  29.127  31.255  1.00  0.00     0.188 C 
BRANCH  76  77
ATOM     77  O   UNL A   1      43.992  30.387  30.977  1.00  0.00    -0.376 OA
BRANCH  77  78
ATOM     78  C   UNL A   1      43.918  31.141  29.716  1.00  0.00     0.202 C 
BRANCH  78  79
ATOM     79  C   UNL A   1      43.853  30.107  28.476  1.00  0.00     0.261 C 
BRANCH  79  80
ATOM     80  O   UNL A   1      44.591  28.907  28.724  1.00  0.00    -0.462 OA
BRANCH  80  81
ATOM     81  C   UNL A   1      44.074  27.884  28.036  1.00  0.00     0.324 C 
ATOM     82  O   UNL A   1      44.782  27.036  27.496  1.00  0.00    -0.250 OA
BRANCH  81  83
ATOM     83  C   UNL A   1      42.583  27.805  28.065  1.00  0.00     0.183 C 
ATOM     84  C   UNL A   1      42.173  27.178  29.390  1.00  0.00     0.034 C 
ATOM     85  N   UNL A   1      41.555  27.286  27.111  1.00  0.00    -0.184 NA
ATOM     86  C   UNL A   1      40.671  27.315  29.386  1.00  0.00     0.019 C 
ATOM     87  C   UNL A   1      40.271  27.204  27.920  1.00  0.00     0.103 C 
BRANCH  85  88
ATOM     88  S   UNL A   1      41.789  26.222  25.726  1.00  0.00     0.244 S 
ATOM     89  O   UNL A   1      40.542  25.586  25.362  1.00  0.00    -0.207 OA
ATOM     90  O   UNL A   1      42.300  27.192  24.769  1.00  0.00    -0.207 OA
BRANCH  88  91
ATOM     91  C   UNL A   1      43.218  24.447  26.085  1.00  0.00     0.090 A 
ATOM     92  C   UNL A   1      42.235  23.781  27.382  1.00  0.00     0.024 A 
ATOM     93  C   UNL A   1      43.945  22.960  24.936  1.00  0.00     0.005 A 
ATOM     94  C   UNL A   1      41.912  22.224  27.646  1.00  0.00     0.028 A 
ATOM     95  C   UNL A   1      43.271  21.295  25.446  1.00  0.00     0.019 A 
ATOM     96  C   UNL A   1      45.196  22.629  24.302  1.00  0.00     0.010 A 
ATOM     97  C   UNL A   1      42.387  21.159  26.687  1.00  0.00     0.050 A 
ATOM     98  C   UNL A   1      43.987  19.708  25.328  1.00  0.00     0.050 A 
ATOM     99  C   UNL A   1      46.508  21.234  24.270  1.00  0.00     0.002 A 
ATOM    100  N   UNL A   1      42.149  19.808  26.823  1.00  0.00    -0.321 N 
ATOM    101  C   UNL A   1      45.890  19.578  24.734  1.00  0.00     0.014 A 
ATOM    102  C   UNL A   1      42.835  18.915  25.959  1.00  0.00     0.256 C 
ATOM    103  H   UNL A   1      41.520  19.471  27.502  1.00  0.00     0.170 HD
ATOM    104  O   UNL A   1      42.438  17.756  25.858  1.00  0.00    -0.269 OA
ENDBRANCH  88  91
ENDBRANCH  85  88
ENDBRANCH  81  83
ENDBRANCH  80  81
ENDBRANCH  79  80
ENDBRANCH  78  79
ENDBRANCH  77  78
ENDBRANCH  76  77
ENDBRANCH  75  76
ENDBRANCH  74  75
ENDBRANCH   1  74
TORSDOF 25
ENDMDL
MODEL 3
REMARK VINA RESULT:      -7.3      6.660      8.998
REMARK SMILES O=C(OCCOCCOCCOCCOC(=O)[C@@H]1CCCN1S(=O)(=O)c1ccc2c3c(cccc13)C(=O)N2)c1ccc(-c2c3nc(c(-c4cccc(S(=O)(=O)[O-])c4F)c4ccc([nH]4)c(-c4cccc(S(=O)(=O)[O-])c4F)c4nc(c(-c5cccc(S(=O)(=O)[O-])c5F)c5ccc2[nH]5)C=C4)C=C3)cc1
REMARK SMILES IDX 8 1 7 2 6 3 5 4 4 5 3 6 2 7 1 8 39 9 40 10 101 11 41 12
REMARK SMILES IDX 100 13 42 14 43 15 44 16 94 17 45 18 99 19 93 20 95 21 46 22
REMARK SMILES IDX 98 23 92 24 91 25 47 27 79 28 59 29 78 30 60 31 63 32 77 33
REMARK SMILES IDX 96 34 61 35 62 36 76 38 97 39 64 40 48 41 49 42 57 43 50 44
REMARK SMILES IDX 52 45 58 46 51 47 53 48 54 49 55 50 56 51 80 52 81 53 89 54
REMARK SMILES IDX 82 55 84 56 90 57 83 58 85 59 86 60 87 61 88 62 65 63 66 64
REMARK SMILES IDX 74 65 67 66 69 67 75 68 68 69 70 70 71 71 72 72 73 73 9 74
REMARK SMILES IDX 10 75 11 76 12 77 13 78 14 79 15 80 16 81 17 82 18 83 19 84
REMARK SMILES IDX 22 85 20 86 21 87 23 88 24 89 25 90 26 91 27 92 35 93 28 94
REMARK SMILES IDX 30 95 34 96 29 97 31 98 33 99 38 100 32 101 36 102 37 104
REMARK H PARENT 95 26 63 37 38 103
REMARK Flexibility Score: inf
ROOT
ATOM      1  C   UNL A   1      42.216  26.413  27.799  1.00  0.00     0.188 C 
ENDROOT
BRANCH   1   2
ATOM      2  C   UNL A   1      41.830  28.253  28.412  1.00  0.00     0.188 C 
BRANCH   2   3
ATOM      3  O   UNL A   1      42.936  29.503  27.111  1.00  0.00    -0.376 OA
BRANCH   3   4
ATOM      4  C   UNL A   1      44.742  29.044  26.572  1.00  0.00     0.202 C 
BRANCH   4   5
ATOM      5  C   UNL A   1      46.417  29.999  25.972  1.00  0.00     0.261 C 
BRANCH   5   6
ATOM      6  O   UNL A   1      46.790  31.861  26.071  1.00  0.00    -0.460 OA
BRANCH   6   7
ATOM      7  C   UNL A   1      48.176  32.662  26.778  1.00  0.00     0.338 C 
ATOM      8  O   UNL A   1      49.298  32.314  26.432  1.00  0.00    -0.246 OA
BRANCH   7   9
ATOM      9  C   UNL A   1      47.810  34.054  28.032  1.00  0.00     0.060 A 
ATOM     10  C   UNL A   1      48.056  33.675  30.033  1.00  0.00     0.016 A 
ATOM     11  C   UNL A   1      46.324  35.034  27.641  1.00  0.00     0.016 A 
ATOM     12  C   UNL A   1      46.917  34.215  31.253  1.00  0.00     0.010 A 
ATOM     13  C   UNL A   1      45.233  35.500  29.019  1.00  0.00     0.010 A 
ATOM     14  C   UNL A   1      45.540  35.094  30.747  1.00  0.00    -0.014 A 
BRANCH  14  15
ATOM     15  C   UNL A   1      44.695  35.284  31.982  1.00  0.00     0.031 A 
ATOM     16  C   UNL A   1      45.100  36.359  32.955  1.00  0.00     0.074 A 
ATOM     17  C   UNL A   1      43.389  34.906  32.009  1.00  0.00     0.049 A 
ATOM     18  N   UNL A   1      44.564  36.670  34.102  1.00  0.00    -0.248 NA
ATOM     19  C   UNL A   1      46.231  37.225  32.583  1.00  0.00     0.031 C 
ATOM     20  C   UNL A   1      42.717  34.145  30.970  1.00  0.00     0.029 A 
ATOM     21  N   UNL A   1      42.361  35.128  32.904  1.00  0.00    -0.354 N 
ATOM     22  C   UNL A   1      45.368  37.669  34.634  1.00  0.00     0.074 A 
ATOM     23  C   UNL A   1      46.377  37.983  33.657  1.00  0.00     0.031 C 
ATOM     24  C   UNL A   1      41.423  33.959  31.246  1.00  0.00     0.029 A 
ATOM     25  C   UNL A   1      41.183  34.475  32.571  1.00  0.00     0.049 A 
ATOM     26  H   UNL A   1      42.454  35.698  33.701  1.00  0.00     0.167 HD
ATOM     27  C   UNL A   1      45.284  38.231  35.858  1.00  0.00     0.034 A 
ATOM     28  C   UNL A   1      40.073  34.199  33.284  1.00  0.00     0.034 A 
ATOM     29  C   UNL A   1      44.252  37.895  36.790  1.00  0.00     0.049 A 
ATOM     30  C   UNL A   1      40.074  34.661  34.703  1.00  0.00     0.074 A 
ATOM     31  C   UNL A   1      44.121  38.265  38.113  1.00  0.00     0.029 A 
ATOM     32  N   UNL A   1      43.159  37.097  36.477  1.00  0.00    -0.354 N 
ATOM     33  N   UNL A   1      40.963  35.418  35.301  1.00  0.00    -0.248 NA
ATOM     34  C   UNL A   1      38.968  34.222  35.557  1.00  0.00     0.031 C 
ATOM     35  C   UNL A   1      42.960  37.665  38.607  1.00  0.00     0.029 A 
ATOM     36  C   UNL A   1      42.342  36.967  37.578  1.00  0.00     0.049 A 
ATOM     37  H   UNL A   1      42.994  36.685  35.599  1.00  0.00     0.167 HD
ATOM     38  C   UNL A   1      40.520  35.564  36.601  1.00  0.00     0.074 A 
ATOM     39  C   UNL A   1      39.276  34.819  36.702  1.00  0.00     0.031 C 
ATOM     40  C   UNL A   1      41.093  36.250  37.615  1.00  0.00     0.034 A 
BRANCH  27  41
ATOM     41  C   UNL A   1      46.401  39.144  36.267  1.00  0.00     0.023 A 
ATOM     42  C   UNL A   1      47.596  38.630  36.802  1.00  0.00     0.012 A 
ATOM     43  C   UNL A   1      46.230  40.539  36.155  1.00  0.00     0.148 A 
ATOM     44  C   UNL A   1      48.600  39.495  37.242  1.00  0.00     0.002 A 
ATOM     45  C   UNL A   1      47.244  41.391  36.565  1.00  0.00     0.091 A 
ATOM     46  F   UNL A   1      45.068  40.999  35.671  1.00  0.00    -0.205 F 
ATOM     47  C   UNL A   1      48.427  40.872  37.117  1.00  0.00     0.022 A 
BRANCH  45  48
ATOM     48  S   UNL A   1      47.118  43.178  36.440  1.00  0.00     0.127 S 
ATOM     49  O   UNL A   1      45.675  43.383  36.561  1.00  0.00    -0.237 OA
ATOM     50  O   UNL A   1      47.897  43.616  37.597  1.00  0.00    -0.237 OA
ATOM     51  O   UNL A   1      47.680  43.535  35.145  1.00  0.00    -0.744 OA
ENDBRANCH  45  48
ENDBRANCH  27  41
BRANCH  28  52
ATOM     52  C   UNL A   1      38.967  33.365  32.711  1.00  0.00     0.023 A 
ATOM     53  C   UNL A   1      37.924  33.980  31.994  1.00  0.00     0.012 A 
ATOM     54  C   UNL A   1      38.974  31.955  32.820  1.00  0.00     0.148 A 
ATOM     55  C   UNL A   1      36.920  33.213  31.391  1.00  0.00     0.002 A 
ATOM     56  C   UNL A   1      37.993  31.195  32.187  1.00  0.00     0.091 A 
ATOM     57  F   UNL A   1      39.968  31.380  33.513  1.00  0.00    -0.205 F 
ATOM     58  C   UNL A   1      36.961  31.824  31.477  1.00  0.00     0.022 A 
BRANCH  56  59
ATOM     59  S   UNL A   1      38.001  29.396  32.171  1.00  0.00     0.127 S 
ATOM     60  O   UNL A   1      36.840  29.099  31.333  1.00  0.00    -0.237 OA
ATOM     61  O   UNL A   1      39.296  29.111  31.552  1.00  0.00    -0.237 OA
ATOM     62  O   UNL A   1      37.887  28.983  33.562  1.00  0.00    -0.744 OA
ENDBRANCH  56  59
ENDBRANCH  28  52
BRANCH  40  63
ATOM     63  C   UNL A   1      40.337  36.315  38.899  1.00  0.00     0.023 A 
ATOM     64  C   UNL A   1      39.418  37.352  39.130  1.00  0.00     0.012 A 
ATOM     65  C   UNL A   1      40.455  35.249  39.809  1.00  0.00     0.148 A 
ATOM     66  C   UNL A   1      38.616  37.323  40.267  1.00  0.00     0.002 A 
ATOM     67  C   UNL A   1      39.623  35.204  40.912  1.00  0.00     0.091 A 
ATOM     68  F   UNL A   1      41.356  34.289  39.553  1.00  0.00    -0.205 F 
ATOM     69  C   UNL A   1      38.705  36.243  41.146  1.00  0.00     0.022 A 
BRANCH  67  70
ATOM     70  S   UNL A   1      39.616  33.814  42.044  1.00  0.00     0.127 S 
ATOM     71  O   UNL A   1      39.620  34.489  43.340  1.00  0.00    -0.237 OA
ATOM     72  O   UNL A   1      38.361  33.147  41.702  1.00  0.00    -0.237 OA
ATOM     73  O   UNL A   1      40.816  33.041  41.745  1.00  0.00    -0.744 OA
ENDBRANCH  67  70
ENDBRANCH  40  63
ENDBRANCH  14  15
ENDBRANCH   7   9
ENDBRANCH   6   7
ENDBRANCH   5   6
ENDBRANCH   4   5
ENDBRANCH   3   4
ENDBRANCH   2   3
ENDBRANCH   1   2
BRANCH   1  74
ATOM     74  O   UNL A   1      41.126  25.104  28.351  1.00  0.00    -0.377 OA
BRANCH  74  75
ATOM     75  C   UNL A   1      39.591  24.481  27.812  1.00  0.00     0.188 C 
BRANCH  75  76
ATOM     76  C   UNL A   1      39.038  23.209  26.568  1.00  0.00     0.188 C 
BRANCH  76  77
ATOM     77  O   UNL A   1      37.729  23.362  25.943  1.00  0.00    -0.376 OA
BRANCH  77  78
ATOM     78  C   UNL A   1      37.362  23.245  24.523  1.00  0.00     0.202 C 
BRANCH  78  79
ATOM     79  C   UNL A   1      35.753  23.262  24.382  1.00  0.00     0.261 C 
BRANCH  79  80
ATOM     80  O   UNL A   1      35.223  24.589  24.317  1.00  0.00    -0.462 OA
BRANCH  80  81
ATOM     81  C   UNL A   1      34.066  24.603  23.646  1.00  0.00     0.324 C 
ATOM     82  O   UNL A   1      33.793  25.486  22.834  1.00  0.00    -0.250 OA
BRANCH  81  83
ATOM     83  C   UNL A   1      33.192  23.417  23.888  1.00  0.00     0.183 C 
ATOM     84  C   UNL A   1      32.210  23.315  22.730  1.00  0.00     0.034 C 
ATOM     85  N   UNL A   1      32.388  22.945  25.058  1.00  0.00    -0.184 NA
ATOM     86  C   UNL A   1      31.514  22.002  22.983  1.00  0.00     0.019 C 
ATOM     87  C   UNL A   1      31.478  21.862  24.500  1.00  0.00     0.103 C 
BRANCH  85  88
ATOM     88  S   UNL A   1      31.897  23.855  26.484  1.00  0.00     0.244 S 
ATOM     89  O   UNL A   1      31.103  23.026  27.363  1.00  0.00    -0.207 OA
ATOM     90  O   UNL A   1      33.209  24.226  26.989  1.00  0.00    -0.207 OA
BRANCH  88  91
ATOM     91  C   UNL A   1      30.529  25.666  26.068  1.00  0.00     0.090 A 
ATOM     92  C   UNL A   1      31.859  26.815  26.117  1.00  0.00     0.024 A 
ATOM     93  C   UNL A   1      29.242  26.160  24.598  1.00  0.00     0.005 A 
ATOM     94  C   UNL A   1      32.077  28.080  25.141  1.00  0.00     0.028 A 
ATOM     95  C   UNL A   1      29.865  27.599  23.584  1.00  0.00     0.019 A 
ATOM     96  C   UNL A   1      27.813  26.227  24.422  1.00  0.00     0.010 A 
ATOM     97  C   UNL A   1      31.144  28.338  23.983  1.00  0.00     0.050 A 
ATOM     98  C   UNL A   1      28.982  28.831  22.718  1.00  0.00     0.050 A 
ATOM     99  C   UNL A   1      26.443  27.482  23.958  1.00  0.00     0.002 A 
ATOM    100  N   UNL A   1      31.259  29.383  23.091  1.00  0.00    -0.321 N 
ATOM    101  C   UNL A   1      26.998  28.895  22.940  1.00  0.00     0.014 A 
ATOM    102  C   UNL A   1      30.190  29.613  22.186  1.00  0.00     0.256 C 
ATOM    103  H   UNL A   1      32.060  29.955  23.083  1.00  0.00     0.170 HD
ATOM    104  O   UNL A   1      30.379  30.334  21.208  1.00  0.00    -0.269 OA
ENDBRANCH  88  91
ENDBRANCH  85  88
ENDBRANCH  81  83
ENDBRANCH  80  81
ENDBRANCH  79  80
ENDBRANCH  78  79
ENDBRANCH  77  78
ENDBRANCH  76  77
ENDBRANCH  75  76
ENDBRANCH  74  75
ENDBRANCH   1  74
TORSDOF 25
ENDMDL
