MODEL 1
REMARK VINA RESULT:      -7.7      0.000      0.000
REMARK SMILES CSc1ccc(/C=C2\C(C)=C(CC(=O)OCCOCCOCCOCCOC(=O)c3ccc(-c4c5nc(c(-c6cccc(S(=O)(=O)[O-])c6F)c6ccc([nH]6)c(-c6cccc(S(=O)(=O)[O-])c6F)c6nc(c(-c7cccc(S(=O)(=O)[O-])c7F)c7ccc4[nH]7)C=C6)C=C5)cc3)c3cc(F)ccc32)cc1
REMARK SMILES IDX 21 1 20 2 19 3 18 4 17 5 16 6 15 7 13 8 14 9 12 10 11 11
REMARK SMILES IDX 7 12 8 13 9 14 99 15 10 16 93 17 98 18 94 19 97 20 95 21
REMARK SMILES IDX 96 22 6 23 3 24 4 25 101 26 5 27 100 28 2 29 1 30 22 31
REMARK SMILES IDX 23 32 24 33 25 34 26 35 27 36 28 37 29 38 30 39 31 40 92 41
REMARK SMILES IDX 32 42 91 43 33 44 34 45 35 46 85 47 36 48 90 49 84 50 86 51
REMARK SMILES IDX 37 52 89 53 83 54 82 55 38 57 70 58 50 59 69 60 51 61 54 62
REMARK SMILES IDX 68 63 87 64 52 65 53 66 67 68 88 69 55 70 39 71 40 72 48 73
REMARK SMILES IDX 41 74 43 75 49 76 42 77 44 78 45 79 46 80 47 81 71 82 72 83
REMARK SMILES IDX 80 84 73 85 75 86 81 87 74 88 76 89 77 90 78 91 79 92 56 93
REMARK SMILES IDX 57 94 65 95 58 96 60 97 66 98 59 99 61 100 62 101 63 102
REMARK SMILES IDX 64 103
REMARK H PARENT 86 56 54 67
REMARK Flexibility Score: inf
ROOT
ATOM      1  O   UNL A   1      35.399  31.170  28.545  1.00  0.00    -0.377 OA
ENDROOT
BRANCH   1   2
ATOM      2  C   UNL A   1      36.354  30.433  27.808  1.00  0.00     0.188 C 
BRANCH   2   3
ATOM      3  C   UNL A   1      37.571  29.972  28.601  1.00  0.00     0.188 C 
BRANCH   3   4
ATOM      4  O   UNL A   1      38.264  28.845  28.097  1.00  0.00    -0.376 OA
BRANCH   4   5
ATOM      5  C   UNL A   1      39.503  29.061  27.419  1.00  0.00     0.202 C 
BRANCH   5   6
ATOM      6  C   UNL A   1      40.829  28.936  28.194  1.00  0.00     0.261 C 
BRANCH   6   7
ATOM      7  O   UNL A   1      41.798  28.062  27.560  1.00  0.00    -0.463 OA
BRANCH   7   8
ATOM      8  C   UNL A   1      42.847  27.668  28.321  1.00  0.00     0.310 C 
ATOM      9  O   UNL A   1      43.950  28.217  28.301  1.00  0.00    -0.252 OA
BRANCH   8  10
ATOM     10  C   UNL A   1      42.630  26.424  29.179  1.00  0.00     0.159 C 
BRANCH  10  11
ATOM     11  C   UNL A   1      43.183  25.042  28.809  1.00  0.00    -0.025 C 
ATOM     12  C   UNL A   1      40.742  24.447  26.462  1.00  0.00     0.017 C 
ATOM     13  C   UNL A   1      41.954  24.443  27.043  1.00  0.00    -0.014 C 
ATOM     14  C   UNL A   1      42.322  24.050  28.432  1.00  0.00    -0.039 C 
ATOM     15  C   UNL A   1      43.244  24.849  26.439  1.00  0.00    -0.010 A 
ATOM     16  C   UNL A   1      42.808  22.585  28.451  1.00  0.00     0.045 C 
ATOM     17  C   UNL A   1      44.046  25.084  27.573  1.00  0.00    -0.011 A 
ATOM     18  C   UNL A   1      43.802  24.387  25.246  1.00  0.00     0.012 A 
ATOM     19  C   UNL A   1      45.400  24.796  27.535  1.00  0.00     0.048 A 
ATOM     20  C   UNL A   1      45.175  24.098  25.224  1.00  0.00     0.040 A 
ATOM     21  C   UNL A   1      45.951  24.284  26.371  1.00  0.00     0.123 A 
ATOM     22  F   UNL A   1      47.215  23.836  26.396  1.00  0.00    -0.207 F 
BRANCH  12  23
ATOM     23  C   UNL A   1      39.552  23.627  26.851  1.00  0.00    -0.025 A 
ATOM     24  C   UNL A   1      37.407  22.633  25.399  1.00  0.00     0.007 A 
ATOM     25  C   UNL A   1      38.503  21.822  25.667  1.00  0.00     0.015 A 
ATOM     26  C   UNL A   1      37.256  23.813  26.134  1.00  0.00     0.015 A 
ATOM     27  C   UNL A   1      39.516  22.280  26.500  1.00  0.00     0.009 A 
ATOM     28  C   UNL A   1      38.335  24.310  26.877  1.00  0.00     0.009 A 
BRANCH  24  29
ATOM     29  S   UNL A   1      36.426  22.202  23.974  1.00  0.00    -0.130 SA
ATOM     30  C   UNL A   1      35.031  21.347  24.717  1.00  0.00     0.091 C 
ENDBRANCH  24  29
ENDBRANCH  12  23
ENDBRANCH  10  11
ENDBRANCH   8  10
ENDBRANCH   7   8
ENDBRANCH   6   7
ENDBRANCH   5   6
ENDBRANCH   4   5
ENDBRANCH   3   4
ENDBRANCH   2   3
ENDBRANCH   1   2
BRANCH   1  31
ATOM     31  C   UNL A   1      35.175  32.558  28.312  1.00  0.00     0.188 C 
BRANCH  31  32
ATOM     32  C   UNL A   1      34.685  33.431  29.472  1.00  0.00     0.188 C 
BRANCH  32  33
ATOM     33  O   UNL A   1      35.395  33.390  30.715  1.00  0.00    -0.376 OA
BRANCH  33  34
ATOM     34  C   UNL A   1      34.870  32.598  31.774  1.00  0.00     0.202 C 
BRANCH  34  35
ATOM     35  C   UNL A   1      35.595  32.677  33.115  1.00  0.00     0.261 C 
BRANCH  35  36
ATOM     36  O   UNL A   1      36.471  31.562  33.317  1.00  0.00    -0.460 OA
BRANCH  36  37
ATOM     37  C   UNL A   1      37.481  31.807  34.176  1.00  0.00     0.338 C 
ATOM     38  O   UNL A   1      37.407  31.926  35.396  1.00  0.00    -0.246 OA
BRANCH  37  39
ATOM     39  C   UNL A   1      38.761  31.774  33.463  1.00  0.00     0.060 A 
ATOM     40  C   UNL A   1      38.738  31.356  32.127  1.00  0.00     0.016 A 
ATOM     41  C   UNL A   1      39.968  32.044  34.113  1.00  0.00     0.016 A 
ATOM     42  C   UNL A   1      39.928  31.141  31.451  1.00  0.00     0.010 A 
ATOM     43  C   UNL A   1      41.166  31.814  33.437  1.00  0.00     0.010 A 
ATOM     44  C   UNL A   1      41.142  31.310  32.124  1.00  0.00    -0.014 A 
BRANCH  44  45
ATOM     45  C   UNL A   1      42.361  30.748  31.510  1.00  0.00     0.031 A 
ATOM     46  C   UNL A   1      42.827  29.393  31.958  1.00  0.00     0.074 A 
ATOM     47  C   UNL A   1      42.987  31.411  30.524  1.00  0.00     0.049 A 
ATOM     48  N   UNL A   1      43.854  28.696  31.554  1.00  0.00    -0.248 NA
ATOM     49  C   UNL A   1      42.025  28.730  33.004  1.00  0.00     0.031 C 
ATOM     50  C   UNL A   1      42.585  32.715  29.998  1.00  0.00     0.029 A 
ATOM     51  N   UNL A   1      44.100  31.079  29.799  1.00  0.00    -0.354 N 
ATOM     52  C   UNL A   1      43.844  27.533  32.316  1.00  0.00     0.074 A 
ATOM     53  C   UNL A   1      42.715  27.619  33.213  1.00  0.00     0.031 C 
ATOM     54  C   UNL A   1      43.457  33.086  29.046  1.00  0.00     0.029 A 
ATOM     55  C   UNL A   1      44.492  32.062  28.924  1.00  0.00     0.049 A 
ATOM     56  H   UNL A   1      44.574  30.222  29.896  1.00  0.00     0.167 HD
ATOM     57  C   UNL A   1      44.697  26.485  32.262  1.00  0.00     0.034 A 
ATOM     58  C   UNL A   1      45.583  32.132  28.137  1.00  0.00     0.034 A 
ATOM     59  C   UNL A   1      45.809  26.414  31.355  1.00  0.00     0.049 A 
ATOM     60  C   UNL A   1      46.539  30.969  28.124  1.00  0.00     0.074 A 
ATOM     61  C   UNL A   1      46.721  25.388  31.188  1.00  0.00     0.029 A 
ATOM     62  N   UNL A   1      46.170  27.421  30.471  1.00  0.00    -0.354 N 
ATOM     63  N   UNL A   1      46.473  29.839  28.788  1.00  0.00    -0.248 NA
ATOM     64  C   UNL A   1      47.699  31.075  27.231  1.00  0.00     0.031 C 
ATOM     65  C   UNL A   1      47.663  25.796  30.238  1.00  0.00     0.029 A 
ATOM     66  C   UNL A   1      47.304  27.050  29.770  1.00  0.00     0.049 A 
ATOM     67  H   UNL A   1      45.690  28.273  30.359  1.00  0.00     0.167 HD
ATOM     68  C   UNL A   1      47.559  29.083  28.364  1.00  0.00     0.074 A 
ATOM     69  C   UNL A   1      48.255  29.880  27.373  1.00  0.00     0.031 C 
ATOM     70  C   UNL A   1      47.952  27.846  28.759  1.00  0.00     0.034 A 
BRANCH  57  71
ATOM     71  C   UNL A   1      44.467  25.342  33.217  1.00  0.00     0.023 A 
ATOM     72  C   UNL A   1      43.790  24.182  32.788  1.00  0.00     0.012 A 
ATOM     73  C   UNL A   1      44.960  25.404  34.535  1.00  0.00     0.148 A 
ATOM     74  C   UNL A   1      43.575  23.118  33.665  1.00  0.00     0.002 A 
ATOM     75  C   UNL A   1      44.787  24.322  35.389  1.00  0.00     0.091 A 
ATOM     76  F   UNL A   1      45.579  26.525  34.933  1.00  0.00    -0.205 F 
ATOM     77  C   UNL A   1      44.083  23.185  34.960  1.00  0.00     0.022 A 
BRANCH  75  78
ATOM     78  S   UNL A   1      45.471  24.276  37.048  1.00  0.00     0.127 S 
ATOM     79  O   UNL A   1      45.274  22.874  37.410  1.00  0.00    -0.237 OA
ATOM     80  O   UNL A   1      46.865  24.656  36.814  1.00  0.00    -0.237 OA
ATOM     81  O   UNL A   1      44.701  25.234  37.830  1.00  0.00    -0.744 OA
ENDBRANCH  75  78
ENDBRANCH  57  71
BRANCH  58  82
ATOM     82  C   UNL A   1      45.818  33.338  27.295  1.00  0.00     0.023 A 
ATOM     83  C   UNL A   1      45.164  33.468  26.055  1.00  0.00     0.012 A 
ATOM     84  C   UNL A   1      46.677  34.366  27.731  1.00  0.00     0.148 A 
ATOM     85  C   UNL A   1      45.388  34.585  25.249  1.00  0.00     0.002 A 
ATOM     86  C   UNL A   1      46.849  35.501  26.951  1.00  0.00     0.091 A 
ATOM     87  F   UNL A   1      47.296  34.216  28.910  1.00  0.00    -0.205 F 
ATOM     88  C   UNL A   1      46.222  35.605  25.701  1.00  0.00     0.022 A 
BRANCH  86  89
ATOM     89  S   UNL A   1      47.802  36.917  27.509  1.00  0.00     0.127 S 
ATOM     90  O   UNL A   1      46.972  37.428  28.596  1.00  0.00    -0.237 OA
ATOM     91  O   UNL A   1      49.054  36.287  27.932  1.00  0.00    -0.237 OA
ATOM     92  O   UNL A   1      47.929  37.789  26.350  1.00  0.00    -0.744 OA
ENDBRANCH  86  89
ENDBRANCH  58  82
BRANCH  70  93
ATOM     93  C   UNL A   1      49.158  27.251  28.080  1.00  0.00     0.023 A 
ATOM     94  C   UNL A   1      49.013  26.513  26.890  1.00  0.00     0.012 A 
ATOM     95  C   UNL A   1      50.448  27.487  28.597  1.00  0.00     0.148 A 
ATOM     96  C   UNL A   1      50.130  25.982  26.246  1.00  0.00     0.002 A 
ATOM     97  C   UNL A   1      51.560  27.005  27.920  1.00  0.00     0.091 A 
ATOM     98  F   UNL A   1      50.563  28.179  29.740  1.00  0.00    -0.205 F 
ATOM     99  C   UNL A   1      51.402  26.239  26.754  1.00  0.00     0.022 A 
BRANCH  97 100
ATOM    100  S   UNL A   1      53.238  27.374  28.439  1.00  0.00     0.127 S 
ATOM    101  O   UNL A   1      53.299  26.709  29.740  1.00  0.00    -0.237 OA
ATOM    102  O   UNL A   1      54.033  26.737  27.390  1.00  0.00    -0.237 OA
ATOM    103  O   UNL A   1      53.338  28.827  28.478  1.00  0.00    -0.744 OA
ENDBRANCH  97 100
ENDBRANCH  70  93
ENDBRANCH  44  45
ENDBRANCH  37  39
ENDBRANCH  36  37
ENDBRANCH  35  36
ENDBRANCH  34  35
ENDBRANCH  33  34
ENDBRANCH  32  33
ENDBRANCH  31  32
ENDBRANCH   1  31
TORSDOF 26
ENDMDL
MODEL 2
REMARK VINA RESULT:      -7.6      4.951     11.486
REMARK SMILES CSc1ccc(/C=C2\C(C)=C(CC(=O)OCCOCCOCCOCCOC(=O)c3ccc(-c4c5nc(c(-c6cccc(S(=O)(=O)[O-])c6F)c6ccc([nH]6)c(-c6cccc(S(=O)(=O)[O-])c6F)c6nc(c(-c7cccc(S(=O)(=O)[O-])c7F)c7ccc4[nH]7)C=C6)C=C5)cc3)c3cc(F)ccc32)cc1
REMARK SMILES IDX 21 1 20 2 19 3 18 4 17 5 16 6 15 7 13 8 14 9 12 10 11 11
REMARK SMILES IDX 7 12 8 13 9 14 99 15 10 16 93 17 98 18 94 19 97 20 95 21
REMARK SMILES IDX 96 22 6 23 3 24 4 25 101 26 5 27 100 28 2 29 1 30 22 31
REMARK SMILES IDX 23 32 24 33 25 34 26 35 27 36 28 37 29 38 30 39 31 40 92 41
REMARK SMILES IDX 32 42 91 43 33 44 34 45 35 46 85 47 36 48 90 49 84 50 86 51
REMARK SMILES IDX 37 52 89 53 83 54 82 55 38 57 70 58 50 59 69 60 51 61 54 62
REMARK SMILES IDX 68 63 87 64 52 65 53 66 67 68 88 69 55 70 39 71 40 72 48 73
REMARK SMILES IDX 41 74 43 75 49 76 42 77 44 78 45 79 46 80 47 81 71 82 72 83
REMARK SMILES IDX 80 84 73 85 75 86 81 87 74 88 76 89 77 90 78 91 79 92 56 93
REMARK SMILES IDX 57 94 65 95 58 96 60 97 66 98 59 99 61 100 62 101 63 102
REMARK SMILES IDX 64 103
REMARK H PARENT 86 56 54 67
REMARK Flexibility Score: inf
ROOT
ATOM      1  O   UNL A   1      36.560  23.912  24.546  1.00  0.00    -0.377 OA
ENDROOT
BRANCH   1   2
ATOM      2  C   UNL A   1      35.906  23.308  23.448  1.00  0.00     0.188 C 
BRANCH   2   3
ATOM      3  C   UNL A   1      34.441  23.691  23.275  1.00  0.00     0.188 C 
BRANCH   3   4
ATOM      4  O   UNL A   1      33.932  23.662  21.954  1.00  0.00    -0.376 OA
BRANCH   4   5
ATOM      5  C   UNL A   1      33.000  24.674  21.567  1.00  0.00     0.202 C 
BRANCH   5   6
ATOM      6  C   UNL A   1      31.874  25.084  22.536  1.00  0.00     0.261 C 
BRANCH   6   7
ATOM      7  O   UNL A   1      31.301  26.387  22.251  1.00  0.00    -0.463 OA
BRANCH   7   8
ATOM      8  C   UNL A   1      30.679  27.013  23.279  1.00  0.00     0.310 C 
ATOM      9  O   UNL A   1      29.569  26.689  23.704  1.00  0.00    -0.252 OA
BRANCH   8  10
ATOM     10  C   UNL A   1      31.395  28.228  23.863  1.00  0.00     0.159 C 
BRANCH  10  11
ATOM     11  C   UNL A   1      31.467  28.517  25.367  1.00  0.00    -0.025 C 
ATOM     12  C   UNL A   1      33.264  25.668  26.055  1.00  0.00     0.017 C 
ATOM     13  C   UNL A   1      32.856  26.945  26.135  1.00  0.00    -0.014 C 
ATOM     14  C   UNL A   1      31.469  27.477  26.254  1.00  0.00    -0.039 C 
ATOM     15  C   UNL A   1      33.699  28.164  26.110  1.00  0.00    -0.010 A 
ATOM     16  C   UNL A   1      31.139  27.753  27.737  1.00  0.00     0.045 C 
ATOM     17  C   UNL A   1      32.771  29.164  25.762  1.00  0.00    -0.011 A 
ATOM     18  C   UNL A   1      34.795  28.450  26.925  1.00  0.00     0.012 A 
ATOM     19  C   UNL A   1      32.902  30.441  26.283  1.00  0.00     0.048 A 
ATOM     20  C   UNL A   1      34.913  29.748  27.445  1.00  0.00     0.040 A 
ATOM     21  C   UNL A   1      33.957  30.718  27.138  1.00  0.00     0.123 A 
ATOM     22  F   UNL A   1      33.976  31.896  27.780  1.00  0.00    -0.207 F 
BRANCH  12  23
ATOM     23  C   UNL A   1      32.535  24.455  26.543  1.00  0.00    -0.025 A 
ATOM     24  C   UNL A   1      32.242  21.899  25.504  1.00  0.00     0.007 A 
ATOM     25  C   UNL A   1      33.206  22.152  26.473  1.00  0.00     0.015 A 
ATOM     26  C   UNL A   1      31.230  22.844  25.310  1.00  0.00     0.015 A 
ATOM     27  C   UNL A   1      33.265  23.399  27.082  1.00  0.00     0.009 A 
ATOM     28  C   UNL A   1      31.371  24.131  25.844  1.00  0.00     0.009 A 
BRANCH  24  29
ATOM     29  S   UNL A   1      32.531  20.499  24.439  1.00  0.00    -0.130 SA
ATOM     30  C   UNL A   1      34.226  20.057  24.844  1.00  0.00     0.091 C 
ENDBRANCH  24  29
ENDBRANCH  12  23
ENDBRANCH  10  11
ENDBRANCH   8  10
ENDBRANCH   7   8
ENDBRANCH   6   7
ENDBRANCH   5   6
ENDBRANCH   4   5
ENDBRANCH   3   4
ENDBRANCH   2   3
ENDBRANCH   1   2
BRANCH   1  31
ATOM     31  C   UNL A   1      36.857  23.189  25.737  1.00  0.00     0.188 C 
BRANCH  31  32
ATOM     32  C   UNL A   1      38.278  22.652  25.940  1.00  0.00     0.188 C 
BRANCH  32  33
ATOM     33  O   UNL A   1      39.086  23.212  26.980  1.00  0.00    -0.376 OA
BRANCH  33  34
ATOM     34  C   UNL A   1      40.457  23.479  26.711  1.00  0.00     0.202 C 
BRANCH  34  35
ATOM     35  C   UNL A   1      40.860  24.945  26.582  1.00  0.00     0.261 C 
BRANCH  35  36
ATOM     36  O   UNL A   1      41.447  25.448  27.787  1.00  0.00    -0.460 OA
BRANCH  36  37
ATOM     37  C   UNL A   1      42.388  26.393  27.585  1.00  0.00     0.338 C 
ATOM     38  O   UNL A   1      43.229  26.425  26.691  1.00  0.00    -0.246 OA
BRANCH  37  39
ATOM     39  C   UNL A   1      42.190  27.502  28.522  1.00  0.00     0.060 A 
ATOM     40  C   UNL A   1      41.677  28.696  28.000  1.00  0.00     0.016 A 
ATOM     41  C   UNL A   1      42.591  27.413  29.858  1.00  0.00     0.016 A 
ATOM     42  C   UNL A   1      41.626  29.830  28.795  1.00  0.00     0.010 A 
ATOM     43  C   UNL A   1      42.553  28.558  30.653  1.00  0.00     0.010 A 
ATOM     44  C   UNL A   1      42.121  29.778  30.102  1.00  0.00    -0.014 A 
BRANCH  44  45
ATOM     45  C   UNL A   1      42.378  31.053  30.798  1.00  0.00     0.031 A 
ATOM     46  C   UNL A   1      43.651  31.790  30.492  1.00  0.00     0.074 A 
ATOM     47  C   UNL A   1      41.456  31.568  31.628  1.00  0.00     0.049 A 
ATOM     48  N   UNL A   1      44.083  32.927  30.966  1.00  0.00    -0.248 NA
ATOM     49  C   UNL A   1      44.562  31.160  29.518  1.00  0.00     0.031 C 
ATOM     50  C   UNL A   1      40.176  30.942  31.956  1.00  0.00     0.029 A 
ATOM     51  N   UNL A   1      41.464  32.729  32.352  1.00  0.00    -0.354 N 
ATOM     52  C   UNL A   1      45.325  33.133  30.378  1.00  0.00     0.074 A 
ATOM     53  C   UNL A   1      45.585  32.001  29.519  1.00  0.00     0.031 C 
ATOM     54  C   UNL A   1      39.527  31.719  32.840  1.00  0.00     0.029 A 
ATOM     55  C   UNL A   1      40.363  32.873  33.161  1.00  0.00     0.049 A 
ATOM     56  H   UNL A   1      42.186  33.395  32.300  1.00  0.00     0.167 HD
ATOM     57  C   UNL A   1      46.167  34.179  30.536  1.00  0.00     0.034 A 
ATOM     58  C   UNL A   1      40.083  33.819  34.077  1.00  0.00     0.034 A 
ATOM     59  C   UNL A   1      45.886  35.301  31.389  1.00  0.00     0.049 A 
ATOM     60  C   UNL A   1      41.056  34.953  34.263  1.00  0.00     0.074 A 
ATOM     61  C   UNL A   1      46.650  36.433  31.603  1.00  0.00     0.029 A 
ATOM     62  N   UNL A   1      44.756  35.422  32.184  1.00  0.00    -0.354 N 
ATOM     63  N   UNL A   1      42.188  35.180  33.640  1.00  0.00    -0.248 NA
ATOM     64  C   UNL A   1      40.698  35.978  35.252  1.00  0.00     0.031 C 
ATOM     65  C   UNL A   1      46.005  37.216  32.565  1.00  0.00     0.029 A 
ATOM     66  C   UNL A   1      44.809  36.601  32.906  1.00  0.00     0.049 A 
ATOM     67  H   UNL A   1      44.023  34.766  32.228  1.00  0.00     0.167 HD
ATOM     68  C   UNL A   1      42.658  36.392  34.132  1.00  0.00     0.074 A 
ATOM     69  C   UNL A   1      41.676  36.857  35.092  1.00  0.00     0.031 C 
ATOM     70  C   UNL A   1      43.798  37.060  33.825  1.00  0.00     0.034 A 
BRANCH  57  71
ATOM     71  C   UNL A   1      47.473  34.151  29.784  1.00  0.00     0.023 A 
ATOM     72  C   UNL A   1      48.611  33.551  30.358  1.00  0.00     0.012 A 
ATOM     73  C   UNL A   1      47.559  34.690  28.485  1.00  0.00     0.148 A 
ATOM     74  C   UNL A   1      49.824  33.519  29.667  1.00  0.00     0.002 A 
ATOM     75  C   UNL A   1      48.755  34.611  27.783  1.00  0.00     0.091 A 
ATOM     76  F   UNL A   1      46.473  35.281  27.966  1.00  0.00    -0.205 F 
ATOM     77  C   UNL A   1      49.891  34.039  28.377  1.00  0.00     0.022 A 
BRANCH  75  78
ATOM     78  S   UNL A   1      48.924  35.179  26.088  1.00  0.00     0.127 S 
ATOM     79  O   UNL A   1      50.323  34.863  25.808  1.00  0.00    -0.237 OA
ATOM     80  O   UNL A   1      47.955  34.336  25.386  1.00  0.00    -0.237 OA
ATOM     81  O   UNL A   1      48.598  36.599  26.103  1.00  0.00    -0.744 OA
ENDBRANCH  75  78
ENDBRANCH  57  71
BRANCH  58  82
ATOM     82  C   UNL A   1      38.827  33.736  34.874  1.00  0.00     0.023 A 
ATOM     83  C   UNL A   1      37.641  34.312  34.380  1.00  0.00     0.012 A 
ATOM     84  C   UNL A   1      38.803  33.072  36.116  1.00  0.00     0.148 A 
ATOM     85  C   UNL A   1      36.462  34.256  35.123  1.00  0.00     0.002 A 
ATOM     86  C   UNL A   1      37.614  32.968  36.823  1.00  0.00     0.091 A 
ATOM     87  F   UNL A   1      39.946  32.540  36.572  1.00  0.00    -0.205 F 
ATOM     88  C   UNL A   1      36.445  33.576  36.339  1.00  0.00     0.022 A 
BRANCH  86  89
ATOM     89  S   UNL A   1      37.471  32.006  38.332  1.00  0.00     0.127 S 
ATOM     90  O   UNL A   1      36.188  32.465  38.860  1.00  0.00    -0.237 OA
ATOM     91  O   UNL A   1      37.470  30.637  37.815  1.00  0.00    -0.237 OA
ATOM     92  O   UNL A   1      38.639  32.346  39.131  1.00  0.00    -0.744 OA
ENDBRANCH  86  89
ENDBRANCH  58  82
BRANCH  70  93
ATOM     93  C   UNL A   1      44.023  38.392  34.489  1.00  0.00     0.023 A 
ATOM     94  C   UNL A   1      44.780  38.478  35.674  1.00  0.00     0.012 A 
ATOM     95  C   UNL A   1      43.533  39.571  33.893  1.00  0.00     0.148 A 
ATOM     96  C   UNL A   1      45.011  39.714  36.277  1.00  0.00     0.002 A 
ATOM     97  C   UNL A   1      43.816  40.803  34.467  1.00  0.00     0.091 A 
ATOM     98  F   UNL A   1      42.801  39.466  32.774  1.00  0.00    -0.205 F 
ATOM     99  C   UNL A   1      44.540  40.875  35.668  1.00  0.00     0.022 A 
BRANCH  97 100
ATOM    100  S   UNL A   1      43.343  42.355  33.699  1.00  0.00     0.127 S 
ATOM    101  O   UNL A   1      42.254  41.931  32.820  1.00  0.00    -0.237 OA
ATOM    102  O   UNL A   1      42.922  43.154  34.850  1.00  0.00    -0.237 OA
ATOM    103  O   UNL A   1      44.534  42.849  33.020  1.00  0.00    -0.744 OA
ENDBRANCH  97 100
ENDBRANCH  70  93
ENDBRANCH  44  45
ENDBRANCH  37  39
ENDBRANCH  36  37
ENDBRANCH  35  36
ENDBRANCH  34  35
ENDBRANCH  33  34
ENDBRANCH  32  33
ENDBRANCH  31  32
ENDBRANCH   1  31
TORSDOF 26
ENDMDL
MODEL 3
REMARK VINA RESULT:      -7.6      6.546     11.077
REMARK SMILES CSc1ccc(/C=C2\C(C)=C(CC(=O)OCCOCCOCCOCCOC(=O)c3ccc(-c4c5nc(c(-c6cccc(S(=O)(=O)[O-])c6F)c6ccc([nH]6)c(-c6cccc(S(=O)(=O)[O-])c6F)c6nc(c(-c7cccc(S(=O)(=O)[O-])c7F)c7ccc4[nH]7)C=C6)C=C5)cc3)c3cc(F)ccc32)cc1
REMARK SMILES IDX 21 1 20 2 19 3 18 4 17 5 16 6 15 7 13 8 14 9 12 10 11 11
REMARK SMILES IDX 7 12 8 13 9 14 99 15 10 16 93 17 98 18 94 19 97 20 95 21
REMARK SMILES IDX 96 22 6 23 3 24 4 25 101 26 5 27 100 28 2 29 1 30 22 31
REMARK SMILES IDX 23 32 24 33 25 34 26 35 27 36 28 37 29 38 30 39 31 40 92 41
REMARK SMILES IDX 32 42 91 43 33 44 34 45 35 46 85 47 36 48 90 49 84 50 86 51
REMARK SMILES IDX 37 52 89 53 83 54 82 55 38 57 70 58 50 59 69 60 51 61 54 62
REMARK SMILES IDX 68 63 87 64 52 65 53 66 67 68 88 69 55 70 39 71 40 72 48 73
REMARK SMILES IDX 41 74 43 75 49 76 42 77 44 78 45 79 46 80 47 81 71 82 72 83
REMARK SMILES IDX 80 84 73 85 75 86 81 87 74 88 76 89 77 90 78 91 79 92 56 93
REMARK SMILES IDX 57 94 65 95 58 96 60 97 66 98 59 99 61 100 62 101 63 102
REMARK SMILES IDX 64 103
REMARK H PARENT 86 56 54 67
REMARK Flexibility Score: inf
ROOT
ATOM      1  O   UNL A   1      33.776  33.648  29.390  1.00  0.00    -0.377 OA
ENDROOT
BRANCH   1   2
ATOM      2  C   UNL A   1      34.817  33.217  30.244  1.00  0.00     0.188 C 
BRANCH   2   3
ATOM      3  C   UNL A   1      36.068  32.710  29.538  1.00  0.00     0.188 C 
BRANCH   3   4
ATOM      4  O   UNL A   1      35.935  32.393  28.165  1.00  0.00    -0.376 OA
BRANCH   4   5
ATOM      5  C   UNL A   1      36.177  31.045  27.756  1.00  0.00     0.202 C 
BRANCH   5   6
ATOM      6  C   UNL A   1      35.217  29.927  28.206  1.00  0.00     0.261 C 
BRANCH   6   7
ATOM      7  O   UNL A   1      35.074  28.853  27.241  1.00  0.00    -0.463 OA
BRANCH   7   8
ATOM      8  C   UNL A   1      33.952  28.866  26.481  1.00  0.00     0.310 C 
ATOM      9  O   UNL A   1      33.163  29.812  26.445  1.00  0.00    -0.252 OA
BRANCH   8  10
ATOM     10  C   UNL A   1      33.648  27.588  25.704  1.00  0.00     0.159 C 
BRANCH  10  11
ATOM     11  C   UNL A   1      33.060  27.588  24.288  1.00  0.00    -0.025 C 
ATOM     12  C   UNL A   1      32.060  24.303  24.465  1.00  0.00     0.017 C 
ATOM     13  C   UNL A   1      32.033  25.608  24.150  1.00  0.00    -0.014 C 
ATOM     14  C   UNL A   1      33.105  26.444  23.540  1.00  0.00    -0.039 C 
ATOM     15  C   UNL A   1      30.915  26.560  24.348  1.00  0.00    -0.010 A 
ATOM     16  C   UNL A   1      32.893  26.536  22.013  1.00  0.00     0.045 C 
ATOM     17  C   UNL A   1      31.567  27.807  24.289  1.00  0.00    -0.011 A 
ATOM     18  C   UNL A   1      29.596  26.417  23.917  1.00  0.00     0.012 A 
ATOM     19  C   UNL A   1      30.922  28.901  23.736  1.00  0.00     0.048 A 
ATOM     20  C   UNL A   1      28.955  27.534  23.358  1.00  0.00     0.040 A 
ATOM     21  C   UNL A   1      29.631  28.752  23.254  1.00  0.00     0.123 A 
ATOM     22  F   UNL A   1      29.081  29.758  22.557  1.00  0.00    -0.207 F 
BRANCH  12  23
ATOM     23  C   UNL A   1      32.937  23.248  23.868  1.00  0.00    -0.025 A 
ATOM     24  C   UNL A   1      33.206  20.531  24.363  1.00  0.00     0.007 A 
ATOM     25  C   UNL A   1      32.411  20.973  23.313  1.00  0.00     0.015 A 
ATOM     26  C   UNL A   1      34.107  21.431  24.940  1.00  0.00     0.015 A 
ATOM     27  C   UNL A   1      32.380  22.324  22.988  1.00  0.00     0.009 A 
ATOM     28  C   UNL A   1      33.980  22.802  24.682  1.00  0.00     0.009 A 
BRANCH  24  29
ATOM     29  S   UNL A   1      32.825  18.921  25.028  1.00  0.00    -0.130 SA
ATOM     30  C   UNL A   1      32.734  17.910  23.545  1.00  0.00     0.091 C 
ENDBRANCH  24  29
ENDBRANCH  12  23
ENDBRANCH  10  11
ENDBRANCH   8  10
ENDBRANCH   7   8
ENDBRANCH   6   7
ENDBRANCH   5   6
ENDBRANCH   4   5
ENDBRANCH   3   4
ENDBRANCH   2   3
ENDBRANCH   1   2
BRANCH   1  31
ATOM     31  C   UNL A   1      33.782  34.939  28.787  1.00  0.00     0.188 C 
BRANCH  31  32
ATOM     32  C   UNL A   1      33.098  36.099  29.519  1.00  0.00     0.188 C 
BRANCH  32  33
ATOM     33  O   UNL A   1      33.030  36.068  30.949  1.00  0.00    -0.376 OA
BRANCH  33  34
ATOM     34  C   UNL A   1      33.460  37.211  31.677  1.00  0.00     0.202 C 
BRANCH  34  35
ATOM     35  C   UNL A   1      34.080  36.959  33.049  1.00  0.00     0.261 C 
BRANCH  35  36
ATOM     36  O   UNL A   1      35.209  36.082  32.974  1.00  0.00    -0.460 OA
BRANCH  36  37
ATOM     37  C   UNL A   1      34.971  34.840  33.443  1.00  0.00     0.338 C 
ATOM     38  O   UNL A   1      33.889  34.260  33.495  1.00  0.00    -0.246 OA
BRANCH  37  39
ATOM     39  C   UNL A   1      36.237  34.179  33.770  1.00  0.00     0.060 A 
ATOM     40  C   UNL A   1      36.196  33.155  34.724  1.00  0.00     0.016 A 
ATOM     41  C   UNL A   1      37.451  34.618  33.235  1.00  0.00     0.016 A 
ATOM     42  C   UNL A   1      37.377  32.609  35.200  1.00  0.00     0.010 A 
ATOM     43  C   UNL A   1      38.640  34.078  33.726  1.00  0.00     0.010 A 
ATOM     44  C   UNL A   1      38.601  33.112  34.746  1.00  0.00    -0.014 A 
BRANCH  44  45
ATOM     45  C   UNL A   1      39.817  32.770  35.509  1.00  0.00     0.031 A 
ATOM     46  C   UNL A   1      40.248  33.688  36.617  1.00  0.00     0.074 A 
ATOM     47  C   UNL A   1      40.474  31.626  35.255  1.00  0.00     0.049 A 
ATOM     48  N   UNL A   1      41.266  33.586  37.427  1.00  0.00    -0.248 NA
ATOM     49  C   UNL A   1      39.415  34.883  36.847  1.00  0.00     0.031 C 
ATOM     50  C   UNL A   1      40.108  30.657  34.223  1.00  0.00     0.029 A 
ATOM     51  N   UNL A   1      41.592  31.096  35.841  1.00  0.00    -0.354 N 
ATOM     52  C   UNL A   1      41.219  34.715  38.237  1.00  0.00     0.074 A 
ATOM     53  C   UNL A   1      40.077  35.494  37.817  1.00  0.00     0.031 C 
ATOM     54  C   UNL A   1      41.004  29.655  34.232  1.00  0.00     0.029 A 
ATOM     55  C   UNL A   1      42.019  29.935  35.245  1.00  0.00     0.049 A 
ATOM     56  H   UNL A   1      42.046  31.507  36.612  1.00  0.00     0.167 HD
ATOM     57  C   UNL A   1      42.051  35.062  39.245  1.00  0.00     0.034 A 
ATOM     58  C   UNL A   1      43.124  29.201  35.478  1.00  0.00     0.034 A 
ATOM     59  C   UNL A   1      43.176  34.268  39.653  1.00  0.00     0.049 A 
ATOM     60  C   UNL A   1      44.055  29.631  36.581  1.00  0.00     0.074 A 
ATOM     61  C   UNL A   1      44.069  34.503  40.682  1.00  0.00     0.029 A 
ATOM     62  N   UNL A   1      43.573  33.089  39.038  1.00  0.00    -0.354 N 
ATOM     63  N   UNL A   1      43.955  30.656  37.394  1.00  0.00    -0.248 NA
ATOM     64  C   UNL A   1      45.233  28.787  36.819  1.00  0.00     0.031 C 
ATOM     65  C   UNL A   1      45.035  33.492  40.657  1.00  0.00     0.029 A 
ATOM     66  C   UNL A   1      44.711  32.595  39.652  1.00  0.00     0.049 A 
ATOM     67  H   UNL A   1      43.113  32.667  38.277  1.00  0.00     0.167 HD
ATOM     68  C   UNL A   1      45.032  30.557  38.266  1.00  0.00     0.074 A 
ATOM     69  C   UNL A   1      45.761  29.362  37.890  1.00  0.00     0.031 C 
ATOM     70  C   UNL A   1      45.393  31.380  39.283  1.00  0.00     0.034 A 
BRANCH  57  71
ATOM     71  C   UNL A   1      41.782  36.359  39.963  1.00  0.00     0.023 A 
ATOM     72  C   UNL A   1      42.070  37.590  39.340  1.00  0.00     0.012 A 
ATOM     73  C   UNL A   1      41.204  36.356  41.249  1.00  0.00     0.148 A 
ATOM     74  C   UNL A   1      41.823  38.796  39.998  1.00  0.00     0.002 A 
ATOM     75  C   UNL A   1      40.914  37.560  41.877  1.00  0.00     0.091 A 
ATOM     76  F   UNL A   1      40.961  35.175  41.836  1.00  0.00    -0.205 F 
ATOM     77  C   UNL A   1      41.235  38.780  41.260  1.00  0.00     0.022 A 
BRANCH  75  78
ATOM     78  S   UNL A   1      40.085  37.648  43.468  1.00  0.00     0.127 S 
ATOM     79  O   UNL A   1      39.026  36.654  43.305  1.00  0.00    -0.237 OA
ATOM     80  O   UNL A   1      41.153  37.258  44.390  1.00  0.00    -0.237 OA
ATOM     81  O   UNL A   1      39.629  39.024  43.611  1.00  0.00    -0.744 OA
ENDBRANCH  75  78
ENDBRANCH  57  71
BRANCH  58  82
ATOM     82  C   UNL A   1      43.398  27.987  34.661  1.00  0.00     0.023 A 
ATOM     83  C   UNL A   1      44.022  28.110  33.405  1.00  0.00     0.012 A 
ATOM     84  C   UNL A   1      43.055  26.705  35.135  1.00  0.00     0.148 A 
ATOM     85  C   UNL A   1      44.269  26.983  32.621  1.00  0.00     0.002 A 
ATOM     86  C   UNL A   1      43.358  25.583  34.378  1.00  0.00     0.091 A 
ATOM     87  F   UNL A   1      42.453  26.612  36.329  1.00  0.00    -0.205 F 
ATOM     88  C   UNL A   1      43.947  25.719  33.111  1.00  0.00     0.022 A 
BRANCH  86  89
ATOM     89  S   UNL A   1      43.095  23.912  34.982  1.00  0.00     0.127 S 
ATOM     90  O   UNL A   1      41.679  23.943  35.339  1.00  0.00    -0.237 OA
ATOM     91  O   UNL A   1      43.416  23.113  33.799  1.00  0.00    -0.237 OA
ATOM     92  O   UNL A   1      44.021  23.743  36.092  1.00  0.00    -0.744 OA
ENDBRANCH  86  89
ENDBRANCH  58  82
BRANCH  70  93
ATOM     93  C   UNL A   1      46.597  30.990  40.098  1.00  0.00     0.023 A 
ATOM     94  C   UNL A   1      47.881  31.432  39.727  1.00  0.00     0.012 A 
ATOM     95  C   UNL A   1      46.437  30.235  41.278  1.00  0.00     0.148 A 
ATOM     96  C   UNL A   1      48.995  31.093  40.495  1.00  0.00     0.002 A 
ATOM     97  C   UNL A   1      47.542  29.951  42.069  1.00  0.00     0.091 A 
ATOM     98  F   UNL A   1      45.208  29.811  41.605  1.00  0.00    -0.205 F 
ATOM     99  C   UNL A   1      48.824  30.364  41.670  1.00  0.00     0.022 A 
BRANCH  97 100
ATOM    100  S   UNL A   1      47.405  29.112  43.650  1.00  0.00     0.127 S 
ATOM    101  O   UNL A   1      46.751  30.131  44.470  1.00  0.00    -0.237 OA
ATOM    102  O   UNL A   1      46.563  27.964  43.317  1.00  0.00    -0.237 OA
ATOM    103  O   UNL A   1      48.765  28.773  44.046  1.00  0.00    -0.744 OA
ENDBRANCH  97 100
ENDBRANCH  70  93
ENDBRANCH  44  45
ENDBRANCH  37  39
ENDBRANCH  36  37
ENDBRANCH  35  36
ENDBRANCH  34  35
ENDBRANCH  33  34
ENDBRANCH  32  33
ENDBRANCH  31  32
ENDBRANCH   1  31
TORSDOF 26
ENDMDL
