MODEL 1
REMARK VINA RESULT:      -8.2      0.000      0.000
REMARK SMILES CS(=O)(=O)c1ccc(-n2nc(C(F)(F)F)cc2-c2ccc(CC(=O)OCCOCCOCCOCCOC(=O)c3ccc(-c4c5nc(c(-c6cccc(S(=O)(=O)[O-])c6F)c6ccc([nH]6)c(-c6cccc(S(=O)(=O)[O-])c6F)c6nc(c(-c7cccc(S(=O)(=O)[O-])c7F)c7ccc4[nH]7)C=C6)C=C5)cc3)cc2)cc1
REMARK SMILES IDX 30 1 29 2 28 3 27 4 26 5 25 6 23 7 24 8 22 9 21 10 18 11
REMARK SMILES IDX 19 12 104 13 20 14 103 15 17 16 9 17 10 18 11 19 16 20 8 21
REMARK SMILES IDX 5 22 6 23 106 24 7 25 105 26 2 27 1 28 3 29 4 30 12 31 13 32
REMARK SMILES IDX 14 33 15 34 31 35 32 36 33 37 34 38 35 39 36 40 37 41 38 42
REMARK SMILES IDX 39 43 40 44 41 45 102 46 42 47 101 48 43 49 44 50 45 51
REMARK SMILES IDX 95 52 46 53 100 54 94 55 96 56 47 57 99 58 93 59 92 60 48 62
REMARK SMILES IDX 80 63 60 64 79 65 61 66 64 67 78 68 97 69 62 70 63 71 77 73
REMARK SMILES IDX 98 74 65 75 49 76 50 77 58 78 51 79 53 80 59 81 52 82 54 83
REMARK SMILES IDX 55 84 56 85 57 86 81 87 82 88 90 89 83 90 85 91 91 92 84 93
REMARK SMILES IDX 86 94 87 95 88 96 89 97 66 98 67 99 75 100 68 101 70 102
REMARK SMILES IDX 76 103 69 104 71 105 72 106 73 107 74 108
REMARK H PARENT 96 61 64 72
REMARK Flexibility Score: inf
ROOT
ATOM      1  C   UNL A   1      47.551  42.826  32.311  1.00  0.00     0.188 C 
ENDROOT
BRANCH   1   2
ATOM      2  C   UNL A   1      46.448  43.521  33.146  1.00  0.00     0.188 C 
BRANCH   2   3
ATOM      3  O   UNL A   1      45.061  43.225  32.958  1.00  0.00    -0.376 OA
BRANCH   3   4
ATOM      4  C   UNL A   1      44.440  43.586  31.736  1.00  0.00     0.202 C 
BRANCH   4   5
ATOM      5  C   UNL A   1      43.111  42.856  31.461  1.00  0.00     0.261 C 
BRANCH   5   6
ATOM      6  O   UNL A   1      43.040  42.217  30.167  1.00  0.00    -0.463 OA
BRANCH   6   7
ATOM      7  C   UNL A   1      42.965  40.866  30.192  1.00  0.00     0.310 C 
ATOM      8  O   UNL A   1      43.508  40.170  31.049  1.00  0.00    -0.252 OA
BRANCH   7   9
ATOM      9  C   UNL A   1      42.179  40.243  29.060  1.00  0.00     0.158 C 
BRANCH   9  10
ATOM     10  C   UNL A   1      42.504  40.491  27.593  1.00  0.00    -0.037 A 
ATOM     11  C   UNL A   1      43.117  41.506  24.983  1.00  0.00     0.000 A 
ATOM     12  C   UNL A   1      44.135  41.195  25.888  1.00  0.00     0.010 A 
ATOM     13  C   UNL A   1      41.794  41.234  25.380  1.00  0.00     0.010 A 
ATOM     14  C   UNL A   1      43.832  40.697  27.173  1.00  0.00     0.005 A 
ATOM     15  C   UNL A   1      41.491  40.727  26.659  1.00  0.00     0.005 A 
BRANCH  11  16
ATOM     16  C   UNL A   1      43.373  42.316  23.772  1.00  0.00     0.075 A 
ATOM     17  N   UNL A   1      44.217  43.428  23.566  1.00  0.00    -0.233 N 
ATOM     18  N   UNL A   1      43.919  44.051  22.400  1.00  0.00    -0.163 NA
ATOM     19  C   UNL A   1      43.022  43.289  21.766  1.00  0.00     0.167 A 
ATOM     20  C   UNL A   1      42.647  42.208  22.590  1.00  0.00     0.064 A 
BRANCH  17  21
ATOM     21  C   UNL A   1      45.293  43.967  24.348  1.00  0.00     0.065 A 
ATOM     22  C   UNL A   1      47.472  45.006  25.863  1.00  0.00     0.067 A 
ATOM     23  C   UNL A   1      46.139  45.214  26.226  1.00  0.00     0.022 A 
ATOM     24  C   UNL A   1      47.722  44.266  24.714  1.00  0.00     0.022 A 
ATOM     25  C   UNL A   1      45.055  44.706  25.495  1.00  0.00     0.030 A 
ATOM     26  C   UNL A   1      46.639  43.721  23.983  1.00  0.00     0.030 A 
BRANCH  22  27
ATOM     27  S   UNL A   1      48.786  45.771  26.823  1.00  0.00     0.175 S 
ATOM     28  C   UNL A   1      49.286  47.320  26.152  1.00  0.00     0.163 C 
ATOM     29  O   UNL A   1      49.969  44.937  26.668  1.00  0.00    -0.224 OA
ATOM     30  O   UNL A   1      48.252  45.995  28.149  1.00  0.00    -0.224 OA
ENDBRANCH  22  27
ENDBRANCH  17  21
BRANCH  19  31
ATOM     31  C   UNL A   1      42.469  43.605  20.398  1.00  0.00     0.435 C 
ATOM     32  F   UNL A   1      43.226  44.459  19.672  1.00  0.00    -0.164 F 
ATOM     33  F   UNL A   1      42.234  42.491  19.660  1.00  0.00    -0.164 F 
ATOM     34  F   UNL A   1      41.248  44.220  20.521  1.00  0.00    -0.164 F 
ENDBRANCH  19  31
ENDBRANCH  11  16
ENDBRANCH   9  10
ENDBRANCH   7   9
ENDBRANCH   6   7
ENDBRANCH   5   6
ENDBRANCH   4   5
ENDBRANCH   3   4
ENDBRANCH   2   3
ENDBRANCH   1   2
BRANCH   1  35
ATOM     35  O   UNL A   1      47.969  43.588  31.188  1.00  0.00    -0.377 OA
BRANCH  35  36
ATOM     36  C   UNL A   1      47.848  43.020  29.897  1.00  0.00     0.188 C 
BRANCH  36  37
ATOM     37  C   UNL A   1      49.125  42.701  29.100  1.00  0.00     0.188 C 
BRANCH  37  38
ATOM     38  O   UNL A   1      49.297  41.359  28.705  1.00  0.00    -0.376 OA
BRANCH  38  39
ATOM     39  C   UNL A   1      48.205  40.473  28.607  1.00  0.00     0.202 C 
BRANCH  39  40
ATOM     40  C   UNL A   1      48.290  39.022  29.041  1.00  0.00     0.261 C 
BRANCH  40  41
ATOM     41  O   UNL A   1      47.134  38.192  28.881  1.00  0.00    -0.460 OA
BRANCH  41  42
ATOM     42  C   UNL A   1      46.302  38.211  29.964  1.00  0.00     0.338 C 
ATOM     43  O   UNL A   1      46.540  38.762  31.026  1.00  0.00    -0.246 OA
BRANCH  42  44
ATOM     44  C   UNL A   1      45.161  37.292  29.754  1.00  0.00     0.060 A 
ATOM     45  C   UNL A   1      44.558  36.799  30.914  1.00  0.00     0.016 A 
ATOM     46  C   UNL A   1      44.826  36.763  28.502  1.00  0.00     0.016 A 
ATOM     47  C   UNL A   1      43.754  35.672  30.839  1.00  0.00     0.010 A 
ATOM     48  C   UNL A   1      44.051  35.602  28.435  1.00  0.00     0.010 A 
ATOM     49  C   UNL A   1      43.564  35.026  29.611  1.00  0.00    -0.014 A 
BRANCH  49  50
ATOM     50  C   UNL A   1      42.748  33.808  29.617  1.00  0.00     0.031 A 
ATOM     51  C   UNL A   1      41.318  34.033  29.834  1.00  0.00     0.074 A 
ATOM     52  C   UNL A   1      43.195  32.549  29.426  1.00  0.00     0.049 A 
ATOM     53  N   UNL A   1      40.632  33.730  30.885  1.00  0.00    -0.248 NA
ATOM     54  C   UNL A   1      40.586  34.757  28.789  1.00  0.00     0.031 C 
ATOM     55  C   UNL A   1      44.495  32.222  28.887  1.00  0.00     0.029 A 
ATOM     56  N   UNL A   1      42.604  31.316  29.565  1.00  0.00    -0.354 N 
ATOM     57  C   UNL A   1      39.322  33.957  30.498  1.00  0.00     0.074 A 
ATOM     58  C   UNL A   1      39.362  34.775  29.310  1.00  0.00     0.031 C 
ATOM     59  C   UNL A   1      44.600  30.905  28.648  1.00  0.00     0.029 A 
ATOM     60  C   UNL A   1      43.344  30.276  28.996  1.00  0.00     0.049 A 
ATOM     61  H   UNL A   1      41.741  31.180  30.020  1.00  0.00     0.167 HD
ATOM     62  C   UNL A   1      38.315  33.167  30.948  1.00  0.00     0.034 A 
ATOM     63  C   UNL A   1      42.965  29.003  28.728  1.00  0.00     0.034 A 
ATOM     64  C   UNL A   1      38.629  32.446  32.147  1.00  0.00     0.049 A 
ATOM     65  C   UNL A   1      41.789  28.693  29.563  1.00  0.00     0.074 A 
ATOM     66  C   UNL A   1      39.140  32.783  33.385  1.00  0.00     0.029 A 
ATOM     67  N   UNL A   1      38.690  31.078  32.065  1.00  0.00    -0.354 N 
ATOM     68  N   UNL A   1      41.833  28.446  30.842  1.00  0.00    -0.248 NA
ATOM     69  C   UNL A   1      40.465  28.943  29.017  1.00  0.00     0.031 C 
ATOM     70  C   UNL A   1      39.831  31.629  33.845  1.00  0.00     0.029 A 
ATOM     71  C   UNL A   1      39.710  30.640  32.869  1.00  0.00     0.049 A 
ATOM     72  H   UNL A   1      38.099  30.508  31.522  1.00  0.00     0.167 HD
ATOM     73  C   UNL A   1      40.628  28.935  31.327  1.00  0.00     0.074 A 
ATOM     74  C   UNL A   1      39.778  29.072  30.153  1.00  0.00     0.031 C 
ATOM     75  C   UNL A   1      40.540  29.486  32.574  1.00  0.00     0.034 A 
BRANCH  62  76
ATOM     76  C   UNL A   1      37.183  32.798  30.041  1.00  0.00     0.023 A 
ATOM     77  C   UNL A   1      37.260  31.612  29.296  1.00  0.00     0.012 A 
ATOM     78  C   UNL A   1      36.112  33.680  29.766  1.00  0.00     0.148 A 
ATOM     79  C   UNL A   1      36.276  31.295  28.354  1.00  0.00     0.002 A 
ATOM     80  C   UNL A   1      35.079  33.305  28.924  1.00  0.00     0.091 A 
ATOM     81  F   UNL A   1      36.139  34.934  30.239  1.00  0.00    -0.205 F 
ATOM     82  C   UNL A   1      35.164  32.121  28.195  1.00  0.00     0.022 A 
BRANCH  80  83
ATOM     83  S   UNL A   1      33.584  34.295  28.865  1.00  0.00     0.127 S 
ATOM     84  O   UNL A   1      33.138  34.250  30.251  1.00  0.00    -0.237 OA
ATOM     85  O   UNL A   1      34.085  35.594  28.412  1.00  0.00    -0.237 OA
ATOM     86  O   UNL A   1      32.750  33.610  27.882  1.00  0.00    -0.744 OA
ENDBRANCH  80  83
ENDBRANCH  62  76
BRANCH  63  87
ATOM     87  C   UNL A   1      43.488  28.049  27.709  1.00  0.00     0.023 A 
ATOM     88  C   UNL A   1      43.360  28.344  26.336  1.00  0.00     0.012 A 
ATOM     89  C   UNL A   1      44.294  26.942  28.055  1.00  0.00     0.148 A 
ATOM     90  C   UNL A   1      44.022  27.585  25.359  1.00  0.00     0.002 A 
ATOM     91  C   UNL A   1      44.909  26.160  27.080  1.00  0.00     0.091 A 
ATOM     92  F   UNL A   1      44.553  26.684  29.344  1.00  0.00    -0.205 F 
ATOM     93  C   UNL A   1      44.794  26.487  25.729  1.00  0.00     0.022 A 
BRANCH  91  94
ATOM     94  S   UNL A   1      45.841  24.704  27.570  1.00  0.00     0.127 S 
ATOM     95  O   UNL A   1      44.800  23.803  28.070  1.00  0.00    -0.237 OA
ATOM     96  O   UNL A   1      46.454  24.292  26.313  1.00  0.00    -0.237 OA
ATOM     97  O   UNL A   1      46.738  25.202  28.611  1.00  0.00    -0.744 OA
ENDBRANCH  91  94
ENDBRANCH  63  87
BRANCH  75  98
ATOM     98  C   UNL A   1      41.584  29.130  33.605  1.00  0.00     0.023 A 
ATOM     99  C   UNL A   1      42.681  29.967  33.892  1.00  0.00     0.012 A 
ATOM    100  C   UNL A   1      41.360  28.006  34.424  1.00  0.00     0.148 A 
ATOM    101  C   UNL A   1      43.551  29.674  34.946  1.00  0.00     0.002 A 
ATOM    102  C   UNL A   1      42.197  27.748  35.506  1.00  0.00     0.091 A 
ATOM    103  F   UNL A   1      40.316  27.209  34.145  1.00  0.00    -0.205 F 
ATOM    104  C   UNL A   1      43.300  28.574  35.763  1.00  0.00     0.022 A 
BRANCH 102 105
ATOM    105  S   UNL A   1      41.827  26.433  36.672  1.00  0.00     0.127 S 
ATOM    106  O   UNL A   1      41.776  25.257  35.806  1.00  0.00    -0.237 OA
ATOM    107  O   UNL A   1      42.977  26.473  37.578  1.00  0.00    -0.237 OA
ATOM    108  O   UNL A   1      40.569  26.816  37.302  1.00  0.00    -0.744 OA
ENDBRANCH 102 105
ENDBRANCH  75  98
ENDBRANCH  49  50
ENDBRANCH  42  44
ENDBRANCH  41  42
ENDBRANCH  40  41
ENDBRANCH  39  40
ENDBRANCH  38  39
ENDBRANCH  37  38
ENDBRANCH  36  37
ENDBRANCH  35  36
ENDBRANCH   1  35
TORSDOF 28
ENDMDL
MODEL 2
REMARK VINA RESULT:      -7.8      7.562     18.781
REMARK SMILES CS(=O)(=O)c1ccc(-n2nc(C(F)(F)F)cc2-c2ccc(CC(=O)OCCOCCOCCOCCOC(=O)c3ccc(-c4c5nc(c(-c6cccc(S(=O)(=O)[O-])c6F)c6ccc([nH]6)c(-c6cccc(S(=O)(=O)[O-])c6F)c6nc(c(-c7cccc(S(=O)(=O)[O-])c7F)c7ccc4[nH]7)C=C6)C=C5)cc3)cc2)cc1
REMARK SMILES IDX 30 1 29 2 28 3 27 4 26 5 25 6 23 7 24 8 22 9 21 10 18 11
REMARK SMILES IDX 19 12 104 13 20 14 103 15 17 16 9 17 10 18 11 19 16 20 8 21
REMARK SMILES IDX 5 22 6 23 106 24 7 25 105 26 2 27 1 28 3 29 4 30 12 31 13 32
REMARK SMILES IDX 14 33 15 34 31 35 32 36 33 37 34 38 35 39 36 40 37 41 38 42
REMARK SMILES IDX 39 43 40 44 41 45 102 46 42 47 101 48 43 49 44 50 45 51
REMARK SMILES IDX 95 52 46 53 100 54 94 55 96 56 47 57 99 58 93 59 92 60 48 62
REMARK SMILES IDX 80 63 60 64 79 65 61 66 64 67 78 68 97 69 62 70 63 71 77 73
REMARK SMILES IDX 98 74 65 75 49 76 50 77 58 78 51 79 53 80 59 81 52 82 54 83
REMARK SMILES IDX 55 84 56 85 57 86 81 87 82 88 90 89 83 90 85 91 91 92 84 93
REMARK SMILES IDX 86 94 87 95 88 96 89 97 66 98 67 99 75 100 68 101 70 102
REMARK SMILES IDX 76 103 69 104 71 105 72 106 73 107 74 108
REMARK H PARENT 96 61 64 72
REMARK Flexibility Score: inf
ROOT
ATOM      1  C   UNL A   1      44.844  24.476  32.486  1.00  0.00     0.188 C 
ENDROOT
BRANCH   1   2
ATOM      2  C   UNL A   1      44.657  24.771  33.995  1.00  0.00     0.188 C 
BRANCH   2   3
ATOM      3  O   UNL A   1      43.863  23.927  34.835  1.00  0.00    -0.376 OA
BRANCH   3   4
ATOM      4  C   UNL A   1      44.301  22.603  35.089  1.00  0.00     0.202 C 
BRANCH   4   5
ATOM      5  C   UNL A   1      45.498  22.509  36.057  1.00  0.00     0.261 C 
BRANCH   5   6
ATOM      6  O   UNL A   1      45.924  21.158  36.344  1.00  0.00    -0.463 OA
BRANCH   6   7
ATOM      7  C   UNL A   1      46.309  20.932  37.621  1.00  0.00     0.310 C 
ATOM      8  O   UNL A   1      46.144  21.739  38.535  1.00  0.00    -0.252 OA
BRANCH   7   9
ATOM      9  C   UNL A   1      46.997  19.607  37.862  1.00  0.00     0.158 C 
BRANCH   9  10
ATOM     10  C   UNL A   1      46.271  18.386  38.411  1.00  0.00    -0.037 A 
ATOM     11  C   UNL A   1      44.611  16.470  39.751  1.00  0.00     0.000 A 
ATOM     12  C   UNL A   1      44.211  17.044  38.542  1.00  0.00     0.010 A 
ATOM     13  C   UNL A   1      45.885  16.817  40.240  1.00  0.00     0.010 A 
ATOM     14  C   UNL A   1      45.027  17.988  37.884  1.00  0.00     0.005 A 
ATOM     15  C   UNL A   1      46.706  17.752  39.579  1.00  0.00     0.005 A 
BRANCH  11  16
ATOM     16  C   UNL A   1      43.662  15.736  40.616  1.00  0.00     0.075 A 
ATOM     17  N   UNL A   1      43.456  15.787  42.011  1.00  0.00    -0.233 N 
ATOM     18  N   UNL A   1      42.708  14.736  42.427  1.00  0.00    -0.163 NA
ATOM     19  C   UNL A   1      42.288  14.096  41.332  1.00  0.00     0.167 A 
ATOM     20  C   UNL A   1      42.869  14.678  40.186  1.00  0.00     0.064 A 
BRANCH  17  21
ATOM     21  C   UNL A   1      43.877  16.733  43.004  1.00  0.00     0.065 A 
ATOM     22  C   UNL A   1      44.700  18.659  44.938  1.00  0.00     0.067 A 
ATOM     23  C   UNL A   1      44.871  17.286  45.127  1.00  0.00     0.022 A 
ATOM     24  C   UNL A   1      44.098  19.080  43.758  1.00  0.00     0.022 A 
ATOM     25  C   UNL A   1      44.477  16.324  44.184  1.00  0.00     0.030 A 
ATOM     26  C   UNL A   1      43.724  18.124  42.784  1.00  0.00     0.030 A 
BRANCH  22  27
ATOM     27  S   UNL A   1      45.164  19.803  46.245  1.00  0.00     0.175 S 
ATOM     28  C   UNL A   1      46.910  19.986  46.381  1.00  0.00     0.163 C 
ATOM     29  O   UNL A   1      44.790  19.183  47.508  1.00  0.00    -0.224 OA
ATOM     30  O   UNL A   1      44.593  21.085  45.895  1.00  0.00    -0.224 OA
ENDBRANCH  22  27
ENDBRANCH  17  21
BRANCH  19  31
ATOM     31  C   UNL A   1      41.377  12.892  41.360  1.00  0.00     0.435 C 
ATOM     32  F   UNL A   1      40.387  12.918  40.439  1.00  0.00    -0.164 F 
ATOM     33  F   UNL A   1      42.055  11.722  41.241  1.00  0.00    -0.164 F 
ATOM     34  F   UNL A   1      40.741  12.819  42.574  1.00  0.00    -0.164 F 
ENDBRANCH  19  31
ENDBRANCH  11  16
ENDBRANCH   9  10
ENDBRANCH   7   9
ENDBRANCH   6   7
ENDBRANCH   5   6
ENDBRANCH   4   5
ENDBRANCH   3   4
ENDBRANCH   2   3
ENDBRANCH   1   2
BRANCH   1  35
ATOM     35  O   UNL A   1      43.846  23.619  31.954  1.00  0.00    -0.377 OA
BRANCH  35  36
ATOM     36  C   UNL A   1      43.915  23.260  30.586  1.00  0.00     0.188 C 
BRANCH  36  37
ATOM     37  C   UNL A   1      43.826  24.365  29.519  1.00  0.00     0.188 C 
BRANCH  37  38
ATOM     38  O   UNL A   1      43.425  23.960  28.231  1.00  0.00    -0.376 OA
BRANCH  38  39
ATOM     39  C   UNL A   1      42.327  23.098  28.036  1.00  0.00     0.202 C 
BRANCH  39  40
ATOM     40  C   UNL A   1      41.266  23.355  26.983  1.00  0.00     0.261 C 
BRANCH  40  41
ATOM     41  O   UNL A   1      39.897  23.427  27.398  1.00  0.00    -0.460 OA
BRANCH  41  42
ATOM     42  C   UNL A   1      39.286  24.595  27.040  1.00  0.00     0.338 C 
ATOM     43  O   UNL A   1      38.432  24.709  26.177  1.00  0.00    -0.246 OA
BRANCH  42  44
ATOM     44  C   UNL A   1      39.951  25.746  27.692  1.00  0.00     0.060 A 
ATOM     45  C   UNL A   1      40.019  25.696  29.087  1.00  0.00     0.016 A 
ATOM     46  C   UNL A   1      40.300  26.915  27.008  1.00  0.00     0.016 A 
ATOM     47  C   UNL A   1      40.270  26.859  29.800  1.00  0.00     0.010 A 
ATOM     48  C   UNL A   1      40.510  28.093  27.729  1.00  0.00     0.010 A 
ATOM     49  C   UNL A   1      40.438  28.073  29.124  1.00  0.00    -0.014 A 
BRANCH  49  50
ATOM     50  C   UNL A   1      40.643  29.271  29.945  1.00  0.00     0.031 A 
ATOM     51  C   UNL A   1      39.410  29.924  30.389  1.00  0.00     0.074 A 
ATOM     52  C   UNL A   1      41.832  29.786  30.320  1.00  0.00     0.049 A 
ATOM     53  N   UNL A   1      38.940  31.058  29.990  1.00  0.00    -0.248 NA
ATOM     54  C   UNL A   1      38.560  29.183  31.329  1.00  0.00     0.031 C 
ATOM     55  C   UNL A   1      43.088  29.077  30.232  1.00  0.00     0.029 A 
ATOM     56  N   UNL A   1      42.191  30.965  30.929  1.00  0.00    -0.354 N 
ATOM     57  C   UNL A   1      37.890  31.302  30.858  1.00  0.00     0.074 A 
ATOM     58  C   UNL A   1      37.567  30.052  31.503  1.00  0.00     0.031 C 
ATOM     59  C   UNL A   1      44.073  29.764  30.832  1.00  0.00     0.029 A 
ATOM     60  C   UNL A   1      43.511  30.976  31.387  1.00  0.00     0.049 A 
ATOM     61  H   UNL A   1      41.576  31.726  31.033  1.00  0.00     0.167 HD
ATOM     62  C   UNL A   1      37.601  32.563  31.265  1.00  0.00     0.034 A 
ATOM     63  C   UNL A   1      44.116  31.846  32.231  1.00  0.00     0.034 A 
ATOM     64  C   UNL A   1      38.118  33.588  30.406  1.00  0.00     0.049 A 
ATOM     65  C   UNL A   1      43.325  33.091  32.245  1.00  0.00     0.074 A 
ATOM     66  C   UNL A   1      38.074  33.839  29.049  1.00  0.00     0.029 A 
ATOM     67  N   UNL A   1      39.079  34.421  30.921  1.00  0.00    -0.354 N 
ATOM     68  N   UNL A   1      43.318  33.975  31.287  1.00  0.00    -0.248 NA
ATOM     69  C   UNL A   1      42.275  33.235  33.240  1.00  0.00     0.031 C 
ATOM     70  C   UNL A   1      39.270  34.546  28.748  1.00  0.00     0.029 A 
ATOM     71  C   UNL A   1      39.990  34.695  29.934  1.00  0.00     0.049 A 
ATOM     72  H   UNL A   1      39.108  34.764  31.843  1.00  0.00     0.167 HD
ATOM     73  C   UNL A   1      42.034  34.501  31.316  1.00  0.00     0.074 A 
ATOM     74  C   UNL A   1      41.506  34.132  32.622  1.00  0.00     0.031 C 
ATOM     75  C   UNL A   1      41.408  34.898  30.169  1.00  0.00     0.034 A 
BRANCH  62  76
ATOM     76  C   UNL A   1      37.158  32.819  32.673  1.00  0.00     0.023 A 
ATOM     77  C   UNL A   1      35.966  33.523  32.899  1.00  0.00     0.012 A 
ATOM     78  C   UNL A   1      37.977  32.536  33.790  1.00  0.00     0.148 A 
ATOM     79  C   UNL A   1      35.582  33.881  34.195  1.00  0.00     0.002 A 
ATOM     80  C   UNL A   1      37.535  32.782  35.078  1.00  0.00     0.091 A 
ATOM     81  F   UNL A   1      39.239  32.119  33.607  1.00  0.00    -0.205 F 
ATOM     82  C   UNL A   1      36.346  33.477  35.290  1.00  0.00     0.022 A 
BRANCH  80  83
ATOM     83  S   UNL A   1      38.444  32.105  36.469  1.00  0.00     0.127 S 
ATOM     84  O   UNL A   1      39.826  32.289  36.044  1.00  0.00    -0.237 OA
ATOM     85  O   UNL A   1      38.011  32.961  37.574  1.00  0.00    -0.237 OA
ATOM     86  O   UNL A   1      37.962  30.730  36.565  1.00  0.00    -0.744 OA
ENDBRANCH  80  83
ENDBRANCH  62  76
BRANCH  63  87
ATOM     87  C   UNL A   1      45.291  31.643  33.125  1.00  0.00     0.023 A 
ATOM     88  C   UNL A   1      46.440  32.448  32.975  1.00  0.00     0.012 A 
ATOM     89  C   UNL A   1      45.238  30.806  34.263  1.00  0.00     0.148 A 
ATOM     90  C   UNL A   1      47.473  32.433  33.925  1.00  0.00     0.002 A 
ATOM     91  C   UNL A   1      46.289  30.758  35.176  1.00  0.00     0.091 A 
ATOM     92  F   UNL A   1      44.124  30.111  34.526  1.00  0.00    -0.205 F 
ATOM     93  C   UNL A   1      47.402  31.583  35.025  1.00  0.00     0.022 A 
BRANCH  91  94
ATOM     94  S   UNL A   1      46.214  29.603  36.552  1.00  0.00     0.127 S 
ATOM     95  O   UNL A   1      47.598  29.138  36.662  1.00  0.00    -0.237 OA
ATOM     96  O   UNL A   1      45.765  30.455  37.646  1.00  0.00    -0.237 OA
ATOM     97  O   UNL A   1      45.283  28.575  36.090  1.00  0.00    -0.744 OA
ENDBRANCH  91  94
ENDBRANCH  63  87
BRANCH  75  98
ATOM     98  C   UNL A   1      42.246  35.239  28.960  1.00  0.00     0.023 A 
ATOM     99  C   UNL A   1      42.511  36.568  28.573  1.00  0.00     0.012 A 
ATOM    100  C   UNL A   1      42.921  34.195  28.297  1.00  0.00     0.148 A 
ATOM    101  C   UNL A   1      43.401  36.848  27.532  1.00  0.00     0.002 A 
ATOM    102  C   UNL A   1      43.847  34.481  27.299  1.00  0.00     0.091 A 
ATOM    103  F   UNL A   1      42.663  32.930  28.666  1.00  0.00    -0.205 F 
ATOM    104  C   UNL A   1      44.081  35.806  26.905  1.00  0.00     0.022 A 
BRANCH 102 105
ATOM    105  S   UNL A   1      44.855  33.186  26.569  1.00  0.00     0.127 S 
ATOM    106  O   UNL A   1      45.779  32.864  27.654  1.00  0.00    -0.237 OA
ATOM    107  O   UNL A   1      43.872  32.141  26.274  1.00  0.00    -0.237 OA
ATOM    108  O   UNL A   1      45.452  33.784  25.380  1.00  0.00    -0.744 OA
ENDBRANCH 102 105
ENDBRANCH  75  98
ENDBRANCH  49  50
ENDBRANCH  42  44
ENDBRANCH  41  42
ENDBRANCH  40  41
ENDBRANCH  39  40
ENDBRANCH  38  39
ENDBRANCH  37  38
ENDBRANCH  36  37
ENDBRANCH  35  36
ENDBRANCH   1  35
TORSDOF 28
ENDMDL
MODEL 3
REMARK VINA RESULT:      -7.1      9.614     16.010
REMARK SMILES CS(=O)(=O)c1ccc(-n2nc(C(F)(F)F)cc2-c2ccc(CC(=O)OCCOCCOCCOCCOC(=O)c3ccc(-c4c5nc(c(-c6cccc(S(=O)(=O)[O-])c6F)c6ccc([nH]6)c(-c6cccc(S(=O)(=O)[O-])c6F)c6nc(c(-c7cccc(S(=O)(=O)[O-])c7F)c7ccc4[nH]7)C=C6)C=C5)cc3)cc2)cc1
REMARK SMILES IDX 30 1 29 2 28 3 27 4 26 5 25 6 23 7 24 8 22 9 21 10 18 11
REMARK SMILES IDX 19 12 104 13 20 14 103 15 17 16 9 17 10 18 11 19 16 20 8 21
REMARK SMILES IDX 5 22 6 23 106 24 7 25 105 26 2 27 1 28 3 29 4 30 12 31 13 32
REMARK SMILES IDX 14 33 15 34 31 35 32 36 33 37 34 38 35 39 36 40 37 41 38 42
REMARK SMILES IDX 39 43 40 44 41 45 102 46 42 47 101 48 43 49 44 50 45 51
REMARK SMILES IDX 95 52 46 53 100 54 94 55 96 56 47 57 99 58 93 59 92 60 48 62
REMARK SMILES IDX 80 63 60 64 79 65 61 66 64 67 78 68 97 69 62 70 63 71 77 73
REMARK SMILES IDX 98 74 65 75 49 76 50 77 58 78 51 79 53 80 59 81 52 82 54 83
REMARK SMILES IDX 55 84 56 85 57 86 81 87 82 88 90 89 83 90 85 91 91 92 84 93
REMARK SMILES IDX 86 94 87 95 88 96 89 97 66 98 67 99 75 100 68 101 70 102
REMARK SMILES IDX 76 103 69 104 71 105 72 106 73 107 74 108
REMARK H PARENT 96 61 64 72
REMARK Flexibility Score: inf
ROOT
ATOM      1  C   UNL A   1      36.286  29.796  27.965  1.00  0.00     0.188 C 
ENDROOT
BRANCH   1   2
ATOM      2  C   UNL A   1      37.568  29.630  28.817  1.00  0.00     0.188 C 
BRANCH   2   3
ATOM      3  O   UNL A   1      37.520  29.171  30.172  1.00  0.00    -0.376 OA
BRANCH   3   4
ATOM      4  C   UNL A   1      38.268  28.023  30.534  1.00  0.00     0.202 C 
BRANCH   4   5
ATOM      5  C   UNL A   1      39.125  28.201  31.803  1.00  0.00     0.261 C 
BRANCH   5   6
ATOM      6  O   UNL A   1      39.682  29.525  31.963  1.00  0.00    -0.463 OA
BRANCH   6   7
ATOM      7  C   UNL A   1      40.868  29.731  31.347  1.00  0.00     0.310 C 
ATOM      8  O   UNL A   1      41.130  30.742  30.694  1.00  0.00    -0.252 OA
BRANCH   7   9
ATOM      9  C   UNL A   1      41.872  28.608  31.485  1.00  0.00     0.158 C 
BRANCH   9  10
ATOM     10  C   UNL A   1      42.376  27.799  30.298  1.00  0.00    -0.037 A 
ATOM     11  C   UNL A   1      43.655  26.732  27.964  1.00  0.00     0.000 A 
ATOM     12  C   UNL A   1      44.202  26.536  29.234  1.00  0.00     0.010 A 
ATOM     13  C   UNL A   1      42.423  27.410  27.889  1.00  0.00     0.010 A 
ATOM     14  C   UNL A   1      43.573  27.062  30.382  1.00  0.00     0.005 A 
ATOM     15  C   UNL A   1      41.788  27.928  29.036  1.00  0.00     0.005 A 
BRANCH  11  16
ATOM     16  C   UNL A   1      44.435  26.480  26.733  1.00  0.00     0.075 A 
ATOM     17  N   UNL A   1      44.655  25.291  26.006  1.00  0.00    -0.233 N 
ATOM     18  N   UNL A   1      45.673  25.445  25.124  1.00  0.00    -0.163 NA
ATOM     19  C   UNL A   1      46.013  26.738  25.140  1.00  0.00     0.167 A 
ATOM     20  C   UNL A   1      45.276  27.413  26.135  1.00  0.00     0.064 A 
BRANCH  17  21
ATOM     21  C   UNL A   1      43.997  24.016  26.040  1.00  0.00     0.065 A 
ATOM     22  C   UNL A   1      42.741  21.458  26.083  1.00  0.00     0.067 A 
ATOM     23  C   UNL A   1      42.063  22.632  26.419  1.00  0.00     0.022 A 
ATOM     24  C   UNL A   1      44.079  21.563  25.722  1.00  0.00     0.022 A 
ATOM     25  C   UNL A   1      42.664  23.900  26.398  1.00  0.00     0.030 A 
ATOM     26  C   UNL A   1      44.690  22.839  25.667  1.00  0.00     0.030 A 
BRANCH  22  27
ATOM     27  S   UNL A   1      41.901  19.874  26.222  1.00  0.00     0.175 S 
ATOM     28  C   UNL A   1      40.181  19.999  25.868  1.00  0.00     0.163 C 
ATOM     29  O   UNL A   1      41.930  19.497  27.628  1.00  0.00    -0.224 OA
ATOM     30  O   UNL A   1      42.510  18.997  25.246  1.00  0.00    -0.224 OA
ENDBRANCH  22  27
ENDBRANCH  17  21
BRANCH  19  31
ATOM     31  C   UNL A   1      47.077  27.337  24.253  1.00  0.00     0.435 C 
ATOM     32  F   UNL A   1      47.847  26.429  23.612  1.00  0.00    -0.164 F 
ATOM     33  F   UNL A   1      46.569  28.203  23.340  1.00  0.00    -0.164 F 
ATOM     34  F   UNL A   1      47.948  28.081  25.010  1.00  0.00    -0.164 F 
ENDBRANCH  19  31
ENDBRANCH  11  16
ENDBRANCH   9  10
ENDBRANCH   7   9
ENDBRANCH   6   7
ENDBRANCH   5   6
ENDBRANCH   4   5
ENDBRANCH   3   4
ENDBRANCH   2   3
ENDBRANCH   1   2
BRANCH   1  35
ATOM     35  O   UNL A   1      35.439  30.838  28.424  1.00  0.00    -0.377 OA
BRANCH  35  36
ATOM     36  C   UNL A   1      35.891  32.177  28.326  1.00  0.00     0.188 C 
BRANCH  36  37
ATOM     37  C   UNL A   1      35.170  33.268  29.136  1.00  0.00     0.188 C 
BRANCH  37  38
ATOM     38  O   UNL A   1      34.327  32.823  30.174  1.00  0.00    -0.376 OA
BRANCH  38  39
ATOM     39  C   UNL A   1      34.840  32.450  31.433  1.00  0.00     0.202 C 
BRANCH  39  40
ATOM     40  C   UNL A   1      36.309  32.585  31.787  1.00  0.00     0.261 C 
BRANCH  40  41
ATOM     41  O   UNL A   1      36.656  32.954  33.127  1.00  0.00    -0.460 OA
BRANCH  41  42
ATOM     42  C   UNL A   1      37.984  32.792  33.404  1.00  0.00     0.338 C 
ATOM     43  O   UNL A   1      38.857  32.582  32.578  1.00  0.00    -0.246 OA
BRANCH  42  44
ATOM     44  C   UNL A   1      38.197  32.690  34.865  1.00  0.00     0.060 A 
ATOM     45  C   UNL A   1      37.157  33.170  35.665  1.00  0.00     0.016 A 
ATOM     46  C   UNL A   1      39.428  32.346  35.436  1.00  0.00     0.016 A 
ATOM     47  C   UNL A   1      37.401  33.466  36.997  1.00  0.00     0.010 A 
ATOM     48  C   UNL A   1      39.683  32.684  36.767  1.00  0.00     0.010 A 
ATOM     49  C   UNL A   1      38.685  33.297  37.529  1.00  0.00    -0.014 A 
BRANCH  49  50
ATOM     50  C   UNL A   1      38.884  33.684  38.930  1.00  0.00     0.031 A 
ATOM     51  C   UNL A   1      39.672  34.902  39.120  1.00  0.00     0.074 A 
ATOM     52  C   UNL A   1      38.400  33.037  40.012  1.00  0.00     0.049 A 
ATOM     53  N   UNL A   1      40.870  34.991  39.593  1.00  0.00    -0.248 NA
ATOM     54  C   UNL A   1      39.085  36.162  38.648  1.00  0.00     0.031 C 
ATOM     55  C   UNL A   1      37.359  32.036  39.961  1.00  0.00     0.029 A 
ATOM     56  N   UNL A   1      38.631  33.169  41.360  1.00  0.00    -0.354 N 
ATOM     57  C   UNL A   1      41.060  36.352  39.754  1.00  0.00     0.074 A 
ATOM     58  C   UNL A   1      40.047  37.021  38.974  1.00  0.00     0.031 C 
ATOM     59  C   UNL A   1      36.961  31.693  41.196  1.00  0.00     0.029 A 
ATOM     60  C   UNL A   1      37.709  32.479  42.152  1.00  0.00     0.049 A 
ATOM     61  H   UNL A   1      39.373  33.699  41.730  1.00  0.00     0.167 HD
ATOM     62  C   UNL A   1      41.786  36.837  40.792  1.00  0.00     0.034 A 
ATOM     63  C   UNL A   1      37.480  32.581  43.484  1.00  0.00     0.034 A 
ATOM     64  C   UNL A   1      42.679  35.880  41.378  1.00  0.00     0.049 A 
ATOM     65  C   UNL A   1      38.675  33.184  44.106  1.00  0.00     0.074 A 
ATOM     66  C   UNL A   1      43.641  35.017  40.893  1.00  0.00     0.029 A 
ATOM     67  N   UNL A   1      42.436  35.497  42.673  1.00  0.00    -0.354 N 
ATOM     68  N   UNL A   1      39.798  32.556  44.313  1.00  0.00    -0.248 NA
ATOM     69  C   UNL A   1      38.727  34.629  44.252  1.00  0.00     0.031 C 
ATOM     70  C   UNL A   1      43.666  33.919  41.795  1.00  0.00     0.029 A 
ATOM     71  C   UNL A   1      42.719  34.161  42.791  1.00  0.00     0.049 A 
ATOM     72  H   UNL A   1      42.114  36.084  43.395  1.00  0.00     0.167 HD
ATOM     73  C   UNL A   1      40.769  33.539  44.183  1.00  0.00     0.074 A 
ATOM     74  C   UNL A   1      40.049  34.798  44.310  1.00  0.00     0.031 C 
ATOM     75  C   UNL A   1      41.999  33.252  43.663  1.00  0.00     0.034 A 
BRANCH  62  76
ATOM     76  C   UNL A   1      41.368  38.098  41.481  1.00  0.00     0.023 A 
ATOM     77  C   UNL A   1      40.504  38.023  42.584  1.00  0.00     0.012 A 
ATOM     78  C   UNL A   1      41.664  39.381  40.963  1.00  0.00     0.148 A 
ATOM     79  C   UNL A   1      40.001  39.186  43.178  1.00  0.00     0.002 A 
ATOM     80  C   UNL A   1      41.264  40.527  41.628  1.00  0.00     0.091 A 
ATOM     81  F   UNL A   1      42.248  39.499  39.762  1.00  0.00    -0.205 F 
ATOM     82  C   UNL A   1      40.412  40.439  42.726  1.00  0.00     0.022 A 
BRANCH  80  83
ATOM     83  S   UNL A   1      41.940  42.114  41.136  1.00  0.00     0.127 S 
ATOM     84  O   UNL A   1      41.628  42.946  42.291  1.00  0.00    -0.237 OA
ATOM     85  O   UNL A   1      43.360  41.809  40.952  1.00  0.00    -0.237 OA
ATOM     86  O   UNL A   1      41.238  42.423  39.893  1.00  0.00    -0.744 OA
ENDBRANCH  80  83
ENDBRANCH  62  76
BRANCH  63  87
ATOM     87  C   UNL A   1      36.243  32.289  44.262  1.00  0.00     0.023 A 
ATOM     88  C   UNL A   1      36.297  31.421  45.373  1.00  0.00     0.012 A 
ATOM     89  C   UNL A   1      35.040  33.003  44.063  1.00  0.00     0.148 A 
ATOM     90  C   UNL A   1      35.211  31.290  46.252  1.00  0.00     0.002 A 
ATOM     91  C   UNL A   1      33.947  32.831  44.909  1.00  0.00     0.091 A 
ATOM     92  F   UNL A   1      34.969  33.932  43.100  1.00  0.00    -0.205 F 
ATOM     93  C   UNL A   1      34.031  31.991  46.018  1.00  0.00     0.022 A 
BRANCH  91  94
ATOM     94  S   UNL A   1      32.407  33.688  44.552  1.00  0.00     0.127 S 
ATOM     95  O   UNL A   1      32.721  35.077  44.895  1.00  0.00    -0.237 OA
ATOM     96  O   UNL A   1      32.236  33.433  43.127  1.00  0.00    -0.237 OA
ATOM     97  O   UNL A   1      31.445  33.061  45.455  1.00  0.00    -0.744 OA
ENDBRANCH  91  94
ENDBRANCH  63  87
BRANCH  75  98
ATOM     98  C   UNL A   1      42.489  31.823  43.693  1.00  0.00     0.023 A 
ATOM     99  C   UNL A   1      42.408  30.972  42.573  1.00  0.00     0.012 A 
ATOM    100  C   UNL A   1      43.203  31.384  44.825  1.00  0.00     0.148 A 
ATOM    101  C   UNL A   1      42.995  29.703  42.593  1.00  0.00     0.002 A 
ATOM    102  C   UNL A   1      43.832  30.142  44.820  1.00  0.00     0.091 A 
ATOM    103  F   UNL A   1      43.275  32.197  45.892  1.00  0.00    -0.205 F 
ATOM    104  C   UNL A   1      43.720  29.294  43.709  1.00  0.00     0.022 A 
BRANCH 102 105
ATOM    105  S   UNL A   1      44.899  29.636  46.173  1.00  0.00     0.127 S 
ATOM    106  O   UNL A   1      45.851  30.743  46.246  1.00  0.00    -0.237 OA
ATOM    107  O   UNL A   1      43.971  29.555  47.302  1.00  0.00    -0.237 OA
ATOM    108  O   UNL A   1      45.450  28.347  45.771  1.00  0.00    -0.744 OA
ENDBRANCH 102 105
ENDBRANCH  75  98
ENDBRANCH  49  50
ENDBRANCH  42  44
ENDBRANCH  41  42
ENDBRANCH  40  41
ENDBRANCH  39  40
ENDBRANCH  38  39
ENDBRANCH  37  38
ENDBRANCH  36  37
ENDBRANCH  35  36
ENDBRANCH   1  35
TORSDOF 28
ENDMDL
