MODEL 1
REMARK VINA RESULT:      -8.6      0.000      0.000
REMARK SMILES CCN(C(=O)Cc1c(C(=O)OCCOCCOCCOCCOC(=O)c2ccc(-c3c4nc(c(-c5cccc(S(=O)(=O)[O-])c5F)c5ccc([nH]5)c(-c5cccc(S(=O)(=O)[O-])c5F)c5nc(c(-c6cccc(S(=O)(=O)[O-])c6F)c6ccc3[nH]6)C=C5)C=C4)cc2)[nH]c2ccc(Cl)cc12)c1ccc(C)c(C)c1
REMARK SMILES IDX 16 1 15 2 14 3 13 4 12 5 11 6 9 7 10 8 8 9 7 10 96 11 89 12
REMARK SMILES IDX 90 13 95 14 91 16 93 17 92 18 94 19 6 20 4 21 5 22 3 23 2 24
REMARK SMILES IDX 1 25 97 26 98 27 104 28 99 29 102 30 100 31 103 32 101 33
REMARK SMILES IDX 17 34 18 35 19 36 20 37 21 38 22 39 23 40 24 41 25 42 26 43
REMARK SMILES IDX 27 44 88 45 28 46 87 47 29 48 30 49 31 50 81 51 32 52 86 53
REMARK SMILES IDX 80 54 82 55 33 56 85 57 79 58 78 59 34 61 66 62 46 63 65 64
REMARK SMILES IDX 47 65 50 66 64 67 83 68 48 69 49 70 63 72 84 73 51 74 35 75
REMARK SMILES IDX 36 76 44 77 37 78 39 79 45 80 38 81 40 82 41 83 42 84 43 85
REMARK SMILES IDX 67 86 68 87 76 88 69 89 71 90 77 91 70 92 72 93 73 94 74 95
REMARK SMILES IDX 75 96 52 97 53 98 61 99 54 100 56 101 62 102 55 103 57 104
REMARK SMILES IDX 58 105 59 106 60 107
REMARK H PARENT 89 15 82 60 50 71
REMARK Flexibility Score: inf
ROOT
ATOM      1  C   UNL A   1      38.935  29.103  27.832  1.00  0.00     0.188 C 
ENDROOT
BRANCH   1   2
ATOM      2  C   UNL A   1      37.717  29.477  28.682  1.00  0.00     0.188 C 
BRANCH   2   3
ATOM      3  O   UNL A   1      37.463  30.868  28.897  1.00  0.00    -0.376 OA
BRANCH   3   4
ATOM      4  C   UNL A   1      36.455  31.492  28.108  1.00  0.00     0.202 C 
BRANCH   4   5
ATOM      5  C   UNL A   1      35.042  31.143  28.605  1.00  0.00     0.261 C 
BRANCH   5   6
ATOM      6  O   UNL A   1      34.072  31.159  27.540  1.00  0.00    -0.459 OA
BRANCH   6   7
ATOM      7  C   UNL A   1      33.779  29.930  27.049  1.00  0.00     0.355 C 
ATOM      8  O   UNL A   1      34.171  28.866  27.519  1.00  0.00    -0.244 OA
BRANCH   7   9
ATOM      9  C   UNL A   1      32.863  29.980  25.929  1.00  0.00     0.129 A 
ATOM     10  C   UNL A   1      32.648  29.253  24.754  1.00  0.00     0.002 A 
ATOM     11  C   UNL A   1      31.305  29.608  24.340  1.00  0.00     0.005 A 
ATOM     12  N   UNL A   1      31.922  30.990  25.941  1.00  0.00    -0.349 N 
ATOM     13  C   UNL A   1      30.958  30.783  24.999  1.00  0.00     0.046 A 
ATOM     14  C   UNL A   1      30.367  29.069  23.433  1.00  0.00     0.031 A 
ATOM     15  H   UNL A   1      31.944  31.762  26.553  1.00  0.00     0.167 HD
ATOM     16  C   UNL A   1      29.808  31.525  24.712  1.00  0.00     0.028 A 
ATOM     17  C   UNL A   1      29.195  29.780  23.153  1.00  0.00     0.041 A 
ATOM     18  C   UNL A   1      28.933  31.006  23.757  1.00  0.00     0.022 A 
ATOM     19  Cl  UNL A   1      28.075  29.146  22.008  1.00  0.00    -0.084 Cl
BRANCH  10  20
ATOM     20  C   UNL A   1      33.494  28.176  24.104  1.00  0.00     0.139 C 
BRANCH  20  21
ATOM     21  C   UNL A   1      33.136  26.710  24.458  1.00  0.00     0.231 C 
ATOM     22  O   UNL A   1      32.620  26.499  25.564  1.00  0.00    -0.274 OA
BRANCH  21  23
ATOM     23  N   UNL A   1      33.378  25.669  23.542  1.00  0.00    -0.312 N 
BRANCH  23  24
ATOM     24  C   UNL A   1      33.197  25.781  22.086  1.00  0.00     0.122 C 
ATOM     25  C   UNL A   1      31.772  26.088  21.639  1.00  0.00     0.028 C 
ENDBRANCH  23  24
BRANCH  23  26
ATOM     26  C   UNL A   1      33.591  24.319  23.998  1.00  0.00     0.044 A 
ATOM     27  C   UNL A   1      32.570  23.373  23.953  1.00  0.00     0.026 A 
ATOM     28  C   UNL A   1      34.880  23.882  24.344  1.00  0.00     0.030 A 
ATOM     29  C   UNL A   1      32.856  22.018  24.173  1.00  0.00     0.006 A 
ATOM     30  C   UNL A   1      35.181  22.530  24.583  1.00  0.00    -0.046 A 
ATOM     31  C   UNL A   1      34.156  21.580  24.482  1.00  0.00    -0.048 A 
ATOM     32  C   UNL A   1      36.590  22.135  24.928  1.00  0.00     0.044 C 
ATOM     33  C   UNL A   1      34.422  20.124  24.758  1.00  0.00     0.044 C 
ENDBRANCH  23  26
ENDBRANCH  21  23
ENDBRANCH  20  21
ENDBRANCH  10  20
ENDBRANCH   7   9
ENDBRANCH   6   7
ENDBRANCH   5   6
ENDBRANCH   4   5
ENDBRANCH   3   4
ENDBRANCH   2   3
ENDBRANCH   1   2
BRANCH   1  34
ATOM     34  O   UNL A   1      39.616  27.958  28.319  1.00  0.00    -0.377 OA
BRANCH  34  35
ATOM     35  C   UNL A   1      40.890  27.719  27.727  1.00  0.00     0.188 C 
BRANCH  35  36
ATOM     36  C   UNL A   1      40.834  27.607  26.192  1.00  0.00     0.188 C 
BRANCH  36  37
ATOM     37  O   UNL A   1      41.266  26.434  25.501  1.00  0.00    -0.376 OA
BRANCH  37  38
ATOM     38  C   UNL A   1      42.137  25.522  26.141  1.00  0.00     0.202 C 
BRANCH  38  39
ATOM     39  C   UNL A   1      43.546  25.404  25.549  1.00  0.00     0.261 C 
BRANCH  39  40
ATOM     40  O   UNL A   1      44.616  25.807  26.406  1.00  0.00    -0.460 OA
BRANCH  40  41
ATOM     41  C   UNL A   1      45.350  26.870  26.001  1.00  0.00     0.338 C 
ATOM     42  O   UNL A   1      46.168  26.901  25.100  1.00  0.00    -0.246 OA
BRANCH  41  43
ATOM     43  C   UNL A   1      44.951  28.047  26.806  1.00  0.00     0.060 A 
ATOM     44  C   UNL A   1      44.066  28.990  26.284  1.00  0.00     0.016 A 
ATOM     45  C   UNL A   1      45.493  28.239  28.076  1.00  0.00     0.016 A 
ATOM     46  C   UNL A   1      43.779  30.151  27.012  1.00  0.00     0.010 A 
ATOM     47  C   UNL A   1      45.174  29.371  28.824  1.00  0.00     0.010 A 
ATOM     48  C   UNL A   1      44.369  30.371  28.267  1.00  0.00    -0.014 A 
BRANCH  48  49
ATOM     49  C   UNL A   1      44.281  31.706  28.916  1.00  0.00     0.031 A 
ATOM     50  C   UNL A   1      43.190  31.966  29.929  1.00  0.00     0.074 A 
ATOM     51  C   UNL A   1      45.150  32.684  28.602  1.00  0.00     0.049 A 
ATOM     52  N   UNL A   1      43.003  33.009  30.697  1.00  0.00    -0.248 NA
ATOM     53  C   UNL A   1      42.150  30.932  30.072  1.00  0.00     0.031 C 
ATOM     54  C   UNL A   1      46.164  32.610  27.550  1.00  0.00     0.029 A 
ATOM     55  N   UNL A   1      45.312  33.937  29.135  1.00  0.00    -0.354 N 
ATOM     56  C   UNL A   1      41.818  32.769  31.386  1.00  0.00     0.074 A 
ATOM     57  C   UNL A   1      41.296  31.512  30.901  1.00  0.00     0.031 C 
ATOM     58  C   UNL A   1      46.856  33.763  27.527  1.00  0.00     0.029 A 
ATOM     59  C   UNL A   1      46.347  34.649  28.573  1.00  0.00     0.049 A 
ATOM     60  H   UNL A   1      44.742  34.295  29.853  1.00  0.00     0.167 HD
ATOM     61  C   UNL A   1      41.241  33.496  32.372  1.00  0.00     0.034 A 
ATOM     62  C   UNL A   1      46.852  35.856  28.897  1.00  0.00     0.034 A 
ATOM     63  C   UNL A   1      41.810  34.705  32.901  1.00  0.00     0.049 A 
ATOM     64  C   UNL A   1      46.292  36.576  30.098  1.00  0.00     0.074 A 
ATOM     65  C   UNL A   1      41.380  35.469  33.971  1.00  0.00     0.029 A 
ATOM     66  N   UNL A   1      42.948  35.318  32.402  1.00  0.00    -0.354 N 
ATOM     67  N   UNL A   1      45.291  36.236  30.874  1.00  0.00    -0.248 NA
ATOM     68  C   UNL A   1      46.976  37.812  30.511  1.00  0.00     0.031 C 
ATOM     69  C   UNL A   1      42.263  36.546  34.118  1.00  0.00     0.029 A 
ATOM     70  C   UNL A   1      43.247  36.443  33.148  1.00  0.00     0.049 A 
ATOM     71  H   UNL A   1      43.468  35.000  31.628  1.00  0.00     0.167 HD
ATOM     72  C   UNL A   1      45.249  37.189  31.887  1.00  0.00     0.074 A 
ATOM     73  C   UNL A   1      46.343  38.107  31.638  1.00  0.00     0.031 C 
ATOM     74  C   UNL A   1      44.377  37.307  32.919  1.00  0.00     0.034 A 
BRANCH  61  75
ATOM     75  C   UNL A   1      39.980  32.953  33.000  1.00  0.00     0.023 A 
ATOM     76  C   UNL A   1      40.070  31.884  33.917  1.00  0.00     0.012 A 
ATOM     77  C   UNL A   1      38.718  33.513  32.721  1.00  0.00     0.148 A 
ATOM     78  C   UNL A   1      38.927  31.350  34.508  1.00  0.00     0.002 A 
ATOM     79  C   UNL A   1      37.585  33.006  33.351  1.00  0.00     0.091 A 
ATOM     80  F   UNL A   1      38.643  34.516  31.835  1.00  0.00    -0.205 F 
ATOM     81  C   UNL A   1      37.687  31.916  34.232  1.00  0.00     0.022 A 
BRANCH  79  82
ATOM     82  S   UNL A   1      35.949  33.716  33.131  1.00  0.00     0.127 S 
ATOM     83  O   UNL A   1      36.138  35.063  33.666  1.00  0.00    -0.237 OA
ATOM     84  O   UNL A   1      35.781  33.656  31.678  1.00  0.00    -0.237 OA
ATOM     85  O   UNL A   1      35.038  32.865  33.883  1.00  0.00    -0.744 OA
ENDBRANCH  79  82
ENDBRANCH  61  75
BRANCH  62  86
ATOM     86  C   UNL A   1      48.042  36.380  28.168  1.00  0.00     0.023 A 
ATOM     87  C   UNL A   1      47.851  37.242  27.070  1.00  0.00     0.012 A 
ATOM     88  C   UNL A   1      49.354  36.073  28.578  1.00  0.00     0.148 A 
ATOM     89  C   UNL A   1      48.942  37.764  26.374  1.00  0.00     0.002 A 
ATOM     90  C   UNL A   1      50.437  36.638  27.912  1.00  0.00     0.091 A 
ATOM     91  F   UNL A   1      49.517  35.241  29.617  1.00  0.00    -0.205 F 
ATOM     92  C   UNL A   1      50.234  37.471  26.801  1.00  0.00     0.022 A 
BRANCH  90  93
ATOM     93  S   UNL A   1      52.130  36.421  28.474  1.00  0.00     0.127 S 
ATOM     94  O   UNL A   1      52.083  37.018  29.807  1.00  0.00    -0.237 OA
ATOM     95  O   UNL A   1      52.274  34.964  28.457  1.00  0.00    -0.237 OA
ATOM     96  O   UNL A   1      52.956  37.113  27.494  1.00  0.00    -0.744 OA
ENDBRANCH  90  93
ENDBRANCH  62  86
BRANCH  74  97
ATOM     97  C   UNL A   1      44.581  38.450  33.877  1.00  0.00     0.023 A 
ATOM     98  C   UNL A   1      45.491  38.312  34.944  1.00  0.00     0.012 A 
ATOM     99  C   UNL A   1      43.926  39.681  33.681  1.00  0.00     0.148 A 
ATOM    100  C   UNL A   1      45.716  39.369  35.824  1.00  0.00     0.002 A 
ATOM    101  C   UNL A   1      44.189  40.745  34.537  1.00  0.00     0.091 A 
ATOM    102  F   UNL A   1      43.048  39.789  32.673  1.00  0.00    -0.205 F 
ATOM    103  C   UNL A   1      45.074  40.588  35.615  1.00  0.00     0.022 A 
BRANCH 101 104
ATOM    104  S   UNL A   1      43.472  42.371  34.273  1.00  0.00     0.127 S 
ATOM    105  O   UNL A   1      44.037  42.743  32.978  1.00  0.00    -0.237 OA
ATOM    106  O   UNL A   1      42.036  42.086  34.252  1.00  0.00    -0.237 OA
ATOM    107  O   UNL A   1      43.903  43.177  35.409  1.00  0.00    -0.744 OA
ENDBRANCH 101 104
ENDBRANCH  74  97
ENDBRANCH  48  49
ENDBRANCH  41  43
ENDBRANCH  40  41
ENDBRANCH  39  40
ENDBRANCH  38  39
ENDBRANCH  37  38
ENDBRANCH  36  37
ENDBRANCH  35  36
ENDBRANCH  34  35
ENDBRANCH   1  34
TORSDOF 28
ENDMDL
MODEL 2
REMARK VINA RESULT:      -8.0      5.449     12.048
REMARK SMILES CCN(C(=O)Cc1c(C(=O)OCCOCCOCCOCCOC(=O)c2ccc(-c3c4nc(c(-c5cccc(S(=O)(=O)[O-])c5F)c5ccc([nH]5)c(-c5cccc(S(=O)(=O)[O-])c5F)c5nc(c(-c6cccc(S(=O)(=O)[O-])c6F)c6ccc3[nH]6)C=C5)C=C4)cc2)[nH]c2ccc(Cl)cc12)c1ccc(C)c(C)c1
REMARK SMILES IDX 16 1 15 2 14 3 13 4 12 5 11 6 9 7 10 8 8 9 7 10 96 11 89 12
REMARK SMILES IDX 90 13 95 14 91 16 93 17 92 18 94 19 6 20 4 21 5 22 3 23 2 24
REMARK SMILES IDX 1 25 97 26 98 27 104 28 99 29 102 30 100 31 103 32 101 33
REMARK SMILES IDX 17 34 18 35 19 36 20 37 21 38 22 39 23 40 24 41 25 42 26 43
REMARK SMILES IDX 27 44 88 45 28 46 87 47 29 48 30 49 31 50 81 51 32 52 86 53
REMARK SMILES IDX 80 54 82 55 33 56 85 57 79 58 78 59 34 61 66 62 46 63 65 64
REMARK SMILES IDX 47 65 50 66 64 67 83 68 48 69 49 70 63 72 84 73 51 74 35 75
REMARK SMILES IDX 36 76 44 77 37 78 39 79 45 80 38 81 40 82 41 83 42 84 43 85
REMARK SMILES IDX 67 86 68 87 76 88 69 89 71 90 77 91 70 92 72 93 73 94 74 95
REMARK SMILES IDX 75 96 52 97 53 98 61 99 54 100 56 101 62 102 55 103 57 104
REMARK SMILES IDX 58 105 59 106 60 107
REMARK H PARENT 89 15 82 60 50 71
REMARK Flexibility Score: inf
ROOT
ATOM      1  C   UNL A   1      36.139  31.067  28.404  1.00  0.00     0.188 C 
ENDROOT
BRANCH   1   2
ATOM      2  C   UNL A   1      36.357  29.909  29.383  1.00  0.00     0.188 C 
BRANCH   2   3
ATOM      3  O   UNL A   1      37.557  29.918  30.160  1.00  0.00    -0.376 OA
BRANCH   3   4
ATOM      4  C   UNL A   1      38.562  28.957  29.849  1.00  0.00     0.202 C 
BRANCH   4   5
ATOM      5  C   UNL A   1      39.330  29.328  28.569  1.00  0.00     0.261 C 
BRANCH   5   6
ATOM      6  O   UNL A   1      40.618  28.686  28.504  1.00  0.00    -0.459 OA
BRANCH   6   7
ATOM      7  C   UNL A   1      41.662  29.535  28.667  1.00  0.00     0.355 C 
ATOM      8  O   UNL A   1      41.651  30.549  29.358  1.00  0.00    -0.244 OA
BRANCH   7   9
ATOM      9  C   UNL A   1      42.860  29.084  27.993  1.00  0.00     0.129 A 
ATOM     10  C   UNL A   1      43.805  29.628  27.117  1.00  0.00     0.002 A 
ATOM     11  C   UNL A   1      44.946  28.737  27.203  1.00  0.00     0.005 A 
ATOM     12  N   UNL A   1      43.240  27.775  28.212  1.00  0.00    -0.349 N 
ATOM     13  C   UNL A   1      44.504  27.540  27.758  1.00  0.00     0.046 A 
ATOM     14  C   UNL A   1      46.303  28.817  26.822  1.00  0.00     0.031 A 
ATOM     15  H   UNL A   1      42.669  27.096  28.642  1.00  0.00     0.167 HD
ATOM     16  C   UNL A   1      45.283  26.381  27.826  1.00  0.00     0.028 A 
ATOM     17  C   UNL A   1      47.109  27.676  26.910  1.00  0.00     0.041 A 
ATOM     18  C   UNL A   1      46.601  26.467  27.373  1.00  0.00     0.022 A 
ATOM     19  Cl  UNL A   1      48.751  27.761  26.396  1.00  0.00    -0.084 Cl
BRANCH  10  20
ATOM     20  C   UNL A   1      43.794  30.944  26.365  1.00  0.00     0.139 C 
BRANCH  20  21
ATOM     21  C   UNL A   1      44.362  32.174  27.117  1.00  0.00     0.231 C 
ATOM     22  O   UNL A   1      44.366  32.134  28.356  1.00  0.00    -0.274 OA
BRANCH  21  23
ATOM     23  N   UNL A   1      44.865  33.282  26.409  1.00  0.00    -0.312 N 
BRANCH  23  24
ATOM     24  C   UNL A   1      44.199  33.906  25.256  1.00  0.00     0.122 C 
ATOM     25  C   UNL A   1      43.128  34.930  25.610  1.00  0.00     0.028 C 
ENDBRANCH  23  24
BRANCH  23  26
ATOM     26  C   UNL A   1      46.216  33.740  26.617  1.00  0.00     0.044 A 
ATOM     27  C   UNL A   1      47.283  32.845  26.651  1.00  0.00     0.026 A 
ATOM     28  C   UNL A   1      46.505  35.113  26.626  1.00  0.00     0.030 A 
ATOM     29  C   UNL A   1      48.601  33.322  26.614  1.00  0.00     0.006 A 
ATOM     30  C   UNL A   1      47.820  35.608  26.605  1.00  0.00    -0.046 A 
ATOM     31  C   UNL A   1      48.887  34.699  26.585  1.00  0.00    -0.048 A 
ATOM     32  C   UNL A   1      48.052  37.094  26.595  1.00  0.00     0.044 C 
ATOM     33  C   UNL A   1      50.313  35.179  26.592  1.00  0.00     0.044 C 
ENDBRANCH  23  26
ENDBRANCH  21  23
ENDBRANCH  20  21
ENDBRANCH  10  20
ENDBRANCH   7   9
ENDBRANCH   6   7
ENDBRANCH   5   6
ENDBRANCH   4   5
ENDBRANCH   3   4
ENDBRANCH   2   3
ENDBRANCH   1   2
BRANCH   1  34
ATOM     34  O   UNL A   1      36.013  32.321  29.055  1.00  0.00    -0.377 OA
BRANCH  34  35
ATOM     35  C   UNL A   1      34.810  32.495  29.797  1.00  0.00     0.188 C 
BRANCH  35  36
ATOM     36  C   UNL A   1      34.545  33.960  30.190  1.00  0.00     0.188 C 
BRANCH  36  37
ATOM     37  O   UNL A   1      34.894  34.476  31.475  1.00  0.00    -0.376 OA
BRANCH  37  38
ATOM     38  C   UNL A   1      34.031  34.265  32.575  1.00  0.00     0.202 C 
BRANCH  38  39
ATOM     39  C   UNL A   1      34.685  33.731  33.855  1.00  0.00     0.261 C 
BRANCH  39  40
ATOM     40  O   UNL A   1      36.033  34.148  34.085  1.00  0.00    -0.460 OA
BRANCH  40  41
ATOM     41  C   UNL A   1      36.702  33.513  35.076  1.00  0.00     0.338 C 
ATOM     42  O   UNL A   1      36.363  33.397  36.239  1.00  0.00    -0.246 OA
BRANCH  41  43
ATOM     43  C   UNL A   1      37.925  32.908  34.499  1.00  0.00     0.060 A 
ATOM     44  C   UNL A   1      39.073  32.764  35.278  1.00  0.00     0.016 A 
ATOM     45  C   UNL A   1      37.945  32.517  33.161  1.00  0.00     0.016 A 
ATOM     46  C   UNL A   1      40.253  32.289  34.693  1.00  0.00     0.010 A 
ATOM     47  C   UNL A   1      39.105  32.000  32.587  1.00  0.00     0.010 A 
ATOM     48  C   UNL A   1      40.289  31.949  33.331  1.00  0.00    -0.014 A 
BRANCH  48  49
ATOM     49  C   UNL A   1      41.587  31.703  32.650  1.00  0.00     0.031 A 
ATOM     50  C   UNL A   1      42.387  32.876  32.133  1.00  0.00     0.074 A 
ATOM     51  C   UNL A   1      42.050  30.450  32.479  1.00  0.00     0.049 A 
ATOM     52  N   UNL A   1      43.590  32.898  31.620  1.00  0.00    -0.248 NA
ATOM     53  C   UNL A   1      41.732  34.196  32.162  1.00  0.00     0.031 C 
ATOM     54  C   UNL A   1      41.320  29.226  32.811  1.00  0.00     0.029 A 
ATOM     55  N   UNL A   1      43.243  30.001  31.975  1.00  0.00    -0.354 N 
ATOM     56  C   UNL A   1      43.821  34.218  31.242  1.00  0.00     0.074 A 
ATOM     57  C   UNL A   1      42.612  34.955  31.527  1.00  0.00     0.031 C 
ATOM     58  C   UNL A   1      42.091  28.164  32.517  1.00  0.00     0.029 A 
ATOM     59  C   UNL A   1      43.374  28.632  31.995  1.00  0.00     0.049 A 
ATOM     60  H   UNL A   1      43.942  30.603  31.631  1.00  0.00     0.167 HD
ATOM     61  C   UNL A   1      44.952  34.781  30.755  1.00  0.00     0.034 A 
ATOM     62  C   UNL A   1      44.424  27.852  31.670  1.00  0.00     0.034 A 
ATOM     63  C   UNL A   1      46.174  34.054  30.548  1.00  0.00     0.049 A 
ATOM     64  C   UNL A   1      45.723  28.512  31.279  1.00  0.00     0.074 A 
ATOM     65  C   UNL A   1      47.414  34.533  30.166  1.00  0.00     0.029 A 
ATOM     66  N   UNL A   1      46.310  32.685  30.723  1.00  0.00    -0.354 N 
ATOM     67  N   UNL A   1      45.988  29.786  31.122  1.00  0.00    -0.248 NA
ATOM     68  C   UNL A   1      46.886  27.631  31.089  1.00  0.00     0.031 C 
ATOM     69  C   UNL A   1      48.300  33.450  30.112  1.00  0.00     0.029 A 
ATOM     70  C   UNL A   1      47.614  32.302  30.473  1.00  0.00     0.049 A 
ATOM     71  H   UNL A   1      45.583  32.075  30.987  1.00  0.00     0.167 HD
ATOM     72  C   UNL A   1      47.351  29.865  30.854  1.00  0.00     0.074 A 
ATOM     73  C   UNL A   1      47.861  28.508  30.896  1.00  0.00     0.031 C 
ATOM     74  C   UNL A   1      48.112  30.955  30.581  1.00  0.00     0.034 A 
BRANCH  61  75
ATOM     75  C   UNL A   1      44.942  36.269  30.499  1.00  0.00     0.023 A 
ATOM     76  C   UNL A   1      45.502  37.138  31.461  1.00  0.00     0.012 A 
ATOM     77  C   UNL A   1      44.422  36.809  29.307  1.00  0.00     0.148 A 
ATOM     78  C   UNL A   1      45.501  38.518  31.265  1.00  0.00     0.002 A 
ATOM     79  C   UNL A   1      44.468  38.184  29.096  1.00  0.00     0.091 A 
ATOM     80  F   UNL A   1      43.878  35.975  28.410  1.00  0.00    -0.205 F 
ATOM     81  C   UNL A   1      44.992  39.039  30.080  1.00  0.00     0.022 A 
BRANCH  79  82
ATOM     82  S   UNL A   1      43.917  38.953  27.569  1.00  0.00     0.127 S 
ATOM     83  O   UNL A   1      42.555  38.432  27.451  1.00  0.00    -0.237 OA
ATOM     84  O   UNL A   1      43.998  40.377  27.894  1.00  0.00    -0.237 OA
ATOM     85  O   UNL A   1      44.847  38.512  26.540  1.00  0.00    -0.744 OA
ENDBRANCH  79  82
ENDBRANCH  61  75
BRANCH  62  86
ATOM     86  C   UNL A   1      44.333  26.375  31.853  1.00  0.00     0.023 A 
ATOM     87  C   UNL A   1      44.079  25.559  30.733  1.00  0.00     0.012 A 
ATOM     88  C   UNL A   1      44.541  25.772  33.108  1.00  0.00     0.148 A 
ATOM     89  C   UNL A   1      44.002  24.171  30.864  1.00  0.00     0.002 A 
ATOM     90  C   UNL A   1      44.515  24.385  33.221  1.00  0.00     0.091 A 
ATOM     91  F   UNL A   1      44.769  26.564  34.165  1.00  0.00    -0.205 F 
ATOM     92  C   UNL A   1      44.231  23.584  32.104  1.00  0.00     0.022 A 
BRANCH  90  93
ATOM     93  S   UNL A   1      44.927  23.538  34.752  1.00  0.00     0.127 S 
ATOM     94  O   UNL A   1      45.334  24.648  35.610  1.00  0.00    -0.237 OA
ATOM     95  O   UNL A   1      43.650  22.918  35.112  1.00  0.00    -0.237 OA
ATOM     96  O   UNL A   1      45.973  22.587  34.400  1.00  0.00    -0.744 OA
ENDBRANCH  90  93
ENDBRANCH  62  86
BRANCH  74  97
ATOM     97  C   UNL A   1      49.580  30.736  30.335  1.00  0.00     0.023 A 
ATOM     98  C   UNL A   1      50.481  30.762  31.418  1.00  0.00     0.012 A 
ATOM     99  C   UNL A   1      50.058  30.436  29.044  1.00  0.00     0.148 A 
ATOM    100  C   UNL A   1      51.841  30.533  31.213  1.00  0.00     0.002 A 
ATOM    101  C   UNL A   1      51.409  30.164  28.856  1.00  0.00     0.091 A 
ATOM    102  F   UNL A   1      49.191  30.435  28.021  1.00  0.00    -0.205 F 
ATOM    103  C   UNL A   1      52.303  30.223  29.936  1.00  0.00     0.022 A 
BRANCH 101 104
ATOM    104  S   UNL A   1      52.060  29.666  27.257  1.00  0.00     0.127 S 
ATOM    105  O   UNL A   1      53.457  30.080  27.359  1.00  0.00    -0.237 OA
ATOM    106  O   UNL A   1      51.852  28.217  27.267  1.00  0.00    -0.237 OA
ATOM    107  O   UNL A   1      51.258  30.376  26.269  1.00  0.00    -0.744 OA
ENDBRANCH 101 104
ENDBRANCH  74  97
ENDBRANCH  48  49
ENDBRANCH  41  43
ENDBRANCH  40  41
ENDBRANCH  39  40
ENDBRANCH  38  39
ENDBRANCH  37  38
ENDBRANCH  36  37
ENDBRANCH  35  36
ENDBRANCH  34  35
ENDBRANCH   1  34
TORSDOF 28
ENDMDL
MODEL 3
REMARK VINA RESULT:      -7.9      4.062      5.165
REMARK SMILES CCN(C(=O)Cc1c(C(=O)OCCOCCOCCOCCOC(=O)c2ccc(-c3c4nc(c(-c5cccc(S(=O)(=O)[O-])c5F)c5ccc([nH]5)c(-c5cccc(S(=O)(=O)[O-])c5F)c5nc(c(-c6cccc(S(=O)(=O)[O-])c6F)c6ccc3[nH]6)C=C5)C=C4)cc2)[nH]c2ccc(Cl)cc12)c1ccc(C)c(C)c1
REMARK SMILES IDX 16 1 15 2 14 3 13 4 12 5 11 6 9 7 10 8 8 9 7 10 96 11 89 12
REMARK SMILES IDX 90 13 95 14 91 16 93 17 92 18 94 19 6 20 4 21 5 22 3 23 2 24
REMARK SMILES IDX 1 25 97 26 98 27 104 28 99 29 102 30 100 31 103 32 101 33
REMARK SMILES IDX 17 34 18 35 19 36 20 37 21 38 22 39 23 40 24 41 25 42 26 43
REMARK SMILES IDX 27 44 88 45 28 46 87 47 29 48 30 49 31 50 81 51 32 52 86 53
REMARK SMILES IDX 80 54 82 55 33 56 85 57 79 58 78 59 34 61 66 62 46 63 65 64
REMARK SMILES IDX 47 65 50 66 64 67 83 68 48 69 49 70 63 72 84 73 51 74 35 75
REMARK SMILES IDX 36 76 44 77 37 78 39 79 45 80 38 81 40 82 41 83 42 84 43 85
REMARK SMILES IDX 67 86 68 87 76 88 69 89 71 90 77 91 70 92 72 93 73 94 74 95
REMARK SMILES IDX 75 96 52 97 53 98 61 99 54 100 56 101 62 102 55 103 57 104
REMARK SMILES IDX 58 105 59 106 60 107
REMARK H PARENT 89 15 82 60 50 71
REMARK Flexibility Score: inf
ROOT
ATOM      1  C   UNL A   1      36.192  29.421  28.255  1.00  0.00     0.188 C 
ENDROOT
BRANCH   1   2
ATOM      2  C   UNL A   1      35.230  30.509  27.769  1.00  0.00     0.188 C 
BRANCH   2   3
ATOM      3  O   UNL A   1      33.851  30.157  27.626  1.00  0.00    -0.376 OA
BRANCH   3   4
ATOM      4  C   UNL A   1      33.243  30.343  26.352  1.00  0.00     0.202 C 
BRANCH   4   5
ATOM      5  C   UNL A   1      32.847  29.004  25.707  1.00  0.00     0.261 C 
BRANCH   5   6
ATOM      6  O   UNL A   1      33.912  28.450  24.911  1.00  0.00    -0.459 OA
BRANCH   6   7
ATOM      7  C   UNL A   1      33.656  28.449  23.579  1.00  0.00     0.355 C 
ATOM      8  O   UNL A   1      34.503  28.504  22.693  1.00  0.00    -0.244 OA
BRANCH   7   9
ATOM      9  C   UNL A   1      32.248  28.292  23.281  1.00  0.00     0.129 A 
ATOM     10  C   UNL A   1      31.311  27.254  23.303  1.00  0.00     0.002 A 
ATOM     11  C   UNL A   1      30.023  27.920  23.293  1.00  0.00     0.005 A 
ATOM     12  N   UNL A   1      31.576  29.416  22.847  1.00  0.00    -0.349 N 
ATOM     13  C   UNL A   1      30.226  29.225  22.858  1.00  0.00     0.046 A 
ATOM     14  C   UNL A   1      28.695  27.525  23.571  1.00  0.00     0.031 A 
ATOM     15  H   UNL A   1      32.017  30.251  22.564  1.00  0.00     0.167 HD
ATOM     16  C   UNL A   1      29.190  30.112  22.548  1.00  0.00     0.028 A 
ATOM     17  C   UNL A   1      27.645  28.408  23.296  1.00  0.00     0.041 A 
ATOM     18  C   UNL A   1      27.883  29.670  22.761  1.00  0.00     0.022 A 
ATOM     19  Cl  UNL A   1      26.022  27.906  23.587  1.00  0.00    -0.084 Cl
BRANCH  10  20
ATOM     20  C   UNL A   1      31.508  25.763  23.489  1.00  0.00     0.139 C 
BRANCH  20  21
ATOM     21  C   UNL A   1      31.778  25.278  24.936  1.00  0.00     0.231 C 
ATOM     22  O   UNL A   1      30.951  25.585  25.805  1.00  0.00    -0.274 OA
BRANCH  21  23
ATOM     23  N   UNL A   1      32.915  24.504  25.235  1.00  0.00    -0.312 N 
BRANCH  23  24
ATOM     24  C   UNL A   1      34.217  25.057  25.640  1.00  0.00     0.122 C 
ATOM     25  C   UNL A   1      35.422  24.437  24.942  1.00  0.00     0.028 C 
ENDBRANCH  23  24
BRANCH  23  26
ATOM     26  C   UNL A   1      32.954  23.097  24.924  1.00  0.00     0.044 A 
ATOM     27  C   UNL A   1      33.215  22.147  25.908  1.00  0.00     0.026 A 
ATOM     28  C   UNL A   1      32.566  22.641  23.654  1.00  0.00     0.030 A 
ATOM     29  C   UNL A   1      33.015  20.785  25.642  1.00  0.00     0.006 A 
ATOM     30  C   UNL A   1      32.375  21.279  23.366  1.00  0.00    -0.046 A 
ATOM     31  C   UNL A   1      32.589  20.335  24.379  1.00  0.00    -0.048 A 
ATOM     32  C   UNL A   1      31.938  20.868  21.986  1.00  0.00     0.044 C 
ATOM     33  C   UNL A   1      32.428  18.863  24.112  1.00  0.00     0.044 C 
ENDBRANCH  23  26
ENDBRANCH  21  23
ENDBRANCH  20  21
ENDBRANCH  10  20
ENDBRANCH   7   9
ENDBRANCH   6   7
ENDBRANCH   5   6
ENDBRANCH   4   5
ENDBRANCH   3   4
ENDBRANCH   2   3
ENDBRANCH   1   2
BRANCH   1  34
ATOM     34  O   UNL A   1      37.432  29.435  27.565  1.00  0.00    -0.377 OA
BRANCH  34  35
ATOM     35  C   UNL A   1      38.566  29.107  28.363  1.00  0.00     0.188 C 
BRANCH  35  36
ATOM     36  C   UNL A   1      39.905  29.378  27.653  1.00  0.00     0.188 C 
BRANCH  36  37
ATOM     37  O   UNL A   1      40.657  28.337  27.027  1.00  0.00    -0.376 OA
BRANCH  37  38
ATOM     38  C   UNL A   1      41.348  28.597  25.820  1.00  0.00     0.202 C 
BRANCH  38  39
ATOM     39  C   UNL A   1      42.658  27.827  25.613  1.00  0.00     0.261 C 
BRANCH  39  40
ATOM     40  O   UNL A   1      43.849  28.616  25.608  1.00  0.00    -0.460 OA
BRANCH  40  41
ATOM     41  C   UNL A   1      44.641  28.525  26.703  1.00  0.00     0.338 C 
ATOM     42  O   UNL A   1      45.707  27.943  26.796  1.00  0.00    -0.246 OA
BRANCH  41  43
ATOM     43  C   UNL A   1      44.024  29.315  27.792  1.00  0.00     0.060 A 
ATOM     44  C   UNL A   1      43.862  30.694  27.657  1.00  0.00     0.016 A 
ATOM     45  C   UNL A   1      43.641  28.688  28.977  1.00  0.00     0.016 A 
ATOM     46  C   UNL A   1      43.376  31.445  28.733  1.00  0.00     0.010 A 
ATOM     47  C   UNL A   1      43.113  29.426  30.035  1.00  0.00     0.010 A 
ATOM     48  C   UNL A   1      43.043  30.821  29.947  1.00  0.00    -0.014 A 
BRANCH  48  49
ATOM     49  C   UNL A   1      42.785  31.633  31.165  1.00  0.00     0.031 A 
ATOM     50  C   UNL A   1      41.360  31.954  31.553  1.00  0.00     0.074 A 
ATOM     51  C   UNL A   1      43.804  32.096  31.914  1.00  0.00     0.049 A 
ATOM     52  N   UNL A   1      40.906  32.541  32.631  1.00  0.00    -0.248 NA
ATOM     53  C   UNL A   1      40.307  31.601  30.584  1.00  0.00     0.031 C 
ATOM     54  C   UNL A   1      45.223  31.973  31.581  1.00  0.00     0.029 A 
ATOM     55  N   UNL A   1      43.797  32.772  33.107  1.00  0.00    -0.354 N 
ATOM     56  C   UNL A   1      39.530  32.651  32.456  1.00  0.00     0.074 A 
ATOM     57  C   UNL A   1      39.229  32.128  31.144  1.00  0.00     0.031 C 
ATOM     58  C   UNL A   1      45.952  32.539  32.559  1.00  0.00     0.029 A 
ATOM     59  C   UNL A   1      45.054  33.048  33.594  1.00  0.00     0.049 A 
ATOM     60  H   UNL A   1      42.970  33.035  33.572  1.00  0.00     0.167 HD
ATOM     61  C   UNL A   1      38.592  33.095  33.326  1.00  0.00     0.034 A 
ATOM     62  C   UNL A   1      45.433  33.606  34.761  1.00  0.00     0.034 A 
ATOM     63  C   UNL A   1      38.893  33.539  34.658  1.00  0.00     0.049 A 
ATOM     64  C   UNL A   1      44.373  33.948  35.779  1.00  0.00     0.074 A 
ATOM     65  C   UNL A   1      38.022  33.906  35.668  1.00  0.00     0.029 A 
ATOM     66  N   UNL A   1      40.176  33.664  35.170  1.00  0.00    -0.354 N 
ATOM     67  N   UNL A   1      43.069  33.856  35.677  1.00  0.00    -0.248 NA
ATOM     68  C   UNL A   1      44.840  34.404  37.097  1.00  0.00     0.031 C 
ATOM     69  C   UNL A   1      38.781  34.251  36.793  1.00  0.00     0.029 A 
ATOM     70  C   UNL A   1      40.122  34.087  36.486  1.00  0.00     0.049 A 
ATOM     71  H   UNL A   1      41.004  33.479  34.670  1.00  0.00     0.167 HD
ATOM     72  C   UNL A   1      42.561  34.203  36.925  1.00  0.00     0.074 A 
ATOM     73  C   UNL A   1      43.702  34.484  37.774  1.00  0.00     0.031 C 
ATOM     74  C   UNL A   1      41.270  34.300  37.329  1.00  0.00     0.034 A 
BRANCH  61  75
ATOM     75  C   UNL A   1      37.147  33.032  32.892  1.00  0.00     0.023 A 
ATOM     76  C   UNL A   1      36.521  31.775  32.755  1.00  0.00     0.012 A 
ATOM     77  C   UNL A   1      36.396  34.201  32.658  1.00  0.00     0.148 A 
ATOM     78  C   UNL A   1      35.192  31.678  32.346  1.00  0.00     0.002 A 
ATOM     79  C   UNL A   1      35.056  34.098  32.297  1.00  0.00     0.091 A 
ATOM     80  F   UNL A   1      37.006  35.389  32.775  1.00  0.00    -0.205 F 
ATOM     81  C   UNL A   1      34.458  32.839  32.126  1.00  0.00     0.022 A 
BRANCH  79  82
ATOM     82  S   UNL A   1      33.997  35.532  32.071  1.00  0.00     0.127 S 
ATOM     83  O   UNL A   1      34.148  35.788  30.639  1.00  0.00    -0.237 OA
ATOM     84  O   UNL A   1      32.686  35.012  32.462  1.00  0.00    -0.237 OA
ATOM     85  O   UNL A   1      34.526  36.564  32.951  1.00  0.00    -0.744 OA
ENDBRANCH  79  82
ENDBRANCH  61  75
BRANCH  62  86
ATOM     86  C   UNL A   1      46.883  33.729  35.086  1.00  0.00     0.023 A 
ATOM     87  C   UNL A   1      47.561  34.920  34.762  1.00  0.00     0.012 A 
ATOM     88  C   UNL A   1      47.581  32.702  35.750  1.00  0.00     0.148 A 
ATOM     89  C   UNL A   1      48.914  35.077  35.065  1.00  0.00     0.002 A 
ATOM     90  C   UNL A   1      48.916  32.884  36.095  1.00  0.00     0.091 A 
ATOM     91  F   UNL A   1      46.924  31.569  36.038  1.00  0.00    -0.205 F 
ATOM     92  C   UNL A   1      49.588  34.064  35.741  1.00  0.00     0.022 A 
BRANCH  90  93
ATOM     93  S   UNL A   1      49.826  31.688  37.080  1.00  0.00     0.127 S 
ATOM     94  O   UNL A   1      50.336  32.520  38.168  1.00  0.00    -0.237 OA
ATOM     95  O   UNL A   1      48.775  30.746  37.467  1.00  0.00    -0.237 OA
ATOM     96  O   UNL A   1      50.828  31.128  36.183  1.00  0.00    -0.744 OA
ENDBRANCH  90  93
ENDBRANCH  62  86
BRANCH  74  97
ATOM     97  C   UNL A   1      41.016  34.696  38.759  1.00  0.00     0.023 A 
ATOM     98  C   UNL A   1      40.975  33.707  39.761  1.00  0.00     0.012 A 
ATOM     99  C   UNL A   1      40.886  36.052  39.119  1.00  0.00     0.148 A 
ATOM    100  C   UNL A   1      40.770  34.058  41.095  1.00  0.00     0.002 A 
ATOM    101  C   UNL A   1      40.727  36.397  40.457  1.00  0.00     0.091 A 
ATOM    102  F   UNL A   1      40.907  36.980  38.151  1.00  0.00    -0.205 F 
ATOM    103  C   UNL A   1      40.657  35.401  41.444  1.00  0.00     0.022 A 
BRANCH 101 104
ATOM    104  S   UNL A   1      40.670  38.111  40.992  1.00  0.00     0.127 S 
ATOM    105  O   UNL A   1      39.232  38.343  41.105  1.00  0.00    -0.237 OA
ATOM    106  O   UNL A   1      41.383  38.069  42.270  1.00  0.00    -0.237 OA
ATOM    107  O   UNL A   1      41.355  38.869  39.952  1.00  0.00    -0.744 OA
ENDBRANCH 101 104
ENDBRANCH  74  97
ENDBRANCH  48  49
ENDBRANCH  41  43
ENDBRANCH  40  41
ENDBRANCH  39  40
ENDBRANCH  38  39
ENDBRANCH  37  38
ENDBRANCH  36  37
ENDBRANCH  35  36
ENDBRANCH  34  35
ENDBRANCH   1  34
TORSDOF 28
ENDMDL
