MODEL 1
REMARK VINA RESULT:      -9.8      0.000      0.000
REMARK SMILES CC[C@@](C)(Nc1c([N+](=O)[O-])c(C(C)C)nn1C)C(=O)OCCOCCOCCOCCOC(=O)c1ccc(-c2c3nc(c(-c4cccc(S(=O)(=O)[O-])c4F)c4ccc([nH]4)c(-c4cccc(S(=O)(=O)[O-])c4F)c4nc(c(-c5cccc(S(=O)(=O)[O-])c5F)c5ccc2[nH]5)C=C4)C=C3)cc1
REMARK SMILES IDX 26 1 25 2 24 3 23 4 22 5 21 6 20 7 18 8 19 9 3 10 4 11 2 12
REMARK SMILES IDX 1 13 5 14 6 16 7 17 16 18 11 19 15 20 17 21 8 22 9 23 10 24
REMARK SMILES IDX 12 25 13 26 14 27 27 28 28 29 29 30 30 31 31 32 32 33 33 34
REMARK SMILES IDX 34 35 35 36 36 37 97 38 37 39 96 40 38 41 39 42 40 43 90 44
REMARK SMILES IDX 41 45 95 46 89 47 91 48 42 49 94 50 88 51 87 52 43 54 75 55
REMARK SMILES IDX 55 56 74 57 56 58 59 59 73 60 92 61 57 62 58 63 72 65 93 66
REMARK SMILES IDX 60 67 44 68 45 69 53 70 46 71 48 72 54 73 47 74 49 75 50 76
REMARK SMILES IDX 51 77 52 78 76 79 77 80 85 81 78 82 80 83 86 84 79 85 81 86
REMARK SMILES IDX 82 87 83 88 84 89 61 90 62 91 70 92 63 93 65 94 71 95 64 96
REMARK SMILES IDX 66 97 67 98 68 99 69 100
REMARK H PARENT 5 15 91 53 59 64
REMARK Flexibility Score: inf
ROOT
ATOM      1  O   UNL A   1      30.976  29.637  24.553  1.00  0.00    -0.377 OA
ENDROOT
BRANCH   1   2
ATOM      2  C   UNL A   1      31.007  28.825  23.395  1.00  0.00     0.188 C 
BRANCH   2   3
ATOM      3  C   UNL A   1      30.260  27.488  23.388  1.00  0.00     0.188 C 
BRANCH   3   4
ATOM      4  O   UNL A   1      31.072  26.336  23.216  1.00  0.00    -0.376 OA
BRANCH   4   5
ATOM      5  C   UNL A   1      31.800  26.284  21.992  1.00  0.00     0.202 C 
BRANCH   5   6
ATOM      6  C   UNL A   1      33.037  25.368  21.974  1.00  0.00     0.261 C 
BRANCH   6   7
ATOM      7  O   UNL A   1      32.964  24.180  22.792  1.00  0.00    -0.462 OA
BRANCH   7   8
ATOM      8  C   UNL A   1      34.116  23.739  23.328  1.00  0.00     0.331 C 
ATOM      9  O   UNL A   1      35.132  23.594  22.644  1.00  0.00    -0.249 OA
BRANCH   8  10
ATOM     10  C   UNL A   1      34.098  23.453  24.858  1.00  0.00     0.134 C 
ATOM     11  C   UNL A   1      35.390  24.158  25.364  1.00  0.00     0.047 C 
BRANCH  10  12
ATOM     12  C   UNL A   1      32.865  24.120  25.547  1.00  0.00     0.037 C 
ATOM     13  C   UNL A   1      31.492  23.520  25.256  1.00  0.00     0.007 C 
ENDBRANCH  10  12
BRANCH  10  14
ATOM     14  N   UNL A   1      34.239  22.063  25.418  1.00  0.00    -0.349 N 
ATOM     15  H   UNL A   1      34.011  21.999  26.373  1.00  0.00     0.163 HD
BRANCH  14  16
ATOM     16  C   UNL A   1      34.624  20.864  24.862  1.00  0.00     0.205 A 
ATOM     17  C   UNL A   1      33.865  19.730  24.536  1.00  0.00     0.334 A 
ATOM     18  N   UNL A   1      35.917  20.368  24.939  1.00  0.00    -0.246 N 
ATOM     19  C   UNL A   1      34.753  18.613  24.562  1.00  0.00     0.145 A 
ATOM     20  N   UNL A   1      36.013  19.036  24.706  1.00  0.00    -0.169 NA
ATOM     21  C   UNL A   1      37.092  21.020  25.469  1.00  0.00     0.176 C 
BRANCH  17  22
ATOM     22  N   UNL A   1      32.443  19.678  24.375  1.00  0.00     0.068 N 
ATOM     23  O   UNL A   1      31.994  18.894  23.526  1.00  0.00    -0.258 OA
ATOM     24  O   UNL A   1      31.750  20.424  25.082  1.00  0.00    -0.258 OA
ENDBRANCH  17  22
BRANCH  19  25
ATOM     25  C   UNL A   1      34.437  17.123  24.637  1.00  0.00     0.041 C 
ATOM     26  C   UNL A   1      34.229  16.439  23.288  1.00  0.00     0.014 C 
ATOM     27  C   UNL A   1      35.474  16.332  25.453  1.00  0.00     0.014 C 
ENDBRANCH  19  25
ENDBRANCH  14  16
ENDBRANCH  10  14
ENDBRANCH   8  10
ENDBRANCH   7   8
ENDBRANCH   6   7
ENDBRANCH   5   6
ENDBRANCH   4   5
ENDBRANCH   3   4
ENDBRANCH   2   3
ENDBRANCH   1   2
BRANCH   1  28
ATOM     28  C   UNL A   1      31.997  29.509  25.527  1.00  0.00     0.188 C 
BRANCH  28  29
ATOM     29  C   UNL A   1      31.941  30.437  26.747  1.00  0.00     0.188 C 
BRANCH  29  30
ATOM     30  O   UNL A   1      33.101  31.238  26.911  1.00  0.00    -0.376 OA
BRANCH  30  31
ATOM     31  C   UNL A   1      33.034  32.262  27.890  1.00  0.00     0.202 C 
BRANCH  31  32
ATOM     32  C   UNL A   1      32.807  33.715  27.461  1.00  0.00     0.261 C 
BRANCH  32  33
ATOM     33  O   UNL A   1      32.415  34.669  28.460  1.00  0.00    -0.460 OA
BRANCH  33  34
ATOM     34  C   UNL A   1      33.360  35.404  29.071  1.00  0.00     0.338 C 
ATOM     35  O   UNL A   1      33.391  36.627  29.156  1.00  0.00    -0.246 OA
BRANCH  34  36
ATOM     36  C   UNL A   1      34.390  34.498  29.632  1.00  0.00     0.060 A 
ATOM     37  C   UNL A   1      34.104  33.691  30.737  1.00  0.00     0.016 A 
ATOM     38  C   UNL A   1      35.681  34.506  29.099  1.00  0.00     0.016 A 
ATOM     39  C   UNL A   1      35.124  32.935  31.336  1.00  0.00     0.010 A 
ATOM     40  C   UNL A   1      36.688  33.722  29.673  1.00  0.00     0.010 A 
ATOM     41  C   UNL A   1      36.435  32.974  30.833  1.00  0.00    -0.014 A 
BRANCH  41  42
ATOM     42  C   UNL A   1      37.567  32.355  31.584  1.00  0.00     0.031 A 
ATOM     43  C   UNL A   1      38.340  31.215  30.959  1.00  0.00     0.074 A 
ATOM     44  C   UNL A   1      37.896  32.776  32.821  1.00  0.00     0.049 A 
ATOM     45  N   UNL A   1      39.365  30.549  31.430  1.00  0.00    -0.248 NA
ATOM     46  C   UNL A   1      37.888  30.749  29.638  1.00  0.00     0.031 C 
ATOM     47  C   UNL A   1      37.193  33.812  33.575  1.00  0.00     0.029 A 
ATOM     48  N   UNL A   1      38.895  32.364  33.671  1.00  0.00    -0.354 N 
ATOM     49  C   UNL A   1      39.652  29.569  30.484  1.00  0.00     0.074 A 
ATOM     50  C   UNL A   1      38.674  29.705  29.428  1.00  0.00     0.031 C 
ATOM     51  C   UNL A   1      37.779  33.953  34.777  1.00  0.00     0.029 A 
ATOM     52  C   UNL A   1      38.892  33.011  34.886  1.00  0.00     0.049 A 
ATOM     53  H   UNL A   1      39.551  31.669  33.433  1.00  0.00     0.167 HD
ATOM     54  C   UNL A   1      40.656  28.658  30.473  1.00  0.00     0.034 A 
ATOM     55  C   UNL A   1      39.693  32.864  35.961  1.00  0.00     0.034 A 
ATOM     56  C   UNL A   1      41.664  28.554  31.494  1.00  0.00     0.049 A 
ATOM     57  C   UNL A   1      40.841  31.887  35.901  1.00  0.00     0.074 A 
ATOM     58  C   UNL A   1      42.775  27.732  31.527  1.00  0.00     0.029 A 
ATOM     59  N   UNL A   1      41.679  29.296  32.665  1.00  0.00    -0.354 N 
ATOM     60  N   UNL A   1      41.197  31.089  34.924  1.00  0.00    -0.248 NA
ATOM     61  C   UNL A   1      41.725  31.821  37.076  1.00  0.00     0.031 C 
ATOM     62  C   UNL A   1      43.454  27.962  32.730  1.00  0.00     0.029 A 
ATOM     63  C   UNL A   1      42.778  28.945  33.432  1.00  0.00     0.049 A 
ATOM     64  H   UNL A   1      41.008  29.971  32.916  1.00  0.00     0.167 HD
ATOM     65  C   UNL A   1      42.360  30.455  35.349  1.00  0.00     0.074 A 
ATOM     66  C   UNL A   1      42.663  30.979  36.665  1.00  0.00     0.031 C 
ATOM     67  C   UNL A   1      43.102  29.515  34.714  1.00  0.00     0.034 A 
BRANCH  54  68
ATOM     68  C   UNL A   1      40.756  27.734  29.283  1.00  0.00     0.023 A 
ATOM     69  C   UNL A   1      39.948  26.579  29.232  1.00  0.00     0.012 A 
ATOM     70  C   UNL A   1      41.593  28.038  28.190  1.00  0.00     0.148 A 
ATOM     71  C   UNL A   1      40.000  25.721  28.134  1.00  0.00     0.002 A 
ATOM     72  C   UNL A   1      41.604  27.202  27.078  1.00  0.00     0.091 A 
ATOM     73  F   UNL A   1      42.365  29.131  28.260  1.00  0.00    -0.205 F 
ATOM     74  C   UNL A   1      40.819  26.037  27.054  1.00  0.00     0.022 A 
BRANCH  72  75
ATOM     75  S   UNL A   1      42.561  27.564  25.601  1.00  0.00     0.127 S 
ATOM     76  O   UNL A   1      43.925  27.577  26.128  1.00  0.00    -0.237 OA
ATOM     77  O   UNL A   1      42.251  26.418  24.745  1.00  0.00    -0.237 OA
ATOM     78  O   UNL A   1      42.069  28.841  25.106  1.00  0.00    -0.744 OA
ENDBRANCH  72  75
ENDBRANCH  54  68
BRANCH  55  79
ATOM     79  C   UNL A   1      39.488  33.723  37.163  1.00  0.00     0.023 A 
ATOM     80  C   UNL A   1      39.954  35.054  37.153  1.00  0.00     0.012 A 
ATOM     81  C   UNL A   1      38.810  33.245  38.301  1.00  0.00     0.148 A 
ATOM     82  C   UNL A   1      39.772  35.881  38.261  1.00  0.00     0.002 A 
ATOM     83  C   UNL A   1      38.582  34.093  39.380  1.00  0.00     0.091 A 
ATOM     84  F   UNL A   1      38.390  31.972  38.302  1.00  0.00    -0.205 F 
ATOM     85  C   UNL A   1      39.077  35.407  39.369  1.00  0.00     0.022 A 
BRANCH  83  86
ATOM     86  S   UNL A   1      37.573  33.611  40.785  1.00  0.00     0.127 S 
ATOM     87  O   UNL A   1      38.440  32.652  41.464  1.00  0.00    -0.237 OA
ATOM     88  O   UNL A   1      37.398  34.886  41.484  1.00  0.00    -0.237 OA
ATOM     89  O   UNL A   1      36.345  33.069  40.219  1.00  0.00    -0.744 OA
ENDBRANCH  83  86
ENDBRANCH  55  79
BRANCH  67  90
ATOM     90  C   UNL A   1      44.340  29.007  35.408  1.00  0.00     0.023 A 
ATOM     91  C   UNL A   1      45.583  29.623  35.162  1.00  0.00     0.012 A 
ATOM     92  C   UNL A   1      44.258  27.975  36.364  1.00  0.00     0.148 A 
ATOM     93  C   UNL A   1      46.730  29.200  35.832  1.00  0.00     0.002 A 
ATOM     94  C   UNL A   1      45.397  27.590  37.064  1.00  0.00     0.091 A 
ATOM     95  F   UNL A   1      43.070  27.389  36.573  1.00  0.00    -0.205 F 
ATOM     96  C   UNL A   1      46.635  28.193  36.791  1.00  0.00     0.022 A 
BRANCH  94  97
ATOM     97  S   UNL A   1      45.351  26.368  38.380  1.00  0.00     0.127 S 
ATOM     98  O   UNL A   1      44.780  25.212  37.693  1.00  0.00    -0.237 OA
ATOM     99  O   UNL A   1      46.766  26.234  38.730  1.00  0.00    -0.237 OA
ATOM    100  O   UNL A   1      44.522  26.943  39.431  1.00  0.00    -0.744 OA
ENDBRANCH  94  97
ENDBRANCH  67  90
ENDBRANCH  41  42
ENDBRANCH  34  36
ENDBRANCH  33  34
ENDBRANCH  32  33
ENDBRANCH  31  32
ENDBRANCH  30  31
ENDBRANCH  29  30
ENDBRANCH  28  29
ENDBRANCH   1  28
TORSDOF 28
ENDMDL
MODEL 2
REMARK VINA RESULT:      -9.2      1.254      2.306
REMARK SMILES CC[C@@](C)(Nc1c([N+](=O)[O-])c(C(C)C)nn1C)C(=O)OCCOCCOCCOCCOC(=O)c1ccc(-c2c3nc(c(-c4cccc(S(=O)(=O)[O-])c4F)c4ccc([nH]4)c(-c4cccc(S(=O)(=O)[O-])c4F)c4nc(c(-c5cccc(S(=O)(=O)[O-])c5F)c5ccc2[nH]5)C=C4)C=C3)cc1
REMARK SMILES IDX 26 1 25 2 24 3 23 4 22 5 21 6 20 7 18 8 19 9 3 10 4 11 2 12
REMARK SMILES IDX 1 13 5 14 6 16 7 17 16 18 11 19 15 20 17 21 8 22 9 23 10 24
REMARK SMILES IDX 12 25 13 26 14 27 27 28 28 29 29 30 30 31 31 32 32 33 33 34
REMARK SMILES IDX 34 35 35 36 36 37 97 38 37 39 96 40 38 41 39 42 40 43 90 44
REMARK SMILES IDX 41 45 95 46 89 47 91 48 42 49 94 50 88 51 87 52 43 54 75 55
REMARK SMILES IDX 55 56 74 57 56 58 59 59 73 60 92 61 57 62 58 63 72 65 93 66
REMARK SMILES IDX 60 67 44 68 45 69 53 70 46 71 48 72 54 73 47 74 49 75 50 76
REMARK SMILES IDX 51 77 52 78 76 79 77 80 85 81 78 82 80 83 86 84 79 85 81 86
REMARK SMILES IDX 82 87 83 88 84 89 61 90 62 91 70 92 63 93 65 94 71 95 64 96
REMARK SMILES IDX 66 97 67 98 68 99 69 100
REMARK H PARENT 5 15 91 53 59 64
REMARK Flexibility Score: inf
ROOT
ATOM      1  O   UNL A   1      31.212  28.338  23.625  1.00  0.00    -0.377 OA
ENDROOT
BRANCH   1   2
ATOM      2  C   UNL A   1      32.163  27.417  23.126  1.00  0.00     0.188 C 
BRANCH   2   3
ATOM      3  C   UNL A   1      31.831  26.588  21.882  1.00  0.00     0.188 C 
BRANCH   3   4
ATOM      4  O   UNL A   1      32.395  25.286  21.848  1.00  0.00    -0.376 OA
BRANCH   4   5
ATOM      5  C   UNL A   1      33.588  25.121  22.609  1.00  0.00     0.202 C 
BRANCH   5   6
ATOM      6  C   UNL A   1      33.966  23.675  22.977  1.00  0.00     0.261 C 
BRANCH   6   7
ATOM      7  O   UNL A   1      34.870  23.515  24.091  1.00  0.00    -0.462 OA
BRANCH   7   8
ATOM      8  C   UNL A   1      35.939  22.721  23.898  1.00  0.00     0.331 C 
ATOM      9  O   UNL A   1      36.563  22.725  22.834  1.00  0.00    -0.249 OA
BRANCH   8  10
ATOM     10  C   UNL A   1      36.354  21.822  25.099  1.00  0.00     0.134 C 
ATOM     11  C   UNL A   1      37.282  20.760  24.441  1.00  0.00     0.047 C 
BRANCH  10  12
ATOM     12  C   UNL A   1      37.183  22.624  26.151  1.00  0.00     0.037 C 
ATOM     13  C   UNL A   1      37.983  23.822  25.645  1.00  0.00     0.007 C 
ENDBRANCH  10  12
BRANCH  10  14
ATOM     14  N   UNL A   1      35.361  20.974  25.849  1.00  0.00    -0.349 N 
ATOM     15  H   UNL A   1      35.686  20.064  26.039  1.00  0.00     0.163 HD
BRANCH  14  16
ATOM     16  C   UNL A   1      34.091  21.215  26.322  1.00  0.00     0.205 A 
ATOM     17  C   UNL A   1      32.845  21.044  25.700  1.00  0.00     0.334 A 
ATOM     18  N   UNL A   1      33.815  22.109  27.344  1.00  0.00    -0.246 N 
ATOM     19  C   UNL A   1      31.939  21.950  26.329  1.00  0.00     0.145 A 
ATOM     20  N   UNL A   1      32.521  22.512  27.394  1.00  0.00    -0.169 NA
ATOM     21  C   UNL A   1      34.751  22.835  28.172  1.00  0.00     0.176 C 
BRANCH  17  22
ATOM     22  N   UNL A   1      32.574  20.241  24.545  1.00  0.00     0.068 N 
ATOM     23  O   UNL A   1      32.569  20.811  23.445  1.00  0.00    -0.258 OA
ATOM     24  O   UNL A   1      32.351  19.034  24.717  1.00  0.00    -0.258 OA
ENDBRANCH  17  22
BRANCH  19  25
ATOM     25  C   UNL A   1      30.579  22.450  25.854  1.00  0.00     0.041 C 
ATOM     26  C   UNL A   1      29.613  22.849  26.965  1.00  0.00     0.014 C 
ATOM     27  C   UNL A   1      30.687  23.601  24.837  1.00  0.00     0.014 C 
ENDBRANCH  19  25
ENDBRANCH  14  16
ENDBRANCH  10  14
ENDBRANCH   8  10
ENDBRANCH   7   8
ENDBRANCH   6   7
ENDBRANCH   5   6
ENDBRANCH   4   5
ENDBRANCH   3   4
ENDBRANCH   2   3
ENDBRANCH   1   2
BRANCH   1  28
ATOM     28  C   UNL A   1      31.214  28.671  25.003  1.00  0.00     0.188 C 
BRANCH  28  29
ATOM     29  C   UNL A   1      31.646  30.089  25.395  1.00  0.00     0.188 C 
BRANCH  29  30
ATOM     30  O   UNL A   1      32.896  30.143  26.063  1.00  0.00    -0.376 OA
BRANCH  30  31
ATOM     31  C   UNL A   1      32.934  30.862  27.285  1.00  0.00     0.202 C 
BRANCH  31  32
ATOM     32  C   UNL A   1      33.288  32.354  27.282  1.00  0.00     0.261 C 
BRANCH  32  33
ATOM     33  O   UNL A   1      32.574  33.227  28.170  1.00  0.00    -0.460 OA
BRANCH  33  34
ATOM     34  C   UNL A   1      33.165  34.358  28.593  1.00  0.00     0.338 C 
ATOM     35  O   UNL A   1      32.853  35.502  28.283  1.00  0.00    -0.246 OA
BRANCH  34  36
ATOM     36  C   UNL A   1      34.282  34.010  29.502  1.00  0.00     0.060 A 
ATOM     37  C   UNL A   1      35.589  34.414  29.215  1.00  0.00     0.016 A 
ATOM     38  C   UNL A   1      34.037  33.207  30.619  1.00  0.00     0.016 A 
ATOM     39  C   UNL A   1      36.652  33.969  30.017  1.00  0.00     0.010 A 
ATOM     40  C   UNL A   1      35.093  32.796  31.440  1.00  0.00     0.010 A 
ATOM     41  C   UNL A   1      36.418  33.123  31.114  1.00  0.00    -0.014 A 
BRANCH  41  42
ATOM     42  C   UNL A   1      37.549  32.469  31.837  1.00  0.00     0.031 A 
ATOM     43  C   UNL A   1      38.280  31.317  31.187  1.00  0.00     0.074 A 
ATOM     44  C   UNL A   1      37.912  32.870  33.072  1.00  0.00     0.049 A 
ATOM     45  N   UNL A   1      39.297  30.621  31.632  1.00  0.00    -0.248 NA
ATOM     46  C   UNL A   1      37.791  30.875  29.871  1.00  0.00     0.031 C 
ATOM     47  C   UNL A   1      37.249  33.916  33.849  1.00  0.00     0.029 A 
ATOM     48  N   UNL A   1      38.916  32.425  33.898  1.00  0.00    -0.354 N 
ATOM     49  C   UNL A   1      39.542  29.643  30.672  1.00  0.00     0.074 A 
ATOM     50  C   UNL A   1      38.547  29.813  29.636  1.00  0.00     0.031 C 
ATOM     51  C   UNL A   1      37.862  34.031  35.040  1.00  0.00     0.029 A 
ATOM     52  C   UNL A   1      38.954  33.060  35.119  1.00  0.00     0.049 A 
ATOM     53  H   UNL A   1      39.550  31.717  33.641  1.00  0.00     0.167 HD
ATOM     54  C   UNL A   1      40.523  28.708  30.632  1.00  0.00     0.034 A 
ATOM     55  C   UNL A   1      39.771  32.883  36.177  1.00  0.00     0.034 A 
ATOM     56  C   UNL A   1      41.547  28.570  31.633  1.00  0.00     0.049 A 
ATOM     57  C   UNL A   1      40.893  31.879  36.085  1.00  0.00     0.074 A 
ATOM     58  C   UNL A   1      42.638  27.720  31.637  1.00  0.00     0.029 A 
ATOM     59  N   UNL A   1      41.604  29.300  32.810  1.00  0.00    -0.354 N 
ATOM     60  N   UNL A   1      41.210  31.082  35.094  1.00  0.00    -0.248 NA
ATOM     61  C   UNL A   1      41.798  31.781  37.242  1.00  0.00     0.031 C 
ATOM     62  C   UNL A   1      43.346  27.921  32.827  1.00  0.00     0.029 A 
ATOM     63  C   UNL A   1      42.708  28.915  33.552  1.00  0.00     0.049 A 
ATOM     64  H   UNL A   1      40.955  29.988  33.080  1.00  0.00     0.167 HD
ATOM     65  C   UNL A   1      42.365  30.416  35.491  1.00  0.00     0.074 A 
ATOM     66  C   UNL A   1      42.707  30.919  36.805  1.00  0.00     0.031 C 
ATOM     67  C   UNL A   1      43.071  29.464  34.833  1.00  0.00     0.034 A 
BRANCH  54  68
ATOM     68  C   UNL A   1      40.577  27.793  29.433  1.00  0.00     0.023 A 
ATOM     69  C   UNL A   1      39.706  26.685  29.365  1.00  0.00     0.012 A 
ATOM     70  C   UNL A   1      41.434  28.063  28.347  1.00  0.00     0.148 A 
ATOM     71  C   UNL A   1      39.715  25.839  28.257  1.00  0.00     0.002 A 
ATOM     72  C   UNL A   1      41.404  27.240  27.225  1.00  0.00     0.091 A 
ATOM     73  F   UNL A   1      42.265  29.110  28.432  1.00  0.00    -0.205 F 
ATOM     74  C   UNL A   1      40.555  26.121  27.185  1.00  0.00     0.022 A 
BRANCH  72  75
ATOM     75  S   UNL A   1      42.386  27.564  25.756  1.00  0.00     0.127 S 
ATOM     76  O   UNL A   1      41.938  28.907  25.391  1.00  0.00    -0.237 OA
ATOM     77  O   UNL A   1      43.751  27.500  26.279  1.00  0.00    -0.237 OA
ATOM     78  O   UNL A   1      42.049  26.513  24.807  1.00  0.00    -0.744 OA
ENDBRANCH  72  75
ENDBRANCH  54  68
BRANCH  55  79
ATOM     79  C   UNL A   1      39.611  33.736  37.390  1.00  0.00     0.023 A 
ATOM     80  C   UNL A   1      40.162  35.034  37.404  1.00  0.00     0.012 A 
ATOM     81  C   UNL A   1      38.892  33.286  38.514  1.00  0.00     0.148 A 
ATOM     82  C   UNL A   1      40.024  35.855  38.524  1.00  0.00     0.002 A 
ATOM     83  C   UNL A   1      38.710  34.130  39.605  1.00  0.00     0.091 A 
ATOM     84  F   UNL A   1      38.391  32.043  38.492  1.00  0.00    -0.205 F 
ATOM     85  C   UNL A   1      39.289  35.410  39.618  1.00  0.00     0.022 A 
BRANCH  83  86
ATOM     86  S   UNL A   1      37.658  33.694  40.994  1.00  0.00     0.127 S 
ATOM     87  O   UNL A   1      36.701  32.783  40.372  1.00  0.00    -0.237 OA
ATOM     88  O   UNL A   1      38.611  33.059  41.907  1.00  0.00    -0.237 OA
ATOM     89  O   UNL A   1      37.113  34.953  41.484  1.00  0.00    -0.744 OA
ENDBRANCH  83  86
ENDBRANCH  55  79
BRANCH  67  90
ATOM     90  C   UNL A   1      44.309  28.919  35.497  1.00  0.00     0.023 A 
ATOM     91  C   UNL A   1      45.557  29.530  35.262  1.00  0.00     0.012 A 
ATOM     92  C   UNL A   1      44.224  27.855  36.417  1.00  0.00     0.148 A 
ATOM     93  C   UNL A   1      46.705  29.072  35.907  1.00  0.00     0.002 A 
ATOM     94  C   UNL A   1      45.364  27.434  37.093  1.00  0.00     0.091 A 
ATOM     95  F   UNL A   1      43.032  27.274  36.616  1.00  0.00    -0.205 F 
ATOM     96  C   UNL A   1      46.607  28.032  36.831  1.00  0.00     0.022 A 
BRANCH  94  97
ATOM     97  S   UNL A   1      45.316  26.167  38.366  1.00  0.00     0.127 S 
ATOM     98  O   UNL A   1      46.721  26.086  38.759  1.00  0.00    -0.237 OA
ATOM     99  O   UNL A   1      44.435  26.767  39.369  1.00  0.00    -0.237 OA
ATOM    100  O   UNL A   1      44.775  24.975  37.725  1.00  0.00    -0.744 OA
ENDBRANCH  94  97
ENDBRANCH  67  90
ENDBRANCH  41  42
ENDBRANCH  34  36
ENDBRANCH  33  34
ENDBRANCH  32  33
ENDBRANCH  31  32
ENDBRANCH  30  31
ENDBRANCH  29  30
ENDBRANCH  28  29
ENDBRANCH   1  28
TORSDOF 28
ENDMDL
MODEL 3
REMARK VINA RESULT:      -9.0      2.510      7.914
REMARK SMILES CC[C@@](C)(Nc1c([N+](=O)[O-])c(C(C)C)nn1C)C(=O)OCCOCCOCCOCCOC(=O)c1ccc(-c2c3nc(c(-c4cccc(S(=O)(=O)[O-])c4F)c4ccc([nH]4)c(-c4cccc(S(=O)(=O)[O-])c4F)c4nc(c(-c5cccc(S(=O)(=O)[O-])c5F)c5ccc2[nH]5)C=C4)C=C3)cc1
REMARK SMILES IDX 26 1 25 2 24 3 23 4 22 5 21 6 20 7 18 8 19 9 3 10 4 11 2 12
REMARK SMILES IDX 1 13 5 14 6 16 7 17 16 18 11 19 15 20 17 21 8 22 9 23 10 24
REMARK SMILES IDX 12 25 13 26 14 27 27 28 28 29 29 30 30 31 31 32 32 33 33 34
REMARK SMILES IDX 34 35 35 36 36 37 97 38 37 39 96 40 38 41 39 42 40 43 90 44
REMARK SMILES IDX 41 45 95 46 89 47 91 48 42 49 94 50 88 51 87 52 43 54 75 55
REMARK SMILES IDX 55 56 74 57 56 58 59 59 73 60 92 61 57 62 58 63 72 65 93 66
REMARK SMILES IDX 60 67 44 68 45 69 53 70 46 71 48 72 54 73 47 74 49 75 50 76
REMARK SMILES IDX 51 77 52 78 76 79 77 80 85 81 78 82 80 83 86 84 79 85 81 86
REMARK SMILES IDX 82 87 83 88 84 89 61 90 62 91 70 92 63 93 65 94 71 95 64 96
REMARK SMILES IDX 66 97 67 98 68 99 69 100
REMARK H PARENT 5 15 91 53 59 64
REMARK Flexibility Score: inf
ROOT
ATOM      1  O   UNL A   1      31.810  30.981  26.247  1.00  0.00    -0.377 OA
ENDROOT
BRANCH   1   2
ATOM      2  C   UNL A   1      32.410  30.237  27.290  1.00  0.00     0.188 C 
BRANCH   2   3
ATOM      3  C   UNL A   1      33.937  30.165  27.385  1.00  0.00     0.188 C 
BRANCH   3   4
ATOM      4  O   UNL A   1      34.493  28.861  27.304  1.00  0.00    -0.376 OA
BRANCH   4   5
ATOM      5  C   UNL A   1      34.531  28.298  25.995  1.00  0.00     0.202 C 
BRANCH   5   6
ATOM      6  C   UNL A   1      33.549  27.145  25.722  1.00  0.00     0.261 C 
BRANCH   6   7
ATOM      7  O   UNL A   1      32.815  27.212  24.481  1.00  0.00    -0.462 OA
BRANCH   7   8
ATOM      8  C   UNL A   1      31.476  27.108  24.560  1.00  0.00     0.331 C 
ATOM      9  O   UNL A   1      30.824  27.765  25.376  1.00  0.00    -0.249 OA
BRANCH   8  10
ATOM     10  C   UNL A   1      30.800  26.138  23.548  1.00  0.00     0.134 C 
ATOM     11  C   UNL A   1      29.282  26.341  23.825  1.00  0.00     0.047 C 
BRANCH  10  12
ATOM     12  C   UNL A   1      31.097  26.557  22.073  1.00  0.00     0.037 C 
ATOM     13  C   UNL A   1      32.248  25.848  21.363  1.00  0.00     0.007 C 
ENDBRANCH  10  12
BRANCH  10  14
ATOM     14  N   UNL A   1      30.956  24.643  23.640  1.00  0.00    -0.349 N 
ATOM     15  H   UNL A   1      30.374  24.148  23.019  1.00  0.00     0.163 HD
BRANCH  14  16
ATOM     16  C   UNL A   1      31.748  23.830  24.419  1.00  0.00     0.205 A 
ATOM     17  C   UNL A   1      32.687  22.856  24.049  1.00  0.00     0.334 A 
ATOM     18  N   UNL A   1      31.438  23.492  25.727  1.00  0.00    -0.246 N 
ATOM     19  C   UNL A   1      32.777  21.932  25.133  1.00  0.00     0.145 A 
ATOM     20  N   UNL A   1      32.089  22.393  26.183  1.00  0.00    -0.169 NA
ATOM     21  C   UNL A   1      30.359  23.992  26.547  1.00  0.00     0.176 C 
BRANCH  17  22
ATOM     22  N   UNL A   1      33.309  22.719  22.766  1.00  0.00     0.068 N 
ATOM     23  O   UNL A   1      34.417  23.251  22.611  1.00  0.00    -0.258 OA
ATOM     24  O   UNL A   1      32.699  22.089  21.890  1.00  0.00    -0.258 OA
ENDBRANCH  17  22
BRANCH  19  25
ATOM     25  C   UNL A   1      33.350  20.519  25.160  1.00  0.00     0.041 C 
ATOM     26  C   UNL A   1      32.639  19.517  24.256  1.00  0.00     0.014 C 
ATOM     27  C   UNL A   1      34.861  20.482  24.870  1.00  0.00     0.014 C 
ENDBRANCH  19  25
ENDBRANCH  14  16
ENDBRANCH  10  14
ENDBRANCH   8  10
ENDBRANCH   7   8
ENDBRANCH   6   7
ENDBRANCH   5   6
ENDBRANCH   4   5
ENDBRANCH   3   4
ENDBRANCH   2   3
ENDBRANCH   1   2
BRANCH   1  28
ATOM     28  C   UNL A   1      31.241  32.248  26.526  1.00  0.00     0.188 C 
BRANCH  28  29
ATOM     29  C   UNL A   1      32.197  33.414  26.808  1.00  0.00     0.188 C 
BRANCH  29  30
ATOM     30  O   UNL A   1      32.195  33.843  28.159  1.00  0.00    -0.376 OA
BRANCH  30  31
ATOM     31  C   UNL A   1      33.215  34.753  28.540  1.00  0.00     0.202 C 
BRANCH  31  32
ATOM     32  C   UNL A   1      32.870  35.965  29.412  1.00  0.00     0.261 C 
BRANCH  32  33
ATOM     33  O   UNL A   1      33.516  36.094  30.687  1.00  0.00    -0.460 OA
BRANCH  33  34
ATOM     34  C   UNL A   1      33.283  35.172  31.637  1.00  0.00     0.338 C 
ATOM     35  O   UNL A   1      32.278  35.080  32.332  1.00  0.00    -0.246 OA
BRANCH  34  36
ATOM     36  C   UNL A   1      34.451  34.264  31.727  1.00  0.00     0.060 A 
ATOM     37  C   UNL A   1      34.360  33.050  32.413  1.00  0.00     0.016 A 
ATOM     38  C   UNL A   1      35.676  34.660  31.185  1.00  0.00     0.016 A 
ATOM     39  C   UNL A   1      35.508  32.263  32.600  1.00  0.00     0.010 A 
ATOM     40  C   UNL A   1      36.811  33.856  31.337  1.00  0.00     0.010 A 
ATOM     41  C   UNL A   1      36.752  32.678  32.096  1.00  0.00    -0.014 A 
BRANCH  41  42
ATOM     42  C   UNL A   1      38.011  31.968  32.472  1.00  0.00     0.031 A 
ATOM     43  C   UNL A   1      38.723  32.343  33.752  1.00  0.00     0.074 A 
ATOM     44  C   UNL A   1      38.539  31.016  31.677  1.00  0.00     0.049 A 
ATOM     45  N   UNL A   1      39.815  31.843  34.273  1.00  0.00    -0.248 NA
ATOM     46  C   UNL A   1      38.140  33.440  34.542  1.00  0.00     0.031 C 
ATOM     47  C   UNL A   1      38.002  30.605  30.381  1.00  0.00     0.029 A 
ATOM     48  N   UNL A   1      39.661  30.239  31.835  1.00  0.00    -0.354 N 
ATOM     49  C   UNL A   1      40.068  32.585  35.423  1.00  0.00     0.074 A 
ATOM     50  C   UNL A   1      39.033  33.592  35.508  1.00  0.00     0.031 C 
ATOM     51  C   UNL A   1      38.796  29.654  29.860  1.00  0.00     0.029 A 
ATOM     52  C   UNL A   1      39.905  29.394  30.777  1.00  0.00     0.049 A 
ATOM     53  H   UNL A   1      40.238  30.283  32.632  1.00  0.00     0.167 HD
ATOM     54  C   UNL A   1      41.048  32.428  36.346  1.00  0.00     0.034 A 
ATOM     55  C   UNL A   1      40.904  28.511  30.569  1.00  0.00     0.034 A 
ATOM     56  C   UNL A   1      42.047  31.395  36.295  1.00  0.00     0.049 A 
ATOM     57  C   UNL A   1      41.949  28.311  31.638  1.00  0.00     0.074 A 
ATOM     58  C   UNL A   1      43.021  31.092  37.228  1.00  0.00     0.029 A 
ATOM     59  N   UNL A   1      42.200  30.496  35.250  1.00  0.00    -0.354 N 
ATOM     60  N   UNL A   1      42.069  28.908  32.799  1.00  0.00    -0.248 NA
ATOM     61  C   UNL A   1      42.973  27.284  31.388  1.00  0.00     0.031 C 
ATOM     62  C   UNL A   1      43.779  30.022  36.739  1.00  0.00     0.029 A 
ATOM     63  C   UNL A   1      43.259  29.643  35.513  1.00  0.00     0.049 A 
ATOM     64  H   UNL A   1      41.641  30.470  34.441  1.00  0.00     0.167 HD
ATOM     65  C   UNL A   1      43.153  28.308  33.431  1.00  0.00     0.074 A 
ATOM     66  C   UNL A   1      43.644  27.283  32.532  1.00  0.00     0.031 C 
ATOM     67  C   UNL A   1      43.702  28.589  34.638  1.00  0.00     0.034 A 
BRANCH  54  68
ATOM     68  C   UNL A   1      41.054  33.362  37.533  1.00  0.00     0.023 A 
ATOM     69  C   UNL A   1      40.341  33.008  38.698  1.00  0.00     0.012 A 
ATOM     70  C   UNL A   1      41.814  34.548  37.524  1.00  0.00     0.148 A 
ATOM     71  C   UNL A   1      40.351  33.838  39.818  1.00  0.00     0.002 A 
ATOM     72  C   UNL A   1      41.856  35.348  38.662  1.00  0.00     0.091 A 
ATOM     73  F   UNL A   1      42.474  34.878  36.405  1.00  0.00    -0.205 F 
ATOM     74  C   UNL A   1      41.115  35.001  39.805  1.00  0.00     0.022 A 
BRANCH  72  75
ATOM     75  S   UNL A   1      42.876  36.823  38.776  1.00  0.00     0.127 S 
ATOM     76  O   UNL A   1      43.019  37.193  37.369  1.00  0.00    -0.237 OA
ATOM     77  O   UNL A   1      42.027  37.724  39.558  1.00  0.00    -0.237 OA
ATOM     78  O   UNL A   1      44.102  36.413  39.444  1.00  0.00    -0.744 OA
ENDBRANCH  72  75
ENDBRANCH  54  68
BRANCH  55  79
ATOM     79  C   UNL A   1      40.920  27.686  29.326  1.00  0.00     0.023 A 
ATOM     80  C   UNL A   1      40.035  26.596  29.206  1.00  0.00     0.012 A 
ATOM     81  C   UNL A   1      41.779  27.992  28.253  1.00  0.00     0.148 A 
ATOM     82  C   UNL A   1      40.026  25.809  28.053  1.00  0.00     0.002 A 
ATOM     83  C   UNL A   1      41.725  27.239  27.085  1.00  0.00     0.091 A 
ATOM     84  F   UNL A   1      42.628  29.020  28.391  1.00  0.00    -0.205 F 
ATOM     85  C   UNL A   1      40.860  26.137  26.989  1.00  0.00     0.022 A 
BRANCH  83  86
ATOM     86  S   UNL A   1      42.658  27.676  25.614  1.00  0.00     0.127 S 
ATOM     87  O   UNL A   1      42.111  28.991  25.290  1.00  0.00    -0.237 OA
ATOM     88  O   UNL A   1      44.032  27.688  26.120  1.00  0.00    -0.237 OA
ATOM     89  O   UNL A   1      42.388  26.619  24.649  1.00  0.00    -0.744 OA
ENDBRANCH  83  86
ENDBRANCH  55  79
BRANCH  67  90
ATOM     90  C   UNL A   1      44.877  27.759  35.089  1.00  0.00     0.023 A 
ATOM     91  C   UNL A   1      44.657  26.560  35.796  1.00  0.00     0.012 A 
ATOM     92  C   UNL A   1      46.193  28.123  34.739  1.00  0.00     0.148 A 
ATOM     93  C   UNL A   1      45.729  25.754  36.177  1.00  0.00     0.002 A 
ATOM     94  C   UNL A   1      47.253  27.291  35.080  1.00  0.00     0.091 A 
ATOM     95  F   UNL A   1      46.384  29.275  34.080  1.00  0.00    -0.205 F 
ATOM     96  C   UNL A   1      47.025  26.113  35.809  1.00  0.00     0.022 A 
BRANCH  94  97
ATOM     97  S   UNL A   1      48.943  27.625  34.568  1.00  0.00     0.127 S 
ATOM     98  O   UNL A   1      48.826  27.584  33.112  1.00  0.00    -0.237 OA
ATOM     99  O   UNL A   1      49.179  28.959  35.124  1.00  0.00    -0.237 OA
ATOM    100  O   UNL A   1      49.756  26.572  35.161  1.00  0.00    -0.744 OA
ENDBRANCH  94  97
ENDBRANCH  67  90
ENDBRANCH  41  42
ENDBRANCH  34  36
ENDBRANCH  33  34
ENDBRANCH  32  33
ENDBRANCH  31  32
ENDBRANCH  30  31
ENDBRANCH  29  30
ENDBRANCH  28  29
ENDBRANCH   1  28
TORSDOF 28
ENDMDL
