MODEL 1
REMARK VINA RESULT:      -8.0      0.000      0.000
REMARK SMILES CC(C)CCOc1ccc(/C=C2\SC(=S)N(CC(=O)OCCOCCOCCOCCOC(=O)c3ccc(-c4c5nc(c(-c6cccc(S(=O)(=O)[O-])c6F)c6ccc([nH]6)c(-c6cccc(S(=O)(=O)[O-])c6F)c6nc(c(-c7cccc(S(=O)(=O)[O-])c7F)c7ccc4[nH]7)C=C6)C=C5)cc3)C2=O)cc1
REMARK SMILES IDX 24 1 23 2 22 3 21 4 20 5 18 6 19 7 17 8 16 9 11 10 12 11
REMARK SMILES IDX 13 12 98 13 14 14 99 15 15 16 10 17 7 18 8 19 101 20 9 21
REMARK SMILES IDX 100 22 6 23 5 24 4 25 2 26 1 27 3 28 25 29 26 30 27 31 28 32
REMARK SMILES IDX 29 33 30 34 31 35 32 36 33 37 34 38 35 39 36 40 97 41 37 42
REMARK SMILES IDX 96 43 38 44 39 45 40 46 90 47 41 48 95 49 89 50 91 51 42 52
REMARK SMILES IDX 94 53 88 54 87 55 43 57 75 58 55 59 74 60 56 61 59 62 73 63
REMARK SMILES IDX 92 64 57 65 58 66 72 68 93 69 60 70 44 71 45 72 53 73 46 74
REMARK SMILES IDX 48 75 54 76 47 77 49 78 50 79 51 80 52 81 76 82 77 83 85 84
REMARK SMILES IDX 78 85 80 86 86 87 79 88 81 89 82 90 83 91 84 92 61 93 62 94
REMARK SMILES IDX 70 95 63 96 65 97 71 98 64 99 66 100 67 101 68 102 69 103
REMARK H PARENT 91 56 59 67
REMARK Flexibility Score: inf
ROOT
ATOM      1  C   UNL A   1      34.691  30.602  27.552  1.00  0.00     0.188 C 
ENDROOT
BRANCH   1   2
ATOM      2  O   UNL A   1      33.281  30.400  27.581  1.00  0.00    -0.376 OA
BRANCH   2   3
ATOM      3  C   UNL A   1      32.675  29.483  26.681  1.00  0.00     0.202 C 
BRANCH   3   4
ATOM      4  C   UNL A   1      31.894  30.008  25.457  1.00  0.00     0.261 C 
BRANCH   4   5
ATOM      5  O   UNL A   1      30.796  29.197  24.983  1.00  0.00    -0.462 OA
BRANCH   5   6
ATOM      6  C   UNL A   1      30.256  29.526  23.783  1.00  0.00     0.326 C 
ATOM      7  O   UNL A   1      29.757  30.617  23.526  1.00  0.00    -0.250 OA
BRANCH   6   8
ATOM      8  C   UNL A   1      30.386  28.433  22.706  1.00  0.00     0.250 C 
BRANCH   8   9
ATOM      9  N   UNL A   1      31.101  27.181  23.000  1.00  0.00    -0.282 N 
ATOM     10  C   UNL A   1      30.888  23.690  24.005  1.00  0.00     0.029 C 
ATOM     11  C   UNL A   1      31.327  24.912  23.653  1.00  0.00     0.081 C 
ATOM     12  S   UNL A   1      32.937  25.404  23.308  1.00  0.00    -0.054 SA
ATOM     13  C   UNL A   1      30.413  26.081  23.492  1.00  0.00     0.266 C 
ATOM     14  C   UNL A   1      32.469  27.046  22.902  1.00  0.00     0.148 C 
ATOM     15  O   UNL A   1      29.220  26.044  23.772  1.00  0.00    -0.268 OA
ATOM     16  S   UNL A   1      33.581  28.223  22.516  1.00  0.00    -0.052 S 
BRANCH  10  17
ATOM     17  C   UNL A   1      31.704  22.502  24.326  1.00  0.00    -0.024 A 
ATOM     18  C   UNL A   1      33.566  20.479  24.875  1.00  0.00     0.119 A 
ATOM     19  C   UNL A   1      32.963  21.159  25.929  1.00  0.00     0.047 A 
ATOM     20  C   UNL A   1      33.162  20.710  23.567  1.00  0.00     0.047 A 
ATOM     21  C   UNL A   1      32.029  22.172  25.651  1.00  0.00     0.012 A 
ATOM     22  C   UNL A   1      32.288  21.757  23.293  1.00  0.00     0.012 A 
BRANCH  18  23
ATOM     23  O   UNL A   1      34.575  19.582  25.083  1.00  0.00    -0.494 OA
BRANCH  23  24
ATOM     24  C   UNL A   1      35.879  20.174  24.916  1.00  0.00     0.230 C 
BRANCH  24  25
ATOM     25  C   UNL A   1      36.062  21.539  25.615  1.00  0.00     0.044 C 
BRANCH  25  26
ATOM     26  C   UNL A   1      36.811  22.605  24.779  1.00  0.00    -0.014 C 
ATOM     27  C   UNL A   1      35.890  23.349  23.814  1.00  0.00     0.007 C 
ATOM     28  C   UNL A   1      37.531  23.600  25.696  1.00  0.00     0.007 C 
ENDBRANCH  25  26
ENDBRANCH  24  25
ENDBRANCH  23  24
ENDBRANCH  18  23
ENDBRANCH  10  17
ENDBRANCH   8   9
ENDBRANCH   6   8
ENDBRANCH   5   6
ENDBRANCH   4   5
ENDBRANCH   3   4
ENDBRANCH   2   3
ENDBRANCH   1   2
BRANCH   1  29
ATOM     29  C   UNL A   1      35.655  29.405  27.504  1.00  0.00     0.188 C 
BRANCH  29  30
ATOM     30  O   UNL A   1      36.593  29.334  28.552  1.00  0.00    -0.377 OA
BRANCH  30  31
ATOM     31  C   UNL A   1      37.908  29.778  28.285  1.00  0.00     0.188 C 
BRANCH  31  32
ATOM     32  C   UNL A   1      38.901  28.770  27.684  1.00  0.00     0.188 C 
BRANCH  32  33
ATOM     33  O   UNL A   1      39.110  27.614  28.489  1.00  0.00    -0.376 OA
BRANCH  33  34
ATOM     34  C   UNL A   1      39.079  26.337  27.876  1.00  0.00     0.202 C 
BRANCH  34  35
ATOM     35  C   UNL A   1      40.420  25.648  27.576  1.00  0.00     0.261 C 
BRANCH  35  36
ATOM     36  O   UNL A   1      40.774  25.502  26.197  1.00  0.00    -0.460 OA
BRANCH  36  37
ATOM     37  C   UNL A   1      42.059  25.742  25.859  1.00  0.00     0.338 C 
ATOM     38  O   UNL A   1      42.744  25.085  25.091  1.00  0.00    -0.246 OA
BRANCH  37  39
ATOM     39  C   UNL A   1      42.443  27.055  26.425  1.00  0.00     0.060 A 
ATOM     40  C   UNL A   1      43.285  27.081  27.544  1.00  0.00     0.016 A 
ATOM     41  C   UNL A   1      42.009  28.247  25.838  1.00  0.00     0.016 A 
ATOM     42  C   UNL A   1      43.675  28.301  28.097  1.00  0.00     0.010 A 
ATOM     43  C   UNL A   1      42.377  29.469  26.412  1.00  0.00     0.010 A 
ATOM     44  C   UNL A   1      43.187  29.500  27.561  1.00  0.00    -0.014 A 
BRANCH  44  45
ATOM     45  C   UNL A   1      43.361  30.763  28.319  1.00  0.00     0.031 A 
ATOM     46  C   UNL A   1      44.526  31.646  27.965  1.00  0.00     0.074 A 
ATOM     47  C   UNL A   1      42.510  31.123  29.295  1.00  0.00     0.049 A 
ATOM     48  N   UNL A   1      44.901  32.779  28.497  1.00  0.00    -0.248 NA
ATOM     49  C   UNL A   1      45.382  31.189  26.856  1.00  0.00     0.031 C 
ATOM     50  C   UNL A   1      41.338  30.359  29.721  1.00  0.00     0.029 A 
ATOM     51  N   UNL A   1      42.519  32.216  30.125  1.00  0.00    -0.354 N 
ATOM     52  C   UNL A   1      46.050  33.156  27.811  1.00  0.00     0.074 A 
ATOM     53  C   UNL A   1      46.314  32.128  26.829  1.00  0.00     0.031 C 
ATOM     54  C   UNL A   1      40.760  30.993  30.757  1.00  0.00     0.029 A 
ATOM     55  C   UNL A   1      41.534  32.189  31.084  1.00  0.00     0.049 A 
ATOM     56  H   UNL A   1      43.170  32.951  30.041  1.00  0.00     0.167 HD
ATOM     57  C   UNL A   1      46.813  34.260  27.979  1.00  0.00     0.034 A 
ATOM     58  C   UNL A   1      41.306  33.019  32.121  1.00  0.00     0.034 A 
ATOM     59  C   UNL A   1      46.548  35.280  28.956  1.00  0.00     0.049 A 
ATOM     60  C   UNL A   1      42.197  34.221  32.315  1.00  0.00     0.074 A 
ATOM     61  C   UNL A   1      47.237  36.458  29.177  1.00  0.00     0.029 A 
ATOM     62  N   UNL A   1      45.526  35.231  29.891  1.00  0.00    -0.354 N 
ATOM     63  N   UNL A   1      43.209  34.626  31.586  1.00  0.00    -0.248 NA
ATOM     64  C   UNL A   1      41.897  35.096  33.459  1.00  0.00     0.031 C 
ATOM     65  C   UNL A   1      46.656  37.103  30.273  1.00  0.00     0.029 A 
ATOM     66  C   UNL A   1      45.577  36.349  30.706  1.00  0.00     0.049 A 
ATOM     67  H   UNL A   1      44.862  34.508  29.966  1.00  0.00     0.167 HD
ATOM     68  C   UNL A   1      43.640  35.821  32.158  1.00  0.00     0.074 A 
ATOM     69  C   UNL A   1      42.767  36.082  33.283  1.00  0.00     0.031 C 
ATOM     70  C   UNL A   1      44.670  36.622  31.791  1.00  0.00     0.034 A 
BRANCH  57  71
ATOM     71  C   UNL A   1      48.010  34.424  27.080  1.00  0.00     0.023 A 
ATOM     72  C   UNL A   1      47.883  35.123  25.863  1.00  0.00     0.012 A 
ATOM     73  C   UNL A   1      49.270  33.925  27.464  1.00  0.00     0.148 A 
ATOM     74  C   UNL A   1      48.985  35.294  25.025  1.00  0.00     0.002 A 
ATOM     75  C   UNL A   1      50.372  34.141  26.647  1.00  0.00     0.091 A 
ATOM     76  F   UNL A   1      49.363  33.242  28.614  1.00  0.00    -0.205 F 
ATOM     77  C   UNL A   1      50.230  34.812  25.422  1.00  0.00     0.022 A 
BRANCH  75  78
ATOM     78  S   UNL A   1      52.031  33.629  27.104  1.00  0.00     0.127 S 
ATOM     79  O   UNL A   1      51.896  32.174  27.130  1.00  0.00    -0.237 OA
ATOM     80  O   UNL A   1      52.829  34.148  25.993  1.00  0.00    -0.237 OA
ATOM     81  O   UNL A   1      52.305  34.253  28.392  1.00  0.00    -0.744 OA
ENDBRANCH  75  78
ENDBRANCH  57  71
BRANCH  58  82
ATOM     82  C   UNL A   1      40.174  32.757  33.057  1.00  0.00     0.023 A 
ATOM     83  C   UNL A   1      40.389  31.989  34.218  1.00  0.00     0.012 A 
ATOM     84  C   UNL A   1      38.884  33.261  32.799  1.00  0.00     0.148 A 
ATOM     85  C   UNL A   1      39.335  31.701  35.087  1.00  0.00     0.002 A 
ATOM     86  C   UNL A   1      37.851  33.018  33.696  1.00  0.00     0.091 A 
ATOM     87  F   UNL A   1      38.694  33.974  31.679  1.00  0.00    -0.205 F 
ATOM     88  C   UNL A   1      38.071  32.222  34.832  1.00  0.00     0.022 A 
BRANCH  86  89
ATOM     89  S   UNL A   1      36.220  33.745  33.513  1.00  0.00     0.127 S 
ATOM     90  O   UNL A   1      35.548  33.279  34.724  1.00  0.00    -0.237 OA
ATOM     91  O   UNL A   1      36.532  35.174  33.492  1.00  0.00    -0.237 OA
ATOM     92  O   UNL A   1      35.693  33.224  32.260  1.00  0.00    -0.744 OA
ENDBRANCH  86  89
ENDBRANCH  58  82
BRANCH  70  93
ATOM     93  C   UNL A   1      44.892  37.890  32.577  1.00  0.00     0.023 A 
ATOM     94  C   UNL A   1      44.229  39.077  32.207  1.00  0.00     0.012 A 
ATOM     95  C   UNL A   1      45.691  37.879  33.737  1.00  0.00     0.148 A 
ATOM     96  C   UNL A   1      44.386  40.240  32.960  1.00  0.00     0.002 A 
ATOM     97  C   UNL A   1      45.800  39.027  34.512  1.00  0.00     0.091 A 
ATOM     98  F   UNL A   1      46.325  36.744  34.066  1.00  0.00    -0.205 F 
ATOM     99  C   UNL A   1      45.159  40.213  34.118  1.00  0.00     0.022 A 
BRANCH  97 100
ATOM    100  S   UNL A   1      46.691  39.059  36.072  1.00  0.00     0.127 S 
ATOM    101  O   UNL A   1      46.095  37.927  36.779  1.00  0.00    -0.237 OA
ATOM    102  O   UNL A   1      48.074  38.850  35.642  1.00  0.00    -0.237 OA
ATOM    103  O   UNL A   1      46.430  40.366  36.660  1.00  0.00    -0.744 OA
ENDBRANCH  97 100
ENDBRANCH  70  93
ENDBRANCH  44  45
ENDBRANCH  37  39
ENDBRANCH  36  37
ENDBRANCH  35  36
ENDBRANCH  34  35
ENDBRANCH  33  34
ENDBRANCH  32  33
ENDBRANCH  31  32
ENDBRANCH  30  31
ENDBRANCH  29  30
ENDBRANCH   1  29
TORSDOF 29
ENDMDL
MODEL 2
REMARK VINA RESULT:      -7.8      2.098      2.757
REMARK SMILES CC(C)CCOc1ccc(/C=C2\SC(=S)N(CC(=O)OCCOCCOCCOCCOC(=O)c3ccc(-c4c5nc(c(-c6cccc(S(=O)(=O)[O-])c6F)c6ccc([nH]6)c(-c6cccc(S(=O)(=O)[O-])c6F)c6nc(c(-c7cccc(S(=O)(=O)[O-])c7F)c7ccc4[nH]7)C=C6)C=C5)cc3)C2=O)cc1
REMARK SMILES IDX 24 1 23 2 22 3 21 4 20 5 18 6 19 7 17 8 16 9 11 10 12 11
REMARK SMILES IDX 13 12 98 13 14 14 99 15 15 16 10 17 7 18 8 19 101 20 9 21
REMARK SMILES IDX 100 22 6 23 5 24 4 25 2 26 1 27 3 28 25 29 26 30 27 31 28 32
REMARK SMILES IDX 29 33 30 34 31 35 32 36 33 37 34 38 35 39 36 40 97 41 37 42
REMARK SMILES IDX 96 43 38 44 39 45 40 46 90 47 41 48 95 49 89 50 91 51 42 52
REMARK SMILES IDX 94 53 88 54 87 55 43 57 75 58 55 59 74 60 56 61 59 62 73 63
REMARK SMILES IDX 92 64 57 65 58 66 72 68 93 69 60 70 44 71 45 72 53 73 46 74
REMARK SMILES IDX 48 75 54 76 47 77 49 78 50 79 51 80 52 81 76 82 77 83 85 84
REMARK SMILES IDX 78 85 80 86 86 87 79 88 81 89 82 90 83 91 84 92 61 93 62 94
REMARK SMILES IDX 70 95 63 96 65 97 71 98 64 99 66 100 67 101 68 102 69 103
REMARK H PARENT 91 56 59 67
REMARK Flexibility Score: inf
ROOT
ATOM      1  C   UNL A   1      34.469  30.492  27.233  1.00  0.00     0.188 C 
ENDROOT
BRANCH   1   2
ATOM      2  O   UNL A   1      33.082  30.452  27.558  1.00  0.00    -0.376 OA
BRANCH   2   3
ATOM      3  C   UNL A   1      32.212  29.576  26.855  1.00  0.00     0.202 C 
BRANCH   3   4
ATOM      4  C   UNL A   1      31.874  29.851  25.374  1.00  0.00     0.261 C 
BRANCH   4   5
ATOM      5  O   UNL A   1      30.778  29.103  24.802  1.00  0.00    -0.462 OA
BRANCH   5   6
ATOM      6  C   UNL A   1      30.976  28.551  23.579  1.00  0.00     0.326 C 
ATOM      7  O   UNL A   1      31.323  29.182  22.585  1.00  0.00    -0.250 OA
BRANCH   6   8
ATOM      8  C   UNL A   1      30.809  27.022  23.537  1.00  0.00     0.250 C 
BRANCH   8   9
ATOM      9  N   UNL A   1      31.978  26.142  23.689  1.00  0.00    -0.282 N 
ATOM     10  C   UNL A   1      34.216  24.378  25.953  1.00  0.00     0.029 C 
ATOM     11  C   UNL A   1      33.624  24.901  24.865  1.00  0.00     0.081 C 
ATOM     12  S   UNL A   1      33.991  24.610  23.211  1.00  0.00    -0.054 SA
ATOM     13  C   UNL A   1      32.484  25.861  24.951  1.00  0.00     0.266 C 
ATOM     14  C   UNL A   1      32.689  25.630  22.625  1.00  0.00     0.148 C 
ATOM     15  O   UNL A   1      32.075  26.325  26.010  1.00  0.00    -0.268 OA
ATOM     16  S   UNL A   1      32.445  25.926  21.005  1.00  0.00    -0.052 S 
BRANCH  10  17
ATOM     17  C   UNL A   1      35.428  23.535  25.997  1.00  0.00    -0.024 A 
ATOM     18  C   UNL A   1      37.707  21.932  25.686  1.00  0.00     0.119 A 
ATOM     19  C   UNL A   1      37.855  23.299  25.908  1.00  0.00     0.047 A 
ATOM     20  C   UNL A   1      36.451  21.345  25.741  1.00  0.00     0.047 A 
ATOM     21  C   UNL A   1      36.712  24.100  26.064  1.00  0.00     0.012 A 
ATOM     22  C   UNL A   1      35.319  22.148  25.830  1.00  0.00     0.012 A 
BRANCH  18  23
ATOM     23  O   UNL A   1      38.775  21.133  25.394  1.00  0.00    -0.494 OA
BRANCH  23  24
ATOM     24  C   UNL A   1      40.004  21.628  25.965  1.00  0.00     0.230 C 
BRANCH  24  25
ATOM     25  C   UNL A   1      40.564  20.778  27.126  1.00  0.00     0.044 C 
BRANCH  25  26
ATOM     26  C   UNL A   1      42.083  20.490  27.053  1.00  0.00    -0.014 C 
ATOM     27  C   UNL A   1      42.432  19.452  25.989  1.00  0.00     0.007 C 
ATOM     28  C   UNL A   1      42.865  21.784  26.807  1.00  0.00     0.007 C 
ENDBRANCH  25  26
ENDBRANCH  24  25
ENDBRANCH  23  24
ENDBRANCH  18  23
ENDBRANCH  10  17
ENDBRANCH   8   9
ENDBRANCH   6   8
ENDBRANCH   5   6
ENDBRANCH   4   5
ENDBRANCH   3   4
ENDBRANCH   2   3
ENDBRANCH   1   2
BRANCH   1  29
ATOM     29  C   UNL A   1      35.394  29.317  27.590  1.00  0.00     0.188 C 
BRANCH  29  30
ATOM     30  O   UNL A   1      36.242  29.520  28.696  1.00  0.00    -0.377 OA
BRANCH  30  31
ATOM     31  C   UNL A   1      37.518  30.075  28.449  1.00  0.00     0.188 C 
BRANCH  31  32
ATOM     32  C   UNL A   1      38.570  29.187  27.765  1.00  0.00     0.188 C 
BRANCH  32  33
ATOM     33  O   UNL A   1      38.889  28.005  28.491  1.00  0.00    -0.376 OA
BRANCH  33  34
ATOM     34  C   UNL A   1      39.391  26.881  27.787  1.00  0.00     0.202 C 
BRANCH  34  35
ATOM     35  C   UNL A   1      40.915  26.685  27.734  1.00  0.00     0.261 C 
BRANCH  35  36
ATOM     36  O   UNL A   1      41.495  26.498  26.439  1.00  0.00    -0.460 OA
BRANCH  36  37
ATOM     37  C   UNL A   1      42.808  26.781  26.303  1.00  0.00     0.338 C 
ATOM     38  O   UNL A   1      43.622  26.151  25.646  1.00  0.00    -0.246 OA
BRANCH  37  39
ATOM     39  C   UNL A   1      43.059  28.099  26.926  1.00  0.00     0.060 A 
ATOM     40  C   UNL A   1      43.954  28.173  28.001  1.00  0.00     0.016 A 
ATOM     41  C   UNL A   1      42.448  29.257  26.434  1.00  0.00     0.016 A 
ATOM     42  C   UNL A   1      44.222  29.401  28.605  1.00  0.00     0.010 A 
ATOM     43  C   UNL A   1      42.695  30.483  27.060  1.00  0.00     0.010 A 
ATOM     44  C   UNL A   1      43.559  30.555  28.166  1.00  0.00    -0.014 A 
BRANCH  44  45
ATOM     45  C   UNL A   1      43.620  31.788  28.989  1.00  0.00     0.031 A 
ATOM     46  C   UNL A   1      44.637  32.834  28.623  1.00  0.00     0.074 A 
ATOM     47  C   UNL A   1      42.795  31.982  30.032  1.00  0.00     0.049 A 
ATOM     48  N   UNL A   1      44.899  33.977  29.200  1.00  0.00    -0.248 NA
ATOM     49  C   UNL A   1      45.472  32.552  27.442  1.00  0.00     0.031 C 
ATOM     50  C   UNL A   1      41.760  31.050  30.477  1.00  0.00     0.029 A 
ATOM     51  N   UNL A   1      42.718  33.022  30.925  1.00  0.00    -0.354 N 
ATOM     52  C   UNL A   1      45.943  34.536  28.474  1.00  0.00     0.074 A 
ATOM     53  C   UNL A   1      46.272  33.606  27.418  1.00  0.00     0.031 C 
ATOM     54  C   UNL A   1      41.173  31.547  31.581  1.00  0.00     0.029 A 
ATOM     55  C   UNL A   1      41.809  32.815  31.936  1.00  0.00     0.049 A 
ATOM     56  H   UNL A   1      43.263  33.839  30.849  1.00  0.00     0.167 HD
ATOM     57  C   UNL A   1      46.568  35.721  28.665  1.00  0.00     0.034 A 
ATOM     58  C   UNL A   1      41.543  33.552  33.033  1.00  0.00     0.034 A 
ATOM     59  C   UNL A   1      46.239  36.644  29.716  1.00  0.00     0.049 A 
ATOM     60  C   UNL A   1      42.285  34.849  33.248  1.00  0.00     0.074 A 
ATOM     61  C   UNL A   1      46.785  37.889  29.968  1.00  0.00     0.029 A 
ATOM     62  N   UNL A   1      45.295  36.413  30.703  1.00  0.00    -0.354 N 
ATOM     63  N   UNL A   1      43.187  35.421  32.488  1.00  0.00    -0.248 NA
ATOM     64  C   UNL A   1      41.950  35.615  34.458  1.00  0.00     0.031 C 
ATOM     65  C   UNL A   1      46.199  38.394  31.133  1.00  0.00     0.029 A 
ATOM     66  C   UNL A   1      45.255  37.483  31.579  1.00  0.00     0.049 A 
ATOM     67  H   UNL A   1      44.734  35.606  30.772  1.00  0.00     0.167 HD
ATOM     68  C   UNL A   1      43.499  36.630  33.105  1.00  0.00     0.074 A 
ATOM     69  C   UNL A   1      42.674  36.714  34.292  1.00  0.00     0.031 C 
ATOM     70  C   UNL A   1      44.393  37.577  32.729  1.00  0.00     0.034 A 
BRANCH  57  71
ATOM     71  C   UNL A   1      47.674  36.088  27.710  1.00  0.00     0.023 A 
ATOM     72  C   UNL A   1      47.393  36.886  26.583  1.00  0.00     0.012 A 
ATOM     73  C   UNL A   1      49.000  35.679  27.956  1.00  0.00     0.148 A 
ATOM     74  C   UNL A   1      48.408  37.243  25.696  1.00  0.00     0.002 A 
ATOM     75  C   UNL A   1      50.013  36.079  27.095  1.00  0.00     0.091 A 
ATOM     76  F   UNL A   1      49.242  34.900  29.021  1.00  0.00    -0.205 F 
ATOM     77  C   UNL A   1      49.718  36.849  25.958  1.00  0.00     0.022 A 
BRANCH  75  78
ATOM     78  S   UNL A   1      51.741  35.691  27.386  1.00  0.00     0.127 S 
ATOM     79  O   UNL A   1      52.264  36.983  27.828  1.00  0.00    -0.237 OA
ATOM     80  O   UNL A   1      51.655  34.676  28.435  1.00  0.00    -0.237 OA
ATOM     81  O   UNL A   1      52.266  35.209  26.115  1.00  0.00    -0.744 OA
ENDBRANCH  75  78
ENDBRANCH  57  71
BRANCH  58  82
ATOM     82  C   UNL A   1      40.517  33.095  34.014  1.00  0.00     0.023 A 
ATOM     83  C   UNL A   1      40.900  32.285  35.100  1.00  0.00     0.012 A 
ATOM     84  C   UNL A   1      39.163  33.456  33.871  1.00  0.00     0.148 A 
ATOM     85  C   UNL A   1      39.949  31.816  36.009  1.00  0.00     0.002 A 
ATOM     86  C   UNL A   1      38.229  33.031  34.811  1.00  0.00     0.091 A 
ATOM     87  F   UNL A   1      38.814  34.211  32.820  1.00  0.00    -0.205 F 
ATOM     88  C   UNL A   1      38.618  32.196  35.870  1.00  0.00     0.022 A 
BRANCH  86  89
ATOM     89  S   UNL A   1      36.516  33.566  34.780  1.00  0.00     0.127 S 
ATOM     90  O   UNL A   1      35.918  32.602  33.860  1.00  0.00    -0.237 OA
ATOM     91  O   UNL A   1      36.129  33.402  36.182  1.00  0.00    -0.237 OA
ATOM     92  O   UNL A   1      36.542  34.947  34.319  1.00  0.00    -0.744 OA
ENDBRANCH  86  89
ENDBRANCH  58  82
BRANCH  70  93
ATOM     93  C   UNL A   1      44.501  38.820  33.577  1.00  0.00     0.023 A 
ATOM     94  C   UNL A   1      45.374  38.848  34.682  1.00  0.00     0.012 A 
ATOM     95  C   UNL A   1      43.799  39.990  33.222  1.00  0.00     0.148 A 
ATOM     96  C   UNL A   1      45.521  40.010  35.440  1.00  0.00     0.002 A 
ATOM     97  C   UNL A   1      43.991  41.158  33.948  1.00  0.00     0.091 A 
ATOM     98  F   UNL A   1      42.962  39.939  32.174  1.00  0.00    -0.205 F 
ATOM     99  C   UNL A   1      44.841  41.167  35.066  1.00  0.00     0.022 A 
BRANCH  97 100
ATOM    100  S   UNL A   1      43.237  42.721  33.481  1.00  0.00     0.127 S 
ATOM    101  O   UNL A   1      41.817  42.438  33.682  1.00  0.00    -0.237 OA
ATOM    102  O   UNL A   1      43.819  43.647  34.453  1.00  0.00    -0.237 OA
ATOM    103  O   UNL A   1      43.634  42.964  32.101  1.00  0.00    -0.744 OA
ENDBRANCH  97 100
ENDBRANCH  70  93
ENDBRANCH  44  45
ENDBRANCH  37  39
ENDBRANCH  36  37
ENDBRANCH  35  36
ENDBRANCH  34  35
ENDBRANCH  33  34
ENDBRANCH  32  33
ENDBRANCH  31  32
ENDBRANCH  30  31
ENDBRANCH  29  30
ENDBRANCH   1  29
TORSDOF 29
ENDMDL
MODEL 3
REMARK VINA RESULT:      -7.1      7.238     15.965
REMARK SMILES CC(C)CCOc1ccc(/C=C2\SC(=S)N(CC(=O)OCCOCCOCCOCCOC(=O)c3ccc(-c4c5nc(c(-c6cccc(S(=O)(=O)[O-])c6F)c6ccc([nH]6)c(-c6cccc(S(=O)(=O)[O-])c6F)c6nc(c(-c7cccc(S(=O)(=O)[O-])c7F)c7ccc4[nH]7)C=C6)C=C5)cc3)C2=O)cc1
REMARK SMILES IDX 24 1 23 2 22 3 21 4 20 5 18 6 19 7 17 8 16 9 11 10 12 11
REMARK SMILES IDX 13 12 98 13 14 14 99 15 15 16 10 17 7 18 8 19 101 20 9 21
REMARK SMILES IDX 100 22 6 23 5 24 4 25 2 26 1 27 3 28 25 29 26 30 27 31 28 32
REMARK SMILES IDX 29 33 30 34 31 35 32 36 33 37 34 38 35 39 36 40 97 41 37 42
REMARK SMILES IDX 96 43 38 44 39 45 40 46 90 47 41 48 95 49 89 50 91 51 42 52
REMARK SMILES IDX 94 53 88 54 87 55 43 57 75 58 55 59 74 60 56 61 59 62 73 63
REMARK SMILES IDX 92 64 57 65 58 66 72 68 93 69 60 70 44 71 45 72 53 73 46 74
REMARK SMILES IDX 48 75 54 76 47 77 49 78 50 79 51 80 52 81 76 82 77 83 85 84
REMARK SMILES IDX 78 85 80 86 86 87 79 88 81 89 82 90 83 91 84 92 61 93 62 94
REMARK SMILES IDX 70 95 63 96 65 97 71 98 64 99 66 100 67 101 68 102 69 103
REMARK H PARENT 91 56 59 67
REMARK Flexibility Score: inf
ROOT
ATOM      1  C   UNL A   1      46.570  41.735  33.879  1.00  0.00     0.188 C 
ENDROOT
BRANCH   1   2
ATOM      2  O   UNL A   1      45.181  41.420  33.893  1.00  0.00    -0.376 OA
BRANCH   2   3
ATOM      3  C   UNL A   1      44.492  41.188  32.672  1.00  0.00     0.202 C 
BRANCH   3   4
ATOM      4  C   UNL A   1      45.016  41.813  31.361  1.00  0.00     0.261 C 
BRANCH   4   5
ATOM      5  O   UNL A   1      45.130  40.938  30.218  1.00  0.00    -0.462 OA
BRANCH   5   6
ATOM      6  C   UNL A   1      46.381  40.599  29.819  1.00  0.00     0.326 C 
ATOM      7  O   UNL A   1      46.978  39.595  30.198  1.00  0.00    -0.250 OA
BRANCH   6   8
ATOM      8  C   UNL A   1      46.992  41.542  28.768  1.00  0.00     0.250 C 
BRANCH   8   9
ATOM      9  N   UNL A   1      46.412  41.628  27.419  1.00  0.00    -0.282 N 
ATOM     10  C   UNL A   1      44.149  43.362  25.157  1.00  0.00     0.029 C 
ATOM     11  C   UNL A   1      45.019  42.495  25.705  1.00  0.00     0.081 C 
ATOM     12  S   UNL A   1      45.862  41.208  24.940  1.00  0.00    -0.054 SA
ATOM     13  C   UNL A   1      45.406  42.545  27.146  1.00  0.00     0.266 C 
ATOM     14  C   UNL A   1      46.743  40.770  26.392  1.00  0.00     0.148 C 
ATOM     15  O   UNL A   1      44.883  43.302  27.956  1.00  0.00    -0.268 OA
ATOM     16  S   UNL A   1      47.773  39.463  26.454  1.00  0.00    -0.052 S 
BRANCH  10  17
ATOM     17  C   UNL A   1      43.589  43.327  23.791  1.00  0.00    -0.024 A 
ATOM     18  C   UNL A   1      42.771  42.961  21.134  1.00  0.00     0.119 A 
ATOM     19  C   UNL A   1      42.003  42.431  22.167  1.00  0.00     0.047 A 
ATOM     20  C   UNL A   1      43.864  43.769  21.416  1.00  0.00     0.047 A 
ATOM     21  C   UNL A   1      42.414  42.616  23.497  1.00  0.00     0.012 A 
ATOM     22  C   UNL A   1      44.305  43.895  22.729  1.00  0.00     0.012 A 
BRANCH  18  23
ATOM     23  O   UNL A   1      42.492  42.696  19.824  1.00  0.00    -0.494 OA
BRANCH  23  24
ATOM     24  C   UNL A   1      43.021  43.701  18.936  1.00  0.00     0.230 C 
BRANCH  24  25
ATOM     25  C   UNL A   1      41.994  44.759  18.475  1.00  0.00     0.044 C 
BRANCH  25  26
ATOM     26  C   UNL A   1      42.461  45.656  17.303  1.00  0.00    -0.014 C 
ATOM     27  C   UNL A   1      41.618  45.462  16.044  1.00  0.00     0.007 C 
ATOM     28  C   UNL A   1      42.459  47.130  17.719  1.00  0.00     0.007 C 
ENDBRANCH  25  26
ENDBRANCH  24  25
ENDBRANCH  23  24
ENDBRANCH  18  23
ENDBRANCH  10  17
ENDBRANCH   8   9
ENDBRANCH   6   8
ENDBRANCH   5   6
ENDBRANCH   4   5
ENDBRANCH   3   4
ENDBRANCH   2   3
ENDBRANCH   1   2
BRANCH   1  29
ATOM     29  C   UNL A   1      47.044  43.195  33.782  1.00  0.00     0.188 C 
BRANCH  29  30
ATOM     30  O   UNL A   1      48.281  43.395  33.140  1.00  0.00    -0.377 OA
BRANCH  30  31
ATOM     31  C   UNL A   1      48.365  43.068  31.768  1.00  0.00     0.188 C 
BRANCH  31  32
ATOM     32  C   UNL A   1      49.524  42.168  31.311  1.00  0.00     0.188 C 
BRANCH  32  33
ATOM     33  O   UNL A   1      49.631  40.949  32.039  1.00  0.00    -0.376 OA
BRANCH  33  34
ATOM     34  C   UNL A   1      50.652  40.820  33.015  1.00  0.00     0.202 C 
BRANCH  34  35
ATOM     35  C   UNL A   1      51.474  39.521  33.031  1.00  0.00     0.261 C 
BRANCH  35  36
ATOM     36  O   UNL A   1      51.001  38.471  33.882  1.00  0.00    -0.460 OA
BRANCH  36  37
ATOM     37  C   UNL A   1      50.286  38.831  34.970  1.00  0.00     0.338 C 
ATOM     38  O   UNL A   1      50.611  39.651  35.814  1.00  0.00    -0.246 OA
BRANCH  37  39
ATOM     39  C   UNL A   1      48.949  38.206  34.864  1.00  0.00     0.060 A 
ATOM     40  C   UNL A   1      48.814  37.039  34.101  1.00  0.00     0.016 A 
ATOM     41  C   UNL A   1      47.848  38.740  35.540  1.00  0.00     0.016 A 
ATOM     42  C   UNL A   1      47.570  36.417  33.989  1.00  0.00     0.010 A 
ATOM     43  C   UNL A   1      46.596  38.132  35.402  1.00  0.00     0.010 A 
ATOM     44  C   UNL A   1      46.446  36.986  34.602  1.00  0.00    -0.014 A 
BRANCH  44  45
ATOM     45  C   UNL A   1      45.093  36.496  34.243  1.00  0.00     0.031 A 
ATOM     46  C   UNL A   1      44.137  36.173  35.359  1.00  0.00     0.074 A 
ATOM     47  C   UNL A   1      44.715  36.343  32.962  1.00  0.00     0.049 A 
ATOM     48  N   UNL A   1      42.917  35.710  35.299  1.00  0.00    -0.248 NA
ATOM     49  C   UNL A   1      44.626  36.409  36.728  1.00  0.00     0.031 C 
ATOM     50  C   UNL A   1      45.545  36.634  31.794  1.00  0.00     0.029 A 
ATOM     51  N   UNL A   1      43.538  35.875  32.431  1.00  0.00    -0.354 N 
ATOM     52  C   UNL A   1      42.502  35.570  36.618  1.00  0.00     0.074 A 
ATOM     53  C   UNL A   1      43.602  35.992  37.457  1.00  0.00     0.031 C 
ATOM     54  C   UNL A   1      44.861  36.307  30.682  1.00  0.00     0.029 A 
ATOM     55  C   UNL A   1      43.560  35.758  31.061  1.00  0.00     0.049 A 
ATOM     56  H   UNL A   1      42.753  35.646  32.979  1.00  0.00     0.167 HD
ATOM     57  C   UNL A   1      41.311  35.136  37.090  1.00  0.00     0.034 A 
ATOM     58  C   UNL A   1      42.645  35.241  30.217  1.00  0.00     0.034 A 
ATOM     59  C   UNL A   1      40.219  34.717  36.255  1.00  0.00     0.049 A 
ATOM     60  C   UNL A   1      41.340  34.722  30.771  1.00  0.00     0.074 A 
ATOM     61  C   UNL A   1      38.957  34.301  36.635  1.00  0.00     0.029 A 
ATOM     62  N   UNL A   1      40.268  34.639  34.872  1.00  0.00    -0.354 N 
ATOM     63  N   UNL A   1      40.916  34.706  32.011  1.00  0.00    -0.248 NA
ATOM     64  C   UNL A   1      40.376  34.176  29.803  1.00  0.00     0.031 C 
ATOM     65  C   UNL A   1      38.255  33.931  35.484  1.00  0.00     0.029 A 
ATOM     66  C   UNL A   1      39.065  34.161  34.383  1.00  0.00     0.049 A 
ATOM     67  H   UNL A   1      41.044  34.885  34.318  1.00  0.00     0.167 HD
ATOM     68  C   UNL A   1      39.625  34.187  31.969  1.00  0.00     0.074 A 
ATOM     69  C   UNL A   1      39.330  33.918  30.577  1.00  0.00     0.031 C 
ATOM     70  C   UNL A   1      38.766  33.946  32.990  1.00  0.00     0.034 A 
BRANCH  57  71
ATOM     71  C   UNL A   1      41.125  35.096  38.584  1.00  0.00     0.023 A 
ATOM     72  C   UNL A   1      40.822  36.280  39.286  1.00  0.00     0.012 A 
ATOM     73  C   UNL A   1      41.205  33.877  39.285  1.00  0.00     0.148 A 
ATOM     74  C   UNL A   1      40.635  36.257  40.668  1.00  0.00     0.002 A 
ATOM     75  C   UNL A   1      40.971  33.854  40.653  1.00  0.00     0.091 A 
ATOM     76  F   UNL A   1      41.519  32.766  38.601  1.00  0.00    -0.205 F 
ATOM     77  C   UNL A   1      40.700  35.043  41.349  1.00  0.00     0.022 A 
BRANCH  75  78
ATOM     78  S   UNL A   1      40.953  32.334  41.608  1.00  0.00     0.127 S 
ATOM     79  O   UNL A   1      40.881  32.845  42.976  1.00  0.00    -0.237 OA
ATOM     80  O   UNL A   1      39.730  31.688  41.133  1.00  0.00    -0.237 OA
ATOM     81  O   UNL A   1      42.183  31.631  41.270  1.00  0.00    -0.744 OA
ENDBRANCH  75  78
ENDBRANCH  57  71
BRANCH  58  82
ATOM     82  C   UNL A   1      42.916  35.198  28.751  1.00  0.00     0.023 A 
ATOM     83  C   UNL A   1      42.507  36.268  27.932  1.00  0.00     0.012 A 
ATOM     84  C   UNL A   1      43.573  34.099  28.164  1.00  0.00     0.148 A 
ATOM     85  C   UNL A   1      42.719  36.231  26.552  1.00  0.00     0.002 A 
ATOM     86  C   UNL A   1      43.830  34.092  26.798  1.00  0.00     0.091 A 
ATOM     87  F   UNL A   1      43.938  33.080  28.957  1.00  0.00    -0.205 F 
ATOM     88  C   UNL A   1      43.388  35.149  25.988  1.00  0.00     0.022 A 
BRANCH  86  89
ATOM     89  S   UNL A   1      44.788  32.800  26.001  1.00  0.00     0.127 S 
ATOM     90  O   UNL A   1      46.051  32.870  26.733  1.00  0.00    -0.237 OA
ATOM     91  O   UNL A   1      43.978  31.614  26.281  1.00  0.00    -0.237 OA
ATOM     92  O   UNL A   1      44.854  33.167  24.594  1.00  0.00    -0.744 OA
ENDBRANCH  86  89
ENDBRANCH  58  82
BRANCH  70  93
ATOM     93  C   UNL A   1      37.400  33.406  32.649  1.00  0.00     0.023 A 
ATOM     94  C   UNL A   1      37.196  32.017  32.536  1.00  0.00     0.012 A 
ATOM     95  C   UNL A   1      36.298  34.277  32.528  1.00  0.00     0.148 A 
ATOM     96  C   UNL A   1      35.925  31.506  32.274  1.00  0.00     0.002 A 
ATOM     97  C   UNL A   1      35.027  33.758  32.321  1.00  0.00     0.091 A 
ATOM     98  F   UNL A   1      36.515  35.598  32.625  1.00  0.00    -0.205 F 
ATOM     99  C   UNL A   1      34.840  32.374  32.179  1.00  0.00     0.022 A 
BRANCH  97 100
ATOM    100  S   UNL A   1      33.556  34.790  32.286  1.00  0.00     0.127 S 
ATOM    101  O   UNL A   1      33.231  34.797  30.861  1.00  0.00    -0.237 OA
ATOM    102  O   UNL A   1      32.625  34.029  33.121  1.00  0.00    -0.237 OA
ATOM    103  O   UNL A   1      33.953  36.078  32.840  1.00  0.00    -0.744 OA
ENDBRANCH  97 100
ENDBRANCH  70  93
ENDBRANCH  44  45
ENDBRANCH  37  39
ENDBRANCH  36  37
ENDBRANCH  35  36
ENDBRANCH  34  35
ENDBRANCH  33  34
ENDBRANCH  32  33
ENDBRANCH  31  32
ENDBRANCH  30  31
ENDBRANCH  29  30
ENDBRANCH   1  29
TORSDOF 29
ENDMDL
