MODEL 1
REMARK VINA RESULT:      -8.7      0.000      0.000
REMARK SMILES O=C(OCCOCCOCCOCCOC(=O)[C@H]1C[C@](O)(c2ccc(F)cc2)[C@@H](c2ccc(F)cc2)O1)c1ccc(-c2c3nc(c(-c4cccc(S(=O)(=O)[O-])c4F)c4ccc([nH]4)c(-c4cccc(S(=O)(=O)[O-])c4F)c4nc(c(-c5cccc(S(=O)(=O)[O-])c5F)c5ccc2[nH]5)C=C4)C=C3)cc1
REMARK SMILES IDX 8 1 7 2 6 3 5 4 4 5 3 6 2 7 1 8 38 9 39 10 100 11 40 12
REMARK SMILES IDX 99 13 41 14 42 15 43 16 93 17 44 18 98 19 92 20 94 21 45 22
REMARK SMILES IDX 97 23 91 24 90 25 46 27 78 28 58 29 77 30 59 31 62 32 76 33
REMARK SMILES IDX 95 34 60 35 61 36 75 38 96 39 63 40 47 41 48 42 56 43 49 44
REMARK SMILES IDX 51 45 57 46 50 47 52 48 53 49 54 50 55 51 79 52 80 53 88 54
REMARK SMILES IDX 81 55 83 56 89 57 82 58 84 59 85 60 86 61 87 62 64 63 65 64
REMARK SMILES IDX 73 65 66 66 68 67 74 68 67 69 69 70 70 71 71 72 72 73 9 74
REMARK SMILES IDX 10 75 11 76 12 77 13 78 14 79 15 80 16 81 17 82 18 83 19 84
REMARK SMILES IDX 37 85 20 86 29 87 22 88 23 89 28 90 24 91 27 92 25 93 26 94
REMARK SMILES IDX 21 95 30 97 31 98 36 99 32 100 35 101 33 102 34 103
REMARK H PARENT 94 26 62 37 21 96
REMARK Flexibility Score: inf
ROOT
ATOM      1  C   UNL A   1      37.643  31.304  31.440  1.00  0.00     0.188 C 
ENDROOT
BRANCH   1   2
ATOM      2  C   UNL A   1      36.140  31.466  31.372  1.00  0.00     0.188 C 
BRANCH   2   3
ATOM      3  O   UNL A   1      35.868  32.852  31.208  1.00  0.00    -0.376 OA
BRANCH   3   4
ATOM      4  C   UNL A   1      35.196  33.623  32.186  1.00  0.00     0.202 C 
BRANCH   4   5
ATOM      5  C   UNL A   1      35.058  33.045  33.575  1.00  0.00     0.261 C 
BRANCH   5   6
ATOM      6  O   UNL A   1      36.053  33.358  34.589  1.00  0.00    -0.460 OA
BRANCH   6   7
ATOM      7  C   UNL A   1      37.252  32.903  35.017  1.00  0.00     0.338 C 
ATOM      8  O   UNL A   1      37.280  32.067  35.917  1.00  0.00    -0.246 OA
BRANCH   7   9
ATOM      9  C   UNL A   1      38.541  33.331  34.433  1.00  0.00     0.060 A 
ATOM     10  C   UNL A   1      38.638  34.233  33.394  1.00  0.00     0.016 A 
ATOM     11  C   UNL A   1      39.737  32.926  35.022  1.00  0.00     0.016 A 
ATOM     12  C   UNL A   1      39.778  34.419  32.674  1.00  0.00     0.010 A 
ATOM     13  C   UNL A   1      40.958  33.290  34.439  1.00  0.00     0.010 A 
ATOM     14  C   UNL A   1      40.958  33.964  33.210  1.00  0.00    -0.014 A 
BRANCH  14  15
ATOM     15  C   UNL A   1      42.108  34.057  32.317  1.00  0.00     0.031 A 
ATOM     16  C   UNL A   1      42.944  35.283  32.453  1.00  0.00     0.074 A 
ATOM     17  C   UNL A   1      42.506  32.973  31.624  1.00  0.00     0.049 A 
ATOM     18  N   UNL A   1      43.942  35.677  31.724  1.00  0.00    -0.248 NA
ATOM     19  C   UNL A   1      42.622  36.187  33.578  1.00  0.00     0.031 C 
ATOM     20  C   UNL A   1      41.861  31.651  31.668  1.00  0.00     0.029 A 
ATOM     21  N   UNL A   1      43.569  32.790  30.790  1.00  0.00    -0.354 N 
ATOM     22  C   UNL A   1      44.295  36.917  32.232  1.00  0.00     0.074 A 
ATOM     23  C   UNL A   1      43.448  37.196  33.364  1.00  0.00     0.031 C 
ATOM     24  C   UNL A   1      42.553  30.796  30.900  1.00  0.00     0.029 A 
ATOM     25  C   UNL A   1      43.599  31.540  30.220  1.00  0.00     0.049 A 
ATOM     26  H   UNL A   1      44.245  33.483  30.615  1.00  0.00     0.167 HD
ATOM     27  C   UNL A   1      45.236  37.750  31.748  1.00  0.00     0.034 A 
ATOM     28  C   UNL A   1      44.346  31.090  29.196  1.00  0.00     0.034 A 
ATOM     29  C   UNL A   1      46.054  37.392  30.630  1.00  0.00     0.049 A 
ATOM     30  C   UNL A   1      45.314  32.072  28.600  1.00  0.00     0.074 A 
ATOM     31  C   UNL A   1      46.988  38.154  29.963  1.00  0.00     0.029 A 
ATOM     32  N   UNL A   1      46.021  36.146  30.014  1.00  0.00    -0.354 N 
ATOM     33  N   UNL A   1      45.592  33.294  29.001  1.00  0.00    -0.248 NA
ATOM     34  C   UNL A   1      46.065  31.640  27.420  1.00  0.00     0.031 C 
ATOM     35  C   UNL A   1      47.491  37.378  28.915  1.00  0.00     0.029 A 
ATOM     36  C   UNL A   1      46.910  36.115  28.963  1.00  0.00     0.049 A 
ATOM     37  H   UNL A   1      45.446  35.395  30.288  1.00  0.00     0.167 HD
ATOM     38  C   UNL A   1      46.564  33.771  28.138  1.00  0.00     0.074 A 
ATOM     39  C   UNL A   1      46.841  32.695  27.202  1.00  0.00     0.031 C 
ATOM     40  C   UNL A   1      47.166  34.985  28.102  1.00  0.00     0.034 A 
BRANCH  27  41
ATOM     41  C   UNL A   1      45.329  39.116  32.359  1.00  0.00     0.023 A 
ATOM     42  C   UNL A   1      46.249  39.385  33.392  1.00  0.00     0.012 A 
ATOM     43  C   UNL A   1      44.465  40.135  31.916  1.00  0.00     0.148 A 
ATOM     44  C   UNL A   1      46.291  40.646  33.987  1.00  0.00     0.002 A 
ATOM     45  C   UNL A   1      44.548  41.400  32.476  1.00  0.00     0.091 A 
ATOM     46  F   UNL A   1      43.564  39.838  30.969  1.00  0.00    -0.205 F 
ATOM     47  C   UNL A   1      45.450  41.655  33.522  1.00  0.00     0.022 A 
BRANCH  45  48
ATOM     48  S   UNL A   1      43.558  42.782  31.902  1.00  0.00     0.127 S 
ATOM     49  O   UNL A   1      42.203  42.318  32.191  1.00  0.00    -0.237 OA
ATOM     50  O   UNL A   1      44.031  43.867  32.756  1.00  0.00    -0.237 OA
ATOM     51  O   UNL A   1      43.865  42.938  30.482  1.00  0.00    -0.744 OA
ENDBRANCH  45  48
ENDBRANCH  27  41
BRANCH  28  52
ATOM     52  C   UNL A   1      44.154  29.710  28.666  1.00  0.00     0.023 A 
ATOM     53  C   UNL A   1      44.820  28.628  29.269  1.00  0.00     0.012 A 
ATOM     54  C   UNL A   1      43.267  29.453  27.597  1.00  0.00     0.148 A 
ATOM     55  C   UNL A   1      44.623  27.324  28.809  1.00  0.00     0.002 A 
ATOM     56  C   UNL A   1      43.028  28.147  27.184  1.00  0.00     0.091 A 
ATOM     57  F   UNL A   1      42.649  30.493  27.018  1.00  0.00    -0.205 F 
ATOM     58  C   UNL A   1      43.719  27.081  27.776  1.00  0.00     0.022 A 
BRANCH  56  59
ATOM     59  S   UNL A   1      41.784  27.726  25.956  1.00  0.00     0.127 S 
ATOM     60  O   UNL A   1      42.298  28.388  24.766  1.00  0.00    -0.237 OA
ATOM     61  O   UNL A   1      41.861  26.266  25.939  1.00  0.00    -0.237 OA
ATOM     62  O   UNL A   1      40.523  28.253  26.476  1.00  0.00    -0.744 OA
ENDBRANCH  56  59
ENDBRANCH  28  52
BRANCH  40  63
ATOM     63  C   UNL A   1      48.210  35.200  27.049  1.00  0.00     0.023 A 
ATOM     64  C   UNL A   1      47.854  35.786  25.821  1.00  0.00     0.012 A 
ATOM     65  C   UNL A   1      49.564  34.971  27.358  1.00  0.00     0.148 A 
ATOM     66  C   UNL A   1      48.840  36.137  24.905  1.00  0.00     0.002 A 
ATOM     67  C   UNL A   1      50.542  35.382  26.468  1.00  0.00     0.091 A 
ATOM     68  F   UNL A   1      49.864  34.397  28.532  1.00  0.00    -0.205 F 
ATOM     69  C   UNL A   1      50.182  35.954  25.236  1.00  0.00     0.022 A 
BRANCH  67  70
ATOM     70  S   UNL A   1      52.289  35.313  26.869  1.00  0.00     0.127 S 
ATOM     71  O   UNL A   1      52.895  35.834  25.646  1.00  0.00    -0.237 OA
ATOM     72  O   UNL A   1      52.374  36.206  28.025  1.00  0.00    -0.237 OA
ATOM     73  O   UNL A   1      52.581  33.915  27.161  1.00  0.00    -0.744 OA
ENDBRANCH  67  70
ENDBRANCH  40  63
ENDBRANCH  14  15
ENDBRANCH   7   9
ENDBRANCH   6   7
ENDBRANCH   5   6
ENDBRANCH   4   5
ENDBRANCH   3   4
ENDBRANCH   2   3
ENDBRANCH   1   2
BRANCH   1  74
ATOM     74  O   UNL A   1      38.116  30.036  30.993  1.00  0.00    -0.377 OA
BRANCH  74  75
ATOM     75  C   UNL A   1      38.557  29.945  29.647  1.00  0.00     0.188 C 
BRANCH  75  76
ATOM     76  C   UNL A   1      37.665  29.210  28.645  1.00  0.00     0.188 C 
BRANCH  76  77
ATOM     77  O   UNL A   1      37.087  29.940  27.584  1.00  0.00    -0.376 OA
BRANCH  77  78
ATOM     78  C   UNL A   1      36.101  30.942  27.840  1.00  0.00     0.202 C 
BRANCH  78  79
ATOM     79  C   UNL A   1      34.594  30.670  27.669  1.00  0.00     0.261 C 
BRANCH  79  80
ATOM     80  O   UNL A   1      34.270  29.271  27.490  1.00  0.00    -0.461 OA
BRANCH  80  81
ATOM     81  C   UNL A   1      33.054  28.934  26.995  1.00  0.00     0.335 C 
ATOM     82  O   UNL A   1      31.998  29.449  27.352  1.00  0.00    -0.249 OA
BRANCH  81  83
ATOM     83  C   UNL A   1      33.120  27.886  25.849  1.00  0.00     0.232 C 
ATOM     84  C   UNL A   1      32.521  26.541  26.224  1.00  0.00     0.087 C 
ATOM     85  O   UNL A   1      32.657  28.232  24.557  1.00  0.00    -0.355 OA
ATOM     86  C   UNL A   1      31.421  26.217  25.192  1.00  0.00     0.123 C 
ATOM     87  C   UNL A   1      31.570  27.370  24.137  1.00  0.00     0.186 C 
BRANCH  86  88
ATOM     88  C   UNL A   1      31.598  24.731  24.822  1.00  0.00    -0.013 A 
ATOM     89  C   UNL A   1      32.083  23.836  25.825  1.00  0.00     0.010 A 
ATOM     90  C   UNL A   1      31.314  24.192  23.566  1.00  0.00     0.010 A 
ATOM     91  C   UNL A   1      32.207  22.466  25.601  1.00  0.00     0.039 A 
ATOM     92  C   UNL A   1      31.449  22.815  23.339  1.00  0.00     0.039 A 
ATOM     93  C   UNL A   1      31.878  21.966  24.356  1.00  0.00     0.123 A 
ATOM     94  F   UNL A   1      31.972  20.650  24.126  1.00  0.00    -0.207 F 
ENDBRANCH  86  88
BRANCH  86  95
ATOM     95  O   UNL A   1      30.086  26.149  25.681  1.00  0.00    -0.382 OA
ATOM     96  H   UNL A   1      29.905  25.251  26.000  1.00  0.00     0.212 HD
ENDBRANCH  86  95
BRANCH  87  97
ATOM     97  C   UNL A   1      30.419  28.337  23.840  1.00  0.00    -0.016 A 
ATOM     98  C   UNL A   1      30.496  29.704  24.149  1.00  0.00     0.009 A 
ATOM     99  C   UNL A   1      29.291  27.925  23.120  1.00  0.00     0.009 A 
ATOM    100  C   UNL A   1      29.525  30.634  23.777  1.00  0.00     0.039 A 
ATOM    101  C   UNL A   1      28.309  28.850  22.732  1.00  0.00     0.039 A 
ATOM    102  C   UNL A   1      28.435  30.195  23.061  1.00  0.00     0.123 A 
ATOM    103  F   UNL A   1      27.503  31.074  22.673  1.00  0.00    -0.207 F 
ENDBRANCH  87  97
ENDBRANCH  81  83
ENDBRANCH  80  81
ENDBRANCH  79  80
ENDBRANCH  78  79
ENDBRANCH  77  78
ENDBRANCH  76  77
ENDBRANCH  75  76
ENDBRANCH  74  75
ENDBRANCH   1  74
TORSDOF 26
ENDMDL
MODEL 2
REMARK VINA RESULT:      -8.4      7.270      9.069
REMARK SMILES O=C(OCCOCCOCCOCCOC(=O)[C@H]1C[C@](O)(c2ccc(F)cc2)[C@@H](c2ccc(F)cc2)O1)c1ccc(-c2c3nc(c(-c4cccc(S(=O)(=O)[O-])c4F)c4ccc([nH]4)c(-c4cccc(S(=O)(=O)[O-])c4F)c4nc(c(-c5cccc(S(=O)(=O)[O-])c5F)c5ccc2[nH]5)C=C4)C=C3)cc1
REMARK SMILES IDX 8 1 7 2 6 3 5 4 4 5 3 6 2 7 1 8 38 9 39 10 100 11 40 12
REMARK SMILES IDX 99 13 41 14 42 15 43 16 93 17 44 18 98 19 92 20 94 21 45 22
REMARK SMILES IDX 97 23 91 24 90 25 46 27 78 28 58 29 77 30 59 31 62 32 76 33
REMARK SMILES IDX 95 34 60 35 61 36 75 38 96 39 63 40 47 41 48 42 56 43 49 44
REMARK SMILES IDX 51 45 57 46 50 47 52 48 53 49 54 50 55 51 79 52 80 53 88 54
REMARK SMILES IDX 81 55 83 56 89 57 82 58 84 59 85 60 86 61 87 62 64 63 65 64
REMARK SMILES IDX 73 65 66 66 68 67 74 68 67 69 69 70 70 71 71 72 72 73 9 74
REMARK SMILES IDX 10 75 11 76 12 77 13 78 14 79 15 80 16 81 17 82 18 83 19 84
REMARK SMILES IDX 37 85 20 86 29 87 22 88 23 89 28 90 24 91 27 92 25 93 26 94
REMARK SMILES IDX 21 95 30 97 31 98 36 99 32 100 35 101 33 102 34 103
REMARK H PARENT 94 26 62 37 21 96
REMARK Flexibility Score: inf
ROOT
ATOM      1  C   UNL A   1      33.273  28.818  27.250  1.00  0.00     0.188 C 
ENDROOT
BRANCH   1   2
ATOM      2  C   UNL A   1      33.712  30.228  26.916  1.00  0.00     0.188 C 
BRANCH   2   3
ATOM      3  O   UNL A   1      34.289  30.784  28.090  1.00  0.00    -0.376 OA
BRANCH   3   4
ATOM      4  C   UNL A   1      35.391  31.670  28.058  1.00  0.00     0.202 C 
BRANCH   4   5
ATOM      5  C   UNL A   1      36.383  31.611  29.197  1.00  0.00     0.261 C 
BRANCH   5   6
ATOM      6  O   UNL A   1      37.234  30.442  29.353  1.00  0.00    -0.460 OA
BRANCH   6   7
ATOM      7  C   UNL A   1      38.208  29.791  28.679  1.00  0.00     0.338 C 
ATOM      8  O   UNL A   1      38.082  29.632  27.467  1.00  0.00    -0.246 OA
BRANCH   7   9
ATOM      9  C   UNL A   1      39.444  29.288  29.316  1.00  0.00     0.060 A 
ATOM     10  C   UNL A   1      40.536  30.087  29.581  1.00  0.00     0.016 A 
ATOM     11  C   UNL A   1      39.490  27.984  29.806  1.00  0.00     0.016 A 
ATOM     12  C   UNL A   1      41.761  29.589  29.904  1.00  0.00     0.010 A 
ATOM     13  C   UNL A   1      40.677  27.493  30.364  1.00  0.00     0.010 A 
ATOM     14  C   UNL A   1      41.834  28.283  30.323  1.00  0.00    -0.014 A 
BRANCH  14  15
ATOM     15  C   UNL A   1      43.190  27.775  30.499  1.00  0.00     0.031 A 
ATOM     16  C   UNL A   1      43.775  27.932  31.861  1.00  0.00     0.074 A 
ATOM     17  C   UNL A   1      43.738  26.988  29.554  1.00  0.00     0.049 A 
ATOM     18  N   UNL A   1      44.981  27.680  32.267  1.00  0.00    -0.248 NA
ATOM     19  C   UNL A   1      42.871  28.428  32.921  1.00  0.00     0.031 C 
ATOM     20  C   UNL A   1      43.083  26.583  28.300  1.00  0.00     0.029 A 
ATOM     21  N   UNL A   1      44.941  26.348  29.515  1.00  0.00    -0.354 N 
ATOM     22  C   UNL A   1      45.010  28.086  33.592  1.00  0.00     0.074 A 
ATOM     23  C   UNL A   1      43.694  28.551  33.948  1.00  0.00     0.031 C 
ATOM     24  C   UNL A   1      43.895  25.756  27.625  1.00  0.00     0.029 A 
ATOM     25  C   UNL A   1      45.161  25.681  28.334  1.00  0.00     0.049 A 
ATOM     26  H   UNL A   1      45.586  26.362  30.259  1.00  0.00     0.167 HD
ATOM     27  C   UNL A   1      46.078  28.089  34.412  1.00  0.00     0.034 A 
ATOM     28  C   UNL A   1      46.299  25.147  27.858  1.00  0.00     0.034 A 
ATOM     29  C   UNL A   1      47.351  27.590  33.991  1.00  0.00     0.049 A 
ATOM     30  C   UNL A   1      47.506  25.259  28.746  1.00  0.00     0.074 A 
ATOM     31  C   UNL A   1      48.552  27.604  34.667  1.00  0.00     0.029 A 
ATOM     32  N   UNL A   1      47.577  26.984  32.760  1.00  0.00    -0.354 N 
ATOM     33  N   UNL A   1      47.580  25.736  29.970  1.00  0.00    -0.248 NA
ATOM     34  C   UNL A   1      48.780  24.777  28.208  1.00  0.00     0.031 C 
ATOM     35  C   UNL A   1      49.514  27.040  33.824  1.00  0.00     0.029 A 
ATOM     36  C   UNL A   1      48.902  26.626  32.645  1.00  0.00     0.049 A 
ATOM     37  H   UNL A   1      46.890  26.832  32.071  1.00  0.00     0.167 HD
ATOM     38  C   UNL A   1      48.902  25.594  30.359  1.00  0.00     0.074 A 
ATOM     39  C   UNL A   1      49.589  24.966  29.243  1.00  0.00     0.031 C 
ATOM     40  C   UNL A   1      49.505  25.957  31.517  1.00  0.00     0.034 A 
BRANCH  27  41
ATOM     41  C   UNL A   1      45.914  28.731  35.757  1.00  0.00     0.023 A 
ATOM     42  C   UNL A   1      45.968  30.132  35.901  1.00  0.00     0.012 A 
ATOM     43  C   UNL A   1      45.732  27.923  36.895  1.00  0.00     0.148 A 
ATOM     44  C   UNL A   1      45.864  30.715  37.163  1.00  0.00     0.002 A 
ATOM     45  C   UNL A   1      45.577  28.512  38.140  1.00  0.00     0.091 A 
ATOM     46  F   UNL A   1      45.736  26.592  36.736  1.00  0.00    -0.205 F 
ATOM     47  C   UNL A   1      45.657  29.907  38.280  1.00  0.00     0.022 A 
BRANCH  45  48
ATOM     48  S   UNL A   1      45.240  27.564  39.626  1.00  0.00     0.127 S 
ATOM     49  O   UNL A   1      44.128  26.720  39.196  1.00  0.00    -0.237 OA
ATOM     50  O   UNL A   1      46.503  26.860  39.827  1.00  0.00    -0.237 OA
ATOM     51  O   UNL A   1      44.908  28.540  40.662  1.00  0.00    -0.744 OA
ENDBRANCH  45  48
ENDBRANCH  27  41
BRANCH  28  52
ATOM     52  C   UNL A   1      46.343  24.544  26.495  1.00  0.00     0.023 A 
ATOM     53  C   UNL A   1      46.997  25.220  25.450  1.00  0.00     0.012 A 
ATOM     54  C   UNL A   1      45.785  23.271  26.239  1.00  0.00     0.148 A 
ATOM     55  C   UNL A   1      47.080  24.653  24.176  1.00  0.00     0.002 A 
ATOM     56  C   UNL A   1      45.924  22.686  24.986  1.00  0.00     0.091 A 
ATOM     57  F   UNL A   1      45.149  22.642  27.238  1.00  0.00    -0.205 F 
ATOM     58  C   UNL A   1      46.555  23.383  23.946  1.00  0.00     0.022 A 
BRANCH  56  59
ATOM     59  S   UNL A   1      45.402  21.002  24.634  1.00  0.00     0.127 S 
ATOM     60  O   UNL A   1      46.672  20.289  24.620  1.00  0.00    -0.237 OA
ATOM     61  O   UNL A   1      44.537  20.711  25.775  1.00  0.00    -0.237 OA
ATOM     62  O   UNL A   1      44.701  21.066  23.352  1.00  0.00    -0.744 OA
ENDBRANCH  56  59
ENDBRANCH  28  52
BRANCH  40  63
ATOM     63  C   UNL A   1      50.965  25.648  31.655  1.00  0.00     0.023 A 
ATOM     64  C   UNL A   1      51.919  26.641  31.368  1.00  0.00     0.012 A 
ATOM     65  C   UNL A   1      51.363  24.428  32.231  1.00  0.00     0.148 A 
ATOM     66  C   UNL A   1      53.263  26.416  31.648  1.00  0.00     0.002 A 
ATOM     67  C   UNL A   1      52.694  24.238  32.565  1.00  0.00     0.091 A 
ATOM     68  F   UNL A   1      50.427  23.500  32.477  1.00  0.00    -0.205 F 
ATOM     69  C   UNL A   1      53.647  25.225  32.264  1.00  0.00     0.022 A 
BRANCH  67  70
ATOM     70  S   UNL A   1      53.253  22.800  33.481  1.00  0.00     0.127 S 
ATOM     71  O   UNL A   1      52.906  21.714  32.568  1.00  0.00    -0.237 OA
ATOM     72  O   UNL A   1      54.687  23.058  33.612  1.00  0.00    -0.237 OA
ATOM     73  O   UNL A   1      52.517  22.813  34.740  1.00  0.00    -0.744 OA
ENDBRANCH  67  70
ENDBRANCH  40  63
ENDBRANCH  14  15
ENDBRANCH   7   9
ENDBRANCH   6   7
ENDBRANCH   5   6
ENDBRANCH   4   5
ENDBRANCH   3   4
ENDBRANCH   2   3
ENDBRANCH   1   2
BRANCH   1  74
ATOM     74  O   UNL A   1      32.548  28.169  26.209  1.00  0.00    -0.377 OA
BRANCH  74  75
ATOM     75  C   UNL A   1      32.739  28.649  24.887  1.00  0.00     0.188 C 
BRANCH  75  76
ATOM     76  C   UNL A   1      33.937  28.124  24.096  1.00  0.00     0.188 C 
BRANCH  76  77
ATOM     77  O   UNL A   1      33.776  26.969  23.300  1.00  0.00    -0.376 OA
BRANCH  77  78
ATOM     78  C   UNL A   1      34.075  25.674  23.823  1.00  0.00     0.202 C 
BRANCH  78  79
ATOM     79  C   UNL A   1      34.655  25.477  25.237  1.00  0.00     0.261 C 
BRANCH  79  80
ATOM     80  O   UNL A   1      34.931  24.095  25.566  1.00  0.00    -0.461 OA
BRANCH  80  81
ATOM     81  C   UNL A   1      35.696  23.357  24.725  1.00  0.00     0.335 C 
ATOM     82  O   UNL A   1      36.891  23.557  24.527  1.00  0.00    -0.249 OA
BRANCH  81  83
ATOM     83  C   UNL A   1      34.939  22.157  24.090  1.00  0.00     0.232 C 
ATOM     84  C   UNL A   1      34.955  20.907  24.953  1.00  0.00     0.087 C 
ATOM     85  O   UNL A   1      33.622  22.341  23.602  1.00  0.00    -0.355 OA
ATOM     86  C   UNL A   1      33.490  20.493  25.202  1.00  0.00     0.123 C 
ATOM     87  C   UNL A   1      32.680  21.480  24.288  1.00  0.00     0.186 C 
BRANCH  86  88
ATOM     88  C   UNL A   1      33.435  18.964  25.018  1.00  0.00    -0.013 A 
ATOM     89  C   UNL A   1      32.692  18.194  25.964  1.00  0.00     0.010 A 
ATOM     90  C   UNL A   1      34.063  18.272  23.981  1.00  0.00     0.010 A 
ATOM     91  C   UNL A   1      32.529  16.815  25.836  1.00  0.00     0.039 A 
ATOM     92  C   UNL A   1      33.906  16.884  23.859  1.00  0.00     0.039 A 
ATOM     93  C   UNL A   1      33.134  16.173  24.773  1.00  0.00     0.123 A 
ATOM     94  F   UNL A   1      32.975  14.851  24.622  1.00  0.00    -0.207 F 
ENDBRANCH  86  88
BRANCH  86  95
ATOM     95  O   UNL A   1      33.028  20.555  26.546  1.00  0.00    -0.382 OA
ATOM     96  H   UNL A   1      32.533  21.379  26.680  1.00  0.00     0.212 HD
ENDBRANCH  86  95
BRANCH  87  97
ATOM     97  C   UNL A   1      31.647  22.448  24.874  1.00  0.00    -0.016 A 
ATOM     98  C   UNL A   1      30.996  22.195  26.092  1.00  0.00     0.009 A 
ATOM     99  C   UNL A   1      31.406  23.696  24.289  1.00  0.00     0.009 A 
ATOM    100  C   UNL A   1      30.151  23.111  26.719  1.00  0.00     0.039 A 
ATOM    101  C   UNL A   1      30.563  24.632  24.911  1.00  0.00     0.039 A 
ATOM    102  C   UNL A   1      29.946  24.333  26.120  1.00  0.00     0.123 A 
ATOM    103  F   UNL A   1      29.156  25.236  26.715  1.00  0.00    -0.207 F 
ENDBRANCH  87  97
ENDBRANCH  81  83
ENDBRANCH  80  81
ENDBRANCH  79  80
ENDBRANCH  78  79
ENDBRANCH  77  78
ENDBRANCH  76  77
ENDBRANCH  75  76
ENDBRANCH  74  75
ENDBRANCH   1  74
TORSDOF 26
ENDMDL
MODEL 3
REMARK VINA RESULT:      -8.4      2.586      8.356
REMARK SMILES O=C(OCCOCCOCCOCCOC(=O)[C@H]1C[C@](O)(c2ccc(F)cc2)[C@@H](c2ccc(F)cc2)O1)c1ccc(-c2c3nc(c(-c4cccc(S(=O)(=O)[O-])c4F)c4ccc([nH]4)c(-c4cccc(S(=O)(=O)[O-])c4F)c4nc(c(-c5cccc(S(=O)(=O)[O-])c5F)c5ccc2[nH]5)C=C4)C=C3)cc1
REMARK SMILES IDX 8 1 7 2 6 3 5 4 4 5 3 6 2 7 1 8 38 9 39 10 100 11 40 12
REMARK SMILES IDX 99 13 41 14 42 15 43 16 93 17 44 18 98 19 92 20 94 21 45 22
REMARK SMILES IDX 97 23 91 24 90 25 46 27 78 28 58 29 77 30 59 31 62 32 76 33
REMARK SMILES IDX 95 34 60 35 61 36 75 38 96 39 63 40 47 41 48 42 56 43 49 44
REMARK SMILES IDX 51 45 57 46 50 47 52 48 53 49 54 50 55 51 79 52 80 53 88 54
REMARK SMILES IDX 81 55 83 56 89 57 82 58 84 59 85 60 86 61 87 62 64 63 65 64
REMARK SMILES IDX 73 65 66 66 68 67 74 68 67 69 69 70 70 71 71 72 72 73 9 74
REMARK SMILES IDX 10 75 11 76 12 77 13 78 14 79 15 80 16 81 17 82 18 83 19 84
REMARK SMILES IDX 37 85 20 86 29 87 22 88 23 89 28 90 24 91 27 92 25 93 26 94
REMARK SMILES IDX 21 95 30 97 31 98 36 99 32 100 35 101 33 102 34 103
REMARK H PARENT 94 26 62 37 21 96
REMARK Flexibility Score: inf
ROOT
ATOM      1  C   UNL A   1      33.889  33.979  32.734  1.00  0.00     0.188 C 
ENDROOT
BRANCH   1   2
ATOM      2  C   UNL A   1      34.512  34.977  33.687  1.00  0.00     0.188 C 
BRANCH   2   3
ATOM      3  O   UNL A   1      35.907  34.706  33.735  1.00  0.00    -0.376 OA
BRANCH   3   4
ATOM      4  C   UNL A   1      36.487  33.833  34.686  1.00  0.00     0.202 C 
BRANCH   4   5
ATOM      5  C   UNL A   1      37.385  32.728  34.181  1.00  0.00     0.261 C 
BRANCH   5   6
ATOM      6  O   UNL A   1      38.497  33.047  33.299  1.00  0.00    -0.460 OA
BRANCH   6   7
ATOM      7  C   UNL A   1      39.367  34.057  33.078  1.00  0.00     0.338 C 
ATOM      8  O   UNL A   1      39.275  35.076  33.761  1.00  0.00    -0.246 OA
BRANCH   7   9
ATOM      9  C   UNL A   1      40.455  33.992  32.080  1.00  0.00     0.060 A 
ATOM     10  C   UNL A   1      41.718  33.520  32.369  1.00  0.00     0.016 A 
ATOM     11  C   UNL A   1      40.189  34.288  30.744  1.00  0.00     0.016 A 
ATOM     12  C   UNL A   1      42.789  33.711  31.551  1.00  0.00     0.010 A 
ATOM     13  C   UNL A   1      41.231  34.274  29.808  1.00  0.00     0.010 A 
ATOM     14  C   UNL A   1      42.546  34.070  30.247  1.00  0.00    -0.014 A 
BRANCH  14  15
ATOM     15  C   UNL A   1      43.738  34.410  29.478  1.00  0.00     0.031 A 
ATOM     16  C   UNL A   1      44.508  33.261  28.924  1.00  0.00     0.074 A 
ATOM     17  C   UNL A   1      43.944  35.683  29.090  1.00  0.00     0.049 A 
ATOM     18  N   UNL A   1      45.650  33.262  28.309  1.00  0.00    -0.248 NA
ATOM     19  C   UNL A   1      43.901  31.920  29.069  1.00  0.00     0.031 C 
ATOM     20  C   UNL A   1      43.057  36.818  29.389  1.00  0.00     0.029 A 
ATOM     21  N   UNL A   1      44.929  36.233  28.323  1.00  0.00    -0.354 N 
ATOM     22  C   UNL A   1      45.947  31.926  28.092  1.00  0.00     0.074 A 
ATOM     23  C   UNL A   1      44.849  31.136  28.587  1.00  0.00     0.031 C 
ATOM     24  C   UNL A   1      43.538  37.923  28.802  1.00  0.00     0.029 A 
ATOM     25  C   UNL A   1      44.821  37.597  28.202  1.00  0.00     0.049 A 
ATOM     26  H   UNL A   1      45.643  35.705  27.899  1.00  0.00     0.167 HD
ATOM     27  C   UNL A   1      47.074  31.426  27.549  1.00  0.00     0.034 A 
ATOM     28  C   UNL A   1      45.717  38.482  27.729  1.00  0.00     0.034 A 
ATOM     29  C   UNL A   1      48.114  32.278  27.059  1.00  0.00     0.049 A 
ATOM     30  C   UNL A   1      47.013  37.910  27.228  1.00  0.00     0.074 A 
ATOM     31  C   UNL A   1      49.352  31.933  26.564  1.00  0.00     0.029 A 
ATOM     32  N   UNL A   1      48.022  33.665  27.013  1.00  0.00    -0.354 N 
ATOM     33  N   UNL A   1      47.358  36.647  27.109  1.00  0.00    -0.248 NA
ATOM     34  C   UNL A   1      48.043  38.860  26.804  1.00  0.00     0.031 C 
ATOM     35  C   UNL A   1      50.025  33.118  26.254  1.00  0.00     0.029 A 
ATOM     36  C   UNL A   1      49.186  34.199  26.507  1.00  0.00     0.049 A 
ATOM     37  H   UNL A   1      47.239  34.189  27.299  1.00  0.00     0.167 HD
ATOM     38  C   UNL A   1      48.637  36.645  26.578  1.00  0.00     0.074 A 
ATOM     39  C   UNL A   1      48.996  38.039  26.379  1.00  0.00     0.031 C 
ATOM     40  C   UNL A   1      49.452  35.601  26.292  1.00  0.00     0.034 A 
BRANCH  27  41
ATOM     41  C   UNL A   1      47.248  29.937  27.567  1.00  0.00     0.023 A 
ATOM     42  C   UNL A   1      47.839  29.292  28.672  1.00  0.00     0.012 A 
ATOM     43  C   UNL A   1      46.842  29.177  26.454  1.00  0.00     0.148 A 
ATOM     44  C   UNL A   1      48.041  27.912  28.656  1.00  0.00     0.002 A 
ATOM     45  C   UNL A   1      46.999  27.800  26.467  1.00  0.00     0.091 A 
ATOM     46  F   UNL A   1      46.331  29.821  25.396  1.00  0.00    -0.205 F 
ATOM     47  C   UNL A   1      47.611  27.165  27.561  1.00  0.00     0.022 A 
BRANCH  45  48
ATOM     48  S   UNL A   1      46.418  26.745  25.137  1.00  0.00     0.127 S 
ATOM     49  O   UNL A   1      44.990  27.049  25.116  1.00  0.00    -0.237 OA
ATOM     50  O   UNL A   1      47.172  27.257  23.996  1.00  0.00    -0.237 OA
ATOM     51  O   UNL A   1      46.751  25.377  25.530  1.00  0.00    -0.744 OA
ENDBRANCH  45  48
ENDBRANCH  27  41
BRANCH  28  52
ATOM     52  C   UNL A   1      45.434  39.945  27.775  1.00  0.00     0.023 A 
ATOM     53  C   UNL A   1      44.831  40.577  26.672  1.00  0.00     0.012 A 
ATOM     54  C   UNL A   1      45.709  40.710  28.931  1.00  0.00     0.148 A 
ATOM     55  C   UNL A   1      44.524  41.939  26.712  1.00  0.00     0.002 A 
ATOM     56  C   UNL A   1      45.347  42.050  28.986  1.00  0.00     0.091 A 
ATOM     57  F   UNL A   1      46.300  40.101  29.970  1.00  0.00    -0.205 F 
ATOM     58  C   UNL A   1      44.770  42.673  27.870  1.00  0.00     0.022 A 
BRANCH  56  59
ATOM     59  S   UNL A   1      45.499  43.040  30.480  1.00  0.00     0.127 S 
ATOM     60  O   UNL A   1      46.940  43.043  30.693  1.00  0.00    -0.237 OA
ATOM     61  O   UNL A   1      44.931  44.317  30.054  1.00  0.00    -0.237 OA
ATOM     62  O   UNL A   1      44.713  42.343  31.497  1.00  0.00    -0.744 OA
ENDBRANCH  56  59
ENDBRANCH  28  52
BRANCH  40  63
ATOM     63  C   UNL A   1      50.789  35.920  25.696  1.00  0.00     0.023 A 
ATOM     64  C   UNL A   1      50.924  36.030  24.300  1.00  0.00     0.012 A 
ATOM     65  C   UNL A   1      51.858  36.274  26.540  1.00  0.00     0.148 A 
ATOM     66  C   UNL A   1      52.118  36.483  23.749  1.00  0.00     0.002 A 
ATOM     67  C   UNL A   1      53.020  36.786  25.986  1.00  0.00     0.091 A 
ATOM     68  F   UNL A   1      51.697  36.143  27.865  1.00  0.00    -0.205 F 
ATOM     69  C   UNL A   1      53.157  36.880  24.591  1.00  0.00     0.022 A 
BRANCH  67  70
ATOM     70  S   UNL A   1      54.348  37.446  26.994  1.00  0.00     0.127 S 
ATOM     71  O   UNL A   1      54.783  36.259  27.726  1.00  0.00    -0.237 OA
ATOM     72  O   UNL A   1      55.292  37.924  25.984  1.00  0.00    -0.237 OA
ATOM     73  O   UNL A   1      53.751  38.495  27.812  1.00  0.00    -0.744 OA
ENDBRANCH  67  70
ENDBRANCH  40  63
ENDBRANCH  14  15
ENDBRANCH   7   9
ENDBRANCH   6   7
ENDBRANCH   5   6
ENDBRANCH   4   5
ENDBRANCH   3   4
ENDBRANCH   2   3
ENDBRANCH   1   2
BRANCH   1  74
ATOM     74  O   UNL A   1      34.736  33.596  31.653  1.00  0.00    -0.377 OA
BRANCH  74  75
ATOM     75  C   UNL A   1      34.537  34.248  30.409  1.00  0.00     0.188 C 
BRANCH  75  76
ATOM     76  C   UNL A   1      35.583  34.044  29.312  1.00  0.00     0.188 C 
BRANCH  76  77
ATOM     77  O   UNL A   1      35.780  32.747  28.790  1.00  0.00    -0.376 OA
BRANCH  77  78
ATOM     78  C   UNL A   1      34.743  31.768  28.858  1.00  0.00     0.202 C 
BRANCH  78  79
ATOM     79  C   UNL A   1      34.163  31.101  27.596  1.00  0.00     0.261 C 
BRANCH  79  80
ATOM     80  O   UNL A   1      33.094  30.165  27.869  1.00  0.00    -0.461 OA
BRANCH  80  81
ATOM     81  C   UNL A   1      33.006  29.031  27.131  1.00  0.00     0.335 C 
ATOM     82  O   UNL A   1      33.846  28.136  27.141  1.00  0.00    -0.249 OA
BRANCH  81  83
ATOM     83  C   UNL A   1      31.680  28.916  26.328  1.00  0.00     0.232 C 
ATOM     84  C   UNL A   1      31.536  29.972  25.245  1.00  0.00     0.087 C 
ATOM     85  O   UNL A   1      31.300  27.667  25.781  1.00  0.00    -0.355 OA
ATOM     86  C   UNL A   1      31.319  29.240  23.905  1.00  0.00     0.123 C 
ATOM     87  C   UNL A   1      31.179  27.738  24.338  1.00  0.00     0.186 C 
BRANCH  86  88
ATOM     88  C   UNL A   1      30.193  29.998  23.175  1.00  0.00    -0.013 A 
ATOM     89  C   UNL A   1      29.468  30.994  23.898  1.00  0.00     0.010 A 
ATOM     90  C   UNL A   1      29.829  29.780  21.845  1.00  0.00     0.010 A 
ATOM     91  C   UNL A   1      28.482  31.777  23.299  1.00  0.00     0.039 A 
ATOM     92  C   UNL A   1      28.831  30.561  21.246  1.00  0.00     0.039 A 
ATOM     93  C   UNL A   1      28.179  31.557  21.969  1.00  0.00     0.123 A 
ATOM     94  F   UNL A   1      27.248  32.311  21.369  1.00  0.00    -0.207 F 
ENDBRANCH  86  88
BRANCH  86  95
ATOM     95  O   UNL A   1      32.337  29.390  22.923  1.00  0.00    -0.382 OA
ATOM     96  H   UNL A   1      32.119  30.136  22.343  1.00  0.00     0.212 HD
ENDBRANCH  86  95
BRANCH  87  97
ATOM     97  C   UNL A   1      32.147  26.664  23.828  1.00  0.00    -0.016 A 
ATOM     98  C   UNL A   1      33.263  26.254  24.573  1.00  0.00     0.009 A 
ATOM     99  C   UNL A   1      31.883  25.946  22.656  1.00  0.00     0.009 A 
ATOM    100  C   UNL A   1      34.089  25.192  24.203  1.00  0.00     0.039 A 
ATOM    101  C   UNL A   1      32.701  24.870  22.273  1.00  0.00     0.039 A 
ATOM    102  C   UNL A   1      33.793  24.501  23.050  1.00  0.00     0.123 A 
ATOM    103  F   UNL A   1      34.558  23.464  22.687  1.00  0.00    -0.207 F 
ENDBRANCH  87  97
ENDBRANCH  81  83
ENDBRANCH  80  81
ENDBRANCH  79  80
ENDBRANCH  78  79
ENDBRANCH  77  78
ENDBRANCH  76  77
ENDBRANCH  75  76
ENDBRANCH  74  75
ENDBRANCH   1  74
TORSDOF 26
ENDMDL
