MODEL 1
REMARK VINA RESULT:      -9.5      0.000      0.000
REMARK SMILES Cc1cccc(CS[C@@H]2CC[C@]([NH3+])(C(=O)OCCOCCOCCOCCOC(=O)c3ccc(-c4c5nc(c(-c6cccc(S(=O)(=O)[O-])c6F)c6ccc([nH]6)c(-c6cccc(S(=O)(=O)[O-])c6F)c6nc(c(-c7cccc(S(=O)(=O)[O-])c7F)c7ccc4[nH]7)C=C6)C=C5)cc3)C2)c1
REMARK SMILES IDX 22 1 21 2 20 3 19 4 18 5 17 6 16 7 14 8 15 9 12 10 9 11
REMARK SMILES IDX 10 12 94 13 11 14 8 15 7 16 6 17 1 18 2 19 3 20 95 21 4 22
REMARK SMILES IDX 5 23 13 24 23 28 24 29 25 30 26 31 27 32 28 33 29 34 30 35
REMARK SMILES IDX 31 36 32 37 93 38 33 39 92 40 34 41 35 42 36 43 86 44 37 45
REMARK SMILES IDX 91 46 85 47 87 48 38 49 90 50 84 51 83 52 39 54 71 55 51 56
REMARK SMILES IDX 70 57 52 58 55 59 69 60 88 61 53 62 54 63 68 65 89 66 56 67
REMARK SMILES IDX 40 68 41 69 49 70 42 71 44 72 50 73 43 74 45 75 46 76 47 77
REMARK SMILES IDX 48 78 72 79 73 80 81 81 74 82 76 83 82 84 75 85 77 86 78 87
REMARK SMILES IDX 79 88 80 89 57 90 58 91 66 92 59 93 61 94 67 95 60 96 62 97
REMARK SMILES IDX 63 98 64 99 65 100
REMARK H PARENT 13 25 13 26 13 27 87 53 55 64
REMARK Flexibility Score: inf
ROOT
ATOM      1  O   UNL A   1      33.339  29.237  23.641  1.00  0.00    -0.377 OA
ENDROOT
BRANCH   1   2
ATOM      2  C   UNL A   1      33.088  28.439  22.506  1.00  0.00     0.188 C 
BRANCH   2   3
ATOM      3  C   UNL A   1      33.889  27.139  22.398  1.00  0.00     0.188 C 
BRANCH   3   4
ATOM      4  O   UNL A   1      33.555  26.227  21.359  1.00  0.00    -0.376 OA
BRANCH   4   5
ATOM      5  C   UNL A   1      32.570  25.249  21.669  1.00  0.00     0.202 C 
BRANCH   5   6
ATOM      6  C   UNL A   1      33.162  24.022  22.275  1.00  0.00     0.261 C 
BRANCH   6   7
ATOM      7  O   UNL A   1      32.116  23.272  22.877  1.00  0.00    -0.459 OA
BRANCH   7   8
ATOM      8  C   UNL A   1      32.578  22.323  23.691  1.00  0.00     0.368 C 
ATOM      9  O   UNL A   1      33.373  21.442  23.376  1.00  0.00    -0.245 OA
BRANCH   8  10
ATOM     10  C   UNL A   1      32.095  22.524  25.120  1.00  0.00     0.193 C 
ATOM     11  C   UNL A   1      30.805  24.260  26.220  1.00  0.00     0.054 C 
ATOM     12  C   UNL A   1      32.102  24.029  27.006  1.00  0.00     0.022 C 
ATOM     13  C   UNL A   1      30.924  23.480  24.936  1.00  0.00     0.095 C 
ATOM     14  C   UNL A   1      33.036  23.243  26.087  1.00  0.00     0.082 C 
BRANCH  11  15
ATOM     15  S   UNL A   1      30.249  25.961  25.827  1.00  0.00    -0.154 SA
BRANCH  15  16
ATOM     16  C   UNL A   1      29.814  25.854  24.028  1.00  0.00     0.105 C 
BRANCH  16  17
ATOM     17  C   UNL A   1      28.975  27.015  23.561  1.00  0.00    -0.038 A 
ATOM     18  C   UNL A   1      29.468  30.462  22.023  1.00  0.00     0.044 C 
ATOM     19  C   UNL A   1      28.830  29.254  22.627  1.00  0.00    -0.051 A 
ATOM     20  C   UNL A   1      27.483  29.318  22.982  1.00  0.00     0.003 A 
ATOM     21  C   UNL A   1      29.573  28.099  22.911  1.00  0.00     0.008 A 
ATOM     22  C   UNL A   1      26.859  28.209  23.534  1.00  0.00     0.001 A 
ATOM     23  C   UNL A   1      27.592  27.056  23.787  1.00  0.00     0.004 A 
ENDBRANCH  16  17
ENDBRANCH  15  16
ENDBRANCH  11  15
BRANCH  10  24
ATOM     24  N   UNL A   1      31.656  21.245  25.720  1.00  0.00    -0.343 N 
ATOM     25  H   UNL A   1      30.936  20.823  25.132  1.00  0.00     0.345 HD
ATOM     26  H   UNL A   1      31.275  21.419  26.651  1.00  0.00     0.345 HD
ATOM     27  H   UNL A   1      32.451  20.611  25.791  1.00  0.00     0.345 HD
ENDBRANCH  10  24
ENDBRANCH   8  10
ENDBRANCH   7   8
ENDBRANCH   6   7
ENDBRANCH   5   6
ENDBRANCH   4   5
ENDBRANCH   3   4
ENDBRANCH   2   3
ENDBRANCH   1   2
BRANCH   1  28
ATOM     28  C   UNL A   1      32.671  28.929  24.841  1.00  0.00     0.188 C 
BRANCH  28  29
ATOM     29  C   UNL A   1      31.667  29.971  25.431  1.00  0.00     0.188 C 
BRANCH  29  30
ATOM     30  O   UNL A   1      31.752  30.284  26.795  1.00  0.00    -0.376 OA
BRANCH  30  31
ATOM     31  C   UNL A   1      33.076  30.622  27.118  1.00  0.00     0.202 C 
BRANCH  31  32
ATOM     32  C   UNL A   1      33.357  31.961  27.907  1.00  0.00     0.261 C 
BRANCH  32  33
ATOM     33  O   UNL A   1      34.389  32.224  29.090  1.00  0.00    -0.460 OA
BRANCH  33  34
ATOM     34  C   UNL A   1      35.318  32.392  30.076  1.00  0.00     0.338 C 
ATOM     35  O   UNL A   1      34.938  33.015  31.071  1.00  0.00    -0.246 OA
BRANCH  34  36
ATOM     36  C   UNL A   1      36.836  32.039  30.066  1.00  0.00     0.060 A 
ATOM     37  C   UNL A   1      37.412  31.290  31.086  1.00  0.00     0.016 A 
ATOM     38  C   UNL A   1      37.800  32.437  29.171  1.00  0.00     0.016 A 
ATOM     39  C   UNL A   1      38.740  31.564  31.522  1.00  0.00     0.010 A 
ATOM     40  C   UNL A   1      39.014  32.909  29.685  1.00  0.00     0.010 A 
ATOM     41  C   UNL A   1      39.379  32.658  31.002  1.00  0.00    -0.014 A 
BRANCH  41  42
ATOM     42  C   UNL A   1      40.315  33.609  31.680  1.00  0.00     0.031 A 
ATOM     43  C   UNL A   1      39.750  34.333  32.901  1.00  0.00     0.074 A 
ATOM     44  C   UNL A   1      41.669  33.447  31.473  1.00  0.00     0.049 A 
ATOM     45  N   UNL A   1      40.408  34.961  33.814  1.00  0.00    -0.248 NA
ATOM     46  C   UNL A   1      38.316  34.318  33.229  1.00  0.00     0.031 C 
ATOM     47  C   UNL A   1      42.733  33.616  32.472  1.00  0.00     0.029 A 
ATOM     48  N   UNL A   1      42.436  32.992  30.396  1.00  0.00    -0.354 N 
ATOM     49  C   UNL A   1      39.590  35.143  34.941  1.00  0.00     0.074 A 
ATOM     50  C   UNL A   1      38.288  34.722  34.508  1.00  0.00     0.031 C 
ATOM     51  C   UNL A   1      43.947  33.301  31.994  1.00  0.00     0.029 A 
ATOM     52  C   UNL A   1      43.809  33.290  30.565  1.00  0.00     0.049 A 
ATOM     53  H   UNL A   1      42.066  32.521  29.614  1.00  0.00     0.167 HD
ATOM     54  C   UNL A   1      40.147  35.543  36.131  1.00  0.00     0.034 A 
ATOM     55  C   UNL A   1      44.482  34.286  29.892  1.00  0.00     0.034 A 
ATOM     56  C   UNL A   1      41.533  35.978  35.881  1.00  0.00     0.049 A 
ATOM     57  C   UNL A   1      44.504  35.655  30.629  1.00  0.00     0.074 A 
ATOM     58  C   UNL A   1      42.771  35.510  36.282  1.00  0.00     0.029 A 
ATOM     59  N   UNL A   1      41.778  36.881  34.849  1.00  0.00    -0.354 N 
ATOM     60  N   UNL A   1      43.850  35.911  31.741  1.00  0.00    -0.248 NA
ATOM     61  C   UNL A   1      45.343  36.796  30.257  1.00  0.00     0.031 C 
ATOM     62  C   UNL A   1      43.665  35.820  35.219  1.00  0.00     0.029 A 
ATOM     63  C   UNL A   1      43.072  36.749  34.381  1.00  0.00     0.049 A 
ATOM     64  H   UNL A   1      41.119  37.525  34.501  1.00  0.00     0.167 HD
ATOM     65  C   UNL A   1      44.123  37.164  32.222  1.00  0.00     0.074 A 
ATOM     66  C   UNL A   1      45.087  37.669  31.253  1.00  0.00     0.031 C 
ATOM     67  C   UNL A   1      43.607  37.682  33.390  1.00  0.00     0.034 A 
BRANCH  54  68
ATOM     68  C   UNL A   1      39.599  35.446  37.576  1.00  0.00     0.023 A 
ATOM     69  C   UNL A   1      39.758  36.603  38.388  1.00  0.00     0.012 A 
ATOM     70  C   UNL A   1      39.039  34.322  38.245  1.00  0.00     0.148 A 
ATOM     71  C   UNL A   1      39.430  36.654  39.752  1.00  0.00     0.002 A 
ATOM     72  C   UNL A   1      38.656  34.390  39.606  1.00  0.00     0.091 A 
ATOM     73  F   UNL A   1      38.907  33.164  37.588  1.00  0.00    -0.205 F 
ATOM     74  C   UNL A   1      38.870  35.548  40.361  1.00  0.00     0.022 A 
BRANCH  72  75
ATOM     75  S   UNL A   1      37.838  33.049  40.508  1.00  0.00     0.127 S 
ATOM     76  O   UNL A   1      38.859  32.001  40.514  1.00  0.00    -0.237 OA
ATOM     77  O   UNL A   1      37.596  33.658  41.817  1.00  0.00    -0.237 OA
ATOM     78  O   UNL A   1      36.633  32.728  39.754  1.00  0.00    -0.744 OA
ENDBRANCH  72  75
ENDBRANCH  54  68
BRANCH  55  79
ATOM     79  C   UNL A   1      44.632  33.950  28.440  1.00  0.00     0.023 A 
ATOM     80  C   UNL A   1      43.748  34.673  27.580  1.00  0.00     0.012 A 
ATOM     81  C   UNL A   1      45.928  33.692  28.008  1.00  0.00     0.148 A 
ATOM     82  C   UNL A   1      44.242  35.403  26.496  1.00  0.00     0.002 A 
ATOM     83  C   UNL A   1      46.436  34.513  27.013  1.00  0.00     0.091 A 
ATOM     84  F   UNL A   1      46.709  32.893  28.748  1.00  0.00    -0.205 F 
ATOM     85  C   UNL A   1      45.601  35.360  26.243  1.00  0.00     0.022 A 
BRANCH  83  86
ATOM     86  S   UNL A   1      48.039  35.253  27.339  1.00  0.00     0.127 S 
ATOM     87  O   UNL A   1      48.969  34.466  26.542  1.00  0.00    -0.237 OA
ATOM     88  O   UNL A   1      47.715  36.573  26.806  1.00  0.00    -0.237 OA
ATOM     89  O   UNL A   1      48.237  35.204  28.779  1.00  0.00    -0.744 OA
ENDBRANCH  83  86
ENDBRANCH  55  79
BRANCH  67  90
ATOM     90  C   UNL A   1      43.681  39.149  33.835  1.00  0.00     0.023 A 
ATOM     91  C   UNL A   1      44.194  39.514  35.088  1.00  0.00     0.012 A 
ATOM     92  C   UNL A   1      43.356  40.227  32.954  1.00  0.00     0.148 A 
ATOM     93  C   UNL A   1      44.301  40.852  35.483  1.00  0.00     0.002 A 
ATOM     94  C   UNL A   1      43.624  41.549  33.290  1.00  0.00     0.091 A 
ATOM     95  F   UNL A   1      42.735  40.001  31.791  1.00  0.00    -0.205 F 
ATOM     96  C   UNL A   1      44.048  41.870  34.576  1.00  0.00     0.022 A 
BRANCH  94  97
ATOM     97  S   UNL A   1      43.602  42.875  32.071  1.00  0.00     0.127 S 
ATOM     98  O   UNL A   1      44.118  44.001  32.845  1.00  0.00    -0.237 OA
ATOM     99  O   UNL A   1      44.523  42.356  31.057  1.00  0.00    -0.237 OA
ATOM    100  O   UNL A   1      42.222  42.994  31.624  1.00  0.00    -0.744 OA
ENDBRANCH  94  97
ENDBRANCH  67  90
ENDBRANCH  41  42
ENDBRANCH  34  36
ENDBRANCH  33  34
ENDBRANCH  32  33
ENDBRANCH  31  32
ENDBRANCH  30  31
ENDBRANCH  29  30
ENDBRANCH  28  29
ENDBRANCH   1  28
TORSDOF 27
ENDMDL
MODEL 2
REMARK VINA RESULT:      -9.5      5.660     10.455
REMARK SMILES Cc1cccc(CS[C@@H]2CC[C@]([NH3+])(C(=O)OCCOCCOCCOCCOC(=O)c3ccc(-c4c5nc(c(-c6cccc(S(=O)(=O)[O-])c6F)c6ccc([nH]6)c(-c6cccc(S(=O)(=O)[O-])c6F)c6nc(c(-c7cccc(S(=O)(=O)[O-])c7F)c7ccc4[nH]7)C=C6)C=C5)cc3)C2)c1
REMARK SMILES IDX 22 1 21 2 20 3 19 4 18 5 17 6 16 7 14 8 15 9 12 10 9 11
REMARK SMILES IDX 10 12 94 13 11 14 8 15 7 16 6 17 1 18 2 19 3 20 95 21 4 22
REMARK SMILES IDX 5 23 13 24 23 28 24 29 25 30 26 31 27 32 28 33 29 34 30 35
REMARK SMILES IDX 31 36 32 37 93 38 33 39 92 40 34 41 35 42 36 43 86 44 37 45
REMARK SMILES IDX 91 46 85 47 87 48 38 49 90 50 84 51 83 52 39 54 71 55 51 56
REMARK SMILES IDX 70 57 52 58 55 59 69 60 88 61 53 62 54 63 68 65 89 66 56 67
REMARK SMILES IDX 40 68 41 69 49 70 42 71 44 72 50 73 43 74 45 75 46 76 47 77
REMARK SMILES IDX 48 78 72 79 73 80 81 81 74 82 76 83 82 84 75 85 77 86 78 87
REMARK SMILES IDX 79 88 80 89 57 90 58 91 66 92 59 93 61 94 67 95 60 96 62 97
REMARK SMILES IDX 63 98 64 99 65 100
REMARK H PARENT 13 25 13 26 13 27 87 53 55 64
REMARK Flexibility Score: inf
ROOT
ATOM      1  O   UNL A   1      33.426  29.308  23.612  1.00  0.00    -0.377 OA
ENDROOT
BRANCH   1   2
ATOM      2  C   UNL A   1      33.600  28.465  22.495  1.00  0.00     0.188 C 
BRANCH   2   3
ATOM      3  C   UNL A   1      33.908  26.995  22.793  1.00  0.00     0.188 C 
BRANCH   3   4
ATOM      4  O   UNL A   1      33.792  26.054  21.734  1.00  0.00    -0.376 OA
BRANCH   4   5
ATOM      5  C   UNL A   1      32.682  25.168  21.795  1.00  0.00     0.202 C 
BRANCH   5   6
ATOM      6  C   UNL A   1      33.083  23.784  22.177  1.00  0.00     0.261 C 
BRANCH   6   7
ATOM      7  O   UNL A   1      33.171  23.720  23.594  1.00  0.00    -0.459 OA
BRANCH   7   8
ATOM      8  C   UNL A   1      32.047  23.267  24.150  1.00  0.00     0.368 C 
ATOM      9  O   UNL A   1      30.961  23.839  24.123  1.00  0.00    -0.245 OA
BRANCH   8  10
ATOM     10  C   UNL A   1      32.230  21.875  24.735  1.00  0.00     0.193 C 
ATOM     11  C   UNL A   1      34.177  20.550  25.321  1.00  0.00     0.054 C 
ATOM     12  C   UNL A   1      33.269  19.722  24.403  1.00  0.00     0.022 C 
ATOM     13  C   UNL A   1      33.629  21.953  25.333  1.00  0.00     0.095 C 
ATOM     14  C   UNL A   1      32.291  20.702  23.755  1.00  0.00     0.082 C 
BRANCH  11  15
ATOM     15  S   UNL A   1      35.982  20.625  25.018  1.00  0.00    -0.154 SA
BRANCH  15  16
ATOM     16  C   UNL A   1      36.344  22.442  25.091  1.00  0.00     0.105 C 
BRANCH  16  17
ATOM     17  C   UNL A   1      37.686  22.746  25.705  1.00  0.00    -0.038 A 
ATOM     18  C   UNL A   1      40.821  20.879  26.790  1.00  0.00     0.044 C 
ATOM     19  C   UNL A   1      39.825  21.967  26.555  1.00  0.00    -0.051 A 
ATOM     20  C   UNL A   1      40.050  23.214  27.137  1.00  0.00     0.003 A 
ATOM     21  C   UNL A   1      38.646  21.737  25.833  1.00  0.00     0.008 A 
ATOM     22  C   UNL A   1      39.152  24.249  26.929  1.00  0.00     0.001 A 
ATOM     23  C   UNL A   1      37.997  24.025  26.188  1.00  0.00     0.004 A 
ENDBRANCH  16  17
ENDBRANCH  15  16
ENDBRANCH  11  15
BRANCH  10  24
ATOM     24  N   UNL A   1      31.216  21.594  25.775  1.00  0.00    -0.343 N 
ATOM     25  H   UNL A   1      30.561  22.375  25.830  1.00  0.00     0.345 HD
ATOM     26  H   UNL A   1      31.678  21.474  26.676  1.00  0.00     0.345 HD
ATOM     27  H   UNL A   1      30.709  20.743  25.535  1.00  0.00     0.345 HD
ENDBRANCH  10  24
ENDBRANCH   8  10
ENDBRANCH   7   8
ENDBRANCH   6   7
ENDBRANCH   5   6
ENDBRANCH   4   5
ENDBRANCH   3   4
ENDBRANCH   2   3
ENDBRANCH   1   2
BRANCH   1  28
ATOM     28  C   UNL A   1      32.585  28.877  24.655  1.00  0.00     0.188 C 
BRANCH  28  29
ATOM     29  C   UNL A   1      31.296  29.700  24.971  1.00  0.00     0.188 C 
BRANCH  29  30
ATOM     30  O   UNL A   1      31.410  30.838  25.784  1.00  0.00    -0.376 OA
BRANCH  30  31
ATOM     31  C   UNL A   1      32.238  30.549  26.881  1.00  0.00     0.202 C 
BRANCH  31  32
ATOM     32  C   UNL A   1      33.161  31.690  27.467  1.00  0.00     0.261 C 
BRANCH  32  33
ATOM     33  O   UNL A   1      34.630  31.572  28.070  1.00  0.00    -0.460 OA
BRANCH  33  34
ATOM     34  C   UNL A   1      35.892  31.399  28.558  1.00  0.00     0.338 C 
ATOM     35  O   UNL A   1      36.481  32.428  28.901  1.00  0.00    -0.246 OA
BRANCH  34  36
ATOM     36  C   UNL A   1      36.757  30.104  28.610  1.00  0.00     0.060 A 
ATOM     37  C   UNL A   1      36.850  29.342  29.770  1.00  0.00     0.016 A 
ATOM     38  C   UNL A   1      37.568  29.578  27.634  1.00  0.00     0.016 A 
ATOM     39  C   UNL A   1      38.070  28.692  30.110  1.00  0.00     0.010 A 
ATOM     40  C   UNL A   1      38.851  29.159  28.006  1.00  0.00     0.010 A 
ATOM     41  C   UNL A   1      39.174  28.943  29.340  1.00  0.00    -0.014 A 
BRANCH  41  42
ATOM     42  C   UNL A   1      40.604  29.080  29.762  1.00  0.00     0.031 A 
ATOM     43  C   UNL A   1      41.501  27.883  29.453  1.00  0.00     0.074 A 
ATOM     44  C   UNL A   1      41.103  30.351  29.962  1.00  0.00     0.049 A 
ATOM     45  N   UNL A   1      42.789  27.851  29.440  1.00  0.00    -0.248 NA
ATOM     46  C   UNL A   1      40.957  26.583  29.029  1.00  0.00     0.031 C 
ATOM     47  C   UNL A   1      42.445  30.829  29.605  1.00  0.00     0.029 A 
ATOM     48  N   UNL A   1      40.543  31.551  30.411  1.00  0.00    -0.354 N 
ATOM     49  C   UNL A   1      43.223  26.711  28.746  1.00  0.00     0.074 A 
ATOM     50  C   UNL A   1      42.026  25.954  28.518  1.00  0.00     0.031 C 
ATOM     51  C   UNL A   1      42.608  32.140  29.843  1.00  0.00     0.029 A 
ATOM     52  C   UNL A   1      41.537  32.509  30.724  1.00  0.00     0.049 A 
ATOM     53  H   UNL A   1      39.576  31.711  30.500  1.00  0.00     0.167 HD
ATOM     54  C   UNL A   1      44.540  26.602  28.370  1.00  0.00     0.034 A 
ATOM     55  C   UNL A   1      41.910  32.861  32.003  1.00  0.00     0.034 A 
ATOM     56  C   UNL A   1      45.316  27.651  29.055  1.00  0.00     0.049 A 
ATOM     57  C   UNL A   1      43.095  32.033  32.575  1.00  0.00     0.074 A 
ATOM     58  C   UNL A   1      46.028  28.755  28.620  1.00  0.00     0.029 A 
ATOM     59  N   UNL A   1      45.167  27.807  30.432  1.00  0.00    -0.354 N 
ATOM     60  N   UNL A   1      43.643  31.002  31.968  1.00  0.00    -0.248 NA
ATOM     61  C   UNL A   1      43.836  32.359  33.796  1.00  0.00     0.031 C 
ATOM     62  C   UNL A   1      45.915  29.722  29.659  1.00  0.00     0.029 A 
ATOM     63  C   UNL A   1      45.467  29.101  30.813  1.00  0.00     0.049 A 
ATOM     64  H   UNL A   1      44.886  27.092  31.048  1.00  0.00     0.167 HD
ATOM     65  C   UNL A   1      44.728  30.521  32.651  1.00  0.00     0.074 A 
ATOM     66  C   UNL A   1      44.814  31.429  33.786  1.00  0.00     0.031 C 
ATOM     67  C   UNL A   1      45.515  29.472  32.226  1.00  0.00     0.034 A 
BRANCH  54  68
ATOM     68  C   UNL A   1      45.205  25.702  27.299  1.00  0.00     0.023 A 
ATOM     69  C   UNL A   1      46.476  26.127  26.821  1.00  0.00     0.012 A 
ATOM     70  C   UNL A   1      44.678  24.552  26.648  1.00  0.00     0.148 A 
ATOM     71  C   UNL A   1      47.166  25.502  25.770  1.00  0.00     0.002 A 
ATOM     72  C   UNL A   1      45.400  23.888  25.627  1.00  0.00     0.091 A 
ATOM     73  F   UNL A   1      43.460  24.108  26.979  1.00  0.00    -0.205 F 
ATOM     74  C   UNL A   1      46.632  24.375  25.177  1.00  0.00     0.022 A 
BRANCH  72  75
ATOM     75  S   UNL A   1      44.860  22.359  24.820  1.00  0.00     0.127 S 
ATOM     76  O   UNL A   1      46.091  21.882  24.187  1.00  0.00    -0.237 OA
ATOM     77  O   UNL A   1      44.418  21.548  25.956  1.00  0.00    -0.237 OA
ATOM     78  O   UNL A   1      43.801  22.740  23.895  1.00  0.00    -0.744 OA
ENDBRANCH  72  75
ENDBRANCH  54  68
BRANCH  55  79
ATOM     79  C   UNL A   1      40.819  33.620  32.694  1.00  0.00     0.023 A 
ATOM     80  C   UNL A   1      40.103  34.519  31.843  1.00  0.00     0.012 A 
ATOM     81  C   UNL A   1      40.121  32.920  33.672  1.00  0.00     0.148 A 
ATOM     82  C   UNL A   1      38.711  34.456  31.745  1.00  0.00     0.002 A 
ATOM     83  C   UNL A   1      38.754  32.769  33.484  1.00  0.00     0.091 A 
ATOM     84  F   UNL A   1      40.808  32.190  34.561  1.00  0.00    -0.205 F 
ATOM     85  C   UNL A   1      38.040  33.540  32.534  1.00  0.00     0.022 A 
BRANCH  83  86
ATOM     86  S   UNL A   1      38.118  31.095  33.617  1.00  0.00     0.127 S 
ATOM     87  O   UNL A   1      36.824  31.147  32.951  1.00  0.00    -0.237 OA
ATOM     88  O   UNL A   1      39.190  30.458  32.859  1.00  0.00    -0.237 OA
ATOM     89  O   UNL A   1      38.090  30.770  35.034  1.00  0.00    -0.744 OA
ENDBRANCH  83  86
ENDBRANCH  55  79
BRANCH  67  90
ATOM     90  C   UNL A   1      46.573  28.743  33.066  1.00  0.00     0.023 A 
ATOM     91  C   UNL A   1      47.902  29.187  33.124  1.00  0.00     0.012 A 
ATOM     92  C   UNL A   1      46.239  27.655  33.932  1.00  0.00     0.148 A 
ATOM     93  C   UNL A   1      48.862  28.550  33.919  1.00  0.00     0.002 A 
ATOM     94  C   UNL A   1      47.155  27.140  34.841  1.00  0.00     0.091 A 
ATOM     95  F   UNL A   1      45.041  27.064  33.861  1.00  0.00    -0.205 F 
ATOM     96  C   UNL A   1      48.484  27.549  34.801  1.00  0.00     0.022 A 
BRANCH  94  97
ATOM     97  S   UNL A   1      46.661  26.065  36.200  1.00  0.00     0.127 S 
ATOM     98  O   UNL A   1      47.915  25.916  36.934  1.00  0.00    -0.237 OA
ATOM     99  O   UNL A   1      45.652  26.887  36.871  1.00  0.00    -0.237 OA
ATOM    100  O   UNL A   1      46.138  24.852  35.589  1.00  0.00    -0.744 OA
ENDBRANCH  94  97
ENDBRANCH  67  90
ENDBRANCH  41  42
ENDBRANCH  34  36
ENDBRANCH  33  34
ENDBRANCH  32  33
ENDBRANCH  31  32
ENDBRANCH  30  31
ENDBRANCH  29  30
ENDBRANCH  28  29
ENDBRANCH   1  28
TORSDOF 27
ENDMDL
MODEL 3
REMARK VINA RESULT:      -9.1      9.264     14.251
REMARK SMILES Cc1cccc(CS[C@@H]2CC[C@]([NH3+])(C(=O)OCCOCCOCCOCCOC(=O)c3ccc(-c4c5nc(c(-c6cccc(S(=O)(=O)[O-])c6F)c6ccc([nH]6)c(-c6cccc(S(=O)(=O)[O-])c6F)c6nc(c(-c7cccc(S(=O)(=O)[O-])c7F)c7ccc4[nH]7)C=C6)C=C5)cc3)C2)c1
REMARK SMILES IDX 22 1 21 2 20 3 19 4 18 5 17 6 16 7 14 8 15 9 12 10 9 11
REMARK SMILES IDX 10 12 94 13 11 14 8 15 7 16 6 17 1 18 2 19 3 20 95 21 4 22
REMARK SMILES IDX 5 23 13 24 23 28 24 29 25 30 26 31 27 32 28 33 29 34 30 35
REMARK SMILES IDX 31 36 32 37 93 38 33 39 92 40 34 41 35 42 36 43 86 44 37 45
REMARK SMILES IDX 91 46 85 47 87 48 38 49 90 50 84 51 83 52 39 54 71 55 51 56
REMARK SMILES IDX 70 57 52 58 55 59 69 60 88 61 53 62 54 63 68 65 89 66 56 67
REMARK SMILES IDX 40 68 41 69 49 70 42 71 44 72 50 73 43 74 45 75 46 76 47 77
REMARK SMILES IDX 48 78 72 79 73 80 81 81 74 82 76 83 82 84 75 85 77 86 78 87
REMARK SMILES IDX 79 88 80 89 57 90 58 91 66 92 59 93 61 94 67 95 60 96 62 97
REMARK SMILES IDX 63 98 64 99 65 100
REMARK H PARENT 13 25 13 26 13 27 87 53 55 64
REMARK Flexibility Score: inf
ROOT
ATOM      1  O   UNL A   1      42.639  20.397  26.198  1.00  0.00    -0.377 OA
ENDROOT
BRANCH   1   2
ATOM      2  C   UNL A   1      41.274  20.744  26.139  1.00  0.00     0.188 C 
BRANCH   2   3
ATOM      3  C   UNL A   1      40.703  21.468  27.362  1.00  0.00     0.188 C 
BRANCH   3   4
ATOM      4  O   UNL A   1      39.648  22.400  27.161  1.00  0.00    -0.376 OA
BRANCH   4   5
ATOM      5  C   UNL A   1      39.165  22.531  25.831  1.00  0.00     0.202 C 
BRANCH   5   6
ATOM      6  C   UNL A   1      37.859  21.841  25.632  1.00  0.00     0.261 C 
BRANCH   6   7
ATOM      7  O   UNL A   1      36.842  22.830  25.536  1.00  0.00    -0.459 OA
BRANCH   7   8
ATOM      8  C   UNL A   1      36.222  22.805  24.356  1.00  0.00     0.368 C 
ATOM      9  O   UNL A   1      36.744  22.509  23.286  1.00  0.00    -0.245 OA
BRANCH   8  10
ATOM     10  C   UNL A   1      34.731  23.074  24.499  1.00  0.00     0.193 C 
ATOM     11  C   UNL A   1      33.192  24.587  23.389  1.00  0.00     0.054 C 
ATOM     12  C   UNL A   1      33.068  24.775  24.906  1.00  0.00     0.022 C 
ATOM     13  C   UNL A   1      34.382  23.695  23.151  1.00  0.00     0.095 C 
ATOM     14  C   UNL A   1      34.298  24.117  25.530  1.00  0.00     0.082 C 
BRANCH  11  15
ATOM     15  S   UNL A   1      33.317  26.042  22.281  1.00  0.00    -0.154 SA
BRANCH  15  16
ATOM     16  C   UNL A   1      32.929  27.461  23.409  1.00  0.00     0.105 C 
BRANCH  16  17
ATOM     17  C   UNL A   1      31.522  27.973  23.240  1.00  0.00    -0.038 A 
ATOM     18  C   UNL A   1      27.958  26.807  23.897  1.00  0.00     0.044 C 
ATOM     19  C   UNL A   1      29.126  27.623  23.448  1.00  0.00    -0.051 A 
ATOM     20  C   UNL A   1      28.891  28.742  22.649  1.00  0.00     0.003 A 
ATOM     21  C   UNL A   1      30.442  27.245  23.749  1.00  0.00     0.008 A 
ATOM     22  C   UNL A   1      29.952  29.527  22.226  1.00  0.00     0.001 A 
ATOM     23  C   UNL A   1      31.255  29.164  22.551  1.00  0.00     0.004 A 
ENDBRANCH  16  17
ENDBRANCH  15  16
ENDBRANCH  11  15
BRANCH  10  24
ATOM     24  N   UNL A   1      33.981  21.819  24.722  1.00  0.00    -0.343 N 
ATOM     25  H   UNL A   1      33.053  21.899  24.305  1.00  0.00     0.345 HD
ATOM     26  H   UNL A   1      33.889  21.652  25.725  1.00  0.00     0.345 HD
ATOM     27  H   UNL A   1      34.481  21.042  24.292  1.00  0.00     0.345 HD
ENDBRANCH  10  24
ENDBRANCH   8  10
ENDBRANCH   7   8
ENDBRANCH   6   7
ENDBRANCH   5   6
ENDBRANCH   4   5
ENDBRANCH   3   4
ENDBRANCH   2   3
ENDBRANCH   1   2
BRANCH   1  28
ATOM     28  C   UNL A   1      43.017  19.089  25.839  1.00  0.00     0.188 C 
BRANCH  28  29
ATOM     29  C   UNL A   1      44.269  18.892  24.926  1.00  0.00     0.188 C 
BRANCH  29  30
ATOM     30  O   UNL A   1      45.323  18.096  25.398  1.00  0.00    -0.376 OA
BRANCH  30  31
ATOM     31  C   UNL A   1      46.483  18.877  25.521  1.00  0.00     0.202 C 
BRANCH  31  32
ATOM     32  C   UNL A   1      46.600  20.215  24.689  1.00  0.00     0.261 C 
BRANCH  32  33
ATOM     33  O   UNL A   1      45.627  21.475  24.685  1.00  0.00    -0.460 OA
BRANCH  33  34
ATOM     34  C   UNL A   1      44.738  22.511  24.649  1.00  0.00     0.338 C 
ATOM     35  O   UNL A   1      44.139  22.666  23.582  1.00  0.00    -0.246 OA
BRANCH  34  36
ATOM     36  C   UNL A   1      44.478  23.618  25.714  1.00  0.00     0.060 A 
ATOM     37  C   UNL A   1      44.907  24.926  25.517  1.00  0.00     0.016 A 
ATOM     38  C   UNL A   1      43.903  23.493  26.955  1.00  0.00     0.016 A 
ATOM     39  C   UNL A   1      45.367  25.708  26.614  1.00  0.00     0.010 A 
ATOM     40  C   UNL A   1      44.541  24.111  28.037  1.00  0.00     0.010 A 
ATOM     41  C   UNL A   1      45.497  25.099  27.834  1.00  0.00    -0.014 A 
BRANCH  41  42
ATOM     42  C   UNL A   1      46.543  25.310  28.884  1.00  0.00     0.031 A 
ATOM     43  C   UNL A   1      47.989  25.219  28.401  1.00  0.00     0.074 A 
ATOM     44  C   UNL A   1      46.185  25.983  30.033  1.00  0.00     0.049 A 
ATOM     45  N   UNL A   1      49.047  25.636  29.008  1.00  0.00    -0.248 NA
ATOM     46  C   UNL A   1      48.343  24.691  27.073  1.00  0.00     0.031 C 
ATOM     47  C   UNL A   1      47.004  26.955  30.768  1.00  0.00     0.029 A 
ATOM     48  N   UNL A   1      45.000  26.076  30.771  1.00  0.00    -0.354 N 
ATOM     49  C   UNL A   1      50.109  25.726  28.094  1.00  0.00     0.074 A 
ATOM     50  C   UNL A   1      49.604  25.114  26.899  1.00  0.00     0.031 C 
ATOM     51  C   UNL A   1      46.348  27.511  31.799  1.00  0.00     0.029 A 
ATOM     52  C   UNL A   1      45.218  26.659  32.042  1.00  0.00     0.049 A 
ATOM     53  H   UNL A   1      44.122  25.772  30.447  1.00  0.00     0.167 HD
ATOM     54  C   UNL A   1      51.255  26.397  28.445  1.00  0.00     0.034 A 
ATOM     55  C   UNL A   1      45.238  25.963  33.230  1.00  0.00     0.034 A 
ATOM     56  C   UNL A   1      51.222  26.665  29.893  1.00  0.00     0.049 A 
ATOM     57  C   UNL A   1      46.648  25.470  33.658  1.00  0.00     0.074 A 
ATOM     58  C   UNL A   1      51.169  27.819  30.654  1.00  0.00     0.029 A 
ATOM     59  N   UNL A   1      50.932  25.616  30.764  1.00  0.00    -0.354 N 
ATOM     60  N   UNL A   1      47.732  25.585  32.922  1.00  0.00    -0.248 NA
ATOM     61  C   UNL A   1      46.984  24.925  34.977  1.00  0.00     0.031 C 
ATOM     62  C   UNL A   1      50.449  27.474  31.832  1.00  0.00     0.029 A 
ATOM     63  C   UNL A   1      50.389  26.095  31.942  1.00  0.00     0.049 A 
ATOM     64  H   UNL A   1      51.092  24.665  30.567  1.00  0.00     0.167 HD
ATOM     65  C   UNL A   1      48.852  25.153  33.582  1.00  0.00     0.074 A 
ATOM     66  C   UNL A   1      48.321  24.767  34.882  1.00  0.00     0.031 C 
ATOM     67  C   UNL A   1      50.129  25.195  33.065  1.00  0.00     0.034 A 
BRANCH  54  68
ATOM     68  C   UNL A   1      52.382  26.985  27.559  1.00  0.00     0.023 A 
ATOM     69  C   UNL A   1      52.037  27.271  26.209  1.00  0.00     0.012 A 
ATOM     70  C   UNL A   1      53.753  27.192  27.880  1.00  0.00     0.148 A 
ATOM     71  C   UNL A   1      52.958  27.693  25.239  1.00  0.00     0.002 A 
ATOM     72  C   UNL A   1      54.671  27.672  26.915  1.00  0.00     0.091 A 
ATOM     73  F   UNL A   1      54.194  26.892  29.107  1.00  0.00    -0.205 F 
ATOM     74  C   UNL A   1      54.277  27.903  25.593  1.00  0.00     0.022 A 
BRANCH  72  75
ATOM     75  S   UNL A   1      56.404  28.068  27.259  1.00  0.00     0.127 S 
ATOM     76  O   UNL A   1      56.905  28.472  25.945  1.00  0.00    -0.237 OA
ATOM     77  O   UNL A   1      56.287  29.167  28.219  1.00  0.00    -0.237 OA
ATOM     78  O   UNL A   1      57.000  26.852  27.796  1.00  0.00    -0.744 OA
ENDBRANCH  72  75
ENDBRANCH  54  68
BRANCH  55  79
ATOM     79  C   UNL A   1      43.873  25.459  33.584  1.00  0.00     0.023 A 
ATOM     80  C   UNL A   1      43.838  24.081  33.961  1.00  0.00     0.012 A 
ATOM     81  C   UNL A   1      43.049  26.359  34.250  1.00  0.00     0.148 A 
ATOM     82  C   UNL A   1      43.272  23.685  35.175  1.00  0.00     0.002 A 
ATOM     83  C   UNL A   1      42.599  25.989  35.510  1.00  0.00     0.091 A 
ATOM     84  F   UNL A   1      42.973  27.620  33.804  1.00  0.00    -0.205 F 
ATOM     85  C   UNL A   1      42.694  24.654  35.975  1.00  0.00     0.022 A 
BRANCH  83  86
ATOM     86  S   UNL A   1      42.852  27.185  36.824  1.00  0.00     0.127 S 
ATOM     87  O   UNL A   1      41.803  28.174  36.618  1.00  0.00    -0.237 OA
ATOM     88  O   UNL A   1      42.632  26.256  37.928  1.00  0.00    -0.237 OA
ATOM     89  O   UNL A   1      44.217  27.671  36.691  1.00  0.00    -0.744 OA
ENDBRANCH  83  86
ENDBRANCH  55  79
BRANCH  67  90
ATOM     90  C   UNL A   1      51.363  24.502  33.656  1.00  0.00     0.023 A 
ATOM     91  C   UNL A   1      52.033  25.018  34.775  1.00  0.00     0.012 A 
ATOM     92  C   UNL A   1      51.820  23.231  33.185  1.00  0.00     0.148 A 
ATOM     93  C   UNL A   1      53.135  24.369  35.343  1.00  0.00     0.002 A 
ATOM     94  C   UNL A   1      52.802  22.515  33.858  1.00  0.00     0.091 A 
ATOM     95  F   UNL A   1      51.347  22.710  32.047  1.00  0.00    -0.205 F 
ATOM     96  C   UNL A   1      53.500  23.104  34.908  1.00  0.00     0.022 A 
BRANCH  94  97
ATOM     97  S   UNL A   1      53.113  20.770  33.534  1.00  0.00     0.127 S 
ATOM     98  O   UNL A   1      54.158  20.467  34.508  1.00  0.00    -0.237 OA
ATOM     99  O   UNL A   1      51.807  20.180  33.834  1.00  0.00    -0.237 OA
ATOM    100  O   UNL A   1      53.506  20.680  32.136  1.00  0.00    -0.744 OA
ENDBRANCH  94  97
ENDBRANCH  67  90
ENDBRANCH  41  42
ENDBRANCH  34  36
ENDBRANCH  33  34
ENDBRANCH  32  33
ENDBRANCH  31  32
ENDBRANCH  30  31
ENDBRANCH  29  30
ENDBRANCH  28  29
ENDBRANCH   1  28
TORSDOF 27
ENDMDL
