MODEL 1
REMARK VINA RESULT:      -7.5      0.000      0.000
REMARK SMILES CC[NH2+][C@@]1(C(=O)OCCOCCOCCOCCOC(=O)c2ccc(-c3c4nc(c(-c5cccc(S(=O)(=O)[O-])c5F)c5ccc([nH]5)c(-c5cccc(S(=O)(=O)[O-])c5F)c5nc(c(-c6cccc(S(=O)(=O)[O-])c6F)c6ccc3[nH]6)C=C5)C=C4)cc2)CCC[C@H]1CCN1C(=O)CCC1=O
REMARK SMILES IDX 13 1 12 2 11 3 10 4 9 5 8 6 7 7 5 8 6 9 4 10 85 11 88 12
REMARK SMILES IDX 86 13 87 14 3 15 2 18 1 19 89 20 90 21 91 22 92 23 96 24
REMARK SMILES IDX 93 25 94 26 95 27 97 28 14 29 15 30 16 31 17 32 18 33 19 34
REMARK SMILES IDX 20 35 21 36 22 37 23 38 84 39 24 40 83 41 25 42 26 43 27 44
REMARK SMILES IDX 77 45 28 46 82 47 76 48 78 49 29 50 81 51 75 52 74 53 30 55
REMARK SMILES IDX 62 56 42 57 61 58 43 59 46 60 60 61 79 62 44 63 45 64 59 66
REMARK SMILES IDX 80 67 47 68 31 69 32 70 40 71 33 72 35 73 41 74 34 75 36 76
REMARK SMILES IDX 37 77 38 78 39 79 63 80 64 81 72 82 65 83 67 84 73 85 66 86
REMARK SMILES IDX 68 87 69 88 70 89 71 90 48 91 49 92 57 93 50 94 52 95 58 96
REMARK SMILES IDX 51 97 53 98 54 99 55 100 56 101
REMARK H PARENT 3 16 3 17 78 54 46 65
REMARK Flexibility Score: inf
ROOT
ATOM      1  O   UNL A   1      41.351  21.535  27.662  1.00  0.00    -0.377 OA
ENDROOT
BRANCH   1   2
ATOM      2  C   UNL A   1      40.499  22.639  27.912  1.00  0.00     0.188 C 
BRANCH   2   3
ATOM      3  C   UNL A   1      40.499  23.739  26.849  1.00  0.00     0.188 C 
BRANCH   3   4
ATOM      4  O   UNL A   1      39.321  23.768  26.059  1.00  0.00    -0.376 OA
BRANCH   4   5
ATOM      5  C   UNL A   1      38.085  23.739  26.763  1.00  0.00     0.202 C 
BRANCH   5   6
ATOM      6  C   UNL A   1      36.785  23.999  25.980  1.00  0.00     0.261 C 
BRANCH   6   7
ATOM      7  O   UNL A   1      35.763  22.994  26.137  1.00  0.00    -0.459 OA
BRANCH   7   8
ATOM      8  C   UNL A   1      35.362  22.328  25.038  1.00  0.00     0.368 C 
ATOM      9  O   UNL A   1      36.096  21.559  24.420  1.00  0.00    -0.245 OA
BRANCH   8  10
ATOM     10  C   UNL A   1      33.851  22.593  24.647  1.00  0.00     0.197 C 
ATOM     11  C   UNL A   1      33.853  22.695  23.110  1.00  0.00     0.081 C 
ATOM     12  C   UNL A   1      33.216  23.986  25.023  1.00  0.00     0.064 C 
ATOM     13  C   UNL A   1      34.388  24.104  22.857  1.00  0.00     0.008 C 
ATOM     14  C   UNL A   1      33.826  24.963  23.984  1.00  0.00     0.011 C 
BRANCH  10  15
ATOM     15  N   UNL A   1      32.971  21.519  25.167  1.00  0.00    -0.332 N 
ATOM     16  H   UNL A   1      32.863  21.679  26.169  1.00  0.00     0.347 HD
ATOM     17  H   UNL A   1      32.126  21.598  24.602  1.00  0.00     0.347 HD
BRANCH  15  18
ATOM     18  C   UNL A   1      33.382  20.131  24.997  1.00  0.00     0.257 C 
ATOM     19  C   UNL A   1      32.441  19.467  24.000  1.00  0.00     0.071 C 
ENDBRANCH  15  18
ENDBRANCH  10  15
BRANCH  12  20
ATOM     20  C   UNL A   1      31.655  24.137  24.954  1.00  0.00     0.033 C 
BRANCH  20  21
ATOM     21  C   UNL A   1      30.915  24.493  23.644  1.00  0.00     0.129 C 
BRANCH  21  22
ATOM     22  N   UNL A   1      30.643  25.888  23.351  1.00  0.00    -0.283 N 
ATOM     23  C   UNL A   1      29.577  26.554  23.902  1.00  0.00     0.229 C 
ATOM     24  C   UNL A   1      31.124  26.548  22.258  1.00  0.00     0.229 C 
ATOM     25  O   UNL A   1      28.804  26.146  24.756  1.00  0.00    -0.274 OA
ATOM     26  C   UNL A   1      29.385  27.861  23.191  1.00  0.00     0.110 C 
ATOM     27  C   UNL A   1      30.577  27.941  22.271  1.00  0.00     0.110 C 
ATOM     28  O   UNL A   1      31.854  26.110  21.383  1.00  0.00    -0.274 OA
ENDBRANCH  21  22
ENDBRANCH  20  21
ENDBRANCH  12  20
ENDBRANCH   8  10
ENDBRANCH   7   8
ENDBRANCH   6   7
ENDBRANCH   5   6
ENDBRANCH   4   5
ENDBRANCH   3   4
ENDBRANCH   2   3
ENDBRANCH   1   2
BRANCH   1  29
ATOM     29  C   UNL A   1      42.668  21.754  27.162  1.00  0.00     0.188 C 
BRANCH  29  30
ATOM     30  C   UNL A   1      43.180  21.006  25.916  1.00  0.00     0.188 C 
BRANCH  30  31
ATOM     31  O   UNL A   1      43.633  21.842  24.864  1.00  0.00    -0.376 OA
BRANCH  31  32
ATOM     32  C   UNL A   1      43.248  23.205  24.825  1.00  0.00     0.202 C 
BRANCH  32  33
ATOM     33  C   UNL A   1      44.111  24.258  25.528  1.00  0.00     0.261 C 
BRANCH  33  34
ATOM     34  O   UNL A   1      43.454  25.368  26.128  1.00  0.00    -0.460 OA
BRANCH  34  35
ATOM     35  C   UNL A   1      44.037  26.575  26.114  1.00  0.00     0.338 C 
ATOM     36  O   UNL A   1      44.363  27.243  25.149  1.00  0.00    -0.246 OA
BRANCH  35  37
ATOM     37  C   UNL A   1      43.972  27.026  27.512  1.00  0.00     0.060 A 
ATOM     38  C   UNL A   1      43.172  26.319  28.419  1.00  0.00     0.016 A 
ATOM     39  C   UNL A   1      44.765  28.102  27.927  1.00  0.00     0.016 A 
ATOM     40  C   UNL A   1      43.099  26.745  29.737  1.00  0.00     0.010 A 
ATOM     41  C   UNL A   1      44.686  28.532  29.242  1.00  0.00     0.010 A 
ATOM     42  C   UNL A   1      43.800  27.894  30.124  1.00  0.00    -0.014 A 
BRANCH  42  43
ATOM     43  C   UNL A   1      43.370  28.622  31.328  1.00  0.00     0.031 A 
ATOM     44  C   UNL A   1      42.249  29.607  31.160  1.00  0.00     0.074 A 
ATOM     45  C   UNL A   1      43.971  28.424  32.511  1.00  0.00     0.049 A 
ATOM     46  N   UNL A   1      41.747  30.447  32.022  1.00  0.00    -0.248 NA
ATOM     47  C   UNL A   1      41.617  29.665  29.827  1.00  0.00     0.031 C 
ATOM     48  C   UNL A   1      45.053  27.475  32.762  1.00  0.00     0.029 A 
ATOM     49  N   UNL A   1      43.767  29.041  33.714  1.00  0.00    -0.354 N 
ATOM     50  C   UNL A   1      40.778  31.159  31.327  1.00  0.00     0.074 A 
ATOM     51  C   UNL A   1      40.767  30.668  29.970  1.00  0.00     0.031 C 
ATOM     52  C   UNL A   1      45.447  27.599  34.041  1.00  0.00     0.029 A 
ATOM     53  C   UNL A   1      44.667  28.658  34.679  1.00  0.00     0.049 A 
ATOM     54  H   UNL A   1      43.048  29.695  33.874  1.00  0.00     0.167 HD
ATOM     55  C   UNL A   1      39.962  32.133  31.786  1.00  0.00     0.034 A 
ATOM     56  C   UNL A   1      44.852  29.145  35.920  1.00  0.00     0.034 A 
ATOM     57  C   UNL A   1      39.985  32.600  33.143  1.00  0.00     0.049 A 
ATOM     58  C   UNL A   1      43.949  30.249  36.404  1.00  0.00     0.074 A 
ATOM     59  C   UNL A   1      39.182  33.551  33.740  1.00  0.00     0.029 A 
ATOM     60  N   UNL A   1      40.877  32.155  34.109  1.00  0.00    -0.354 N 
ATOM     61  N   UNL A   1      42.973  30.856  35.770  1.00  0.00    -0.248 NA
ATOM     62  C   UNL A   1      44.147  30.714  37.783  1.00  0.00     0.031 C 
ATOM     63  C   UNL A   1      39.618  33.713  35.059  1.00  0.00     0.029 A 
ATOM     64  C   UNL A   1      40.653  32.821  35.298  1.00  0.00     0.049 A 
ATOM     65  H   UNL A   1      41.566  31.466  33.968  1.00  0.00     0.167 HD
ATOM     66  C   UNL A   1      42.410  31.738  36.685  1.00  0.00     0.074 A 
ATOM     67  C   UNL A   1      43.153  31.581  37.920  1.00  0.00     0.031 C 
ATOM     68  C   UNL A   1      41.377  32.601  36.524  1.00  0.00     0.034 A 
BRANCH  55  69
ATOM     69  C   UNL A   1      38.996  32.754  30.814  1.00  0.00     0.023 A 
ATOM     70  C   UNL A   1      39.408  33.821  29.988  1.00  0.00     0.012 A 
ATOM     71  C   UNL A   1      37.681  32.262  30.702  1.00  0.00     0.148 A 
ATOM     72  C   UNL A   1      38.515  34.414  29.095  1.00  0.00     0.002 A 
ATOM     73  C   UNL A   1      36.814  32.821  29.772  1.00  0.00     0.091 A 
ATOM     74  F   UNL A   1      37.299  31.268  31.515  1.00  0.00    -0.205 F 
ATOM     75  C   UNL A   1      37.224  33.906  28.979  1.00  0.00     0.022 A 
BRANCH  73  76
ATOM     76  S   UNL A   1      35.158  32.188  29.489  1.00  0.00     0.127 S 
ATOM     77  O   UNL A   1      34.548  32.358  30.807  1.00  0.00    -0.237 OA
ATOM     78  O   UNL A   1      34.655  33.099  28.462  1.00  0.00    -0.237 OA
ATOM     79  O   UNL A   1      35.323  30.809  29.053  1.00  0.00    -0.744 OA
ENDBRANCH  73  76
ENDBRANCH  55  69
BRANCH  56  80
ATOM     80  C   UNL A   1      45.917  28.576  36.791  1.00  0.00     0.023 A 
ATOM     81  C   UNL A   1      47.182  29.192  36.837  1.00  0.00     0.012 A 
ATOM     82  C   UNL A   1      45.673  27.444  37.593  1.00  0.00     0.148 A 
ATOM     83  C   UNL A   1      48.197  28.670  37.642  1.00  0.00     0.002 A 
ATOM     84  C   UNL A   1      46.669  26.963  38.433  1.00  0.00     0.091 A 
ATOM     85  F   UNL A   1      44.464  26.870  37.528  1.00  0.00    -0.205 F 
ATOM     86  C   UNL A   1      47.937  27.563  38.446  1.00  0.00     0.022 A 
BRANCH  84  87
ATOM     87  S   UNL A   1      46.390  25.621  39.593  1.00  0.00     0.127 S 
ATOM     88  O   UNL A   1      45.975  24.539  38.704  1.00  0.00    -0.237 OA
ATOM     89  O   UNL A   1      47.718  25.458  40.185  1.00  0.00    -0.237 OA
ATOM     90  O   UNL A   1      45.373  26.101  40.518  1.00  0.00    -0.744 OA
ENDBRANCH  84  87
ENDBRANCH  56  80
BRANCH  68  91
ATOM     91  C   UNL A   1      40.928  33.389  37.725  1.00  0.00     0.023 A 
ATOM     92  C   UNL A   1      39.869  32.924  38.527  1.00  0.00     0.012 A 
ATOM     93  C   UNL A   1      41.639  34.543  38.111  1.00  0.00     0.148 A 
ATOM     94  C   UNL A   1      39.503  33.617  39.680  1.00  0.00     0.002 A 
ATOM     95  C   UNL A   1      41.307  35.194  39.290  1.00  0.00     0.091 A 
ATOM     96  F   UNL A   1      42.636  34.972  37.323  1.00  0.00    -0.205 F 
ATOM     97  C   UNL A   1      40.230  34.741  40.069  1.00  0.00     0.022 A 
BRANCH  95  98
ATOM     98  S   UNL A   1      42.256  36.579  39.924  1.00  0.00     0.127 S 
ATOM     99  O   UNL A   1      43.580  35.981  40.088  1.00  0.00    -0.237 OA
ATOM    100  O   UNL A   1      42.156  37.547  38.832  1.00  0.00    -0.237 OA
ATOM    101  O   UNL A   1      41.601  36.987  41.159  1.00  0.00    -0.744 OA
ENDBRANCH  95  98
ENDBRANCH  68  91
ENDBRANCH  42  43
ENDBRANCH  35  37
ENDBRANCH  34  35
ENDBRANCH  33  34
ENDBRANCH  32  33
ENDBRANCH  31  32
ENDBRANCH  30  31
ENDBRANCH  29  30
ENDBRANCH   1  29
TORSDOF 28
ENDMDL
MODEL 2
REMARK VINA RESULT:      -7.2      9.408     15.152
REMARK SMILES CC[NH2+][C@@]1(C(=O)OCCOCCOCCOCCOC(=O)c2ccc(-c3c4nc(c(-c5cccc(S(=O)(=O)[O-])c5F)c5ccc([nH]5)c(-c5cccc(S(=O)(=O)[O-])c5F)c5nc(c(-c6cccc(S(=O)(=O)[O-])c6F)c6ccc3[nH]6)C=C5)C=C4)cc2)CCC[C@H]1CCN1C(=O)CCC1=O
REMARK SMILES IDX 13 1 12 2 11 3 10 4 9 5 8 6 7 7 5 8 6 9 4 10 85 11 88 12
REMARK SMILES IDX 86 13 87 14 3 15 2 18 1 19 89 20 90 21 91 22 92 23 96 24
REMARK SMILES IDX 93 25 94 26 95 27 97 28 14 29 15 30 16 31 17 32 18 33 19 34
REMARK SMILES IDX 20 35 21 36 22 37 23 38 84 39 24 40 83 41 25 42 26 43 27 44
REMARK SMILES IDX 77 45 28 46 82 47 76 48 78 49 29 50 81 51 75 52 74 53 30 55
REMARK SMILES IDX 62 56 42 57 61 58 43 59 46 60 60 61 79 62 44 63 45 64 59 66
REMARK SMILES IDX 80 67 47 68 31 69 32 70 40 71 33 72 35 73 41 74 34 75 36 76
REMARK SMILES IDX 37 77 38 78 39 79 63 80 64 81 72 82 65 83 67 84 73 85 66 86
REMARK SMILES IDX 68 87 69 88 70 89 71 90 48 91 49 92 57 93 50 94 52 95 58 96
REMARK SMILES IDX 51 97 53 98 54 99 55 100 56 101
REMARK H PARENT 3 16 3 17 78 54 46 65
REMARK Flexibility Score: inf
ROOT
ATOM      1  O   UNL A   1      45.989  40.628  27.721  1.00  0.00    -0.377 OA
ENDROOT
BRANCH   1   2
ATOM      2  C   UNL A   1      46.166  41.996  27.400  1.00  0.00     0.188 C 
BRANCH   2   3
ATOM      3  C   UNL A   1      44.898  42.851  27.390  1.00  0.00     0.188 C 
BRANCH   3   4
ATOM      4  O   UNL A   1      44.455  43.201  26.089  1.00  0.00    -0.376 OA
BRANCH   4   5
ATOM      5  C   UNL A   1      45.454  43.648  25.178  1.00  0.00     0.202 C 
BRANCH   5   6
ATOM      6  C   UNL A   1      45.015  44.449  23.938  1.00  0.00     0.261 C 
BRANCH   6   7
ATOM      7  O   UNL A   1      45.937  44.416  22.830  1.00  0.00    -0.459 OA
BRANCH   7   8
ATOM      8  C   UNL A   1      46.057  43.263  22.146  1.00  0.00     0.368 C 
ATOM      9  O   UNL A   1      46.615  42.269  22.608  1.00  0.00    -0.245 OA
BRANCH   8  10
ATOM     10  C   UNL A   1      45.378  43.295  20.717  1.00  0.00     0.197 C 
ATOM     11  C   UNL A   1      46.478  42.824  19.747  1.00  0.00     0.081 C 
ATOM     12  C   UNL A   1      45.027  44.698  20.088  1.00  0.00     0.064 C 
ATOM     13  C   UNL A   1      47.358  44.063  19.591  1.00  0.00     0.008 C 
ATOM     14  C   UNL A   1      46.401  45.250  19.627  1.00  0.00     0.011 C 
BRANCH  10  15
ATOM     15  N   UNL A   1      44.162  42.448  20.687  1.00  0.00    -0.332 N 
ATOM     16  H   UNL A   1      43.731  42.575  19.771  1.00  0.00     0.347 HD
ATOM     17  H   UNL A   1      44.507  41.513  20.901  1.00  0.00     0.347 HD
BRANCH  15  18
ATOM     18  C   UNL A   1      43.122  42.677  21.685  1.00  0.00     0.257 C 
ATOM     19  C   UNL A   1      41.799  42.892  20.963  1.00  0.00     0.071 C 
ENDBRANCH  15  18
ENDBRANCH  10  15
BRANCH  12  20
ATOM     20  C   UNL A   1      44.062  44.739  18.851  1.00  0.00     0.033 C 
BRANCH  20  21
ATOM     21  C   UNL A   1      44.393  45.537  17.569  1.00  0.00     0.129 C 
BRANCH  21  22
ATOM     22  N   UNL A   1      43.559  46.673  17.217  1.00  0.00    -0.283 N 
ATOM     23  C   UNL A   1      43.667  47.881  17.857  1.00  0.00     0.229 C 
ATOM     24  C   UNL A   1      42.374  46.573  16.548  1.00  0.00     0.229 C 
ATOM     25  O   UNL A   1      44.499  48.212  18.689  1.00  0.00    -0.274 OA
ATOM     26  C   UNL A   1      42.496  48.744  17.491  1.00  0.00     0.110 C 
ATOM     27  C   UNL A   1      41.785  47.944  16.429  1.00  0.00     0.110 C 
ATOM     28  O   UNL A   1      41.838  45.561  16.125  1.00  0.00    -0.274 OA
ENDBRANCH  21  22
ENDBRANCH  20  21
ENDBRANCH  12  20
ENDBRANCH   8  10
ENDBRANCH   7   8
ENDBRANCH   6   7
ENDBRANCH   5   6
ENDBRANCH   4   5
ENDBRANCH   3   4
ENDBRANCH   2   3
ENDBRANCH   1   2
BRANCH   1  29
ATOM     29  C   UNL A   1      46.865  39.999  28.654  1.00  0.00     0.188 C 
BRANCH  29  30
ATOM     30  C   UNL A   1      48.143  39.277  28.183  1.00  0.00     0.188 C 
BRANCH  30  31
ATOM     31  O   UNL A   1      48.273  39.154  26.777  1.00  0.00    -0.376 OA
BRANCH  31  32
ATOM     32  C   UNL A   1      48.362  37.870  26.183  1.00  0.00     0.202 C 
BRANCH  32  33
ATOM     33  C   UNL A   1      47.089  37.046  25.959  1.00  0.00     0.261 C 
BRANCH  33  34
ATOM     34  O   UNL A   1      46.759  36.052  26.921  1.00  0.00    -0.460 OA
BRANCH  34  35
ATOM     35  C   UNL A   1      45.508  35.575  26.985  1.00  0.00     0.338 C 
ATOM     36  O   UNL A   1      44.876  35.003  26.115  1.00  0.00    -0.246 OA
BRANCH  35  37
ATOM     37  C   UNL A   1      45.154  35.672  28.408  1.00  0.00     0.060 A 
ATOM     38  C   UNL A   1      45.519  34.633  29.273  1.00  0.00     0.016 A 
ATOM     39  C   UNL A   1      44.529  36.830  28.886  1.00  0.00     0.016 A 
ATOM     40  C   UNL A   1      45.180  34.714  30.616  1.00  0.00     0.010 A 
ATOM     41  C   UNL A   1      44.183  36.908  30.226  1.00  0.00     0.010 A 
ATOM     42  C   UNL A   1      44.449  35.818  31.070  1.00  0.00    -0.014 A 
BRANCH  42  43
ATOM     43  C   UNL A   1      43.681  35.702  32.320  1.00  0.00     0.031 A 
ATOM     44  C   UNL A   1      44.343  36.205  33.572  1.00  0.00     0.074 A 
ATOM     45  C   UNL A   1      42.457  35.154  32.335  1.00  0.00     0.049 A 
ATOM     46  N   UNL A   1      43.939  36.133  34.809  1.00  0.00    -0.248 NA
ATOM     47  C   UNL A   1      45.653  36.865  33.404  1.00  0.00     0.031 C 
ATOM     48  C   UNL A   1      41.737  34.658  31.164  1.00  0.00     0.029 A 
ATOM     49  N   UNL A   1      41.621  34.897  33.387  1.00  0.00    -0.354 N 
ATOM     50  C   UNL A   1      44.959  36.695  35.567  1.00  0.00     0.074 A 
ATOM     51  C   UNL A   1      46.007  37.091  34.657  1.00  0.00     0.031 C 
ATOM     52  C   UNL A   1      40.574  34.120  31.569  1.00  0.00     0.029 A 
ATOM     53  C   UNL A   1      40.492  34.205  33.026  1.00  0.00     0.049 A 
ATOM     54  H   UNL A   1      41.810  35.180  34.311  1.00  0.00     0.167 HD
ATOM     55  C   UNL A   1      45.010  36.872  36.905  1.00  0.00     0.034 A 
ATOM     56  C   UNL A   1      39.528  33.672  33.801  1.00  0.00     0.034 A 
ATOM     57  C   UNL A   1      43.951  36.477  37.788  1.00  0.00     0.049 A 
ATOM     58  C   UNL A   1      39.617  33.858  35.292  1.00  0.00     0.074 A 
ATOM     59  C   UNL A   1      43.866  36.639  39.157  1.00  0.00     0.029 A 
ATOM     60  N   UNL A   1      42.797  35.821  37.383  1.00  0.00    -0.354 N 
ATOM     61  N   UNL A   1      40.542  34.470  35.995  1.00  0.00    -0.248 NA
ATOM     62  C   UNL A   1      38.518  33.310  36.098  1.00  0.00     0.031 C 
ATOM     63  C   UNL A   1      42.678  36.041  39.586  1.00  0.00     0.029 A 
ATOM     64  C   UNL A   1      41.996  35.560  38.478  1.00  0.00     0.049 A 
ATOM     65  H   UNL A   1      42.581  35.579  36.454  1.00  0.00     0.167 HD
ATOM     66  C   UNL A   1      40.113  34.425  37.316  1.00  0.00     0.074 A 
ATOM     67  C   UNL A   1      38.842  33.728  37.314  1.00  0.00     0.031 C 
ATOM     68  C   UNL A   1      40.711  34.911  38.432  1.00  0.00     0.034 A 
BRANCH  55  69
ATOM     69  C   UNL A   1      46.248  37.506  37.481  1.00  0.00     0.023 A 
ATOM     70  C   UNL A   1      46.321  38.906  37.639  1.00  0.00     0.012 A 
ATOM     71  C   UNL A   1      47.334  36.707  37.890  1.00  0.00     0.148 A 
ATOM     72  C   UNL A   1      47.469  39.503  38.156  1.00  0.00     0.002 A 
ATOM     73  C   UNL A   1      48.453  37.306  38.455  1.00  0.00     0.091 A 
ATOM     74  F   UNL A   1      47.258  35.382  37.705  1.00  0.00    -0.205 F 
ATOM     75  C   UNL A   1      48.529  38.703  38.574  1.00  0.00     0.022 A 
BRANCH  73  76
ATOM     76  S   UNL A   1      49.835  36.358  39.098  1.00  0.00     0.127 S 
ATOM     77  O   UNL A   1      50.734  37.417  39.553  1.00  0.00    -0.237 OA
ATOM     78  O   UNL A   1      49.204  35.590  40.172  1.00  0.00    -0.237 OA
ATOM     79  O   UNL A   1      50.328  35.557  37.987  1.00  0.00    -0.744 OA
ENDBRANCH  73  76
ENDBRANCH  55  69
BRANCH  56  80
ATOM     80  C   UNL A   1      38.393  32.938  33.176  1.00  0.00     0.023 A 
ATOM     81  C   UNL A   1      37.232  33.639  32.801  1.00  0.00     0.012 A 
ATOM     82  C   UNL A   1      38.472  31.553  32.927  1.00  0.00     0.148 A 
ATOM     83  C   UNL A   1      36.155  32.969  32.219  1.00  0.00     0.002 A 
ATOM     84  C   UNL A   1      37.419  30.902  32.297  1.00  0.00     0.091 A 
ATOM     85  F   UNL A   1      39.585  30.905  33.298  1.00  0.00    -0.205 F 
ATOM     86  C   UNL A   1      36.252  31.604  31.960  1.00  0.00     0.022 A 
BRANCH  84  87
ATOM     87  S   UNL A   1      37.502  29.176  31.811  1.00  0.00     0.127 S 
ATOM     88  O   UNL A   1      36.394  29.079  30.864  1.00  0.00    -0.237 OA
ATOM     89  O   UNL A   1      38.834  29.099  31.211  1.00  0.00    -0.237 OA
ATOM     90  O   UNL A   1      37.350  28.409  33.040  1.00  0.00    -0.744 OA
ENDBRANCH  84  87
ENDBRANCH  56  80
BRANCH  68  91
ATOM     91  C   UNL A   1      39.971  34.782  39.736  1.00  0.00     0.023 A 
ATOM     92  C   UNL A   1      39.098  35.800  40.164  1.00  0.00     0.012 A 
ATOM     93  C   UNL A   1      40.071  33.591  40.484  1.00  0.00     0.148 A 
ATOM     94  C   UNL A   1      38.359  35.647  41.335  1.00  0.00     0.002 A 
ATOM     95  C   UNL A   1      39.289  33.423  41.616  1.00  0.00     0.091 A 
ATOM     96  F   UNL A   1      40.919  32.643  40.062  1.00  0.00    -0.205 F 
ATOM     97  C   UNL A   1      38.442  34.455  42.052  1.00  0.00     0.022 A 
BRANCH  95  98
ATOM     98  S   UNL A   1      39.249  31.882  42.536  1.00  0.00     0.127 S 
ATOM     99  O   UNL A   1      38.395  32.235  43.670  1.00  0.00    -0.237 OA
ATOM    100  O   UNL A   1      38.637  30.964  41.575  1.00  0.00    -0.237 OA
ATOM    101  O   UNL A   1      40.632  31.575  42.873  1.00  0.00    -0.744 OA
ENDBRANCH  95  98
ENDBRANCH  68  91
ENDBRANCH  42  43
ENDBRANCH  35  37
ENDBRANCH  34  35
ENDBRANCH  33  34
ENDBRANCH  32  33
ENDBRANCH  31  32
ENDBRANCH  30  31
ENDBRANCH  29  30
ENDBRANCH   1  29
TORSDOF 28
ENDMDL
MODEL 3
REMARK VINA RESULT:      -7.2      4.700      7.795
REMARK SMILES CC[NH2+][C@@]1(C(=O)OCCOCCOCCOCCOC(=O)c2ccc(-c3c4nc(c(-c5cccc(S(=O)(=O)[O-])c5F)c5ccc([nH]5)c(-c5cccc(S(=O)(=O)[O-])c5F)c5nc(c(-c6cccc(S(=O)(=O)[O-])c6F)c6ccc3[nH]6)C=C5)C=C4)cc2)CCC[C@H]1CCN1C(=O)CCC1=O
REMARK SMILES IDX 13 1 12 2 11 3 10 4 9 5 8 6 7 7 5 8 6 9 4 10 85 11 88 12
REMARK SMILES IDX 86 13 87 14 3 15 2 18 1 19 89 20 90 21 91 22 92 23 96 24
REMARK SMILES IDX 93 25 94 26 95 27 97 28 14 29 15 30 16 31 17 32 18 33 19 34
REMARK SMILES IDX 20 35 21 36 22 37 23 38 84 39 24 40 83 41 25 42 26 43 27 44
REMARK SMILES IDX 77 45 28 46 82 47 76 48 78 49 29 50 81 51 75 52 74 53 30 55
REMARK SMILES IDX 62 56 42 57 61 58 43 59 46 60 60 61 79 62 44 63 45 64 59 66
REMARK SMILES IDX 80 67 47 68 31 69 32 70 40 71 33 72 35 73 41 74 34 75 36 76
REMARK SMILES IDX 37 77 38 78 39 79 63 80 64 81 72 82 65 83 67 84 73 85 66 86
REMARK SMILES IDX 68 87 69 88 70 89 71 90 48 91 49 92 57 93 50 94 52 95 58 96
REMARK SMILES IDX 51 97 53 98 54 99 55 100 56 101
REMARK H PARENT 3 16 3 17 78 54 46 65
REMARK Flexibility Score: inf
ROOT
ATOM      1  O   UNL A   1      40.482  25.217  27.848  1.00  0.00    -0.377 OA
ENDROOT
BRANCH   1   2
ATOM      2  C   UNL A   1      40.575  24.071  27.020  1.00  0.00     0.188 C 
BRANCH   2   3
ATOM      3  C   UNL A   1      39.253  23.374  26.691  1.00  0.00     0.188 C 
BRANCH   3   4
ATOM      4  O   UNL A   1      39.412  22.050  26.208  1.00  0.00    -0.376 OA
BRANCH   4   5
ATOM      5  C   UNL A   1      38.346  21.530  25.420  1.00  0.00     0.202 C 
BRANCH   5   6
ATOM      6  C   UNL A   1      36.900  21.882  25.813  1.00  0.00     0.261 C 
BRANCH   6   7
ATOM      7  O   UNL A   1      36.099  22.450  24.758  1.00  0.00    -0.459 OA
BRANCH   7   8
ATOM      8  C   UNL A   1      34.824  22.031  24.640  1.00  0.00     0.368 C 
ATOM      9  O   UNL A   1      34.521  20.845  24.518  1.00  0.00    -0.245 OA
BRANCH   8  10
ATOM     10  C   UNL A   1      33.759  23.200  24.717  1.00  0.00     0.197 C 
ATOM     11  C   UNL A   1      32.510  22.642  24.008  1.00  0.00     0.081 C 
ATOM     12  C   UNL A   1      34.013  24.499  23.862  1.00  0.00     0.064 C 
ATOM     13  C   UNL A   1      32.863  22.774  22.528  1.00  0.00     0.008 C 
ATOM     14  C   UNL A   1      33.670  24.062  22.414  1.00  0.00     0.011 C 
BRANCH  10  15
ATOM     15  N   UNL A   1      33.512  23.601  26.122  1.00  0.00    -0.332 N 
ATOM     16  H   UNL A   1      34.390  23.482  26.626  1.00  0.00     0.347 HD
ATOM     17  H   UNL A   1      33.157  24.555  26.047  1.00  0.00     0.347 HD
BRANCH  15  18
ATOM     18  C   UNL A   1      32.483  22.900  26.882  1.00  0.00     0.257 C 
ATOM     19  C   UNL A   1      33.104  22.385  28.174  1.00  0.00     0.071 C 
ENDBRANCH  15  18
ENDBRANCH  10  15
BRANCH  12  20
ATOM     20  C   UNL A   1      33.164  25.780  24.182  1.00  0.00     0.033 C 
BRANCH  20  21
ATOM     21  C   UNL A   1      33.363  27.115  23.430  1.00  0.00     0.129 C 
BRANCH  21  22
ATOM     22  N   UNL A   1      32.239  28.027  23.313  1.00  0.00    -0.283 N 
ATOM     23  C   UNL A   1      31.914  28.914  24.308  1.00  0.00     0.229 C 
ATOM     24  C   UNL A   1      31.195  27.847  22.453  1.00  0.00     0.229 C 
ATOM     25  O   UNL A   1      32.538  29.147  25.333  1.00  0.00    -0.274 OA
ATOM     26  C   UNL A   1      30.557  29.493  24.034  1.00  0.00     0.110 C 
ATOM     27  C   UNL A   1      30.212  28.954  22.669  1.00  0.00     0.110 C 
ATOM     28  O   UNL A   1      31.038  26.942  21.649  1.00  0.00    -0.274 OA
ENDBRANCH  21  22
ENDBRANCH  20  21
ENDBRANCH  12  20
ENDBRANCH   8  10
ENDBRANCH   7   8
ENDBRANCH   6   7
ENDBRANCH   5   6
ENDBRANCH   4   5
ENDBRANCH   3   4
ENDBRANCH   2   3
ENDBRANCH   1   2
BRANCH   1  29
ATOM     29  C   UNL A   1      40.585  26.518  27.273  1.00  0.00     0.188 C 
BRANCH  29  30
ATOM     30  C   UNL A   1      39.394  27.495  27.301  1.00  0.00     0.188 C 
BRANCH  30  31
ATOM     31  O   UNL A   1      39.586  28.645  28.109  1.00  0.00    -0.376 OA
BRANCH  31  32
ATOM     32  C   UNL A   1      40.491  28.603  29.198  1.00  0.00     0.202 C 
BRANCH  32  33
ATOM     33  C   UNL A   1      41.316  29.845  29.549  1.00  0.00     0.261 C 
BRANCH  33  34
ATOM     34  O   UNL A   1      40.946  30.588  30.705  1.00  0.00    -0.460 OA
BRANCH  34  35
ATOM     35  C   UNL A   1      40.020  31.552  30.610  1.00  0.00     0.338 C 
ATOM     36  O   UNL A   1      39.226  31.746  29.707  1.00  0.00    -0.246 OA
BRANCH  35  37
ATOM     37  C   UNL A   1      40.003  32.172  31.943  1.00  0.00     0.060 A 
ATOM     38  C   UNL A   1      39.162  33.268  32.173  1.00  0.00     0.016 A 
ATOM     39  C   UNL A   1      40.768  31.613  32.973  1.00  0.00     0.016 A 
ATOM     40  C   UNL A   1      39.148  33.864  33.425  1.00  0.00     0.010 A 
ATOM     41  C   UNL A   1      40.760  32.213  34.223  1.00  0.00     0.010 A 
ATOM     42  C   UNL A   1      40.003  33.378  34.423  1.00  0.00    -0.014 A 
BRANCH  42  43
ATOM     43  C   UNL A   1      40.358  34.255  35.549  1.00  0.00     0.031 A 
ATOM     44  C   UNL A   1      41.407  35.300  35.290  1.00  0.00     0.074 A 
ATOM     45  C   UNL A   1      39.784  34.108  36.752  1.00  0.00     0.049 A 
ATOM     46  N   UNL A   1      41.975  36.128  36.121  1.00  0.00    -0.248 NA
ATOM     47  C   UNL A   1      41.894  35.413  33.901  1.00  0.00     0.031 C 
ATOM     48  C   UNL A   1      38.748  33.132  37.083  1.00  0.00     0.029 A 
ATOM     49  N   UNL A   1      40.023  34.768  37.927  1.00  0.00    -0.354 N 
ATOM     50  C   UNL A   1      42.913  36.825  35.369  1.00  0.00     0.074 A 
ATOM     51  C   UNL A   1      42.851  36.318  34.020  1.00  0.00     0.031 C 
ATOM     52  C   UNL A   1      38.463  33.233  38.392  1.00  0.00     0.029 A 
ATOM     53  C   UNL A   1      39.322  34.253  38.989  1.00  0.00     0.049 A 
ATOM     54  H   UNL A   1      40.635  35.535  38.003  1.00  0.00     0.167 HD
ATOM     55  C   UNL A   1      43.746  37.810  35.771  1.00  0.00     0.034 A 
ATOM     56  C   UNL A   1      39.405  34.556  40.299  1.00  0.00     0.034 A 
ATOM     57  C   UNL A   1      43.783  38.303  37.118  1.00  0.00     0.049 A 
ATOM     58  C   UNL A   1      40.359  35.638  40.729  1.00  0.00     0.074 A 
ATOM     59  C   UNL A   1      44.553  39.324  37.639  1.00  0.00     0.029 A 
ATOM     60  N   UNL A   1      43.023  37.792  38.160  1.00  0.00    -0.354 N 
ATOM     61  N   UNL A   1      41.179  36.356  39.998  1.00  0.00    -0.248 NA
ATOM     62  C   UNL A   1      40.379  35.977  42.158  1.00  0.00     0.031 C 
ATOM     63  C   UNL A   1      44.290  39.402  39.010  1.00  0.00     0.029 A 
ATOM     64  C   UNL A   1      43.314  38.469  39.329  1.00  0.00     0.049 A 
ATOM     65  H   UNL A   1      42.373  37.057  38.079  1.00  0.00     0.167 HD
ATOM     66  C   UNL A   1      41.775  37.263  40.866  1.00  0.00     0.074 A 
ATOM     67  C   UNL A   1      41.216  37.005  42.179  1.00  0.00     0.031 C 
ATOM     68  C   UNL A   1      42.699  38.221  40.608  1.00  0.00     0.034 A 
BRANCH  55  69
ATOM     69  C   UNL A   1      44.679  38.398  34.748  1.00  0.00     0.023 A 
ATOM     70  C   UNL A   1      45.985  37.885  34.600  1.00  0.00     0.012 A 
ATOM     71  C   UNL A   1      44.251  39.449  33.913  1.00  0.00     0.148 A 
ATOM     72  C   UNL A   1      46.863  38.435  33.666  1.00  0.00     0.002 A 
ATOM     73  C   UNL A   1      45.113  39.954  32.948  1.00  0.00     0.091 A 
ATOM     74  F   UNL A   1      43.018  39.943  34.088  1.00  0.00    -0.205 F 
ATOM     75  C   UNL A   1      46.423  39.460  32.833  1.00  0.00     0.022 A 
BRANCH  73  76
ATOM     76  S   UNL A   1      44.616  41.219  31.774  1.00  0.00     0.127 S 
ATOM     77  O   UNL A   1      43.477  40.580  31.116  1.00  0.00    -0.237 OA
ATOM     78  O   UNL A   1      44.264  42.331  32.657  1.00  0.00    -0.237 OA
ATOM     79  O   UNL A   1      45.773  41.458  30.924  1.00  0.00    -0.744 OA
ENDBRANCH  73  76
ENDBRANCH  55  69
BRANCH  56  80
ATOM     80  C   UNL A   1      38.546  33.841  41.283  1.00  0.00     0.023 A 
ATOM     81  C   UNL A   1      37.345  34.432  41.718  1.00  0.00     0.012 A 
ATOM     82  C   UNL A   1      38.900  32.566  41.767  1.00  0.00     0.148 A 
ATOM     83  C   UNL A   1      36.528  33.782  42.644  1.00  0.00     0.002 A 
ATOM     84  C   UNL A   1      38.056  31.900  42.646  1.00  0.00     0.091 A 
ATOM     85  F   UNL A   1      40.052  32.025  41.343  1.00  0.00    -0.205 F 
ATOM     86  C   UNL A   1      36.879  32.513  43.101  1.00  0.00     0.022 A 
BRANCH  84  87
ATOM     87  S   UNL A   1      38.362  30.217  43.190  1.00  0.00     0.127 S 
ATOM     88  O   UNL A   1      37.241  29.988  44.099  1.00  0.00    -0.237 OA
ATOM     89  O   UNL A   1      38.293  29.479  41.929  1.00  0.00    -0.237 OA
ATOM     90  O   UNL A   1      39.680  30.232  43.808  1.00  0.00    -0.744 OA
ENDBRANCH  84  87
ENDBRANCH  56  80
BRANCH  68  91
ATOM     91  C   UNL A   1      43.113  39.118  41.743  1.00  0.00     0.023 A 
ATOM     92  C   UNL A   1      44.223  38.789  42.544  1.00  0.00     0.012 A 
ATOM     93  C   UNL A   1      42.452  40.347  41.941  1.00  0.00     0.148 A 
ATOM     94  C   UNL A   1      44.648  39.657  43.548  1.00  0.00     0.002 A 
ATOM     95  C   UNL A   1      42.917  41.231  42.904  1.00  0.00     0.091 A 
ATOM     96  F   UNL A   1      41.390  40.631  41.174  1.00  0.00    -0.205 F 
ATOM     97  C   UNL A   1      44.006  40.882  43.718  1.00  0.00     0.022 A 
BRANCH  95  98
ATOM     98  S   UNL A   1      42.223  42.873  43.116  1.00  0.00     0.127 S 
ATOM     99  O   UNL A   1      42.972  43.643  42.124  1.00  0.00    -0.237 OA
ATOM    100  O   UNL A   1      40.815  42.658  42.784  1.00  0.00    -0.237 OA
ATOM    101  O   UNL A   1      42.471  43.242  44.503  1.00  0.00    -0.744 OA
ENDBRANCH  95  98
ENDBRANCH  68  91
ENDBRANCH  42  43
ENDBRANCH  35  37
ENDBRANCH  34  35
ENDBRANCH  33  34
ENDBRANCH  32  33
ENDBRANCH  31  32
ENDBRANCH  30  31
ENDBRANCH  29  30
ENDBRANCH   1  29
TORSDOF 28
ENDMDL
