MODEL 1
REMARK VINA RESULT:      -7.2      0.000      0.000
REMARK SMILES C[NH+]1CCN(c2nc3c(cc2F)c(=O)c(C(=O)OCCOCCOCCOCCOC(=O)c2ccc(-c4c5nc(c(-c6cccc(S(=O)(=O)[O-])c6F)c6ccc([nH]6)c(-c6cccc(S(=O)(=O)[O-])c6F)c6nc(c(-c7cccc(S(=O)(=O)[O-])c7F)c7ccc4[nH]7)C=C6)C=C5)cc2)cn3-c2ccc(F)cc2F)CC1
REMARK SMILES IDX 25 1 24 2 23 3 22 4 21 5 20 6 19 7 18 8 16 9 17 10 15 11
REMARK SMILES IDX 6 12 7 13 11 14 8 15 10 16 12 17 9 18 97 19 13 20 96 21
REMARK SMILES IDX 14 22 5 23 1 24 2 25 3 26 107 27 4 29 106 30 98 31 99 32
REMARK SMILES IDX 104 33 100 34 103 35 105 36 101 37 102 38 26 39 27 40 28 41
REMARK SMILES IDX 29 42 30 43 31 44 32 45 33 46 34 47 95 48 35 49 94 50 36 51
REMARK SMILES IDX 37 52 38 53 88 54 39 55 93 56 87 57 89 58 40 59 92 60 86 61
REMARK SMILES IDX 85 62 41 64 73 65 53 66 72 67 54 68 57 69 71 70 90 71 55 72
REMARK SMILES IDX 56 73 70 75 91 76 58 77 42 78 43 79 51 80 44 81 46 82 52 83
REMARK SMILES IDX 45 84 47 85 48 86 49 87 50 88 74 89 75 90 83 91 76 92 78 93
REMARK SMILES IDX 84 94 77 95 79 96 80 97 81 98 82 99 59 100 60 101 68 102
REMARK SMILES IDX 61 103 63 104 69 105 62 106 64 107 65 108 66 109 67 110
REMARK H PARENT 2 28 89 63 57 74
REMARK Flexibility Score: inf
ROOT
ATOM      1  C   UNL A   1      48.267  25.980  24.625  1.00  0.00     0.188 C 
ENDROOT
BRANCH   1   2
ATOM      2  O   UNL A   1      47.794  25.176  25.698  1.00  0.00    -0.377 OA
BRANCH   2   3
ATOM      3  C   UNL A   1      46.774  24.215  25.480  1.00  0.00     0.188 C 
BRANCH   3   4
ATOM      4  C   UNL A   1      46.788  23.277  24.247  1.00  0.00     0.188 C 
BRANCH   4   5
ATOM      5  O   UNL A   1      46.594  21.907  24.530  1.00  0.00    -0.376 OA
BRANCH   5   6
ATOM      6  C   UNL A   1      45.651  21.483  25.493  1.00  0.00     0.202 C 
BRANCH   6   7
ATOM      7  C   UNL A   1      44.218  21.134  25.076  1.00  0.00     0.261 C 
BRANCH   7   8
ATOM      8  O   UNL A   1      43.363  22.246  24.832  1.00  0.00    -0.459 OA
BRANCH   8   9
ATOM      9  C   UNL A   1      42.263  22.375  25.599  1.00  0.00     0.343 C 
ATOM     10  O   UNL A   1      41.202  21.788  25.450  1.00  0.00    -0.246 OA
BRANCH   9  11
ATOM     11  C   UNL A   1      42.606  23.185  26.779  1.00  0.00     0.124 A 
ATOM     12  C   UNL A   1      44.331  25.215  31.044  1.00  0.00     0.167 A 
ATOM     13  N   UNL A   1      43.841  25.750  29.899  1.00  0.00    -0.209 NA
ATOM     14  C   UNL A   1      44.200  23.849  31.330  1.00  0.00     0.166 A 
ATOM     15  C   UNL A   1      43.329  24.911  28.957  1.00  0.00     0.151 A 
ATOM     16  C   UNL A   1      43.617  22.999  30.416  1.00  0.00     0.059 A 
ATOM     17  F   UNL A   1      44.671  23.343  32.480  1.00  0.00    -0.203 F 
ATOM     18  C   UNL A   1      43.220  23.532  29.196  1.00  0.00     0.069 A 
ATOM     19  N   UNL A   1      42.959  25.422  27.667  1.00  0.00    -0.297 N 
ATOM     20  C   UNL A   1      42.797  22.613  28.126  1.00  0.00     0.205 A 
ATOM     21  C   UNL A   1      42.670  24.519  26.653  1.00  0.00     0.113 A 
ATOM     22  O   UNL A   1      42.694  21.415  28.350  1.00  0.00    -0.288 OA
BRANCH  12  23
ATOM     23  N   UNL A   1      45.034  26.022  31.901  1.00  0.00    -0.343 N 
ATOM     24  C   UNL A   1      47.117  26.993  35.428  1.00  0.00     0.332 C 
ATOM     25  N   UNL A   1      46.543  27.123  34.090  1.00  0.00    -0.334 N 
ATOM     26  C   UNL A   1      45.063  26.985  34.139  1.00  0.00     0.283 C 
ATOM     27  C   UNL A   1      47.106  26.072  33.205  1.00  0.00     0.283 C 
ATOM     28  H   UNL A   1      46.775  28.045  33.723  1.00  0.00     0.347 HD
ATOM     29  C   UNL A   1      44.392  27.021  32.737  1.00  0.00     0.179 C 
ATOM     30  C   UNL A   1      46.488  26.096  31.795  1.00  0.00     0.179 C 
ENDBRANCH  12  23
BRANCH  19  31
ATOM     31  C   UNL A   1      43.078  26.804  27.346  1.00  0.00     0.083 A 
ATOM     32  C   UNL A   1      41.963  27.647  27.482  1.00  0.00     0.033 A 
ATOM     33  C   UNL A   1      44.294  27.365  26.921  1.00  0.00     0.150 A 
ATOM     34  C   UNL A   1      42.068  29.011  27.208  1.00  0.00     0.041 A 
ATOM     35  C   UNL A   1      44.402  28.723  26.633  1.00  0.00     0.080 A 
ATOM     36  F   UNL A   1      45.383  26.593  26.792  1.00  0.00    -0.205 F 
ATOM     37  C   UNL A   1      43.285  29.534  26.783  1.00  0.00     0.126 A 
ATOM     38  F   UNL A   1      43.379  30.845  26.520  1.00  0.00    -0.207 F 
ENDBRANCH  19  31
ENDBRANCH   9  11
ENDBRANCH   8   9
ENDBRANCH   7   8
ENDBRANCH   6   7
ENDBRANCH   5   6
ENDBRANCH   4   5
ENDBRANCH   3   4
ENDBRANCH   2   3
ENDBRANCH   1   2
BRANCH   1  39
ATOM     39  C   UNL A   1      49.645  26.670  24.734  1.00  0.00     0.188 C 
BRANCH  39  40
ATOM     40  O   UNL A   1      50.700  25.793  25.091  1.00  0.00    -0.376 OA
BRANCH  40  41
ATOM     41  C   UNL A   1      51.667  26.271  26.008  1.00  0.00     0.202 C 
BRANCH  41  42
ATOM     42  C   UNL A   1      51.845  25.547  27.350  1.00  0.00     0.261 C 
BRANCH  42  43
ATOM     43  O   UNL A   1      50.663  25.309  28.128  1.00  0.00    -0.460 OA
BRANCH  43  44
ATOM     44  C   UNL A   1      50.635  25.762  29.399  1.00  0.00     0.338 C 
ATOM     45  O   UNL A   1      51.346  25.406  30.325  1.00  0.00    -0.246 OA
BRANCH  44  46
ATOM     46  C   UNL A   1      49.703  26.907  29.423  1.00  0.00     0.060 A 
ATOM     47  C   UNL A   1      48.901  27.170  28.302  1.00  0.00     0.016 A 
ATOM     48  C   UNL A   1      49.591  27.692  30.573  1.00  0.00     0.016 A 
ATOM     49  C   UNL A   1      47.982  28.218  28.333  1.00  0.00     0.010 A 
ATOM     50  C   UNL A   1      48.701  28.769  30.587  1.00  0.00     0.010 A 
ATOM     51  C   UNL A   1      47.910  29.048  29.459  1.00  0.00    -0.014 A 
BRANCH  51  52
ATOM     52  C   UNL A   1      47.180  30.332  29.360  1.00  0.00     0.031 A 
ATOM     53  C   UNL A   1      47.959  31.548  28.936  1.00  0.00     0.074 A 
ATOM     54  C   UNL A   1      45.864  30.423  29.621  1.00  0.00     0.049 A 
ATOM     55  N   UNL A   1      47.549  32.779  28.791  1.00  0.00    -0.248 NA
ATOM     56  C   UNL A   1      49.388  31.348  28.629  1.00  0.00     0.031 C 
ATOM     57  C   UNL A   1      45.001  29.317  30.030  1.00  0.00     0.029 A 
ATOM     58  N   UNL A   1      45.030  31.514  29.601  1.00  0.00    -0.354 N 
ATOM     59  C   UNL A   1      48.666  33.500  28.395  1.00  0.00     0.074 A 
ATOM     60  C   UNL A   1      49.774  32.577  28.319  1.00  0.00     0.031 C 
ATOM     61  C   UNL A   1      43.765  29.794  30.263  1.00  0.00     0.029 A 
ATOM     62  C   UNL A   1      43.753  31.238  30.032  1.00  0.00     0.049 A 
ATOM     63  H   UNL A   1      45.317  32.407  29.306  1.00  0.00     0.167 HD
ATOM     64  C   UNL A   1      48.756  34.816  28.105  1.00  0.00     0.034 A 
ATOM     65  C   UNL A   1      42.706  32.062  30.241  1.00  0.00     0.034 A 
ATOM     66  C   UNL A   1      47.656  35.733  28.161  1.00  0.00     0.049 A 
ATOM     67  C   UNL A   1      42.841  33.531  29.935  1.00  0.00     0.074 A 
ATOM     68  C   UNL A   1      47.653  37.079  27.845  1.00  0.00     0.029 A 
ATOM     69  N   UNL A   1      46.374  35.409  28.570  1.00  0.00    -0.354 N 
ATOM     70  N   UNL A   1      43.879  34.182  29.466  1.00  0.00    -0.248 NA
ATOM     71  C   UNL A   1      41.657  34.378  30.158  1.00  0.00     0.031 C 
ATOM     72  C   UNL A   1      46.371  37.577  28.083  1.00  0.00     0.029 A 
ATOM     73  C   UNL A   1      45.572  36.533  28.521  1.00  0.00     0.049 A 
ATOM     74  H   UNL A   1      46.079  34.512  28.852  1.00  0.00     0.167 HD
ATOM     75  C   UNL A   1      43.468  35.501  29.318  1.00  0.00     0.074 A 
ATOM     76  C   UNL A   1      42.084  35.561  29.733  1.00  0.00     0.031 C 
ATOM     77  C   UNL A   1      44.182  36.569  28.886  1.00  0.00     0.034 A 
BRANCH  64  78
ATOM     78  C   UNL A   1      50.079  35.361  27.656  1.00  0.00     0.023 A 
ATOM     79  C   UNL A   1      51.008  35.788  28.623  1.00  0.00     0.012 A 
ATOM     80  C   UNL A   1      50.454  35.297  26.301  1.00  0.00     0.148 A 
ATOM     81  C   UNL A   1      52.306  36.129  28.249  1.00  0.00     0.002 A 
ATOM     82  C   UNL A   1      51.756  35.610  25.940  1.00  0.00     0.091 A 
ATOM     83  F   UNL A   1      49.539  34.897  25.405  1.00  0.00    -0.205 F 
ATOM     84  C   UNL A   1      52.683  36.024  26.912  1.00  0.00     0.022 A 
BRANCH  82  85
ATOM     85  S   UNL A   1      52.362  35.456  24.257  1.00  0.00     0.127 S 
ATOM     86  O   UNL A   1      51.413  36.295  23.524  1.00  0.00    -0.237 OA
ATOM     87  O   UNL A   1      53.710  36.011  24.366  1.00  0.00    -0.237 OA
ATOM     88  O   UNL A   1      52.300  34.037  23.932  1.00  0.00    -0.744 OA
ENDBRANCH  82  85
ENDBRANCH  64  78
BRANCH  65  89
ATOM     89  C   UNL A   1      41.429  31.509  30.769  1.00  0.00     0.023 A 
ATOM     90  C   UNL A   1      40.430  31.076  29.876  1.00  0.00     0.012 A 
ATOM     91  C   UNL A   1      41.214  31.391  32.155  1.00  0.00     0.148 A 
ATOM     92  C   UNL A   1      39.234  30.543  30.357  1.00  0.00     0.002 A 
ATOM     93  C   UNL A   1      40.036  30.825  32.628  1.00  0.00     0.091 A 
ATOM     94  F   UNL A   1      42.175  31.824  32.983  1.00  0.00    -0.205 F 
ATOM     95  C   UNL A   1      39.041  30.408  31.731  1.00  0.00     0.022 A 
BRANCH  93  96
ATOM     96  S   UNL A   1      39.729  30.541  34.374  1.00  0.00     0.127 S 
ATOM     97  O   UNL A   1      39.712  31.905  34.899  1.00  0.00    -0.237 OA
ATOM     98  O   UNL A   1      38.426  29.877  34.345  1.00  0.00    -0.237 OA
ATOM     99  O   UNL A   1      40.826  29.705  34.842  1.00  0.00    -0.744 OA
ENDBRANCH  93  96
ENDBRANCH  65  89
BRANCH  77 100
ATOM    100  C   UNL A   1      43.502  37.908  28.802  1.00  0.00     0.023 A 
ATOM    101  C   UNL A   1      42.591  38.157  27.760  1.00  0.00     0.012 A 
ATOM    102  C   UNL A   1      43.641  38.843  29.847  1.00  0.00     0.148 A 
ATOM    103  C   UNL A   1      41.827  39.324  27.756  1.00  0.00     0.002 A 
ATOM    104  C   UNL A   1      42.854  39.987  29.854  1.00  0.00     0.091 A 
ATOM    105  F   UNL A   1      44.515  38.576  30.829  1.00  0.00    -0.205 F 
ATOM    106  C   UNL A   1      41.949  40.230  28.808  1.00  0.00     0.022 A 
BRANCH 104 107
ATOM    107  S   UNL A   1      42.884  41.178  31.199  1.00  0.00     0.127 S 
ATOM    108  O   UNL A   1      42.582  40.330  32.352  1.00  0.00    -0.237 OA
ATOM    109  O   UNL A   1      44.261  41.667  31.147  1.00  0.00    -0.237 OA
ATOM    110  O   UNL A   1      41.870  42.174  30.884  1.00  0.00    -0.744 OA
ENDBRANCH 104 107
ENDBRANCH  77 100
ENDBRANCH  51  52
ENDBRANCH  44  46
ENDBRANCH  43  44
ENDBRANCH  42  43
ENDBRANCH  41  42
ENDBRANCH  40  41
ENDBRANCH  39  40
ENDBRANCH   1  39
TORSDOF 25
ENDMDL
MODEL 2
REMARK VINA RESULT:      -6.7      7.232     14.389
REMARK SMILES C[NH+]1CCN(c2nc3c(cc2F)c(=O)c(C(=O)OCCOCCOCCOCCOC(=O)c2ccc(-c4c5nc(c(-c6cccc(S(=O)(=O)[O-])c6F)c6ccc([nH]6)c(-c6cccc(S(=O)(=O)[O-])c6F)c6nc(c(-c7cccc(S(=O)(=O)[O-])c7F)c7ccc4[nH]7)C=C6)C=C5)cc2)cn3-c2ccc(F)cc2F)CC1
REMARK SMILES IDX 25 1 24 2 23 3 22 4 21 5 20 6 19 7 18 8 16 9 17 10 15 11
REMARK SMILES IDX 6 12 7 13 11 14 8 15 10 16 12 17 9 18 97 19 13 20 96 21
REMARK SMILES IDX 14 22 5 23 1 24 2 25 3 26 107 27 4 29 106 30 98 31 99 32
REMARK SMILES IDX 104 33 100 34 103 35 105 36 101 37 102 38 26 39 27 40 28 41
REMARK SMILES IDX 29 42 30 43 31 44 32 45 33 46 34 47 95 48 35 49 94 50 36 51
REMARK SMILES IDX 37 52 38 53 88 54 39 55 93 56 87 57 89 58 40 59 92 60 86 61
REMARK SMILES IDX 85 62 41 64 73 65 53 66 72 67 54 68 57 69 71 70 90 71 55 72
REMARK SMILES IDX 56 73 70 75 91 76 58 77 42 78 43 79 51 80 44 81 46 82 52 83
REMARK SMILES IDX 45 84 47 85 48 86 49 87 50 88 74 89 75 90 83 91 76 92 78 93
REMARK SMILES IDX 84 94 77 95 79 96 80 97 81 98 82 99 59 100 60 101 68 102
REMARK SMILES IDX 61 103 63 104 69 105 62 106 64 107 65 108 66 109 67 110
REMARK H PARENT 2 28 89 63 57 74
REMARK Flexibility Score: inf
ROOT
ATOM      1  C   UNL A   1      47.395  39.353  26.863  1.00  0.00     0.188 C 
ENDROOT
BRANCH   1   2
ATOM      2  O   UNL A   1      47.242  40.553  26.115  1.00  0.00    -0.377 OA
BRANCH   2   3
ATOM      3  C   UNL A   1      46.482  40.560  24.918  1.00  0.00     0.188 C 
BRANCH   3   4
ATOM      4  C   UNL A   1      47.155  40.461  23.526  1.00  0.00     0.188 C 
BRANCH   4   5
ATOM      5  O   UNL A   1      47.020  41.606  22.708  1.00  0.00    -0.376 OA
BRANCH   5   6
ATOM      6  C   UNL A   1      46.843  41.492  21.310  1.00  0.00     0.202 C 
BRANCH   6   7
ATOM      7  C   UNL A   1      46.251  42.654  20.506  1.00  0.00     0.261 C 
BRANCH   7   8
ATOM      8  O   UNL A   1      45.872  43.795  21.268  1.00  0.00    -0.459 OA
BRANCH   8   9
ATOM      9  C   UNL A   1      44.574  43.924  21.608  1.00  0.00     0.343 C 
ATOM     10  O   UNL A   1      43.639  44.109  20.844  1.00  0.00    -0.246 OA
BRANCH   9  11
ATOM     11  C   UNL A   1      44.429  43.595  23.035  1.00  0.00     0.124 A 
ATOM     12  C   UNL A   1      43.787  41.586  27.601  1.00  0.00     0.167 A 
ATOM     13  N   UNL A   1      44.447  42.685  27.160  1.00  0.00    -0.209 NA
ATOM     14  C   UNL A   1      42.889  40.892  26.779  1.00  0.00     0.166 A 
ATOM     15  C   UNL A   1      44.324  43.035  25.850  1.00  0.00     0.151 A 
ATOM     16  C   UNL A   1      42.699  41.279  25.471  1.00  0.00     0.059 A 
ATOM     17  F   UNL A   1      42.228  39.820  27.242  1.00  0.00    -0.203 F 
ATOM     18  C   UNL A   1      43.462  42.336  24.990  1.00  0.00     0.069 A 
ATOM     19  N   UNL A   1      45.138  44.087  25.309  1.00  0.00    -0.297 N 
ATOM     20  C   UNL A   1      43.439  42.628  23.547  1.00  0.00     0.205 A 
ATOM     21  C   UNL A   1      45.170  44.262  23.932  1.00  0.00     0.113 A 
ATOM     22  O   UNL A   1      42.674  42.020  22.810  1.00  0.00    -0.288 OA
BRANCH  12  23
ATOM     23  N   UNL A   1      44.068  41.108  28.855  1.00  0.00    -0.343 N 
ATOM     24  C   UNL A   1      44.942  41.375  32.964  1.00  0.00     0.332 C 
ATOM     25  N   UNL A   1      44.638  40.794  31.658  1.00  0.00    -0.334 N 
ATOM     26  C   UNL A   1      45.693  41.143  30.670  1.00  0.00     0.283 C 
ATOM     27  C   UNL A   1      43.328  41.306  31.180  1.00  0.00     0.283 C 
ATOM     28  H   UNL A   1      44.599  39.780  31.753  1.00  0.00     0.347 HD
ATOM     29  C   UNL A   1      45.388  40.634  29.232  1.00  0.00     0.179 C 
ATOM     30  C   UNL A   1      42.975  40.797  29.771  1.00  0.00     0.179 C 
ENDBRANCH  12  23
BRANCH  19  31
ATOM     31  C   UNL A   1      46.059  44.814  26.117  1.00  0.00     0.083 A 
ATOM     32  C   UNL A   1      45.589  45.836  26.957  1.00  0.00     0.033 A 
ATOM     33  C   UNL A   1      47.432  44.517  26.126  1.00  0.00     0.150 A 
ATOM     34  C   UNL A   1      46.470  46.535  27.784  1.00  0.00     0.041 A 
ATOM     35  C   UNL A   1      48.319  45.220  26.939  1.00  0.00     0.080 A 
ATOM     36  F   UNL A   1      47.916  43.538  25.347  1.00  0.00    -0.205 F 
ATOM     37  C   UNL A   1      47.825  46.221  27.764  1.00  0.00     0.126 A 
ATOM     38  F   UNL A   1      48.665  46.897  28.559  1.00  0.00    -0.207 F 
ENDBRANCH  19  31
ENDBRANCH   9  11
ENDBRANCH   8   9
ENDBRANCH   7   8
ENDBRANCH   6   7
ENDBRANCH   5   6
ENDBRANCH   4   5
ENDBRANCH   3   4
ENDBRANCH   2   3
ENDBRANCH   1   2
BRANCH   1  39
ATOM     39  C   UNL A   1      46.791  38.035  26.331  1.00  0.00     0.188 C 
BRANCH  39  40
ATOM     40  O   UNL A   1      47.749  37.140  25.791  1.00  0.00    -0.376 OA
BRANCH  40  41
ATOM     41  C   UNL A   1      47.746  35.810  26.275  1.00  0.00     0.202 C 
BRANCH  41  42
ATOM     42  C   UNL A   1      47.392  34.667  25.312  1.00  0.00     0.261 C 
BRANCH  42  43
ATOM     43  O   UNL A   1      46.311  33.803  25.690  1.00  0.00    -0.460 OA
BRANCH  43  44
ATOM     44  C   UNL A   1      45.049  34.247  25.512  1.00  0.00     0.338 C 
ATOM     45  O   UNL A   1      44.476  34.435  24.451  1.00  0.00    -0.246 OA
BRANCH  44  46
ATOM     46  C   UNL A   1      44.420  34.290  26.848  1.00  0.00     0.060 A 
ATOM     47  C   UNL A   1      43.830  35.480  27.296  1.00  0.00     0.016 A 
ATOM     48  C   UNL A   1      44.375  33.137  27.635  1.00  0.00     0.016 A 
ATOM     49  C   UNL A   1      43.189  35.518  28.533  1.00  0.00     0.010 A 
ATOM     50  C   UNL A   1      43.772  33.188  28.894  1.00  0.00     0.010 A 
ATOM     51  C   UNL A   1      43.196  34.384  29.356  1.00  0.00    -0.014 A 
BRANCH  51  52
ATOM     52  C   UNL A   1      42.809  34.525  30.777  1.00  0.00     0.031 A 
ATOM     53  C   UNL A   1      41.373  34.260  31.140  1.00  0.00     0.074 A 
ATOM     54  C   UNL A   1      43.700  34.861  31.727  1.00  0.00     0.049 A 
ATOM     55  N   UNL A   1      40.793  34.330  32.308  1.00  0.00    -0.248 NA
ATOM     56  C   UNL A   1      40.474  33.856  30.043  1.00  0.00     0.031 C 
ATOM     57  C   UNL A   1      45.119  35.133  31.501  1.00  0.00     0.029 A 
ATOM     58  N   UNL A   1      43.529  35.053  33.076  1.00  0.00    -0.354 N 
ATOM     59  C   UNL A   1      39.464  33.998  32.084  1.00  0.00     0.074 A 
ATOM     60  C   UNL A   1      39.317  33.724  30.674  1.00  0.00     0.031 C 
ATOM     61  C   UNL A   1      45.682  35.498  32.668  1.00  0.00     0.029 A 
ATOM     62  C   UNL A   1      44.662  35.498  33.717  1.00  0.00     0.049 A 
ATOM     63  H   UNL A   1      42.678  34.889  33.540  1.00  0.00     0.167 HD
ATOM     64  C   UNL A   1      38.457  33.915  32.980  1.00  0.00     0.034 A 
ATOM     65  C   UNL A   1      44.846  35.885  34.995  1.00  0.00     0.034 A 
ATOM     66  C   UNL A   1      38.602  34.168  34.384  1.00  0.00     0.049 A 
ATOM     67  C   UNL A   1      43.699  35.808  35.970  1.00  0.00     0.074 A 
ATOM     68  C   UNL A   1      37.638  34.068  35.370  1.00  0.00     0.029 A 
ATOM     69  N   UNL A   1      39.771  34.583  34.998  1.00  0.00    -0.354 N 
ATOM     70  N   UNL A   1      42.471  35.397  35.763  1.00  0.00    -0.248 NA
ATOM     71  C   UNL A   1      43.964  36.219  37.358  1.00  0.00     0.031 C 
ATOM     72  C   UNL A   1      38.219  34.444  36.583  1.00  0.00     0.029 A 
ATOM     73  C   UNL A   1      39.550  34.751  36.351  1.00  0.00     0.049 A 
ATOM     74  H   UNL A   1      40.629  34.735  34.539  1.00  0.00     0.167 HD
ATOM     75  C   UNL A   1      41.828  35.478  36.993  1.00  0.00     0.074 A 
ATOM     76  C   UNL A   1      42.801  35.964  37.946  1.00  0.00     0.031 C 
ATOM     77  C   UNL A   1      40.541  35.185  37.299  1.00  0.00     0.034 A 
BRANCH  64  78
ATOM     78  C   UNL A   1      37.102  33.493  32.498  1.00  0.00     0.023 A 
ATOM     79  C   UNL A   1      36.830  32.121  32.334  1.00  0.00     0.012 A 
ATOM     80  C   UNL A   1      36.066  34.435  32.366  1.00  0.00     0.148 A 
ATOM     81  C   UNL A   1      35.534  31.690  32.062  1.00  0.00     0.002 A 
ATOM     82  C   UNL A   1      34.772  33.996  32.124  1.00  0.00     0.091 A 
ATOM     83  F   UNL A   1      36.364  35.734  32.516  1.00  0.00    -0.205 F 
ATOM     84  C   UNL A   1      34.505  32.624  31.973  1.00  0.00     0.022 A 
BRANCH  82  85
ATOM     85  S   UNL A   1      33.366  35.109  32.047  1.00  0.00     0.127 S 
ATOM     86  O   UNL A   1      33.903  36.307  32.692  1.00  0.00    -0.237 OA
ATOM     87  O   UNL A   1      33.156  35.234  30.605  1.00  0.00    -0.237 OA
ATOM     88  O   UNL A   1      32.289  34.454  32.776  1.00  0.00    -0.744 OA
ENDBRANCH  82  85
ENDBRANCH  64  78
BRANCH  65  89
ATOM     89  C   UNL A   1      46.180  36.381  35.429  1.00  0.00     0.023 A 
ATOM     90  C   UNL A   1      47.161  35.468  35.863  1.00  0.00     0.012 A 
ATOM     91  C   UNL A   1      46.485  37.755  35.390  1.00  0.00     0.148 A 
ATOM     92  C   UNL A   1      48.420  35.919  36.259  1.00  0.00     0.002 A 
ATOM     93  C   UNL A   1      47.754  38.193  35.750  1.00  0.00     0.091 A 
ATOM     94  F   UNL A   1      45.529  38.604  34.987  1.00  0.00    -0.205 F 
ATOM     95  C   UNL A   1      48.720  37.278  36.194  1.00  0.00     0.022 A 
BRANCH  93  96
ATOM     96  S   UNL A   1      48.256  39.913  35.627  1.00  0.00     0.127 S 
ATOM     97  O   UNL A   1      47.448  40.535  36.675  1.00  0.00    -0.237 OA
ATOM     98  O   UNL A   1      49.686  39.828  35.923  1.00  0.00    -0.237 OA
ATOM     99  O   UNL A   1      47.941  40.325  34.267  1.00  0.00    -0.744 OA
ENDBRANCH  93  96
ENDBRANCH  65  89
BRANCH  77 100
ATOM    100  C   UNL A   1      40.082  35.345  38.722  1.00  0.00     0.023 A 
ATOM    101  C   UNL A   1      39.583  36.588  39.152  1.00  0.00     0.012 A 
ATOM    102  C   UNL A   1      39.990  34.224  39.571  1.00  0.00     0.148 A 
ATOM    103  C   UNL A   1      38.999  36.715  40.413  1.00  0.00     0.002 A 
ATOM    104  C   UNL A   1      39.378  34.350  40.811  1.00  0.00     0.091 A 
ATOM    105  F   UNL A   1      40.471  33.051  39.132  1.00  0.00    -0.205 F 
ATOM    106  C   UNL A   1      38.886  35.595  41.235  1.00  0.00     0.022 A 
BRANCH 104 107
ATOM    107  S   UNL A   1      39.119  32.953  41.911  1.00  0.00     0.127 S 
ATOM    108  O   UNL A   1      39.667  31.849  41.123  1.00  0.00    -0.237 OA
ATOM    109  O   UNL A   1      39.919  33.326  43.077  1.00  0.00    -0.237 OA
ATOM    110  O   UNL A   1      37.684  32.886  42.152  1.00  0.00    -0.744 OA
ENDBRANCH 104 107
ENDBRANCH  77 100
ENDBRANCH  51  52
ENDBRANCH  44  46
ENDBRANCH  43  44
ENDBRANCH  42  43
ENDBRANCH  41  42
ENDBRANCH  40  41
ENDBRANCH  39  40
ENDBRANCH   1  39
TORSDOF 25
ENDMDL
MODEL 3
REMARK VINA RESULT:      -6.5      6.972     12.394
REMARK SMILES C[NH+]1CCN(c2nc3c(cc2F)c(=O)c(C(=O)OCCOCCOCCOCCOC(=O)c2ccc(-c4c5nc(c(-c6cccc(S(=O)(=O)[O-])c6F)c6ccc([nH]6)c(-c6cccc(S(=O)(=O)[O-])c6F)c6nc(c(-c7cccc(S(=O)(=O)[O-])c7F)c7ccc4[nH]7)C=C6)C=C5)cc2)cn3-c2ccc(F)cc2F)CC1
REMARK SMILES IDX 25 1 24 2 23 3 22 4 21 5 20 6 19 7 18 8 16 9 17 10 15 11
REMARK SMILES IDX 6 12 7 13 11 14 8 15 10 16 12 17 9 18 97 19 13 20 96 21
REMARK SMILES IDX 14 22 5 23 1 24 2 25 3 26 107 27 4 29 106 30 98 31 99 32
REMARK SMILES IDX 104 33 100 34 103 35 105 36 101 37 102 38 26 39 27 40 28 41
REMARK SMILES IDX 29 42 30 43 31 44 32 45 33 46 34 47 95 48 35 49 94 50 36 51
REMARK SMILES IDX 37 52 38 53 88 54 39 55 93 56 87 57 89 58 40 59 92 60 86 61
REMARK SMILES IDX 85 62 41 64 73 65 53 66 72 67 54 68 57 69 71 70 90 71 55 72
REMARK SMILES IDX 56 73 70 75 91 76 58 77 42 78 43 79 51 80 44 81 46 82 52 83
REMARK SMILES IDX 45 84 47 85 48 86 49 87 50 88 74 89 75 90 83 91 76 92 78 93
REMARK SMILES IDX 84 94 77 95 79 96 80 97 81 98 82 99 59 100 60 101 68 102
REMARK SMILES IDX 61 103 63 104 69 105 62 106 64 107 65 108 66 109 67 110
REMARK H PARENT 2 28 89 63 57 74
REMARK Flexibility Score: inf
ROOT
ATOM      1  C   UNL A   1      51.204  43.058  29.260  1.00  0.00     0.188 C 
ENDROOT
BRANCH   1   2
ATOM      2  O   UNL A   1      50.440  42.482  28.208  1.00  0.00    -0.377 OA
BRANCH   2   3
ATOM      3  C   UNL A   1      49.038  42.684  28.143  1.00  0.00     0.188 C 
BRANCH   3   4
ATOM      4  C   UNL A   1      48.430  44.043  27.712  1.00  0.00     0.188 C 
BRANCH   4   5
ATOM      5  O   UNL A   1      47.664  44.011  26.526  1.00  0.00    -0.376 OA
BRANCH   5   6
ATOM      6  C   UNL A   1      46.769  45.056  26.202  1.00  0.00     0.202 C 
BRANCH   6   7
ATOM      7  C   UNL A   1      45.313  44.747  25.836  1.00  0.00     0.261 C 
BRANCH   7   8
ATOM      8  O   UNL A   1      45.119  43.591  25.026  1.00  0.00    -0.459 OA
BRANCH   8   9
ATOM      9  C   UNL A   1      44.230  42.670  25.447  1.00  0.00     0.343 C 
ATOM     10  O   UNL A   1      43.044  42.621  25.157  1.00  0.00    -0.246 OA
BRANCH   9  11
ATOM     11  C   UNL A   1      44.960  41.601  26.148  1.00  0.00     0.124 A 
ATOM     12  C   UNL A   1      48.155  38.156  27.941  1.00  0.00     0.167 A 
ATOM     13  N   UNL A   1      47.107  38.818  28.490  1.00  0.00    -0.209 NA
ATOM     14  C   UNL A   1      48.386  38.169  26.559  1.00  0.00     0.166 A 
ATOM     15  C   UNL A   1      46.347  39.613  27.687  1.00  0.00     0.151 A 
ATOM     16  C   UNL A   1      47.580  38.910  25.724  1.00  0.00     0.059 A 
ATOM     17  F   UNL A   1      49.416  37.487  26.032  1.00  0.00    -0.203 F 
ATOM     18  C   UNL A   1      46.578  39.678  26.304  1.00  0.00     0.069 A 
ATOM     19  N   UNL A   1      45.339  40.459  28.263  1.00  0.00    -0.297 N 
ATOM     20  C   UNL A   1      45.848  40.643  25.464  1.00  0.00     0.205 A 
ATOM     21  C   UNL A   1      44.750  41.428  27.461  1.00  0.00     0.113 A 
ATOM     22  O   UNL A   1      46.049  40.681  24.257  1.00  0.00    -0.288 OA
BRANCH  12  23
ATOM     23  N   UNL A   1      49.044  37.525  28.772  1.00  0.00    -0.343 N 
ATOM     24  C   UNL A   1      50.270  35.431  32.212  1.00  0.00     0.332 C 
ATOM     25  N   UNL A   1      50.326  36.075  30.901  1.00  0.00    -0.334 N 
ATOM     26  C   UNL A   1      50.000  37.522  31.013  1.00  0.00     0.283 C 
ATOM     27  C   UNL A   1      49.357  35.422  29.985  1.00  0.00     0.283 C 
ATOM     28  H   UNL A   1      51.272  35.979  30.531  1.00  0.00     0.347 HD
ATOM     29  C   UNL A   1      49.951  38.253  29.642  1.00  0.00     0.179 C 
ATOM     30  C   UNL A   1      49.304  36.099  28.603  1.00  0.00     0.179 C 
ENDBRANCH  12  23
BRANCH  19  31
ATOM     31  C   UNL A   1      45.078  40.469  29.662  1.00  0.00     0.083 A 
ATOM     32  C   UNL A   1      45.827  41.307  30.503  1.00  0.00     0.033 A 
ATOM     33  C   UNL A   1      44.062  39.682  30.232  1.00  0.00     0.150 A 
ATOM     34  C   UNL A   1      45.561  41.359  31.872  1.00  0.00     0.041 A 
ATOM     35  C   UNL A   1      43.801  39.719  31.599  1.00  0.00     0.080 A 
ATOM     36  F   UNL A   1      43.317  38.880  29.458  1.00  0.00    -0.205 F 
ATOM     37  C   UNL A   1      44.553  40.563  32.406  1.00  0.00     0.126 A 
ATOM     38  F   UNL A   1      44.305  40.616  33.721  1.00  0.00    -0.207 F 
ENDBRANCH  19  31
ENDBRANCH   9  11
ENDBRANCH   8   9
ENDBRANCH   7   8
ENDBRANCH   6   7
ENDBRANCH   5   6
ENDBRANCH   4   5
ENDBRANCH   3   4
ENDBRANCH   2   3
ENDBRANCH   1   2
BRANCH   1  39
ATOM     39  C   UNL A   1      52.474  42.339  29.767  1.00  0.00     0.188 C 
BRANCH  39  40
ATOM     40  O   UNL A   1      52.220  41.084  30.375  1.00  0.00    -0.376 OA
BRANCH  40  41
ATOM     41  C   UNL A   1      51.586  41.086  31.640  1.00  0.00     0.202 C 
BRANCH  41  42
ATOM     42  C   UNL A   1      52.282  40.399  32.825  1.00  0.00     0.261 C 
BRANCH  42  43
ATOM     43  O   UNL A   1      51.500  39.481  33.601  1.00  0.00    -0.460 OA
BRANCH  43  44
ATOM     44  C   UNL A   1      50.801  39.966  34.648  1.00  0.00     0.338 C 
ATOM     45  O   UNL A   1      51.091  40.923  35.349  1.00  0.00    -0.246 OA
BRANCH  44  46
ATOM     46  C   UNL A   1      49.518  39.235  34.681  1.00  0.00     0.060 A 
ATOM     47  C   UNL A   1      49.520  37.842  34.845  1.00  0.00     0.016 A 
ATOM     48  C   UNL A   1      48.313  39.936  34.595  1.00  0.00     0.016 A 
ATOM     49  C   UNL A   1      48.313  37.149  34.927  1.00  0.00     0.010 A 
ATOM     50  C   UNL A   1      47.105  39.235  34.633  1.00  0.00     0.010 A 
ATOM     51  C   UNL A   1      47.103  37.837  34.777  1.00  0.00    -0.014 A 
BRANCH  51  52
ATOM     52  C   UNL A   1      45.861  37.066  34.541  1.00  0.00     0.031 A 
ATOM     53  C   UNL A   1      45.528  36.694  33.122  1.00  0.00     0.074 A 
ATOM     54  C   UNL A   1      45.056  36.690  35.551  1.00  0.00     0.049 A 
ATOM     55  N   UNL A   1      44.497  36.038  32.663  1.00  0.00    -0.248 NA
ATOM     56  C   UNL A   1      46.489  37.111  32.083  1.00  0.00     0.031 C 
ATOM     57  C   UNL A   1      45.276  36.982  36.966  1.00  0.00     0.029 A 
ATOM     58  N   UNL A   1      43.871  35.996  35.528  1.00  0.00    -0.354 N 
ATOM     59  C   UNL A   1      44.675  35.979  31.288  1.00  0.00     0.074 A 
ATOM     60  C   UNL A   1      45.909  36.661  30.980  1.00  0.00     0.031 C 
ATOM     61  C   UNL A   1      44.235  36.505  37.674  1.00  0.00     0.029 A 
ATOM     62  C   UNL A   1      43.273  35.888  36.762  1.00  0.00     0.049 A 
ATOM     63  H   UNL A   1      43.486  35.613  34.708  1.00  0.00     0.167 HD
ATOM     64  C   UNL A   1      43.883  35.393  30.364  1.00  0.00     0.034 A 
ATOM     65  C   UNL A   1      42.075  35.374  37.109  1.00  0.00     0.034 A 
ATOM     66  C   UNL A   1      42.666  34.698  30.667  1.00  0.00     0.049 A 
ATOM     67  C   UNL A   1      41.198  34.750  36.054  1.00  0.00     0.074 A 
ATOM     68  C   UNL A   1      41.822  34.040  29.791  1.00  0.00     0.029 A 
ATOM     69  N   UNL A   1      42.113  34.582  31.929  1.00  0.00    -0.354 N 
ATOM     70  N   UNL A   1      41.427  34.614  34.769  1.00  0.00    -0.248 NA
ATOM     71  C   UNL A   1      39.914  34.182  36.494  1.00  0.00     0.031 C 
ATOM     72  C   UNL A   1      40.742  33.542  30.523  1.00  0.00     0.029 A 
ATOM     73  C   UNL A   1      40.932  33.869  31.856  1.00  0.00     0.049 A 
ATOM     74  H   UNL A   1      42.502  34.952  32.755  1.00  0.00     0.167 HD
ATOM     75  C   UNL A   1      40.331  33.929  34.256  1.00  0.00     0.074 A 
ATOM     76  C   UNL A   1      39.442  33.664  35.366  1.00  0.00     0.031 C 
ATOM     77  C   UNL A   1      40.082  33.565  32.976  1.00  0.00     0.034 A 
BRANCH  64  78
ATOM     78  C   UNL A   1      44.312  35.428  28.928  1.00  0.00     0.023 A 
ATOM     79  C   UNL A   1      43.961  36.538  28.136  1.00  0.00     0.012 A 
ATOM     80  C   UNL A   1      45.188  34.451  28.421  1.00  0.00     0.148 A 
ATOM     81  C   UNL A   1      44.493  36.684  26.857  1.00  0.00     0.002 A 
ATOM     82  C   UNL A   1      45.737  34.619  27.158  1.00  0.00     0.091 A 
ATOM     83  F   UNL A   1      45.491  33.402  29.199  1.00  0.00    -0.205 F 
ATOM     84  C   UNL A   1      45.392  35.735  26.376  1.00  0.00     0.022 A 
BRANCH  82  85
ATOM     85  S   UNL A   1      46.946  33.487  26.465  1.00  0.00     0.127 S 
ATOM     86  O   UNL A   1      46.098  32.374  26.039  1.00  0.00    -0.237 OA
ATOM     87  O   UNL A   1      47.512  34.276  25.373  1.00  0.00    -0.237 OA
ATOM     88  O   UNL A   1      47.871  33.171  27.545  1.00  0.00    -0.744 OA
ENDBRANCH  82  85
ENDBRANCH  64  78
BRANCH  65  89
ATOM     89  C   UNL A   1      41.635  35.427  38.529  1.00  0.00     0.023 A 
ATOM     90  C   UNL A   1      42.028  34.414  39.424  1.00  0.00     0.012 A 
ATOM     91  C   UNL A   1      40.847  36.496  38.999  1.00  0.00     0.148 A 
ATOM     92  C   UNL A   1      41.634  34.459  40.762  1.00  0.00     0.002 A 
ATOM     93  C   UNL A   1      40.489  36.554  40.341  1.00  0.00     0.091 A 
ATOM     94  F   UNL A   1      40.475  37.440  38.123  1.00  0.00    -0.205 F 
ATOM     95  C   UNL A   1      40.874  35.532  41.221  1.00  0.00     0.022 A 
BRANCH  93  96
ATOM     96  S   UNL A   1      39.577  37.934  41.041  1.00  0.00     0.127 S 
ATOM     97  O   UNL A   1      38.318  37.864  40.302  1.00  0.00    -0.237 OA
ATOM     98  O   UNL A   1      39.486  37.547  42.449  1.00  0.00    -0.237 OA
ATOM     99  O   UNL A   1      40.386  39.117  40.787  1.00  0.00    -0.744 OA
ENDBRANCH  93  96
ENDBRANCH  65  89
BRANCH  77 100
ATOM    100  C   UNL A   1      38.816  32.812  32.671  1.00  0.00     0.023 A 
ATOM    101  C   UNL A   1      38.760  31.427  32.908  1.00  0.00     0.012 A 
ATOM    102  C   UNL A   1      37.643  33.508  32.315  1.00  0.00     0.148 A 
ATOM    103  C   UNL A   1      37.552  30.741  32.791  1.00  0.00     0.002 A 
ATOM    104  C   UNL A   1      36.437  32.825  32.233  1.00  0.00     0.091 A 
ATOM    105  F   UNL A   1      37.727  34.829  32.099  1.00  0.00    -0.205 F 
ATOM    106  C   UNL A   1      36.391  31.441  32.467  1.00  0.00     0.022 A 
BRANCH 104 107
ATOM    107  S   UNL A   1      34.877  33.647  31.894  1.00  0.00     0.127 S 
ATOM    108  O   UNL A   1      34.951  33.839  30.445  1.00  0.00    -0.237 OA
ATOM    109  O   UNL A   1      33.900  32.649  32.327  1.00  0.00    -0.237 OA
ATOM    110  O   UNL A   1      34.884  34.874  32.679  1.00  0.00    -0.744 OA
ENDBRANCH 104 107
ENDBRANCH  77 100
ENDBRANCH  51  52
ENDBRANCH  44  46
ENDBRANCH  43  44
ENDBRANCH  42  43
ENDBRANCH  41  42
ENDBRANCH  40  41
ENDBRANCH  39  40
ENDBRANCH   1  39
TORSDOF 25
ENDMDL
