MODEL 1
REMARK VINA RESULT:      -9.0      0.000      0.000
REMARK SMILES CC[C@H]1CC[C@](O)([C@H](F)C(=O)OCCOCCOCCOCCOC(=O)c2ccc(-c3c4nc(c(-c5cccc(S(=O)(=O)[O-])c5F)c5ccc([nH]5)c(-c5cccc(S(=O)(=O)[O-])c5F)c5nc(c(-c6cccc(S(=O)(=O)[O-])c6F)c6ccc3[nH]6)C=C5)C=C4)cc2)CC1
REMARK SMILES IDX 19 1 18 2 17 3 16 4 15 5 14 6 13 7 12 8 10 9 11 10 8 11 9 12
REMARK SMILES IDX 6 13 3 14 4 15 91 16 5 17 90 18 2 19 1 20 7 21 20 23 21 24
REMARK SMILES IDX 22 25 23 26 24 27 25 28 26 29 27 30 28 31 89 32 29 33 88 34
REMARK SMILES IDX 30 35 31 36 32 37 82 38 33 39 87 40 81 41 83 42 34 43 86 44
REMARK SMILES IDX 80 45 79 46 35 48 67 49 47 50 66 51 48 52 51 53 65 54 84 55
REMARK SMILES IDX 49 56 50 57 64 59 85 60 52 61 36 62 37 63 45 64 38 65 40 66
REMARK SMILES IDX 46 67 39 68 41 69 42 70 43 71 44 72 68 73 69 74 77 75 70 76
REMARK SMILES IDX 72 77 78 78 71 79 73 80 74 81 75 82 76 83 53 84 54 85 62 86
REMARK SMILES IDX 55 87 57 88 63 89 56 90 58 91 59 92 60 93 61 94
REMARK H PARENT 7 22 83 47 51 58
REMARK Flexibility Score: inf
ROOT
ATOM      1  C   UNL A   1      41.012  22.054  26.622  1.00  0.00     0.188 C 
ENDROOT
BRANCH   1   2
ATOM      2  O   UNL A   1      39.759  22.586  26.214  1.00  0.00    -0.377 OA
BRANCH   2   3
ATOM      3  C   UNL A   1      38.657  21.728  26.055  1.00  0.00     0.188 C 
BRANCH   3   4
ATOM      4  C   UNL A   1      37.396  22.345  25.427  1.00  0.00     0.188 C 
BRANCH   4   5
ATOM      5  O   UNL A   1      36.808  23.489  26.005  1.00  0.00    -0.376 OA
BRANCH   5   6
ATOM      6  C   UNL A   1      35.610  24.138  25.619  1.00  0.00     0.202 C 
BRANCH   6   7
ATOM      7  C   UNL A   1      34.186  23.569  25.464  1.00  0.00     0.261 C 
BRANCH   7   8
ATOM      8  O   UNL A   1      33.577  23.546  24.183  1.00  0.00    -0.461 OA
BRANCH   8   9
ATOM      9  C   UNL A   1      32.682  22.544  24.036  1.00  0.00     0.343 C 
ATOM     10  O   UNL A   1      31.474  22.742  24.094  1.00  0.00    -0.249 OA
BRANCH   9  11
ATOM     11  C   UNL A   1      33.341  21.206  23.734  1.00  0.00     0.307 C 
ATOM     12  F   UNL A   1      34.684  21.245  24.023  1.00  0.00    -0.232 F 
BRANCH  11  13
ATOM     13  C   UNL A   1      32.745  20.000  24.495  1.00  0.00     0.107 C 
ATOM     14  C   UNL A   1      34.008  17.472  23.482  1.00  0.00    -0.011 C 
ATOM     15  C   UNL A   1      34.727  18.382  24.497  1.00  0.00     0.006 C 
ATOM     16  C   UNL A   1      32.769  18.072  22.772  1.00  0.00     0.006 C 
ATOM     17  C   UNL A   1      33.778  19.224  25.319  1.00  0.00     0.039 C 
ATOM     18  C   UNL A   1      31.939  19.050  23.603  1.00  0.00     0.039 C 
BRANCH  14  19
ATOM     19  C   UNL A   1      33.623  16.138  24.150  1.00  0.00    -0.000 C 
ATOM     20  C   UNL A   1      34.652  15.765  25.206  1.00  0.00     0.004 C 
ENDBRANCH  14  19
BRANCH  13  21
ATOM     21  O   UNL A   1      31.824  20.515  25.490  1.00  0.00    -0.386 OA
ATOM     22  H   UNL A   1      31.417  19.776  25.968  1.00  0.00     0.211 HD
ENDBRANCH  13  21
ENDBRANCH  11  13
ENDBRANCH   9  11
ENDBRANCH   8   9
ENDBRANCH   7   8
ENDBRANCH   6   7
ENDBRANCH   5   6
ENDBRANCH   4   5
ENDBRANCH   3   4
ENDBRANCH   2   3
ENDBRANCH   1   2
BRANCH   1  23
ATOM     23  C   UNL A   1      41.136  21.020  27.765  1.00  0.00     0.188 C 
BRANCH  23  24
ATOM     24  O   UNL A   1      41.775  19.801  27.423  1.00  0.00    -0.376 OA
BRANCH  24  25
ATOM     25  C   UNL A   1      41.806  19.409  26.062  1.00  0.00     0.202 C 
BRANCH  25  26
ATOM     26  C   UNL A   1      42.950  18.483  25.623  1.00  0.00     0.261 C 
BRANCH  26  27
ATOM     27  O   UNL A   1      44.257  19.071  25.587  1.00  0.00    -0.460 OA
BRANCH  27  28
ATOM     28  C   UNL A   1      44.527  19.918  24.570  1.00  0.00     0.338 C 
ATOM     29  O   UNL A   1      44.665  19.628  23.391  1.00  0.00    -0.246 OA
BRANCH  28  30
ATOM     30  C   UNL A   1      44.420  21.295  25.091  1.00  0.00     0.060 A 
ATOM     31  C   UNL A   1      43.989  22.315  24.230  1.00  0.00     0.016 A 
ATOM     32  C   UNL A   1      44.716  21.572  26.427  1.00  0.00     0.016 A 
ATOM     33  C   UNL A   1      43.894  23.626  24.696  1.00  0.00     0.010 A 
ATOM     34  C   UNL A   1      44.647  22.890  26.883  1.00  0.00     0.010 A 
ATOM     35  C   UNL A   1      44.275  23.927  26.008  1.00  0.00    -0.014 A 
BRANCH  35  36
ATOM     36  C   UNL A   1      44.510  25.337  26.396  1.00  0.00     0.031 A 
ATOM     37  C   UNL A   1      45.907  25.879  26.257  1.00  0.00     0.074 A 
ATOM     38  C   UNL A   1      43.519  26.118  26.858  1.00  0.00     0.049 A 
ATOM     39  N   UNL A   1      46.376  27.055  26.580  1.00  0.00    -0.248 NA
ATOM     40  C   UNL A   1      46.911  24.968  25.680  1.00  0.00     0.031 C 
ATOM     41  C   UNL A   1      42.125  25.711  27.021  1.00  0.00     0.029 A 
ATOM     42  N   UNL A   1      43.548  27.416  27.306  1.00  0.00    -0.354 N 
ATOM     43  C   UNL A   1      47.733  27.012  26.282  1.00  0.00     0.074 A 
ATOM     44  C   UNL A   1      48.014  25.695  25.757  1.00  0.00     0.031 C 
ATOM     45  C   UNL A   1      41.437  26.730  27.569  1.00  0.00     0.029 A 
ATOM     46  C   UNL A   1      42.348  27.845  27.823  1.00  0.00     0.049 A 
ATOM     47  H   UNL A   1      44.350  27.984  27.260  1.00  0.00     0.167 HD
ATOM     48  C   UNL A   1      48.661  27.985  26.428  1.00  0.00     0.034 A 
ATOM     49  C   UNL A   1      42.034  28.992  28.457  1.00  0.00     0.034 A 
ATOM     50  C   UNL A   1      48.376  29.297  26.939  1.00  0.00     0.049 A 
ATOM     51  C   UNL A   1      43.096  30.050  28.635  1.00  0.00     0.074 A 
ATOM     52  C   UNL A   1      49.238  30.370  27.077  1.00  0.00     0.029 A 
ATOM     53  N   UNL A   1      47.142  29.709  27.414  1.00  0.00    -0.354 N 
ATOM     54  N   UNL A   1      44.349  30.039  28.246  1.00  0.00    -0.248 NA
ATOM     55  C   UNL A   1      42.692  31.293  29.310  1.00  0.00     0.031 C 
ATOM     56  C   UNL A   1      48.535  31.417  27.679  1.00  0.00     0.029 A 
ATOM     57  C   UNL A   1      47.222  31.014  27.865  1.00  0.00     0.049 A 
ATOM     58  H   UNL A   1      46.328  29.154  27.428  1.00  0.00     0.167 HD
ATOM     59  C   UNL A   1      44.868  31.283  28.592  1.00  0.00     0.074 A 
ATOM     60  C   UNL A   1      43.790  32.029  29.205  1.00  0.00     0.031 C 
ATOM     61  C   UNL A   1      46.126  31.764  28.423  1.00  0.00     0.034 A 
BRANCH  48  62
ATOM     62  C   UNL A   1      50.078  27.669  26.028  1.00  0.00     0.023 A 
ATOM     63  C   UNL A   1      51.026  27.318  27.011  1.00  0.00     0.012 A 
ATOM     64  C   UNL A   1      50.452  27.661  24.671  1.00  0.00     0.148 A 
ATOM     65  C   UNL A   1      52.333  26.993  26.649  1.00  0.00     0.002 A 
ATOM     66  C   UNL A   1      51.741  27.288  24.314  1.00  0.00     0.091 A 
ATOM     67  F   UNL A   1      49.541  28.022  23.756  1.00  0.00    -0.205 F 
ATOM     68  C   UNL A   1      52.687  26.966  25.303  1.00  0.00     0.022 A 
BRANCH  66  69
ATOM     69  S   UNL A   1      52.270  27.142  22.605  1.00  0.00     0.127 S 
ATOM     70  O   UNL A   1      52.797  28.481  22.343  1.00  0.00    -0.237 OA
ATOM     71  O   UNL A   1      53.287  26.093  22.689  1.00  0.00    -0.237 OA
ATOM     72  O   UNL A   1      51.082  26.781  21.844  1.00  0.00    -0.744 OA
ENDBRANCH  66  69
ENDBRANCH  48  62
BRANCH  49  73
ATOM     73  C   UNL A   1      40.652  29.213  28.969  1.00  0.00     0.023 A 
ATOM     74  C   UNL A   1      39.620  29.560  28.074  1.00  0.00     0.012 A 
ATOM     75  C   UNL A   1      40.356  29.092  30.341  1.00  0.00     0.148 A 
ATOM     76  C   UNL A   1      38.330  29.817  28.540  1.00  0.00     0.002 A 
ATOM     77  C   UNL A   1      39.057  29.292  30.791  1.00  0.00     0.091 A 
ATOM     78  F   UNL A   1      41.354  28.778  31.179  1.00  0.00    -0.205 F 
ATOM     79  C   UNL A   1      38.047  29.675  29.896  1.00  0.00     0.022 A 
BRANCH  77  80
ATOM     80  S   UNL A   1      38.571  29.011  32.497  1.00  0.00     0.127 S 
ATOM     81  O   UNL A   1      37.114  29.027  32.400  1.00  0.00    -0.237 OA
ATOM     82  O   UNL A   1      39.156  27.697  32.762  1.00  0.00    -0.237 OA
ATOM     83  O   UNL A   1      39.165  30.099  33.261  1.00  0.00    -0.744 OA
ENDBRANCH  77  80
ENDBRANCH  49  73
BRANCH  61  84
ATOM     84  C   UNL A   1      46.403  33.183  28.849  1.00  0.00     0.023 A 
ATOM     85  C   UNL A   1      46.923  33.451  30.131  1.00  0.00     0.012 A 
ATOM     86  C   UNL A   1      46.224  34.245  27.940  1.00  0.00     0.148 A 
ATOM     87  C   UNL A   1      47.225  34.759  30.513  1.00  0.00     0.002 A 
ATOM     88  C   UNL A   1      46.580  35.537  28.308  1.00  0.00     0.091 A 
ATOM     89  F   UNL A   1      45.717  33.971  26.729  1.00  0.00    -0.205 F 
ATOM     90  C   UNL A   1      47.066  35.797  29.599  1.00  0.00     0.022 A 
BRANCH  88  91
ATOM     91  S   UNL A   1      46.505  36.920  27.164  1.00  0.00     0.127 S 
ATOM     92  O   UNL A   1      45.066  37.166  27.089  1.00  0.00    -0.237 OA
ATOM     93  O   UNL A   1      47.264  37.949  27.875  1.00  0.00    -0.237 OA
ATOM     94  O   UNL A   1      47.123  36.457  25.929  1.00  0.00    -0.744 OA
ENDBRANCH  88  91
ENDBRANCH  61  84
ENDBRANCH  35  36
ENDBRANCH  28  30
ENDBRANCH  27  28
ENDBRANCH  26  27
ENDBRANCH  25  26
ENDBRANCH  24  25
ENDBRANCH  23  24
ENDBRANCH   1  23
TORSDOF 26
ENDMDL
MODEL 2
REMARK VINA RESULT:      -8.9      6.529     11.763
REMARK SMILES CC[C@H]1CC[C@](O)([C@H](F)C(=O)OCCOCCOCCOCCOC(=O)c2ccc(-c3c4nc(c(-c5cccc(S(=O)(=O)[O-])c5F)c5ccc([nH]5)c(-c5cccc(S(=O)(=O)[O-])c5F)c5nc(c(-c6cccc(S(=O)(=O)[O-])c6F)c6ccc3[nH]6)C=C5)C=C4)cc2)CC1
REMARK SMILES IDX 19 1 18 2 17 3 16 4 15 5 14 6 13 7 12 8 10 9 11 10 8 11 9 12
REMARK SMILES IDX 6 13 3 14 4 15 91 16 5 17 90 18 2 19 1 20 7 21 20 23 21 24
REMARK SMILES IDX 22 25 23 26 24 27 25 28 26 29 27 30 28 31 89 32 29 33 88 34
REMARK SMILES IDX 30 35 31 36 32 37 82 38 33 39 87 40 81 41 83 42 34 43 86 44
REMARK SMILES IDX 80 45 79 46 35 48 67 49 47 50 66 51 48 52 51 53 65 54 84 55
REMARK SMILES IDX 49 56 50 57 64 59 85 60 52 61 36 62 37 63 45 64 38 65 40 66
REMARK SMILES IDX 46 67 39 68 41 69 42 70 43 71 44 72 68 73 69 74 77 75 70 76
REMARK SMILES IDX 72 77 78 78 71 79 73 80 74 81 75 82 76 83 53 84 54 85 62 86
REMARK SMILES IDX 55 87 57 88 63 89 56 90 58 91 59 92 60 93 61 94
REMARK H PARENT 7 22 83 47 51 58
REMARK Flexibility Score: inf
ROOT
ATOM      1  C   UNL A   1      33.476  29.632  25.896  1.00  0.00     0.188 C 
ENDROOT
BRANCH   1   2
ATOM      2  O   UNL A   1      33.622  28.360  25.280  1.00  0.00    -0.377 OA
BRANCH   2   3
ATOM      3  C   UNL A   1      33.860  28.279  23.897  1.00  0.00     0.188 C 
BRANCH   3   4
ATOM      4  C   UNL A   1      32.688  28.663  22.978  1.00  0.00     0.188 C 
BRANCH   4   5
ATOM      5  O   UNL A   1      31.360  28.526  23.434  1.00  0.00    -0.376 OA
BRANCH   5   6
ATOM      6  C   UNL A   1      30.398  27.570  23.029  1.00  0.00     0.202 C 
BRANCH   6   7
ATOM      7  C   UNL A   1      29.724  26.445  23.837  1.00  0.00     0.261 C 
BRANCH   7   8
ATOM      8  O   UNL A   1      30.486  25.702  24.775  1.00  0.00    -0.461 OA
BRANCH   8   9
ATOM      9  C   UNL A   1      30.827  24.472  24.331  1.00  0.00     0.343 C 
ATOM     10  O   UNL A   1      30.455  24.051  23.242  1.00  0.00    -0.249 OA
BRANCH   9  11
ATOM     11  C   UNL A   1      31.751  23.736  25.290  1.00  0.00     0.307 C 
ATOM     12  F   UNL A   1      31.836  22.404  24.965  1.00  0.00    -0.232 F 
BRANCH  11  13
ATOM     13  C   UNL A   1      33.195  24.284  25.351  1.00  0.00     0.107 C 
ATOM     14  C   UNL A   1      35.029  22.394  23.909  1.00  0.00    -0.011 C 
ATOM     15  C   UNL A   1      34.155  23.408  23.147  1.00  0.00     0.006 C 
ATOM     16  C   UNL A   1      34.687  22.172  25.403  1.00  0.00     0.006 C 
ATOM     17  C   UNL A   1      33.784  24.617  23.976  1.00  0.00     0.039 C 
ATOM     18  C   UNL A   1      34.155  23.395  26.150  1.00  0.00     0.039 C 
BRANCH  14  19
ATOM     19  C   UNL A   1      36.516  22.771  23.773  1.00  0.00    -0.000 C 
ATOM     20  C   UNL A   1      37.382  21.765  24.514  1.00  0.00     0.004 C 
ENDBRANCH  14  19
BRANCH  13  21
ATOM     21  O   UNL A   1      33.156  25.565  26.030  1.00  0.00    -0.386 OA
ATOM     22  H   UNL A   1      33.638  26.224  25.507  1.00  0.00     0.211 HD
ENDBRANCH  13  21
ENDBRANCH  11  13
ENDBRANCH   9  11
ENDBRANCH   8   9
ENDBRANCH   7   8
ENDBRANCH   6   7
ENDBRANCH   5   6
ENDBRANCH   4   5
ENDBRANCH   3   4
ENDBRANCH   2   3
ENDBRANCH   1   2
BRANCH   1  23
ATOM     23  C   UNL A   1      32.184  30.045  26.640  1.00  0.00     0.188 C 
BRANCH  23  24
ATOM     24  O   UNL A   1      31.462  31.121  26.063  1.00  0.00    -0.376 OA
BRANCH  24  25
ATOM     25  C   UNL A   1      31.477  32.377  26.717  1.00  0.00     0.202 C 
BRANCH  25  26
ATOM     26  C   UNL A   1      32.651  32.664  27.664  1.00  0.00     0.261 C 
BRANCH  26  27
ATOM     27  O   UNL A   1      33.204  33.985  27.599  1.00  0.00    -0.460 OA
BRANCH  27  28
ATOM     28  C   UNL A   1      33.321  34.665  28.760  1.00  0.00     0.338 C 
ATOM     29  O   UNL A   1      32.526  35.469  29.222  1.00  0.00    -0.246 OA
BRANCH  28  30
ATOM     30  C   UNL A   1      34.483  34.115  29.488  1.00  0.00     0.060 A 
ATOM     31  C   UNL A   1      35.757  34.224  28.912  1.00  0.00     0.016 A 
ATOM     32  C   UNL A   1      34.318  33.522  30.741  1.00  0.00     0.016 A 
ATOM     33  C   UNL A   1      36.867  33.700  29.573  1.00  0.00     0.010 A 
ATOM     34  C   UNL A   1      35.427  32.974  31.388  1.00  0.00     0.010 A 
ATOM     35  C   UNL A   1      36.698  33.025  30.788  1.00  0.00    -0.014 A 
BRANCH  35  36
ATOM     36  C   UNL A   1      37.794  32.176  31.310  1.00  0.00     0.031 A 
ATOM     37  C   UNL A   1      38.294  32.453  32.702  1.00  0.00     0.074 A 
ATOM     38  C   UNL A   1      38.334  31.188  30.576  1.00  0.00     0.049 A 
ATOM     39  N   UNL A   1      39.273  31.890  33.359  1.00  0.00    -0.248 NA
ATOM     40  C   UNL A   1      37.596  33.512  33.452  1.00  0.00     0.031 C 
ATOM     41  C   UNL A   1      37.924  30.815  29.224  1.00  0.00     0.029 A 
ATOM     42  N   UNL A   1      39.372  30.337  30.862  1.00  0.00    -0.354 N 
ATOM     43  C   UNL A   1      39.333  32.550  34.580  1.00  0.00     0.074 A 
ATOM     44  C   UNL A   1      38.296  33.557  34.574  1.00  0.00     0.031 C 
ATOM     45  C   UNL A   1      38.730  29.832  28.782  1.00  0.00     0.029 A 
ATOM     46  C   UNL A   1      39.728  29.530  29.806  1.00  0.00     0.049 A 
ATOM     47  H   UNL A   1      39.819  30.306  31.739  1.00  0.00     0.167 HD
ATOM     48  C   UNL A   1      40.174  32.333  35.617  1.00  0.00     0.034 A 
ATOM     49  C   UNL A   1      40.761  28.674  29.675  1.00  0.00     0.034 A 
ATOM     50  C   UNL A   1      41.196  31.324  35.625  1.00  0.00     0.049 A 
ATOM     51  C   UNL A   1      41.704  28.472  30.836  1.00  0.00     0.074 A 
ATOM     52  C   UNL A   1      42.066  30.991  36.647  1.00  0.00     0.029 A 
ATOM     53  N   UNL A   1      41.500  30.499  34.554  1.00  0.00    -0.354 N 
ATOM     54  N   UNL A   1      41.680  29.023  32.027  1.00  0.00    -0.248 NA
ATOM     55  C   UNL A   1      42.797  27.507  30.646  1.00  0.00     0.031 C 
ATOM     56  C   UNL A   1      42.927  29.995  36.179  1.00  0.00     0.029 A 
ATOM     57  C   UNL A   1      42.557  29.670  34.883  1.00  0.00     0.049 A 
ATOM     58  H   UNL A   1      41.032  30.503  33.688  1.00  0.00     0.167 HD
ATOM     59  C   UNL A   1      42.725  28.441  32.738  1.00  0.00     0.074 A 
ATOM     60  C   UNL A   1      43.351  27.483  31.851  1.00  0.00     0.031 C 
ATOM     61  C   UNL A   1      43.135  28.682  34.009  1.00  0.00     0.034 A 
BRANCH  48  62
ATOM     62  C   UNL A   1      40.026  33.206  36.835  1.00  0.00     0.023 A 
ATOM     63  C   UNL A   1      39.030  32.918  37.792  1.00  0.00     0.012 A 
ATOM     64  C   UNL A   1      40.912  34.276  37.059  1.00  0.00     0.148 A 
ATOM     65  C   UNL A   1      38.903  33.701  38.938  1.00  0.00     0.002 A 
ATOM     66  C   UNL A   1      40.812  35.021  38.227  1.00  0.00     0.091 A 
ATOM     67  F   UNL A   1      41.835  34.547  36.124  1.00  0.00    -0.205 F 
ATOM     68  C   UNL A   1      39.800  34.743  39.161  1.00  0.00     0.022 A 
BRANCH  66  69
ATOM     69  S   UNL A   1      41.969  36.328  38.646  1.00  0.00     0.127 S 
ATOM     70  O   UNL A   1      42.152  36.986  37.352  1.00  0.00    -0.237 OA
ATOM     71  O   UNL A   1      41.209  37.106  39.624  1.00  0.00    -0.237 OA
ATOM     72  O   UNL A   1      43.151  35.665  39.178  1.00  0.00    -0.744 OA
ENDBRANCH  66  69
ENDBRANCH  48  62
BRANCH  49  73
ATOM     73  C   UNL A   1      40.962  27.931  28.398  1.00  0.00     0.023 A 
ATOM     74  C   UNL A   1      41.539  28.585  27.291  1.00  0.00     0.012 A 
ATOM     75  C   UNL A   1      40.577  26.583  28.273  1.00  0.00     0.148 A 
ATOM     76  C   UNL A   1      41.693  27.920  26.073  1.00  0.00     0.002 A 
ATOM     77  C   UNL A   1      40.786  25.909  27.075  1.00  0.00     0.091 A 
ATOM     78  F   UNL A   1      40.015  25.982  29.331  1.00  0.00    -0.205 F 
ATOM     79  C   UNL A   1      41.324  26.582  25.967  1.00  0.00     0.022 A 
BRANCH  77  80
ATOM     80  S   UNL A   1      40.459  24.154  26.883  1.00  0.00     0.127 S 
ATOM     81  O   UNL A   1      41.215  23.839  25.674  1.00  0.00    -0.237 OA
ATOM     82  O   UNL A   1      41.018  23.609  28.120  1.00  0.00    -0.237 OA
ATOM     83  O   UNL A   1      39.012  24.032  26.772  1.00  0.00    -0.744 OA
ENDBRANCH  77  80
ENDBRANCH  49  73
BRANCH  61  84
ATOM     84  C   UNL A   1      44.278  27.861  34.551  1.00  0.00     0.023 A 
ATOM     85  C   UNL A   1      45.589  28.375  34.540  1.00  0.00     0.012 A 
ATOM     86  C   UNL A   1      44.032  26.608  35.149  1.00  0.00     0.148 A 
ATOM     87  C   UNL A   1      46.643  27.638  35.082  1.00  0.00     0.002 A 
ATOM     88  C   UNL A   1      45.075  25.906  35.737  1.00  0.00     0.091 A 
ATOM     89  F   UNL A   1      42.778  26.131  35.138  1.00  0.00    -0.205 F 
ATOM     90  C   UNL A   1      46.384  26.412  35.691  1.00  0.00     0.022 A 
BRANCH  88  91
ATOM     91  S   UNL A   1      44.821  24.369  36.632  1.00  0.00     0.127 S 
ATOM     92  O   UNL A   1      46.191  23.883  36.782  1.00  0.00    -0.237 OA
ATOM     93  O   UNL A   1      44.198  24.834  37.872  1.00  0.00    -0.237 OA
ATOM     94  O   UNL A   1      43.958  23.551  35.791  1.00  0.00    -0.744 OA
ENDBRANCH  88  91
ENDBRANCH  61  84
ENDBRANCH  35  36
ENDBRANCH  28  30
ENDBRANCH  27  28
ENDBRANCH  26  27
ENDBRANCH  25  26
ENDBRANCH  24  25
ENDBRANCH  23  24
ENDBRANCH   1  23
TORSDOF 26
ENDMDL
MODEL 3
REMARK VINA RESULT:      -8.7      2.161      8.198
REMARK SMILES CC[C@H]1CC[C@](O)([C@H](F)C(=O)OCCOCCOCCOCCOC(=O)c2ccc(-c3c4nc(c(-c5cccc(S(=O)(=O)[O-])c5F)c5ccc([nH]5)c(-c5cccc(S(=O)(=O)[O-])c5F)c5nc(c(-c6cccc(S(=O)(=O)[O-])c6F)c6ccc3[nH]6)C=C5)C=C4)cc2)CC1
REMARK SMILES IDX 19 1 18 2 17 3 16 4 15 5 14 6 13 7 12 8 10 9 11 10 8 11 9 12
REMARK SMILES IDX 6 13 3 14 4 15 91 16 5 17 90 18 2 19 1 20 7 21 20 23 21 24
REMARK SMILES IDX 22 25 23 26 24 27 25 28 26 29 27 30 28 31 89 32 29 33 88 34
REMARK SMILES IDX 30 35 31 36 32 37 82 38 33 39 87 40 81 41 83 42 34 43 86 44
REMARK SMILES IDX 80 45 79 46 35 48 67 49 47 50 66 51 48 52 51 53 65 54 84 55
REMARK SMILES IDX 49 56 50 57 64 59 85 60 52 61 36 62 37 63 45 64 38 65 40 66
REMARK SMILES IDX 46 67 39 68 41 69 42 70 43 71 44 72 68 73 69 74 77 75 70 76
REMARK SMILES IDX 72 77 78 78 71 79 73 80 74 81 75 82 76 83 53 84 54 85 62 86
REMARK SMILES IDX 55 87 57 88 63 89 56 90 58 91 59 92 60 93 61 94
REMARK H PARENT 7 22 83 47 51 58
REMARK Flexibility Score: inf
ROOT
ATOM      1  C   UNL A   1      41.290  22.012  26.643  1.00  0.00     0.188 C 
ENDROOT
BRANCH   1   2
ATOM      2  O   UNL A   1      40.191  22.693  26.055  1.00  0.00    -0.377 OA
BRANCH   2   3
ATOM      3  C   UNL A   1      38.882  22.237  26.291  1.00  0.00     0.188 C 
BRANCH   3   4
ATOM      4  C   UNL A   1      38.247  21.381  25.183  1.00  0.00     0.188 C 
BRANCH   4   5
ATOM      5  O   UNL A   1      37.217  21.917  24.381  1.00  0.00    -0.376 OA
BRANCH   5   6
ATOM      6  C   UNL A   1      35.819  21.823  24.588  1.00  0.00     0.202 C 
BRANCH   6   7
ATOM      7  C   UNL A   1      34.661  22.484  23.815  1.00  0.00     0.261 C 
BRANCH   7   8
ATOM      8  O   UNL A   1      34.301  23.825  24.105  1.00  0.00    -0.461 OA
BRANCH   8   9
ATOM      9  C   UNL A   1      33.385  24.328  23.248  1.00  0.00     0.343 C 
ATOM     10  O   UNL A   1      33.481  24.178  22.036  1.00  0.00    -0.249 OA
BRANCH   9  11
ATOM     11  C   UNL A   1      32.231  25.018  23.960  1.00  0.00     0.307 C 
ATOM     12  F   UNL A   1      32.192  24.664  25.288  1.00  0.00    -0.232 F 
BRANCH  11  13
ATOM     13  C   UNL A   1      32.259  26.562  23.901  1.00  0.00     0.107 C 
ATOM     14  C   UNL A   1      32.888  27.643  26.631  1.00  0.00    -0.011 C 
ATOM     15  C   UNL A   1      33.994  27.099  25.705  1.00  0.00     0.006 C 
ATOM     16  C   UNL A   1      31.428  27.315  26.231  1.00  0.00     0.006 C 
ATOM     17  C   UNL A   1      33.628  27.164  24.238  1.00  0.00     0.039 C 
ATOM     18  C   UNL A   1      31.155  27.228  24.730  1.00  0.00     0.039 C 
BRANCH  14  19
ATOM     19  C   UNL A   1      33.045  29.166  26.802  1.00  0.00    -0.000 C 
ATOM     20  C   UNL A   1      34.316  29.478  27.577  1.00  0.00     0.004 C 
ENDBRANCH  14  19
BRANCH  13  21
ATOM     21  O   UNL A   1      32.038  26.958  22.523  1.00  0.00    -0.386 OA
ATOM     22  H   UNL A   1      32.762  27.533  22.231  1.00  0.00     0.211 HD
ENDBRANCH  13  21
ENDBRANCH  11  13
ENDBRANCH   9  11
ENDBRANCH   8   9
ENDBRANCH   7   8
ENDBRANCH   6   7
ENDBRANCH   5   6
ENDBRANCH   4   5
ENDBRANCH   3   4
ENDBRANCH   2   3
ENDBRANCH   1   2
BRANCH   1  23
ATOM     23  C   UNL A   1      41.101  20.840  27.634  1.00  0.00     0.188 C 
BRANCH  23  24
ATOM     24  O   UNL A   1      41.665  19.602  27.233  1.00  0.00    -0.376 OA
BRANCH  24  25
ATOM     25  C   UNL A   1      42.048  19.436  25.880  1.00  0.00     0.202 C 
BRANCH  25  26
ATOM     26  C   UNL A   1      43.278  18.560  25.600  1.00  0.00     0.261 C 
BRANCH  26  27
ATOM     27  O   UNL A   1      44.528  19.250  25.477  1.00  0.00    -0.460 OA
BRANCH  27  28
ATOM     28  C   UNL A   1      44.652  20.129  24.459  1.00  0.00     0.338 C 
ATOM     29  O   UNL A   1      44.588  19.881  23.264  1.00  0.00    -0.246 OA
BRANCH  28  30
ATOM     30  C   UNL A   1      44.671  21.488  25.037  1.00  0.00     0.060 A 
ATOM     31  C   UNL A   1      44.390  22.582  24.207  1.00  0.00     0.016 A 
ATOM     32  C   UNL A   1      44.937  21.676  26.395  1.00  0.00     0.016 A 
ATOM     33  C   UNL A   1      44.416  23.876  24.726  1.00  0.00     0.010 A 
ATOM     34  C   UNL A   1      44.990  22.974  26.907  1.00  0.00     0.010 A 
ATOM     35  C   UNL A   1      44.769  24.080  26.065  1.00  0.00    -0.014 A 
BRANCH  35  36
ATOM     36  C   UNL A   1      45.137  25.440  26.524  1.00  0.00     0.031 A 
ATOM     37  C   UNL A   1      44.039  26.325  27.047  1.00  0.00     0.074 A 
ATOM     38  C   UNL A   1      46.406  25.881  26.480  1.00  0.00     0.049 A 
ATOM     39  N   UNL A   1      44.096  27.566  27.453  1.00  0.00    -0.248 NA
ATOM     40  C   UNL A   1      42.693  25.730  27.118  1.00  0.00     0.031 C 
ATOM     41  C   UNL A   1      47.556  25.112  26.009  1.00  0.00     0.029 A 
ATOM     42  N   UNL A   1      46.930  27.106  26.810  1.00  0.00    -0.354 N 
ATOM     43  C   UNL A   1      42.793  27.911  27.789  1.00  0.00     0.074 A 
ATOM     44  C   UNL A   1      41.965  26.752  27.538  1.00  0.00     0.031 C 
ATOM     45  C   UNL A   1      48.648  25.897  26.046  1.00  0.00     0.029 A 
ATOM     46  C   UNL A   1      48.267  27.230  26.512  1.00  0.00     0.049 A 
ATOM     47  H   UNL A   1      46.400  27.827  27.222  1.00  0.00     0.167 HD
ATOM     48  C   UNL A   1      42.327  29.086  28.270  1.00  0.00     0.034 A 
ATOM     49  C   UNL A   1      49.078  28.305  26.578  1.00  0.00     0.034 A 
ATOM     50  C   UNL A   1      43.153  30.231  28.529  1.00  0.00     0.049 A 
ATOM     51  C   UNL A   1      48.526  29.614  27.089  1.00  0.00     0.074 A 
ATOM     52  C   UNL A   1      42.785  31.452  29.064  1.00  0.00     0.029 A 
ATOM     53  N   UNL A   1      44.509  30.307  28.254  1.00  0.00    -0.354 N 
ATOM     54  N   UNL A   1      47.316  29.894  27.510  1.00  0.00    -0.248 NA
ATOM     55  C   UNL A   1      49.461  30.747  27.163  1.00  0.00     0.031 C 
ATOM     56  C   UNL A   1      43.909  32.282  29.071  1.00  0.00     0.029 A 
ATOM     57  C   UNL A   1      44.990  31.559  28.591  1.00  0.00     0.049 A 
ATOM     58  H   UNL A   1      45.050  29.576  27.876  1.00  0.00     0.167 HD
ATOM     59  C   UNL A   1      47.356  31.218  27.937  1.00  0.00     0.074 A 
ATOM     60  C   UNL A   1      48.714  31.679  27.740  1.00  0.00     0.031 C 
ATOM     61  C   UNL A   1      46.357  31.987  28.440  1.00  0.00     0.034 A 
BRANCH  48  62
ATOM     62  C   UNL A   1      40.851  29.195  28.548  1.00  0.00     0.023 A 
ATOM     63  C   UNL A   1      39.944  29.374  27.483  1.00  0.00     0.012 A 
ATOM     64  C   UNL A   1      40.360  29.058  29.860  1.00  0.00     0.148 A 
ATOM     65  C   UNL A   1      38.573  29.445  27.726  1.00  0.00     0.002 A 
ATOM     66  C   UNL A   1      38.990  29.081  30.089  1.00  0.00     0.091 A 
ATOM     67  F   UNL A   1      41.242  28.914  30.860  1.00  0.00    -0.205 F 
ATOM     68  C   UNL A   1      38.096  29.287  29.024  1.00  0.00     0.022 A 
BRANCH  66  69
ATOM     69  S   UNL A   1      38.273  28.802  31.711  1.00  0.00     0.127 S 
ATOM     70  O   UNL A   1      36.849  28.998  31.441  1.00  0.00    -0.237 OA
ATOM     71  O   UNL A   1      38.658  27.417  31.980  1.00  0.00    -0.237 OA
ATOM     72  O   UNL A   1      38.879  29.788  32.595  1.00  0.00    -0.744 OA
ENDBRANCH  66  69
ENDBRANCH  48  62
BRANCH  49  73
ATOM     73  C   UNL A   1      50.503  28.197  26.156  1.00  0.00     0.023 A 
ATOM     74  C   UNL A   1      50.855  28.427  24.811  1.00  0.00     0.012 A 
ATOM     75  C   UNL A   1      51.511  27.859  27.079  1.00  0.00     0.148 A 
ATOM     76  C   UNL A   1      52.177  28.285  24.387  1.00  0.00     0.002 A 
ATOM     77  C   UNL A   1      52.835  27.777  26.664  1.00  0.00     0.091 A 
ATOM     78  F   UNL A   1      51.155  27.629  28.351  1.00  0.00    -0.205 F 
ATOM     79  C   UNL A   1      53.167  27.968  25.314  1.00  0.00     0.022 A 
BRANCH  77  80
ATOM     80  S   UNL A   1      54.192  27.498  27.806  1.00  0.00     0.127 S 
ATOM     81  O   UNL A   1      53.904  26.150  28.289  1.00  0.00    -0.237 OA
ATOM     82  O   UNL A   1      55.352  27.602  26.922  1.00  0.00    -0.237 OA
ATOM     83  O   UNL A   1      54.095  28.558  28.800  1.00  0.00    -0.744 OA
ENDBRANCH  77  80
ENDBRANCH  49  73
BRANCH  61  84
ATOM     84  C   UNL A   1      46.696  33.390  28.875  1.00  0.00     0.023 A 
ATOM     85  C   UNL A   1      47.202  33.630  30.168  1.00  0.00     0.012 A 
ATOM     86  C   UNL A   1      46.587  34.462  27.966  1.00  0.00     0.148 A 
ATOM     87  C   UNL A   1      47.560  34.920  30.560  1.00  0.00     0.002 A 
ATOM     88  C   UNL A   1      46.999  35.733  28.344  1.00  0.00     0.091 A 
ATOM     89  F   UNL A   1      46.091  34.214  26.744  1.00  0.00    -0.205 F 
ATOM     90  C   UNL A   1      47.471  35.967  29.646  1.00  0.00     0.022 A 
BRANCH  88  91
ATOM     91  S   UNL A   1      47.015  37.121  27.204  1.00  0.00     0.127 S 
ATOM     92  O   UNL A   1      45.589  37.310  26.946  1.00  0.00    -0.237 OA
ATOM     93  O   UNL A   1      47.635  38.174  28.008  1.00  0.00    -0.237 OA
ATOM     94  O   UNL A   1      47.804  36.691  26.057  1.00  0.00    -0.744 OA
ENDBRANCH  88  91
ENDBRANCH  61  84
ENDBRANCH  35  36
ENDBRANCH  28  30
ENDBRANCH  27  28
ENDBRANCH  26  27
ENDBRANCH  25  26
ENDBRANCH  24  25
ENDBRANCH  23  24
ENDBRANCH   1  23
TORSDOF 26
ENDMDL
