MODEL 1
REMARK VINA RESULT:     -10.6      0.000      0.000
REMARK SMILES C[C@H](C(=O)OCCOCCOCCOCCOC(=O)c1ccc(-c2c3nc(c(-c4cccc(S(=O)(=O)[O-])c4F)c4ccc([nH]4)c(-c4cccc(S(=O)(=O)[O-])c4F)c4nc(c(-c5cccc(S(=O)(=O)[O-])c5F)c5ccc2[nH]5)C=C4)C=C3)cc1)c1ccc2c(c1)OCCO2
REMARK SMILES IDX 12 1 11 2 10 3 9 4 8 5 7 6 6 7 5 8 3 9 4 10 2 11 1 12 83 13
REMARK SMILES IDX 84 14 88 15 85 16 87 17 86 18 89 19 92 20 90 21 91 22 13 23
REMARK SMILES IDX 14 24 15 25 16 26 17 27 18 28 19 29 20 30 21 31 82 32 22 33
REMARK SMILES IDX 81 34 23 35 24 36 25 37 75 38 26 39 80 40 74 41 76 42 27 43
REMARK SMILES IDX 79 44 73 45 72 46 28 48 60 49 40 50 59 51 41 52 44 53 58 54
REMARK SMILES IDX 77 55 42 56 43 57 57 59 78 60 45 61 29 62 30 63 38 64 31 65
REMARK SMILES IDX 33 66 39 67 32 68 34 69 35 70 36 71 37 72 61 73 62 74 70 75
REMARK SMILES IDX 63 76 65 77 71 78 64 79 66 80 67 81 68 82 69 83 46 84 47 85
REMARK SMILES IDX 55 86 48 87 50 88 56 89 49 90 51 91 52 92 53 93 54 94
REMARK H PARENT 76 47 44 58
REMARK Flexibility Score: inf
ROOT
ATOM      1  C   UNL A   1      33.277  28.165  25.125  1.00  0.00     0.188 C 
ENDROOT
BRANCH   1   2
ATOM      2  O   UNL A   1      33.788  28.900  24.028  1.00  0.00    -0.377 OA
BRANCH   2   3
ATOM      3  C   UNL A   1      33.053  28.883  22.826  1.00  0.00     0.188 C 
BRANCH   3   4
ATOM      4  C   UNL A   1      31.904  27.872  22.763  1.00  0.00     0.188 C 
BRANCH   4   5
ATOM      5  O   UNL A   1      32.035  26.683  21.997  1.00  0.00    -0.376 OA
BRANCH   5   6
ATOM      6  C   UNL A   1      33.270  25.970  22.013  1.00  0.00     0.202 C 
BRANCH   6   7
ATOM      7  C   UNL A   1      33.331  24.526  22.551  1.00  0.00     0.261 C 
BRANCH   7   8
ATOM      8  O   UNL A   1      34.161  24.335  23.715  1.00  0.00    -0.463 OA
BRANCH   8   9
ATOM      9  C   UNL A   1      35.172  23.443  23.610  1.00  0.00     0.313 C 
ATOM     10  O   UNL A   1      35.911  23.372  22.629  1.00  0.00    -0.252 OA
BRANCH   9  11
ATOM     11  C   UNL A   1      35.418  22.570  24.837  1.00  0.00     0.126 C 
ATOM     12  C   UNL A   1      35.457  23.527  26.049  1.00  0.00     0.025 C 
BRANCH  11  13
ATOM     13  C   UNL A   1      34.587  21.307  25.099  1.00  0.00    -0.030 A 
ATOM     14  C   UNL A   1      33.226  21.402  25.441  1.00  0.00     0.009 A 
ATOM     15  C   UNL A   1      35.101  20.025  24.810  1.00  0.00     0.055 A 
ATOM     16  C   UNL A   1      32.375  20.294  25.309  1.00  0.00     0.051 A 
ATOM     17  C   UNL A   1      34.261  18.938  24.648  1.00  0.00     0.161 A 
ATOM     18  C   UNL A   1      32.890  19.103  24.809  1.00  0.00     0.161 A 
ATOM     19  O   UNL A   1      34.834  17.792  24.166  1.00  0.00    -0.486 OA
ATOM     20  O   UNL A   1      32.025  18.169  24.286  1.00  0.00    -0.486 OA
ATOM     21  C   UNL A   1      33.941  17.039  23.334  1.00  0.00     0.271 C 
ATOM     22  C   UNL A   1      32.623  17.751  23.046  1.00  0.00     0.271 C 
ENDBRANCH  11  13
ENDBRANCH   9  11
ENDBRANCH   8   9
ENDBRANCH   7   8
ENDBRANCH   6   7
ENDBRANCH   5   6
ENDBRANCH   4   5
ENDBRANCH   3   4
ENDBRANCH   2   3
ENDBRANCH   1   2
BRANCH   1  23
ATOM     23  C   UNL A   1      32.806  28.973  26.342  1.00  0.00     0.188 C 
BRANCH  23  24
ATOM     24  O   UNL A   1      32.884  30.383  26.164  1.00  0.00    -0.376 OA
BRANCH  24  25
ATOM     25  C   UNL A   1      31.720  31.168  26.385  1.00  0.00     0.202 C 
BRANCH  25  26
ATOM     26  C   UNL A   1      31.859  32.546  27.059  1.00  0.00     0.261 C 
BRANCH  26  27
ATOM     27  O   UNL A   1      33.125  33.215  26.945  1.00  0.00    -0.460 OA
BRANCH  27  28
ATOM     28  C   UNL A   1      33.676  33.766  28.044  1.00  0.00     0.338 C 
ATOM     29  O   UNL A   1      33.202  34.650  28.741  1.00  0.00    -0.246 OA
BRANCH  28  30
ATOM     30  C   UNL A   1      34.871  32.967  28.396  1.00  0.00     0.060 A 
ATOM     31  C   UNL A   1      34.704  31.623  28.756  1.00  0.00     0.016 A 
ATOM     32  C   UNL A   1      36.147  33.535  28.366  1.00  0.00     0.016 A 
ATOM     33  C   UNL A   1      35.808  30.854  29.128  1.00  0.00     0.010 A 
ATOM     34  C   UNL A   1      37.249  32.771  28.764  1.00  0.00     0.010 A 
ATOM     35  C   UNL A   1      37.079  31.439  29.184  1.00  0.00    -0.014 A 
BRANCH  35  36
ATOM     36  C   UNL A   1      38.183  30.728  29.873  1.00  0.00     0.031 A 
ATOM     37  C   UNL A   1      38.492  31.104  31.297  1.00  0.00     0.074 A 
ATOM     38  C   UNL A   1      38.895  29.767  29.258  1.00  0.00     0.049 A 
ATOM     39  N   UNL A   1      39.430  30.657  32.089  1.00  0.00    -0.248 NA
ATOM     40  C   UNL A   1      37.624  32.126  31.909  1.00  0.00     0.031 C 
ATOM     41  C   UNL A   1      38.682  29.301  27.890  1.00  0.00     0.029 A 
ATOM     42  N   UNL A   1      39.963  29.029  29.705  1.00  0.00    -0.354 N 
ATOM     43  C   UNL A   1      39.289  31.364  33.278  1.00  0.00     0.074 A 
ATOM     44  C   UNL A   1      38.181  32.277  33.101  1.00  0.00     0.031 C 
ATOM     45  C   UNL A   1      39.613  28.376  27.597  1.00  0.00     0.029 A 
ATOM     46  C   UNL A   1      40.504  28.208  28.745  1.00  0.00     0.049 A 
ATOM     47  H   UNL A   1      40.308  29.083  30.626  1.00  0.00     0.167 HD
ATOM     48  C   UNL A   1      40.010  31.258  34.419  1.00  0.00     0.034 A 
ATOM     49  C   UNL A   1      41.608  27.434  28.781  1.00  0.00     0.034 A 
ATOM     50  C   UNL A   1      41.105  30.345  34.597  1.00  0.00     0.049 A 
ATOM     51  C   UNL A   1      42.420  27.363  30.050  1.00  0.00     0.074 A 
ATOM     52  C   UNL A   1      41.870  30.131  35.729  1.00  0.00     0.029 A 
ATOM     53  N   UNL A   1      41.605  29.508  33.612  1.00  0.00    -0.354 N 
ATOM     54  N   UNL A   1      42.211  27.956  31.200  1.00  0.00    -0.248 NA
ATOM     55  C   UNL A   1      43.603  26.489  30.036  1.00  0.00     0.031 C 
ATOM     56  C   UNL A   1      42.862  29.196  35.415  1.00  0.00     0.029 A 
ATOM     57  C   UNL A   1      42.682  28.790  34.103  1.00  0.00     0.049 A 
ATOM     58  H   UNL A   1      41.248  29.435  32.696  1.00  0.00     0.167 HD
ATOM     59  C   UNL A   1      43.208  27.498  32.056  1.00  0.00     0.074 A 
ATOM     60  C   UNL A   1      44.011  26.563  31.295  1.00  0.00     0.031 C 
ATOM     61  C   UNL A   1      43.443  27.825  33.351  1.00  0.00     0.034 A 
BRANCH  48  62
ATOM     62  C   UNL A   1      39.632  32.153  35.569  1.00  0.00     0.023 A 
ATOM     63  C   UNL A   1      40.174  33.452  35.660  1.00  0.00     0.012 A 
ATOM     64  C   UNL A   1      38.701  31.725  36.537  1.00  0.00     0.148 A 
ATOM     65  C   UNL A   1      39.824  34.296  36.713  1.00  0.00     0.002 A 
ATOM     66  C   UNL A   1      38.319  32.589  37.554  1.00  0.00     0.091 A 
ATOM     67  F   UNL A   1      38.214  30.479  36.445  1.00  0.00    -0.205 F 
ATOM     68  C   UNL A   1      38.889  33.869  37.652  1.00  0.00     0.022 A 
BRANCH  66  69
ATOM     69  S   UNL A   1      37.062  32.164  38.764  1.00  0.00     0.127 S 
ATOM     70  O   UNL A   1      35.893  32.865  38.233  1.00  0.00    -0.237 OA
ATOM     71  O   UNL A   1      37.004  30.706  38.646  1.00  0.00    -0.237 OA
ATOM     72  O   UNL A   1      37.552  32.652  40.045  1.00  0.00    -0.744 OA
ENDBRANCH  66  69
ENDBRANCH  48  62
BRANCH  49  73
ATOM     73  C   UNL A   1      42.010  26.648  27.579  1.00  0.00     0.023 A 
ATOM     74  C   UNL A   1      42.640  27.294  26.499  1.00  0.00     0.012 A 
ATOM     75  C   UNL A   1      41.767  25.262  27.502  1.00  0.00     0.148 A 
ATOM     76  C   UNL A   1      42.992  26.583  25.350  1.00  0.00     0.002 A 
ATOM     77  C   UNL A   1      42.171  24.549  26.379  1.00  0.00     0.091 A 
ATOM     78  F   UNL A   1      41.150  24.668  28.533  1.00  0.00    -0.205 F 
ATOM     79  C   UNL A   1      42.765  25.211  25.294  1.00  0.00     0.022 A 
BRANCH  77  80
ATOM     80  S   UNL A   1      42.033  22.762  26.270  1.00  0.00     0.127 S 
ATOM     81  O   UNL A   1      40.585  22.572  26.279  1.00  0.00    -0.237 OA
ATOM     82  O   UNL A   1      42.682  22.491  24.986  1.00  0.00    -0.237 OA
ATOM     83  O   UNL A   1      42.744  22.236  27.427  1.00  0.00    -0.744 OA
ENDBRANCH  77  80
ENDBRANCH  49  73
BRANCH  61  84
ATOM     84  C   UNL A   1      44.583  27.135  34.058  1.00  0.00     0.023 A 
ATOM     85  C   UNL A   1      45.873  27.700  34.046  1.00  0.00     0.012 A 
ATOM     86  C   UNL A   1      44.351  25.960  34.803  1.00  0.00     0.148 A 
ATOM     87  C   UNL A   1      46.922  27.087  34.733  1.00  0.00     0.002 A 
ATOM     88  C   UNL A   1      45.388  25.385  35.528  1.00  0.00     0.091 A 
ATOM     89  F   UNL A   1      43.120  25.427  34.791  1.00  0.00    -0.205 F 
ATOM     90  C   UNL A   1      46.678  25.939  35.481  1.00  0.00     0.022 A 
BRANCH  88  91
ATOM     91  S   UNL A   1      45.145  23.965  36.601  1.00  0.00     0.127 S 
ATOM     92  O   UNL A   1      44.461  24.569  37.743  1.00  0.00    -0.237 OA
ATOM     93  O   UNL A   1      44.306  23.095  35.777  1.00  0.00    -0.237 OA
ATOM     94  O   UNL A   1      46.474  23.438  36.880  1.00  0.00    -0.744 OA
ENDBRANCH  88  91
ENDBRANCH  61  84
ENDBRANCH  35  36
ENDBRANCH  28  30
ENDBRANCH  27  28
ENDBRANCH  26  27
ENDBRANCH  25  26
ENDBRANCH  24  25
ENDBRANCH  23  24
ENDBRANCH   1  23
TORSDOF 24
ENDMDL
MODEL 2
REMARK VINA RESULT:     -10.1      1.218      2.071
REMARK SMILES C[C@H](C(=O)OCCOCCOCCOCCOC(=O)c1ccc(-c2c3nc(c(-c4cccc(S(=O)(=O)[O-])c4F)c4ccc([nH]4)c(-c4cccc(S(=O)(=O)[O-])c4F)c4nc(c(-c5cccc(S(=O)(=O)[O-])c5F)c5ccc2[nH]5)C=C4)C=C3)cc1)c1ccc2c(c1)OCCO2
REMARK SMILES IDX 12 1 11 2 10 3 9 4 8 5 7 6 6 7 5 8 3 9 4 10 2 11 1 12 83 13
REMARK SMILES IDX 84 14 88 15 85 16 87 17 86 18 89 19 92 20 90 21 91 22 13 23
REMARK SMILES IDX 14 24 15 25 16 26 17 27 18 28 19 29 20 30 21 31 82 32 22 33
REMARK SMILES IDX 81 34 23 35 24 36 25 37 75 38 26 39 80 40 74 41 76 42 27 43
REMARK SMILES IDX 79 44 73 45 72 46 28 48 60 49 40 50 59 51 41 52 44 53 58 54
REMARK SMILES IDX 77 55 42 56 43 57 57 59 78 60 45 61 29 62 30 63 38 64 31 65
REMARK SMILES IDX 33 66 39 67 32 68 34 69 35 70 36 71 37 72 61 73 62 74 70 75
REMARK SMILES IDX 63 76 65 77 71 78 64 79 66 80 67 81 68 82 69 83 46 84 47 85
REMARK SMILES IDX 55 86 48 87 50 88 56 89 49 90 51 91 52 92 53 93 54 94
REMARK H PARENT 76 47 44 58
REMARK Flexibility Score: inf
ROOT
ATOM      1  C   UNL A   1      33.429  28.262  25.296  1.00  0.00     0.188 C 
ENDROOT
BRANCH   1   2
ATOM      2  O   UNL A   1      33.447  28.824  23.997  1.00  0.00    -0.377 OA
BRANCH   2   3
ATOM      3  C   UNL A   1      32.213  29.004  23.341  1.00  0.00     0.188 C 
BRANCH   3   4
ATOM      4  C   UNL A   1      31.004  28.340  24.005  1.00  0.00     0.188 C 
BRANCH   4   5
ATOM      5  O   UNL A   1      30.490  27.115  23.501  1.00  0.00    -0.376 OA
BRANCH   5   6
ATOM      6  C   UNL A   1      31.393  26.101  23.065  1.00  0.00     0.202 C 
BRANCH   6   7
ATOM      7  C   UNL A   1      31.065  24.612  23.295  1.00  0.00     0.261 C 
BRANCH   7   8
ATOM      8  O   UNL A   1      30.520  24.293  24.592  1.00  0.00    -0.463 OA
BRANCH   8   9
ATOM      9  C   UNL A   1      31.335  24.459  25.658  1.00  0.00     0.313 C 
ATOM     10  O   UNL A   1      31.783  25.551  26.004  1.00  0.00    -0.252 OA
BRANCH   9  11
ATOM     11  C   UNL A   1      31.603  23.208  26.491  1.00  0.00     0.126 C 
ATOM     12  C   UNL A   1      30.329  22.339  26.390  1.00  0.00     0.025 C 
BRANCH  11  13
ATOM     13  C   UNL A   1      32.895  22.397  26.323  1.00  0.00    -0.030 A 
ATOM     14  C   UNL A   1      32.883  21.158  25.657  1.00  0.00     0.009 A 
ATOM     15  C   UNL A   1      34.150  22.955  26.646  1.00  0.00     0.055 A 
ATOM     16  C   UNL A   1      34.072  20.600  25.164  1.00  0.00     0.051 A 
ATOM     17  C   UNL A   1      35.321  22.425  26.134  1.00  0.00     0.161 A 
ATOM     18  C   UNL A   1      35.262  21.300  25.318  1.00  0.00     0.161 A 
ATOM     19  O   UNL A   1      36.460  23.156  26.334  1.00  0.00    -0.486 OA
ATOM     20  O   UNL A   1      36.328  20.995  24.502  1.00  0.00    -0.486 OA
ATOM     21  C   UNL A   1      37.386  23.040  25.246  1.00  0.00     0.271 C 
ATOM     22  C   UNL A   1      36.837  22.263  24.053  1.00  0.00     0.271 C 
ENDBRANCH  11  13
ENDBRANCH   9  11
ENDBRANCH   8   9
ENDBRANCH   7   8
ENDBRANCH   6   7
ENDBRANCH   5   6
ENDBRANCH   4   5
ENDBRANCH   3   4
ENDBRANCH   2   3
ENDBRANCH   1   2
BRANCH   1  23
ATOM     23  C   UNL A   1      33.037  29.194  26.451  1.00  0.00     0.188 C 
BRANCH  23  24
ATOM     24  O   UNL A   1      32.878  30.554  26.064  1.00  0.00    -0.376 OA
BRANCH  24  25
ATOM     25  C   UNL A   1      31.643  31.204  26.336  1.00  0.00     0.202 C 
BRANCH  25  26
ATOM     26  C   UNL A   1      31.651  32.557  27.072  1.00  0.00     0.261 C 
BRANCH  26  27
ATOM     27  O   UNL A   1      32.842  33.355  26.981  1.00  0.00    -0.460 OA
BRANCH  27  28
ATOM     28  C   UNL A   1      33.370  33.877  28.105  1.00  0.00     0.338 C 
ATOM     29  O   UNL A   1      32.876  34.734  28.820  1.00  0.00    -0.246 OA
BRANCH  28  30
ATOM     30  C   UNL A   1      34.568  33.079  28.451  1.00  0.00     0.060 A 
ATOM     31  C   UNL A   1      34.398  31.756  28.880  1.00  0.00     0.016 A 
ATOM     32  C   UNL A   1      35.848  33.628  28.349  1.00  0.00     0.016 A 
ATOM     33  C   UNL A   1      35.505  30.990  29.248  1.00  0.00     0.010 A 
ATOM     34  C   UNL A   1      36.955  32.869  28.743  1.00  0.00     0.010 A 
ATOM     35  C   UNL A   1      36.784  31.561  29.231  1.00  0.00    -0.014 A 
BRANCH  35  36
ATOM     36  C   UNL A   1      37.904  30.868  29.913  1.00  0.00     0.031 A 
ATOM     37  C   UNL A   1      38.180  31.209  31.353  1.00  0.00     0.074 A 
ATOM     38  C   UNL A   1      38.658  29.953  29.278  1.00  0.00     0.049 A 
ATOM     39  N   UNL A   1      39.124  30.770  32.144  1.00  0.00    -0.248 NA
ATOM     40  C   UNL A   1      37.269  32.178  31.984  1.00  0.00     0.031 C 
ATOM     41  C   UNL A   1      38.480  29.523  27.894  1.00  0.00     0.029 A 
ATOM     42  N   UNL A   1      39.746  29.239  29.717  1.00  0.00    -0.354 N 
ATOM     43  C   UNL A   1      38.942  31.433  33.352  1.00  0.00     0.074 A 
ATOM     44  C   UNL A   1      37.804  32.311  33.188  1.00  0.00     0.031 C 
ATOM     45  C   UNL A   1      39.448  28.642  27.585  1.00  0.00     0.029 A 
ATOM     46  C   UNL A   1      40.329  28.469  28.740  1.00  0.00     0.049 A 
ATOM     47  H   UNL A   1      40.077  29.276  30.644  1.00  0.00     0.167 HD
ATOM     48  C   UNL A   1      39.650  31.316  34.500  1.00  0.00     0.034 A 
ATOM     49  C   UNL A   1      41.460  27.734  28.767  1.00  0.00     0.034 A 
ATOM     50  C   UNL A   1      40.776  30.438  34.664  1.00  0.00     0.049 A 
ATOM     51  C   UNL A   1      42.257  27.652  30.045  1.00  0.00     0.074 A 
ATOM     52  C   UNL A   1      41.533  30.215  35.800  1.00  0.00     0.029 A 
ATOM     53  N   UNL A   1      41.319  29.651  33.661  1.00  0.00    -0.354 N 
ATOM     54  N   UNL A   1      42.011  28.200  31.210  1.00  0.00    -0.248 NA
ATOM     55  C   UNL A   1      43.471  26.821  30.020  1.00  0.00     0.031 C 
ATOM     56  C   UNL A   1      42.561  29.327  35.471  1.00  0.00     0.029 A 
ATOM     57  C   UNL A   1      42.413  28.957  34.144  1.00  0.00     0.049 A 
ATOM     58  H   UNL A   1      40.976  29.595  32.738  1.00  0.00     0.167 HD
ATOM     59  C   UNL A   1      43.013  27.750  32.065  1.00  0.00     0.074 A 
ATOM     60  C   UNL A   1      43.859  26.870  31.287  1.00  0.00     0.031 C 
ATOM     61  C   UNL A   1      43.219  28.044  33.373  1.00  0.00     0.034 A 
BRANCH  48  62
ATOM     62  C   UNL A   1      39.226  32.160  35.672  1.00  0.00     0.023 A 
ATOM     63  C   UNL A   1      39.638  33.506  35.758  1.00  0.00     0.012 A 
ATOM     64  C   UNL A   1      38.377  31.633  36.666  1.00  0.00     0.148 A 
ATOM     65  C   UNL A   1      39.241  34.302  36.832  1.00  0.00     0.002 A 
ATOM     66  C   UNL A   1      37.946  32.446  37.705  1.00  0.00     0.091 A 
ATOM     67  F   UNL A   1      38.015  30.346  36.577  1.00  0.00    -0.205 F 
ATOM     68  C   UNL A   1      38.387  33.776  37.798  1.00  0.00     0.022 A 
BRANCH  66  69
ATOM     69  S   UNL A   1      36.781  31.888  38.953  1.00  0.00     0.127 S 
ATOM     70  O   UNL A   1      36.736  30.449  38.690  1.00  0.00    -0.237 OA
ATOM     71  O   UNL A   1      37.462  32.259  40.194  1.00  0.00    -0.237 OA
ATOM     72  O   UNL A   1      35.541  32.606  38.699  1.00  0.00    -0.744 OA
ENDBRANCH  66  69
ENDBRANCH  48  62
BRANCH  49  73
ATOM     73  C   UNL A   1      41.905  27.002  27.547  1.00  0.00     0.023 A 
ATOM     74  C   UNL A   1      42.464  27.714  26.468  1.00  0.00     0.012 A 
ATOM     75  C   UNL A   1      41.775  25.602  27.450  1.00  0.00     0.148 A 
ATOM     76  C   UNL A   1      42.855  27.051  25.303  1.00  0.00     0.002 A 
ATOM     77  C   UNL A   1      42.218  24.942  26.311  1.00  0.00     0.091 A 
ATOM     78  F   UNL A   1      41.225  24.944  28.480  1.00  0.00    -0.205 F 
ATOM     79  C   UNL A   1      42.740  25.666  25.228  1.00  0.00     0.022 A 
BRANCH  77  80
ATOM     80  S   UNL A   1      42.224  23.151  26.173  1.00  0.00     0.127 S 
ATOM     81  O   UNL A   1      43.080  22.768  27.293  1.00  0.00    -0.237 OA
ATOM     82  O   UNL A   1      40.806  22.834  26.344  1.00  0.00    -0.237 OA
ATOM     83  O   UNL A   1      42.752  22.856  24.848  1.00  0.00    -0.744 OA
ENDBRANCH  77  80
ENDBRANCH  49  73
BRANCH  61  84
ATOM     84  C   UNL A   1      44.374  27.373  34.074  1.00  0.00     0.023 A 
ATOM     85  C   UNL A   1      45.644  27.981  34.094  1.00  0.00     0.012 A 
ATOM     86  C   UNL A   1      44.174  26.170  34.782  1.00  0.00     0.148 A 
ATOM     87  C   UNL A   1      46.705  27.384  34.776  1.00  0.00     0.002 A 
ATOM     88  C   UNL A   1      45.221  25.610  35.504  1.00  0.00     0.091 A 
ATOM     89  F   UNL A   1      42.961  25.597  34.741  1.00  0.00    -0.205 F 
ATOM     90  C   UNL A   1      46.492  26.208  35.489  1.00  0.00     0.022 A 
BRANCH  88  91
ATOM     91  S   UNL A   1      45.015  24.152  36.533  1.00  0.00     0.127 S 
ATOM     92  O   UNL A   1      46.394  23.867  36.925  1.00  0.00    -0.237 OA
ATOM     93  O   UNL A   1      44.165  24.654  37.613  1.00  0.00    -0.237 OA
ATOM     94  O   UNL A   1      44.388  23.146  35.687  1.00  0.00    -0.744 OA
ENDBRANCH  88  91
ENDBRANCH  61  84
ENDBRANCH  35  36
ENDBRANCH  28  30
ENDBRANCH  27  28
ENDBRANCH  26  27
ENDBRANCH  25  26
ENDBRANCH  24  25
ENDBRANCH  23  24
ENDBRANCH   1  23
TORSDOF 24
ENDMDL
MODEL 3
REMARK VINA RESULT:      -9.2      6.747     11.206
REMARK SMILES C[C@H](C(=O)OCCOCCOCCOCCOC(=O)c1ccc(-c2c3nc(c(-c4cccc(S(=O)(=O)[O-])c4F)c4ccc([nH]4)c(-c4cccc(S(=O)(=O)[O-])c4F)c4nc(c(-c5cccc(S(=O)(=O)[O-])c5F)c5ccc2[nH]5)C=C4)C=C3)cc1)c1ccc2c(c1)OCCO2
REMARK SMILES IDX 12 1 11 2 10 3 9 4 8 5 7 6 6 7 5 8 3 9 4 10 2 11 1 12 83 13
REMARK SMILES IDX 84 14 88 15 85 16 87 17 86 18 89 19 92 20 90 21 91 22 13 23
REMARK SMILES IDX 14 24 15 25 16 26 17 27 18 28 19 29 20 30 21 31 82 32 22 33
REMARK SMILES IDX 81 34 23 35 24 36 25 37 75 38 26 39 80 40 74 41 76 42 27 43
REMARK SMILES IDX 79 44 73 45 72 46 28 48 60 49 40 50 59 51 41 52 44 53 58 54
REMARK SMILES IDX 77 55 42 56 43 57 57 59 78 60 45 61 29 62 30 63 38 64 31 65
REMARK SMILES IDX 33 66 39 67 32 68 34 69 35 70 36 71 37 72 61 73 62 74 70 75
REMARK SMILES IDX 63 76 65 77 71 78 64 79 66 80 67 81 68 82 69 83 46 84 47 85
REMARK SMILES IDX 55 86 48 87 50 88 56 89 49 90 51 91 52 92 53 93 54 94
REMARK H PARENT 76 47 44 58
REMARK Flexibility Score: inf
ROOT
ATOM      1  C   UNL A   1      41.782  21.009  27.302  1.00  0.00     0.188 C 
ENDROOT
BRANCH   1   2
ATOM      2  O   UNL A   1      41.298  19.949  26.498  1.00  0.00    -0.377 OA
BRANCH   2   3
ATOM      3  C   UNL A   1      39.955  20.007  26.074  1.00  0.00     0.188 C 
BRANCH   3   4
ATOM      4  C   UNL A   1      39.318  21.400  26.070  1.00  0.00     0.188 C 
BRANCH   4   5
ATOM      5  O   UNL A   1      38.252  21.699  25.180  1.00  0.00    -0.376 OA
BRANCH   5   6
ATOM      6  C   UNL A   1      37.482  22.883  25.377  1.00  0.00     0.202 C 
BRANCH   6   7
ATOM      7  C   UNL A   1      36.353  23.254  24.394  1.00  0.00     0.261 C 
BRANCH   7   8
ATOM      8  O   UNL A   1      35.131  22.502  24.546  1.00  0.00    -0.463 OA
BRANCH   8   9
ATOM      9  C   UNL A   1      34.178  22.682  23.605  1.00  0.00     0.313 C 
ATOM     10  O   UNL A   1      34.402  23.176  22.501  1.00  0.00    -0.252 OA
BRANCH   9  11
ATOM     11  C   UNL A   1      32.792  22.143  23.950  1.00  0.00     0.126 C 
ATOM     12  C   UNL A   1      31.779  23.062  23.232  1.00  0.00     0.025 C 
BRANCH  11  13
ATOM     13  C   UNL A   1      32.456  20.653  23.804  1.00  0.00    -0.030 A 
ATOM     14  C   UNL A   1      32.217  20.091  22.536  1.00  0.00     0.009 A 
ATOM     15  C   UNL A   1      32.573  19.770  24.899  1.00  0.00     0.055 A 
ATOM     16  C   UNL A   1      32.289  18.704  22.343  1.00  0.00     0.051 A 
ATOM     17  C   UNL A   1      32.676  18.404  24.708  1.00  0.00     0.161 A 
ATOM     18  C   UNL A   1      32.626  17.889  23.418  1.00  0.00     0.161 A 
ATOM     19  O   UNL A   1      32.995  17.657  25.810  1.00  0.00    -0.486 OA
ATOM     20  O   UNL A   1      33.105  16.622  23.171  1.00  0.00    -0.486 OA
ATOM     21  C   UNL A   1      33.803  16.517  25.486  1.00  0.00     0.271 C 
ATOM     22  C   UNL A   1      34.251  16.477  24.028  1.00  0.00     0.271 C 
ENDBRANCH  11  13
ENDBRANCH   9  11
ENDBRANCH   8   9
ENDBRANCH   7   8
ENDBRANCH   6   7
ENDBRANCH   5   6
ENDBRANCH   4   5
ENDBRANCH   3   4
ENDBRANCH   2   3
ENDBRANCH   1   2
BRANCH   1  23
ATOM     23  C   UNL A   1      42.899  21.878  26.705  1.00  0.00     0.188 C 
BRANCH  23  24
ATOM     24  O   UNL A   1      43.062  21.723  25.300  1.00  0.00    -0.376 OA
BRANCH  24  25
ATOM     25  C   UNL A   1      43.459  22.848  24.527  1.00  0.00     0.202 C 
BRANCH  25  26
ATOM     26  C   UNL A   1      44.841  22.843  23.848  1.00  0.00     0.261 C 
BRANCH  26  27
ATOM     27  O   UNL A   1      45.836  23.742  24.363  1.00  0.00    -0.460 OA
BRANCH  27  28
ATOM     28  C   UNL A   1      46.075  23.766  25.689  1.00  0.00     0.338 C 
ATOM     29  O   UNL A   1      46.413  22.828  26.392  1.00  0.00    -0.246 OA
BRANCH  28  30
ATOM     30  C   UNL A   1      46.065  25.182  26.121  1.00  0.00     0.060 A 
ATOM     31  C   UNL A   1      46.362  25.483  27.457  1.00  0.00     0.016 A 
ATOM     32  C   UNL A   1      45.770  26.205  25.217  1.00  0.00     0.016 A 
ATOM     33  C   UNL A   1      46.324  26.805  27.903  1.00  0.00     0.010 A 
ATOM     34  C   UNL A   1      45.707  27.526  25.671  1.00  0.00     0.010 A 
ATOM     35  C   UNL A   1      45.945  27.827  27.024  1.00  0.00    -0.014 A 
BRANCH  35  36
ATOM     36  C   UNL A   1      45.599  29.165  27.562  1.00  0.00     0.031 A 
ATOM     37  C   UNL A   1      46.668  30.226  27.572  1.00  0.00     0.074 A 
ATOM     38  C   UNL A   1      44.368  29.441  28.028  1.00  0.00     0.049 A 
ATOM     39  N   UNL A   1      46.618  31.450  28.027  1.00  0.00    -0.248 NA
ATOM     40  C   UNL A   1      47.968  29.852  26.990  1.00  0.00     0.031 C 
ATOM     41  C   UNL A   1      43.245  28.508  28.056  1.00  0.00     0.029 A 
ATOM     42  N   UNL A   1      43.869  30.590  28.592  1.00  0.00    -0.354 N 
ATOM     43  C   UNL A   1      47.886  31.980  27.820  1.00  0.00     0.074 A 
ATOM     44  C   UNL A   1      48.687  30.943  27.206  1.00  0.00     0.031 C 
ATOM     45  C   UNL A   1      42.194  29.111  28.639  1.00  0.00     0.029 A 
ATOM     46  C   UNL A   1      42.580  30.460  29.051  1.00  0.00     0.049 A 
ATOM     47  H   UNL A   1      44.385  31.426  28.661  1.00  0.00     0.167 HD
ATOM     48  C   UNL A   1      48.344  33.223  28.104  1.00  0.00     0.034 A 
ATOM     49  C   UNL A   1      41.813  31.322  29.751  1.00  0.00     0.034 A 
ATOM     50  C   UNL A   1      47.545  34.255  28.706  1.00  0.00     0.049 A 
ATOM     51  C   UNL A   1      42.358  32.686  30.093  1.00  0.00     0.074 A 
ATOM     52  C   UNL A   1      47.903  35.560  28.995  1.00  0.00     0.029 A 
ATOM     53  N   UNL A   1      46.236  34.096  29.131  1.00  0.00    -0.354 N 
ATOM     54  N   UNL A   1      43.522  33.211  29.795  1.00  0.00    -0.248 NA
ATOM     55  C   UNL A   1      41.470  33.589  30.842  1.00  0.00     0.031 C 
ATOM     56  C   UNL A   1      46.824  36.177  29.634  1.00  0.00     0.029 A 
ATOM     57  C   UNL A   1      45.776  35.272  29.697  1.00  0.00     0.049 A 
ATOM     58  H   UNL A   1      45.709  33.268  29.043  1.00  0.00     0.167 HD
ATOM     59  C   UNL A   1      43.492  34.514  30.281  1.00  0.00     0.074 A 
ATOM     60  C   UNL A   1      42.186  34.705  30.878  1.00  0.00     0.031 C 
ATOM     61  C   UNL A   1      44.458  35.466  30.244  1.00  0.00     0.034 A 
BRANCH  48  62
ATOM     62  C   UNL A   1      49.777  33.535  27.763  1.00  0.00     0.023 A 
ATOM     63  C   UNL A   1      50.779  33.414  28.748  1.00  0.00     0.012 A 
ATOM     64  C   UNL A   1      50.138  33.902  26.452  1.00  0.00     0.148 A 
ATOM     65  C   UNL A   1      52.111  33.687  28.443  1.00  0.00     0.002 A 
ATOM     66  C   UNL A   1      51.474  34.124  26.143  1.00  0.00     0.091 A 
ATOM     67  F   UNL A   1      49.169  34.034  25.536  1.00  0.00    -0.205 F 
ATOM     68  C   UNL A   1      52.459  34.031  27.139  1.00  0.00     0.022 A 
BRANCH  66  69
ATOM     69  S   UNL A   1      52.035  34.492  24.477  1.00  0.00     0.127 S 
ATOM     70  O   UNL A   1      51.266  35.698  24.167  1.00  0.00    -0.237 OA
ATOM     71  O   UNL A   1      53.466  34.718  24.679  1.00  0.00    -0.237 OA
ATOM     72  O   UNL A   1      51.709  33.323  23.674  1.00  0.00    -0.744 OA
ENDBRANCH  66  69
ENDBRANCH  48  62
BRANCH  49  73
ATOM     73  C   UNL A   1      40.436  30.930  30.166  1.00  0.00     0.023 A 
ATOM     74  C   UNL A   1      39.338  31.266  29.352  1.00  0.00     0.012 A 
ATOM     75  C   UNL A   1      40.210  30.227  31.367  1.00  0.00     0.148 A 
ATOM     76  C   UNL A   1      38.037  30.939  29.740  1.00  0.00     0.002 A 
ATOM     77  C   UNL A   1      38.918  29.854  31.719  1.00  0.00     0.091 A 
ATOM     78  F   UNL A   1      41.266  29.932  32.137  1.00  0.00    -0.205 F 
ATOM     79  C   UNL A   1      37.828  30.226  30.917  1.00  0.00     0.022 A 
BRANCH  77  80
ATOM     80  S   UNL A   1      38.566  28.830  33.151  1.00  0.00     0.127 S 
ATOM     81  O   UNL A   1      37.113  28.943  33.250  1.00  0.00    -0.237 OA
ATOM     82  O   UNL A   1      39.055  27.523  32.711  1.00  0.00    -0.237 OA
ATOM     83  O   UNL A   1      39.319  29.415  34.252  1.00  0.00    -0.744 OA
ENDBRANCH  77  80
ENDBRANCH  49  73
BRANCH  61  84
ATOM     84  C   UNL A   1      44.134  36.823  30.816  1.00  0.00     0.023 A 
ATOM     85  C   UNL A   1      44.297  37.071  32.193  1.00  0.00     0.012 A 
ATOM     86  C   UNL A   1      43.741  37.879  29.968  1.00  0.00     0.148 A 
ATOM     87  C   UNL A   1      44.038  38.336  32.722  1.00  0.00     0.002 A 
ATOM     88  C   UNL A   1      43.538  39.149  30.492  1.00  0.00     0.091 A 
ATOM     89  F   UNL A   1      43.577  37.621  28.661  1.00  0.00    -0.205 F 
ATOM     90  C   UNL A   1      43.671  39.376  31.871  1.00  0.00     0.022 A 
BRANCH  88  91
ATOM     91  S   UNL A   1      43.162  40.571  29.461  1.00  0.00     0.127 S 
ATOM     92  O   UNL A   1      41.770  40.314  29.095  1.00  0.00    -0.237 OA
ATOM     93  O   UNL A   1      43.353  41.685  30.389  1.00  0.00    -0.237 OA
ATOM     94  O   UNL A   1      44.113  40.532  28.357  1.00  0.00    -0.744 OA
ENDBRANCH  88  91
ENDBRANCH  61  84
ENDBRANCH  35  36
ENDBRANCH  28  30
ENDBRANCH  27  28
ENDBRANCH  26  27
ENDBRANCH  25  26
ENDBRANCH  24  25
ENDBRANCH  23  24
ENDBRANCH   1  23
TORSDOF 24
ENDMDL
