MODEL 1
REMARK VINA RESULT:     -10.0      0.000      0.000
REMARK SMILES Cc1ccccc1SCC(=O)N[C@H]1C=C[C@H](C(=O)OCCOCCOCCOCCOC(=O)c2ccc(-c3c4nc(c(-c5cccc(S(=O)(=O)[O-])c5F)c5ccc([nH]5)c(-c5cccc(S(=O)(=O)[O-])c5F)c5nc(c(-c6cccc(S(=O)(=O)[O-])c6F)c6ccc3[nH]6)C=C5)C=C4)cc2)C1
REMARK SMILES IDX 24 1 23 2 22 3 21 4 20 5 19 6 17 7 18 8 16 9 13 10 14 11
REMARK SMILES IDX 97 12 15 13 12 14 10 15 11 16 9 18 8 19 7 20 1 21 2 22 3 23
REMARK SMILES IDX 4 24 6 25 5 26 25 27 26 28 27 29 28 30 29 31 30 32 31 33
REMARK SMILES IDX 32 34 33 35 34 36 35 37 96 38 36 39 95 40 37 41 38 42 39 43
REMARK SMILES IDX 89 44 40 45 94 46 88 47 90 48 41 49 93 50 87 51 86 52 42 54
REMARK SMILES IDX 74 55 54 56 73 57 55 58 58 59 72 60 91 61 56 62 57 63 71 65
REMARK SMILES IDX 92 66 59 67 43 68 44 69 52 70 45 71 47 72 53 73 46 74 48 75
REMARK SMILES IDX 49 76 50 77 51 78 75 79 76 80 84 81 77 82 79 83 85 84 78 85
REMARK SMILES IDX 80 86 81 87 82 88 83 89 60 90 61 91 69 92 62 93 64 94 70 95
REMARK SMILES IDX 63 96 65 97 66 98 67 99 68 100
REMARK H PARENT 12 17 90 53 58 64
REMARK Flexibility Score: inf
ROOT
ATOM      1  C   UNL A   1      33.858  32.455  27.731  1.00  0.00     0.188 C 
ENDROOT
BRANCH   1   2
ATOM      2  C   UNL A   1      34.871  31.395  28.211  1.00  0.00     0.188 C 
BRANCH   2   3
ATOM      3  O   UNL A   1      34.735  30.169  27.516  1.00  0.00    -0.376 OA
BRANCH   3   4
ATOM      4  C   UNL A   1      33.568  30.059  26.718  1.00  0.00     0.202 C 
BRANCH   4   5
ATOM      5  C   UNL A   1      32.941  28.704  27.000  1.00  0.00     0.261 C 
BRANCH   5   6
ATOM      6  O   UNL A   1      31.631  28.628  26.436  1.00  0.00    -0.463 OA
BRANCH   6   7
ATOM      7  C   UNL A   1      31.454  27.553  25.686  1.00  0.00     0.312 C 
ATOM      8  O   UNL A   1      31.981  26.455  25.894  1.00  0.00    -0.252 OA
BRANCH   7   9
ATOM      9  C   UNL A   1      30.376  27.833  24.657  1.00  0.00     0.124 C 
ATOM     10  C   UNL A   1      31.784  27.214  22.858  1.00  0.00     0.106 C 
ATOM     11  C   UNL A   1      31.610  28.714  22.897  1.00  0.00    -0.006 C 
ATOM     12  C   UNL A   1      30.486  26.800  23.540  1.00  0.00     0.048 C 
ATOM     13  C   UNL A   1      30.798  29.062  23.913  1.00  0.00    -0.014 C 
BRANCH  10  14
ATOM     14  N   UNL A   1      31.962  26.688  21.543  1.00  0.00    -0.349 N 
ATOM     15  C   UNL A   1      32.816  25.685  21.177  1.00  0.00     0.230 C 
ATOM     16  O   UNL A   1      32.973  25.519  19.959  1.00  0.00    -0.274 OA
ATOM     17  H   UNL A   1      31.413  27.086  20.829  1.00  0.00     0.164 HD
BRANCH  15  18
ATOM     18  C   UNL A   1      33.403  24.676  22.157  1.00  0.00     0.174 C 
BRANCH  18  19
ATOM     19  S   UNL A   1      32.307  23.567  23.065  1.00  0.00    -0.116 SA
BRANCH  19  20
ATOM     20  C   UNL A   1      32.788  23.207  24.731  1.00  0.00     0.011 A 
ATOM     21  C   UNL A   1      35.339  23.351  24.605  1.00  0.00     0.045 C 
ATOM     22  C   UNL A   1      34.048  23.190  25.337  1.00  0.00    -0.038 A 
ATOM     23  C   UNL A   1      34.137  23.043  26.739  1.00  0.00     0.004 A 
ATOM     24  C   UNL A   1      33.012  22.811  27.523  1.00  0.00     0.000 A 
ATOM     25  C   UNL A   1      31.664  22.925  25.543  1.00  0.00     0.015 A 
ATOM     26  C   UNL A   1      31.776  22.714  26.914  1.00  0.00     0.001 A 
ENDBRANCH  19  20
ENDBRANCH  18  19
ENDBRANCH  15  18
ENDBRANCH  10  14
ENDBRANCH   7   9
ENDBRANCH   6   7
ENDBRANCH   5   6
ENDBRANCH   4   5
ENDBRANCH   3   4
ENDBRANCH   2   3
ENDBRANCH   1   2
BRANCH   1  27
ATOM     27  O   UNL A   1      34.055  33.837  28.001  1.00  0.00    -0.377 OA
BRANCH  27  28
ATOM     28  C   UNL A   1      33.158  34.480  28.897  1.00  0.00     0.188 C 
BRANCH  28  29
ATOM     29  C   UNL A   1      33.328  35.985  29.043  1.00  0.00     0.188 C 
BRANCH  29  30
ATOM     30  O   UNL A   1      32.658  36.370  30.237  1.00  0.00    -0.376 OA
BRANCH  30  31
ATOM     31  C   UNL A   1      33.370  37.159  31.170  1.00  0.00     0.202 C 
BRANCH  31  32
ATOM     32  C   UNL A   1      33.729  36.400  32.447  1.00  0.00     0.261 C 
BRANCH  32  33
ATOM     33  O   UNL A   1      34.713  35.399  32.114  1.00  0.00    -0.460 OA
BRANCH  33  34
ATOM     34  C   UNL A   1      34.328  34.110  32.338  1.00  0.00     0.338 C 
ATOM     35  O   UNL A   1      33.313  33.798  32.938  1.00  0.00    -0.246 OA
BRANCH  34  36
ATOM     36  C   UNL A   1      35.420  33.173  31.933  1.00  0.00     0.060 A 
ATOM     37  C   UNL A   1      35.374  31.820  32.297  1.00  0.00     0.016 A 
ATOM     38  C   UNL A   1      36.601  33.682  31.411  1.00  0.00     0.016 A 
ATOM     39  C   UNL A   1      36.549  31.044  32.332  1.00  0.00     0.010 A 
ATOM     40  C   UNL A   1      37.758  32.927  31.503  1.00  0.00     0.010 A 
ATOM     41  C   UNL A   1      37.773  31.626  32.048  1.00  0.00    -0.014 A 
BRANCH  41  42
ATOM     42  C   UNL A   1      39.111  31.026  32.335  1.00  0.00     0.031 A 
ATOM     43  C   UNL A   1      39.418  29.725  31.600  1.00  0.00     0.074 A 
ATOM     44  C   UNL A   1      40.078  31.878  32.789  1.00  0.00     0.049 A 
ATOM     45  N   UNL A   1      40.540  29.082  31.517  1.00  0.00    -0.248 NA
ATOM     46  C   UNL A   1      38.356  29.002  30.889  1.00  0.00     0.031 C 
ATOM     47  C   UNL A   1      41.311  32.245  32.110  1.00  0.00     0.029 A 
ATOM     48  N   UNL A   1      40.108  32.840  33.774  1.00  0.00    -0.354 N 
ATOM     49  C   UNL A   1      40.441  28.149  30.467  1.00  0.00     0.074 A 
ATOM     50  C   UNL A   1      39.029  28.070  30.210  1.00  0.00     0.031 C 
ATOM     51  C   UNL A   1      42.093  33.082  32.785  1.00  0.00     0.029 A 
ATOM     52  C   UNL A   1      41.415  33.298  34.004  1.00  0.00     0.049 A 
ATOM     53  H   UNL A   1      39.313  33.166  34.255  1.00  0.00     0.167 HD
ATOM     54  C   UNL A   1      41.560  27.668  29.819  1.00  0.00     0.034 A 
ATOM     55  C   UNL A   1      42.094  33.232  35.170  1.00  0.00     0.034 A 
ATOM     56  C   UNL A   1      42.822  28.132  30.491  1.00  0.00     0.049 A 
ATOM     57  C   UNL A   1      43.067  32.039  35.164  1.00  0.00     0.074 A 
ATOM     58  C   UNL A   1      43.998  28.734  30.055  1.00  0.00     0.029 A 
ATOM     59  N   UNL A   1      42.903  28.190  31.888  1.00  0.00    -0.354 N 
ATOM     60  N   UNL A   1      43.221  31.203  34.148  1.00  0.00    -0.248 NA
ATOM     61  C   UNL A   1      43.989  31.710  36.249  1.00  0.00     0.031 C 
ATOM     62  C   UNL A   1      44.641  29.346  31.171  1.00  0.00     0.029 A 
ATOM     63  C   UNL A   1      43.945  29.000  32.317  1.00  0.00     0.049 A 
ATOM     64  H   UNL A   1      42.293  27.711  32.494  1.00  0.00     0.167 HD
ATOM     65  C   UNL A   1      44.087  30.191  34.471  1.00  0.00     0.074 A 
ATOM     66  C   UNL A   1      44.598  30.606  35.772  1.00  0.00     0.031 C 
ATOM     67  C   UNL A   1      44.307  29.053  33.729  1.00  0.00     0.034 A 
BRANCH  54  68
ATOM     68  C   UNL A   1      41.601  26.957  28.404  1.00  0.00     0.023 A 
ATOM     69  C   UNL A   1      41.178  27.723  27.286  1.00  0.00     0.012 A 
ATOM     70  C   UNL A   1      41.958  25.617  28.063  1.00  0.00     0.148 A 
ATOM     71  C   UNL A   1      41.033  27.216  25.981  1.00  0.00     0.002 A 
ATOM     72  C   UNL A   1      41.898  25.126  26.735  1.00  0.00     0.091 A 
ATOM     73  F   UNL A   1      42.351  24.763  29.007  1.00  0.00    -0.205 F 
ATOM     74  C   UNL A   1      41.399  25.915  25.700  1.00  0.00     0.022 A 
BRANCH  72  75
ATOM     75  S   UNL A   1      42.471  23.475  26.240  1.00  0.00     0.127 S 
ATOM     76  O   UNL A   1      43.148  23.731  24.966  1.00  0.00    -0.237 OA
ATOM     77  O   UNL A   1      43.375  23.119  27.333  1.00  0.00    -0.237 OA
ATOM     78  O   UNL A   1      41.275  22.650  26.125  1.00  0.00    -0.744 OA
ENDBRANCH  72  75
ENDBRANCH  54  68
BRANCH  55  79
ATOM     79  C   UNL A   1      41.352  34.090  36.154  1.00  0.00     0.023 A 
ATOM     80  C   UNL A   1      40.822  35.268  35.529  1.00  0.00     0.012 A 
ATOM     81  C   UNL A   1      40.526  33.421  37.075  1.00  0.00     0.148 A 
ATOM     82  C   UNL A   1      39.445  35.541  35.552  1.00  0.00     0.002 A 
ATOM     83  C   UNL A   1      39.149  33.692  37.081  1.00  0.00     0.091 A 
ATOM     84  F   UNL A   1      41.043  32.381  37.740  1.00  0.00    -0.205 F 
ATOM     85  C   UNL A   1      38.602  34.712  36.279  1.00  0.00     0.022 A 
BRANCH  83  86
ATOM     86  S   UNL A   1      37.998  32.509  37.807  1.00  0.00     0.127 S 
ATOM     87  O   UNL A   1      36.708  33.131  37.537  1.00  0.00    -0.237 OA
ATOM     88  O   UNL A   1      38.273  31.293  37.040  1.00  0.00    -0.237 OA
ATOM     89  O   UNL A   1      38.401  32.423  39.203  1.00  0.00    -0.744 OA
ENDBRANCH  83  86
ENDBRANCH  55  79
BRANCH  67  90
ATOM     90  C   UNL A   1      44.893  27.767  34.306  1.00  0.00     0.023 A 
ATOM     91  C   UNL A   1      46.264  27.484  34.170  1.00  0.00     0.012 A 
ATOM     92  C   UNL A   1      44.156  26.941  35.202  1.00  0.00     0.148 A 
ATOM     93  C   UNL A   1      46.862  26.402  34.818  1.00  0.00     0.002 A 
ATOM     94  C   UNL A   1      44.787  25.952  35.949  1.00  0.00     0.091 A 
ATOM     95  F   UNL A   1      42.832  27.096  35.336  1.00  0.00    -0.205 F 
ATOM     96  C   UNL A   1      46.132  25.652  35.728  1.00  0.00     0.022 A 
BRANCH  94  97
ATOM     97  S   UNL A   1      43.972  25.161  37.347  1.00  0.00     0.127 S 
ATOM     98  O   UNL A   1      43.491  26.313  38.107  1.00  0.00    -0.237 OA
ATOM     99  O   UNL A   1      42.920  24.382  36.692  1.00  0.00    -0.237 OA
ATOM    100  O   UNL A   1      44.998  24.352  37.992  1.00  0.00    -0.744 OA
ENDBRANCH  94  97
ENDBRANCH  67  90
ENDBRANCH  41  42
ENDBRANCH  34  36
ENDBRANCH  33  34
ENDBRANCH  32  33
ENDBRANCH  31  32
ENDBRANCH  30  31
ENDBRANCH  29  30
ENDBRANCH  28  29
ENDBRANCH  27  28
ENDBRANCH   1  27
TORSDOF 27
ENDMDL
MODEL 2
REMARK VINA RESULT:      -9.8      2.011      2.804
REMARK SMILES Cc1ccccc1SCC(=O)N[C@H]1C=C[C@H](C(=O)OCCOCCOCCOCCOC(=O)c2ccc(-c3c4nc(c(-c5cccc(S(=O)(=O)[O-])c5F)c5ccc([nH]5)c(-c5cccc(S(=O)(=O)[O-])c5F)c5nc(c(-c6cccc(S(=O)(=O)[O-])c6F)c6ccc3[nH]6)C=C5)C=C4)cc2)C1
REMARK SMILES IDX 24 1 23 2 22 3 21 4 20 5 19 6 17 7 18 8 16 9 13 10 14 11
REMARK SMILES IDX 97 12 15 13 12 14 10 15 11 16 9 18 8 19 7 20 1 21 2 22 3 23
REMARK SMILES IDX 4 24 6 25 5 26 25 27 26 28 27 29 28 30 29 31 30 32 31 33
REMARK SMILES IDX 32 34 33 35 34 36 35 37 96 38 36 39 95 40 37 41 38 42 39 43
REMARK SMILES IDX 89 44 40 45 94 46 88 47 90 48 41 49 93 50 87 51 86 52 42 54
REMARK SMILES IDX 74 55 54 56 73 57 55 58 58 59 72 60 91 61 56 62 57 63 71 65
REMARK SMILES IDX 92 66 59 67 43 68 44 69 52 70 45 71 47 72 53 73 46 74 48 75
REMARK SMILES IDX 49 76 50 77 51 78 75 79 76 80 84 81 77 82 79 83 85 84 78 85
REMARK SMILES IDX 80 86 81 87 82 88 83 89 60 90 61 91 69 92 62 93 64 94 70 95
REMARK SMILES IDX 63 96 65 97 66 98 67 99 68 100
REMARK H PARENT 12 17 90 53 58 64
REMARK Flexibility Score: inf
ROOT
ATOM      1  C   UNL A   1      34.161  30.771  27.743  1.00  0.00     0.188 C 
ENDROOT
BRANCH   1   2
ATOM      2  C   UNL A   1      34.788  29.626  26.919  1.00  0.00     0.188 C 
BRANCH   2   3
ATOM      3  O   UNL A   1      33.811  28.843  26.258  1.00  0.00    -0.376 OA
BRANCH   3   4
ATOM      4  C   UNL A   1      33.807  28.959  24.844  1.00  0.00     0.202 C 
BRANCH   4   5
ATOM      5  C   UNL A   1      34.029  27.572  24.266  1.00  0.00     0.261 C 
BRANCH   5   6
ATOM      6  O   UNL A   1      32.837  26.790  24.364  1.00  0.00    -0.463 OA
BRANCH   6   7
ATOM      7  C   UNL A   1      31.870  27.224  23.572  1.00  0.00     0.312 C 
ATOM      8  O   UNL A   1      31.851  27.089  22.344  1.00  0.00    -0.252 OA
BRANCH   7   9
ATOM      9  C   UNL A   1      30.723  27.739  24.420  1.00  0.00     0.124 C 
ATOM     10  C   UNL A   1      30.286  25.594  25.320  1.00  0.00     0.106 C 
ATOM     11  C   UNL A   1      29.221  25.970  24.318  1.00  0.00    -0.006 C 
ATOM     12  C   UNL A   1      30.722  26.989  25.748  1.00  0.00     0.048 C 
ATOM     13  C   UNL A   1      29.464  27.196  23.818  1.00  0.00    -0.014 C 
BRANCH  10  14
ATOM     14  N   UNL A   1      29.814  24.763  26.380  1.00  0.00    -0.349 N 
ATOM     15  C   UNL A   1      30.401  23.618  26.840  1.00  0.00     0.230 C 
ATOM     16  O   UNL A   1      29.727  22.934  27.623  1.00  0.00    -0.274 OA
ATOM     17  H   UNL A   1      28.982  25.045  26.825  1.00  0.00     0.164 HD
BRANCH  15  18
ATOM     18  C   UNL A   1      31.864  23.264  26.599  1.00  0.00     0.174 C 
BRANCH  18  19
ATOM     19  S   UNL A   1      32.289  21.956  25.430  1.00  0.00    -0.116 SA
BRANCH  19  20
ATOM     20  C   UNL A   1      33.906  22.062  24.715  1.00  0.00     0.011 A 
ATOM     21  C   UNL A   1      33.612  23.913  22.974  1.00  0.00     0.045 C 
ATOM     22  C   UNL A   1      34.424  22.928  23.746  1.00  0.00    -0.038 A 
ATOM     23  C   UNL A   1      35.812  22.913  23.481  1.00  0.00     0.004 A 
ATOM     24  C   UNL A   1      36.662  21.990  24.081  1.00  0.00     0.000 A 
ATOM     25  C   UNL A   1      34.783  21.105  25.278  1.00  0.00     0.015 A 
ATOM     26  C   UNL A   1      36.135  21.059  24.953  1.00  0.00     0.001 A 
ENDBRANCH  19  20
ENDBRANCH  18  19
ENDBRANCH  15  18
ENDBRANCH  10  14
ENDBRANCH   7   9
ENDBRANCH   6   7
ENDBRANCH   5   6
ENDBRANCH   4   5
ENDBRANCH   3   4
ENDBRANCH   2   3
ENDBRANCH   1   2
BRANCH   1  27
ATOM     27  O   UNL A   1      34.915  31.922  28.096  1.00  0.00    -0.377 OA
BRANCH  27  28
ATOM     28  C   UNL A   1      34.261  32.955  28.824  1.00  0.00     0.188 C 
BRANCH  28  29
ATOM     29  C   UNL A   1      33.629  34.059  27.989  1.00  0.00     0.188 C 
BRANCH  29  30
ATOM     30  O   UNL A   1      33.919  35.292  28.636  1.00  0.00    -0.376 OA
BRANCH  30  31
ATOM     31  C   UNL A   1      32.885  35.908  29.379  1.00  0.00     0.202 C 
BRANCH  31  32
ATOM     32  C   UNL A   1      33.042  35.729  30.889  1.00  0.00     0.261 C 
BRANCH  32  33
ATOM     33  O   UNL A   1      34.447  35.806  31.207  1.00  0.00    -0.460 OA
BRANCH  33  34
ATOM     34  C   UNL A   1      34.772  35.464  32.486  1.00  0.00     0.338 C 
ATOM     35  O   UNL A   1      34.665  36.216  33.439  1.00  0.00    -0.246 OA
BRANCH  34  36
ATOM     36  C   UNL A   1      35.461  34.137  32.501  1.00  0.00     0.060 A 
ATOM     37  C   UNL A   1      35.328  33.273  33.596  1.00  0.00     0.016 A 
ATOM     38  C   UNL A   1      36.431  33.858  31.548  1.00  0.00     0.016 A 
ATOM     39  C   UNL A   1      36.283  32.267  33.840  1.00  0.00     0.010 A 
ATOM     40  C   UNL A   1      37.395  32.904  31.827  1.00  0.00     0.010 A 
ATOM     41  C   UNL A   1      37.392  32.151  33.019  1.00  0.00    -0.014 A 
BRANCH  41  42
ATOM     42  C   UNL A   1      38.619  31.354  33.322  1.00  0.00     0.031 A 
ATOM     43  C   UNL A   1      38.804  30.091  32.487  1.00  0.00     0.074 A 
ATOM     44  C   UNL A   1      39.656  32.026  33.906  1.00  0.00     0.049 A 
ATOM     45  N   UNL A   1      39.837  29.313  32.405  1.00  0.00    -0.248 NA
ATOM     46  C   UNL A   1      37.708  29.581  31.654  1.00  0.00     0.031 C 
ATOM     47  C   UNL A   1      40.969  32.281  33.333  1.00  0.00     0.029 A 
ATOM     48  N   UNL A   1      39.745  32.888  34.977  1.00  0.00    -0.354 N 
ATOM     49  C   UNL A   1      39.690  28.495  31.269  1.00  0.00     0.074 A 
ATOM     50  C   UNL A   1      38.299  28.628  30.929  1.00  0.00     0.031 C 
ATOM     51  C   UNL A   1      41.805  32.945  34.124  1.00  0.00     0.029 A 
ATOM     52  C   UNL A   1      41.081  33.145  35.319  1.00  0.00     0.049 A 
ATOM     53  H   UNL A   1      38.968  33.276  35.441  1.00  0.00     0.167 HD
ATOM     54  C   UNL A   1      40.778  27.925  30.640  1.00  0.00     0.034 A 
ATOM     55  C   UNL A   1      41.666  32.889  36.510  1.00  0.00     0.034 A 
ATOM     56  C   UNL A   1      42.041  28.157  31.420  1.00  0.00     0.049 A 
ATOM     57  C   UNL A   1      42.476  31.581  36.445  1.00  0.00     0.074 A 
ATOM     58  C   UNL A   1      43.311  28.630  31.108  1.00  0.00     0.029 A 
ATOM     59  N   UNL A   1      42.036  28.083  32.819  1.00  0.00    -0.354 N 
ATOM     60  N   UNL A   1      42.588  30.822  35.365  1.00  0.00    -0.248 NA
ATOM     61  C   UNL A   1      43.274  31.040  37.543  1.00  0.00     0.031 C 
ATOM     62  C   UNL A   1      43.952  29.053  32.310  1.00  0.00     0.029 A 
ATOM     63  C   UNL A   1      43.143  28.707  33.378  1.00  0.00     0.049 A 
ATOM     64  H   UNL A   1      41.331  27.640  33.343  1.00  0.00     0.167 HD
ATOM     65  C   UNL A   1      43.294  29.679  35.639  1.00  0.00     0.074 A 
ATOM     66  C   UNL A   1      43.766  29.909  36.999  1.00  0.00     0.031 C 
ATOM     67  C   UNL A   1      43.414  28.590  34.806  1.00  0.00     0.034 A 
BRANCH  54  68
ATOM     68  C   UNL A   1      40.820  27.339  29.170  1.00  0.00     0.023 A 
ATOM     69  C   UNL A   1      39.858  26.348  28.843  1.00  0.00     0.012 A 
ATOM     70  C   UNL A   1      41.725  27.618  28.099  1.00  0.00     0.148 A 
ATOM     71  C   UNL A   1      39.829  25.634  27.630  1.00  0.00     0.002 A 
ATOM     72  C   UNL A   1      41.644  26.965  26.844  1.00  0.00     0.091 A 
ATOM     73  F   UNL A   1      42.703  28.507  28.257  1.00  0.00    -0.205 F 
ATOM     74  C   UNL A   1      40.720  25.945  26.623  1.00  0.00     0.022 A 
BRANCH  72  75
ATOM     75  S   UNL A   1      42.685  27.386  25.416  1.00  0.00     0.127 S 
ATOM     76  O   UNL A   1      43.989  27.649  26.027  1.00  0.00    -0.237 OA
ATOM     77  O   UNL A   1      42.637  26.158  24.623  1.00  0.00    -0.237 OA
ATOM     78  O   UNL A   1      42.069  28.552  24.797  1.00  0.00    -0.744 OA
ENDBRANCH  72  75
ENDBRANCH  54  68
BRANCH  55  79
ATOM     79  C   UNL A   1      40.978  33.752  37.527  1.00  0.00     0.023 A 
ATOM     80  C   UNL A   1      40.638  35.036  36.984  1.00  0.00     0.012 A 
ATOM     81  C   UNL A   1      40.019  33.122  38.341  1.00  0.00     0.148 A 
ATOM     82  C   UNL A   1      39.308  35.482  36.962  1.00  0.00     0.002 A 
ATOM     83  C   UNL A   1      38.689  33.567  38.300  1.00  0.00     0.091 A 
ATOM     84  F   UNL A   1      40.361  31.972  38.936  1.00  0.00    -0.205 F 
ATOM     85  C   UNL A   1      38.324  34.712  37.567  1.00  0.00     0.022 A 
BRANCH  83  86
ATOM     86  S   UNL A   1      37.357  32.488  38.858  1.00  0.00     0.127 S 
ATOM     87  O   UNL A   1      37.747  31.202  38.295  1.00  0.00    -0.237 OA
ATOM     88  O   UNL A   1      37.463  32.585  40.314  1.00  0.00    -0.237 OA
ATOM     89  O   UNL A   1      36.149  33.096  38.318  1.00  0.00    -0.744 OA
ENDBRANCH  83  86
ENDBRANCH  55  79
BRANCH  67  90
ATOM     90  C   UNL A   1      43.790  27.192  35.292  1.00  0.00     0.023 A 
ATOM     91  C   UNL A   1      42.820  26.351  35.865  1.00  0.00     0.012 A 
ATOM     92  C   UNL A   1      45.042  26.596  34.967  1.00  0.00     0.148 A 
ATOM     93  C   UNL A   1      43.090  25.017  36.174  1.00  0.00     0.002 A 
ATOM     94  C   UNL A   1      45.256  25.233  35.151  1.00  0.00     0.091 A 
ATOM     95  F   UNL A   1      46.046  27.340  34.486  1.00  0.00    -0.205 F 
ATOM     96  C   UNL A   1      44.296  24.449  35.793  1.00  0.00     0.022 A 
BRANCH  94  97
ATOM     97  S   UNL A   1      46.664  24.390  34.408  1.00  0.00     0.127 S 
ATOM     98  O   UNL A   1      47.777  24.899  35.208  1.00  0.00    -0.237 OA
ATOM     99  O   UNL A   1      46.341  22.982  34.643  1.00  0.00    -0.237 OA
ATOM    100  O   UNL A   1      46.657  24.777  33.004  1.00  0.00    -0.744 OA
ENDBRANCH  94  97
ENDBRANCH  67  90
ENDBRANCH  41  42
ENDBRANCH  34  36
ENDBRANCH  33  34
ENDBRANCH  32  33
ENDBRANCH  31  32
ENDBRANCH  30  31
ENDBRANCH  29  30
ENDBRANCH  28  29
ENDBRANCH  27  28
ENDBRANCH   1  27
TORSDOF 27
ENDMDL
MODEL 3
REMARK VINA RESULT:      -8.2      4.762      9.601
REMARK SMILES Cc1ccccc1SCC(=O)N[C@H]1C=C[C@H](C(=O)OCCOCCOCCOCCOC(=O)c2ccc(-c3c4nc(c(-c5cccc(S(=O)(=O)[O-])c5F)c5ccc([nH]5)c(-c5cccc(S(=O)(=O)[O-])c5F)c5nc(c(-c6cccc(S(=O)(=O)[O-])c6F)c6ccc3[nH]6)C=C5)C=C4)cc2)C1
REMARK SMILES IDX 24 1 23 2 22 3 21 4 20 5 19 6 17 7 18 8 16 9 13 10 14 11
REMARK SMILES IDX 97 12 15 13 12 14 10 15 11 16 9 18 8 19 7 20 1 21 2 22 3 23
REMARK SMILES IDX 4 24 6 25 5 26 25 27 26 28 27 29 28 30 29 31 30 32 31 33
REMARK SMILES IDX 32 34 33 35 34 36 35 37 96 38 36 39 95 40 37 41 38 42 39 43
REMARK SMILES IDX 89 44 40 45 94 46 88 47 90 48 41 49 93 50 87 51 86 52 42 54
REMARK SMILES IDX 74 55 54 56 73 57 55 58 58 59 72 60 91 61 56 62 57 63 71 65
REMARK SMILES IDX 92 66 59 67 43 68 44 69 52 70 45 71 47 72 53 73 46 74 48 75
REMARK SMILES IDX 49 76 50 77 51 78 75 79 76 80 84 81 77 82 79 83 85 84 78 85
REMARK SMILES IDX 80 86 81 87 82 88 83 89 60 90 61 91 69 92 62 93 64 94 70 95
REMARK SMILES IDX 63 96 65 97 66 98 67 99 68 100
REMARK H PARENT 12 17 90 53 58 64
REMARK Flexibility Score: inf
ROOT
ATOM      1  C   UNL A   1      30.722  26.353  25.546  1.00  0.00     0.188 C 
ENDROOT
BRANCH   1   2
ATOM      2  C   UNL A   1      31.616  25.208  25.027  1.00  0.00     0.188 C 
BRANCH   2   3
ATOM      3  O   UNL A   1      32.089  25.449  23.715  1.00  0.00    -0.376 OA
BRANCH   3   4
ATOM      4  C   UNL A   1      31.917  24.372  22.808  1.00  0.00     0.202 C 
BRANCH   4   5
ATOM      5  C   UNL A   1      32.918  23.290  23.180  1.00  0.00     0.261 C 
BRANCH   5   6
ATOM      6  O   UNL A   1      34.242  23.824  23.219  1.00  0.00    -0.463 OA
BRANCH   6   7
ATOM      7  C   UNL A   1      35.162  22.902  23.454  1.00  0.00     0.312 C 
ATOM      8  O   UNL A   1      36.194  22.753  22.790  1.00  0.00    -0.252 OA
BRANCH   7   9
ATOM      9  C   UNL A   1      34.841  22.194  24.756  1.00  0.00     0.124 C 
ATOM     10  C   UNL A   1      37.124  22.039  25.358  1.00  0.00     0.106 C 
ATOM     11  C   UNL A   1      36.601  20.689  24.929  1.00  0.00    -0.006 C 
ATOM     12  C   UNL A   1      35.819  22.670  25.825  1.00  0.00     0.048 C 
ATOM     13  C   UNL A   1      35.298  20.777  24.601  1.00  0.00    -0.014 C 
BRANCH  10  14
ATOM     14  N   UNL A   1      38.146  21.973  26.352  1.00  0.00    -0.349 N 
ATOM     15  C   UNL A   1      39.089  22.928  26.615  1.00  0.00     0.230 C 
ATOM     16  O   UNL A   1      40.010  22.592  27.372  1.00  0.00    -0.274 OA
ATOM     17  H   UNL A   1      38.173  21.158  26.904  1.00  0.00     0.164 HD
BRANCH  15  18
ATOM     18  C   UNL A   1      38.951  24.387  26.196  1.00  0.00     0.174 C 
BRANCH  18  19
ATOM     19  S   UNL A   1      40.337  25.520  26.427  1.00  0.00    -0.116 SA
BRANCH  19  20
ATOM     20  C   UNL A   1      40.070  26.831  27.588  1.00  0.00     0.011 A 
ATOM     21  C   UNL A   1      40.976  28.865  26.330  1.00  0.00     0.045 C 
ATOM     22  C   UNL A   1      40.292  28.208  27.482  1.00  0.00    -0.038 A 
ATOM     23  C   UNL A   1      39.821  29.062  28.503  1.00  0.00     0.004 A 
ATOM     24  C   UNL A   1      39.234  28.564  29.662  1.00  0.00     0.000 A 
ATOM     25  C   UNL A   1      39.512  26.346  28.794  1.00  0.00     0.015 A 
ATOM     26  C   UNL A   1      39.115  27.198  29.821  1.00  0.00     0.001 A 
ENDBRANCH  19  20
ENDBRANCH  18  19
ENDBRANCH  15  18
ENDBRANCH  10  14
ENDBRANCH   7   9
ENDBRANCH   6   7
ENDBRANCH   5   6
ENDBRANCH   4   5
ENDBRANCH   3   4
ENDBRANCH   2   3
ENDBRANCH   1   2
BRANCH   1  27
ATOM     27  O   UNL A   1      31.286  27.535  26.099  1.00  0.00    -0.377 OA
BRANCH  27  28
ATOM     28  C   UNL A   1      32.690  27.569  26.317  1.00  0.00     0.188 C 
BRANCH  28  29
ATOM     29  C   UNL A   1      33.169  28.509  27.415  1.00  0.00     0.188 C 
BRANCH  29  30
ATOM     30  O   UNL A   1      34.562  28.718  27.210  1.00  0.00    -0.376 OA
BRANCH  30  31
ATOM     31  C   UNL A   1      35.056  30.038  27.324  1.00  0.00     0.202 C 
BRANCH  31  32
ATOM     32  C   UNL A   1      34.191  30.927  28.216  1.00  0.00     0.261 C 
BRANCH  32  33
ATOM     33  O   UNL A   1      35.060  31.633  29.126  1.00  0.00    -0.460 OA
BRANCH  33  34
ATOM     34  C   UNL A   1      35.514  32.838  28.679  1.00  0.00     0.338 C 
ATOM     35  O   UNL A   1      34.858  33.597  27.986  1.00  0.00    -0.246 OA
BRANCH  34  36
ATOM     36  C   UNL A   1      36.971  32.980  28.983  1.00  0.00     0.060 A 
ATOM     37  C   UNL A   1      37.668  31.959  29.643  1.00  0.00     0.016 A 
ATOM     38  C   UNL A   1      37.583  34.218  28.840  1.00  0.00     0.016 A 
ATOM     39  C   UNL A   1      38.869  32.232  30.326  1.00  0.00     0.010 A 
ATOM     40  C   UNL A   1      38.733  34.489  29.562  1.00  0.00     0.010 A 
ATOM     41  C   UNL A   1      39.350  33.529  30.390  1.00  0.00    -0.014 A 
BRANCH  41  42
ATOM     42  C   UNL A   1      40.419  34.017  31.314  1.00  0.00     0.031 A 
ATOM     43  C   UNL A   1      39.945  34.451  32.697  1.00  0.00     0.074 A 
ATOM     44  C   UNL A   1      41.691  33.587  31.057  1.00  0.00     0.049 A 
ATOM     45  N   UNL A   1      40.649  34.745  33.744  1.00  0.00    -0.248 NA
ATOM     46  C   UNL A   1      38.513  34.624  32.973  1.00  0.00     0.031 C 
ATOM     47  C   UNL A   1      42.512  32.728  31.897  1.00  0.00     0.029 A 
ATOM     48  N   UNL A   1      42.462  33.532  29.916  1.00  0.00    -0.354 N 
ATOM     49  C   UNL A   1      39.800  34.742  34.867  1.00  0.00     0.074 A 
ATOM     50  C   UNL A   1      38.480  34.784  34.299  1.00  0.00     0.031 C 
ATOM     51  C   UNL A   1      43.727  32.476  31.420  1.00  0.00     0.029 A 
ATOM     52  C   UNL A   1      43.795  33.205  30.213  1.00  0.00     0.049 A 
ATOM     53  H   UNL A   1      42.121  33.700  29.009  1.00  0.00     0.167 HD
ATOM     54  C   UNL A   1      40.287  34.540  36.142  1.00  0.00     0.034 A 
ATOM     55  C   UNL A   1      44.883  33.959  29.944  1.00  0.00     0.034 A 
ATOM     56  C   UNL A   1      41.789  34.509  36.153  1.00  0.00     0.049 A 
ATOM     57  C   UNL A   1      45.336  34.726  31.200  1.00  0.00     0.074 A 
ATOM     58  C   UNL A   1      42.745  33.647  36.679  1.00  0.00     0.029 A 
ATOM     59  N   UNL A   1      42.524  35.391  35.351  1.00  0.00    -0.354 N 
ATOM     60  N   UNL A   1      44.741  34.646  32.381  1.00  0.00    -0.248 NA
ATOM     61  C   UNL A   1      46.511  35.592  31.270  1.00  0.00     0.031 C 
ATOM     62  C   UNL A   1      43.984  33.871  36.008  1.00  0.00     0.029 A 
ATOM     63  C   UNL A   1      43.835  34.966  35.175  1.00  0.00     0.049 A 
ATOM     64  H   UNL A   1      42.156  36.215  34.960  1.00  0.00     0.167 HD
ATOM     65  C   UNL A   1      45.311  35.512  33.278  1.00  0.00     0.074 A 
ATOM     66  C   UNL A   1      46.466  36.019  32.547  1.00  0.00     0.031 C 
ATOM     67  C   UNL A   1      44.809  35.830  34.519  1.00  0.00     0.034 A 
BRANCH  54  68
ATOM     68  C   UNL A   1      39.449  34.115  37.417  1.00  0.00     0.023 A 
ATOM     69  C   UNL A   1      39.459  35.007  38.521  1.00  0.00     0.012 A 
ATOM     70  C   UNL A   1      38.702  32.923  37.665  1.00  0.00     0.148 A 
ATOM     71  C   UNL A   1      38.875  34.733  39.772  1.00  0.00     0.002 A 
ATOM     72  C   UNL A   1      38.037  32.681  38.893  1.00  0.00     0.091 A 
ATOM     73  F   UNL A   1      38.618  31.974  36.734  1.00  0.00    -0.205 F 
ATOM     74  C   UNL A   1      38.156  33.570  39.960  1.00  0.00     0.022 A 
BRANCH  72  75
ATOM     75  S   UNL A   1      36.967  31.246  39.199  1.00  0.00     0.127 S 
ATOM     76  O   UNL A   1      37.366  30.820  40.542  1.00  0.00    -0.237 OA
ATOM     77  O   UNL A   1      35.631  31.835  39.134  1.00  0.00    -0.237 OA
ATOM     78  O   UNL A   1      37.275  30.282  38.150  1.00  0.00    -0.744 OA
ENDBRANCH  72  75
ENDBRANCH  54  68
BRANCH  55  79
ATOM     79  C   UNL A   1      44.979  34.064  28.450  1.00  0.00     0.023 A 
ATOM     80  C   UNL A   1      44.433  35.304  27.974  1.00  0.00     0.012 A 
ATOM     81  C   UNL A   1      46.177  33.620  27.863  1.00  0.00     0.148 A 
ATOM     82  C   UNL A   1      45.217  36.201  27.233  1.00  0.00     0.002 A 
ATOM     83  C   UNL A   1      46.961  34.529  27.135  1.00  0.00     0.091 A 
ATOM     84  F   UNL A   1      46.644  32.418  28.224  1.00  0.00    -0.205 F 
ATOM     85  C   UNL A   1      46.506  35.835  26.868  1.00  0.00     0.022 A 
BRANCH  83  86
ATOM     86  S   UNL A   1      48.709  34.193  26.853  1.00  0.00     0.127 S 
ATOM     87  O   UNL A   1      49.130  33.657  28.141  1.00  0.00    -0.237 OA
ATOM     88  O   UNL A   1      48.669  33.222  25.760  1.00  0.00    -0.237 OA
ATOM     89  O   UNL A   1      49.267  35.482  26.470  1.00  0.00    -0.744 OA
ENDBRANCH  83  86
ENDBRANCH  55  79
BRANCH  67  90
ATOM     90  C   UNL A   1      45.183  37.099  35.283  1.00  0.00     0.023 A 
ATOM     91  C   UNL A   1      44.346  38.228  35.243  1.00  0.00     0.012 A 
ATOM     92  C   UNL A   1      46.232  37.114  36.245  1.00  0.00     0.148 A 
ATOM     93  C   UNL A   1      44.573  39.343  36.051  1.00  0.00     0.002 A 
ATOM     94  C   UNL A   1      46.368  38.170  37.141  1.00  0.00     0.091 A 
ATOM     95  F   UNL A   1      47.119  36.112  36.302  1.00  0.00    -0.205 F 
ATOM     96  C   UNL A   1      45.566  39.305  37.018  1.00  0.00     0.022 A 
BRANCH  94  97
ATOM     97  S   UNL A   1      47.425  38.046  38.593  1.00  0.00     0.127 S 
ATOM     98  O   UNL A   1      47.306  39.384  39.170  1.00  0.00    -0.237 OA
ATOM     99  O   UNL A   1      46.768  36.990  39.366  1.00  0.00    -0.237 OA
ATOM    100  O   UNL A   1      48.743  37.683  38.089  1.00  0.00    -0.744 OA
ENDBRANCH  94  97
ENDBRANCH  67  90
ENDBRANCH  41  42
ENDBRANCH  34  36
ENDBRANCH  33  34
ENDBRANCH  32  33
ENDBRANCH  31  32
ENDBRANCH  30  31
ENDBRANCH  29  30
ENDBRANCH  28  29
ENDBRANCH  27  28
ENDBRANCH   1  27
TORSDOF 27
ENDMDL
