MODEL 1
REMARK VINA RESULT:     -10.7      0.000      0.000
REMARK SMILES Cc1ccc(Nc2c(Cl)cccc2Cl)c(CC(=O)OCCOCCOCCOCCOC(=O)c2ccc(-c3c4nc(c(-c5cccc(S(=O)(=O)[O-])c5F)c5ccc([nH]5)c(-c5cccc(S(=O)(=O)[O-])c5F)c5nc(c(-c6cccc(S(=O)(=O)[O-])c6F)c6ccc3[nH]6)C=C5)C=C4)cc2)c1
REMARK SMILES IDX 25 1 24 2 23 3 22 4 21 5 20 6 19 7 17 8 18 9 16 10 15 11
REMARK SMILES IDX 1 12 2 13 3 14 97 15 4 16 5 17 6 18 7 20 8 21 13 22 9 23
REMARK SMILES IDX 10 24 12 25 14 26 11 27 26 28 27 29 28 30 29 31 30 32 31 33
REMARK SMILES IDX 32 34 33 35 34 36 35 37 96 38 36 39 95 40 37 41 38 42 39 43
REMARK SMILES IDX 89 44 40 45 94 46 88 47 90 48 41 49 93 50 87 51 86 52 42 54
REMARK SMILES IDX 74 55 54 56 73 57 55 58 58 59 72 60 91 61 56 62 57 63 71 65
REMARK SMILES IDX 92 66 59 67 43 68 44 69 52 70 45 71 47 72 53 73 46 74 48 75
REMARK SMILES IDX 49 76 50 77 51 78 75 79 76 80 84 81 77 82 79 83 85 84 78 85
REMARK SMILES IDX 80 86 81 87 82 88 83 89 60 90 61 91 69 92 62 93 64 94 70 95
REMARK SMILES IDX 63 96 65 97 66 98 67 99 68 100
REMARK H PARENT 6 19 90 53 58 64
REMARK Flexibility Score: inf
ROOT
ATOM      1  O   UNL A   1      31.501  26.279  25.585  1.00  0.00    -0.377 OA
ENDROOT
BRANCH   1   2
ATOM      2  C   UNL A   1      30.271  26.695  24.992  1.00  0.00     0.188 C 
BRANCH   2   3
ATOM      3  C   UNL A   1      30.186  26.167  23.588  1.00  0.00     0.188 C 
BRANCH   3   4
ATOM      4  O   UNL A   1      30.701  27.013  22.570  1.00  0.00    -0.376 OA
BRANCH   4   5
ATOM      5  C   UNL A   1      31.603  26.322  21.724  1.00  0.00     0.202 C 
BRANCH   5   6
ATOM      6  C   UNL A   1      33.052  26.180  22.225  1.00  0.00     0.261 C 
BRANCH   6   7
ATOM      7  O   UNL A   1      33.330  24.969  22.961  1.00  0.00    -0.463 OA
BRANCH   7   8
ATOM      8  C   UNL A   1      33.178  23.800  22.291  1.00  0.00     0.310 C 
ATOM      9  O   UNL A   1      33.633  23.554  21.180  1.00  0.00    -0.252 OA
BRANCH   8  10
ATOM     10  C   UNL A   1      32.287  22.813  23.013  1.00  0.00     0.160 C 
BRANCH  10  11
ATOM     11  C   UNL A   1      32.278  22.841  24.530  1.00  0.00    -0.013 A 
ATOM     12  C   UNL A   1      29.499  22.931  27.197  1.00  0.00     0.044 C 
ATOM     13  C   UNL A   1      30.847  22.932  26.543  1.00  0.00    -0.051 A 
ATOM     14  C   UNL A   1      31.988  22.943  27.328  1.00  0.00     0.005 A 
ATOM     15  C   UNL A   1      31.000  22.900  25.153  1.00  0.00     0.009 A 
ATOM     16  C   UNL A   1      33.250  22.913  26.732  1.00  0.00     0.026 A 
ATOM     17  C   UNL A   1      33.445  22.823  25.337  1.00  0.00     0.042 A 
BRANCH  17  18
ATOM     18  N   UNL A   1      34.767  22.769  24.780  1.00  0.00    -0.353 N 
ATOM     19  H   UNL A   1      34.964  23.415  24.062  1.00  0.00     0.167 HD
BRANCH  18  20
ATOM     20  C   UNL A   1      35.841  21.882  25.150  1.00  0.00     0.076 A 
ATOM     21  C   UNL A   1      37.134  22.316  25.488  1.00  0.00     0.066 A 
ATOM     22  C   UNL A   1      35.684  20.490  24.954  1.00  0.00     0.066 A 
ATOM     23  Cl  UNL A   1      37.421  23.889  26.163  1.00  0.00    -0.082 Cl
ATOM     24  C   UNL A   1      38.243  21.461  25.374  1.00  0.00     0.023 A 
ATOM     25  C   UNL A   1      36.787  19.635  24.827  1.00  0.00     0.023 A 
ATOM     26  Cl  UNL A   1      34.109  19.779  24.924  1.00  0.00    -0.082 Cl
ATOM     27  C   UNL A   1      38.075  20.134  24.985  1.00  0.00     0.003 A 
ENDBRANCH  18  20
ENDBRANCH  17  18
ENDBRANCH  10  11
ENDBRANCH   8  10
ENDBRANCH   7   8
ENDBRANCH   6   7
ENDBRANCH   5   6
ENDBRANCH   4   5
ENDBRANCH   3   4
ENDBRANCH   2   3
ENDBRANCH   1   2
BRANCH   1  28
ATOM     28  C   UNL A   1      32.028  27.263  26.473  1.00  0.00     0.188 C 
BRANCH  28  29
ATOM     29  C   UNL A   1      31.796  28.679  25.956  1.00  0.00     0.188 C 
BRANCH  29  30
ATOM     30  O   UNL A   1      32.909  29.513  26.256  1.00  0.00    -0.376 OA
BRANCH  30  31
ATOM     31  C   UNL A   1      32.633  30.743  26.916  1.00  0.00     0.202 C 
BRANCH  31  32
ATOM     32  C   UNL A   1      33.928  31.236  27.561  1.00  0.00     0.261 C 
BRANCH  32  33
ATOM     33  O   UNL A   1      33.644  32.442  28.298  1.00  0.00    -0.460 OA
BRANCH  33  34
ATOM     34  C   UNL A   1      34.641  33.372  28.233  1.00  0.00     0.338 C 
ATOM     35  O   UNL A   1      34.668  34.302  27.441  1.00  0.00    -0.246 OA
BRANCH  34  36
ATOM     36  C   UNL A   1      35.765  32.975  29.133  1.00  0.00     0.060 A 
ATOM     37  C   UNL A   1      37.081  33.318  28.787  1.00  0.00     0.016 A 
ATOM     38  C   UNL A   1      35.551  32.110  30.206  1.00  0.00     0.016 A 
ATOM     39  C   UNL A   1      38.177  32.713  29.431  1.00  0.00     0.010 A 
ATOM     40  C   UNL A   1      36.642  31.510  30.836  1.00  0.00     0.010 A 
ATOM     41  C   UNL A   1      37.969  31.752  30.422  1.00  0.00    -0.014 A 
BRANCH  41  42
ATOM     42  C   UNL A   1      39.003  30.813  30.932  1.00  0.00     0.031 A 
ATOM     43  C   UNL A   1      39.204  29.460  30.316  1.00  0.00     0.074 A 
ATOM     44  C   UNL A   1      40.073  31.340  31.590  1.00  0.00     0.049 A 
ATOM     45  N   UNL A   1      40.201  28.681  30.603  1.00  0.00    -0.248 NA
ATOM     46  C   UNL A   1      38.304  28.853  29.334  1.00  0.00     0.031 C 
ATOM     47  C   UNL A   1      41.466  30.929  31.408  1.00  0.00     0.029 A 
ATOM     48  N   UNL A   1      40.175  32.358  32.541  1.00  0.00    -0.354 N 
ATOM     49  C   UNL A   1      40.305  27.755  29.595  1.00  0.00     0.074 A 
ATOM     50  C   UNL A   1      39.012  27.781  28.951  1.00  0.00     0.031 C 
ATOM     51  C   UNL A   1      42.278  31.651  32.177  1.00  0.00     0.029 A 
ATOM     52  C   UNL A   1      41.439  32.277  33.157  1.00  0.00     0.049 A 
ATOM     53  H   UNL A   1      39.478  33.022  32.747  1.00  0.00     0.167 HD
ATOM     54  C   UNL A   1      41.513  27.194  29.294  1.00  0.00     0.034 A 
ATOM     55  C   UNL A   1      41.676  32.162  34.495  1.00  0.00     0.034 A 
ATOM     56  C   UNL A   1      42.600  27.467  30.271  1.00  0.00     0.049 A 
ATOM     57  C   UNL A   1      42.260  30.799  34.858  1.00  0.00     0.074 A 
ATOM     58  C   UNL A   1      43.974  27.656  30.200  1.00  0.00     0.029 A 
ATOM     59  N   UNL A   1      42.299  27.591  31.625  1.00  0.00    -0.354 N 
ATOM     60  N   UNL A   1      42.892  30.003  34.029  1.00  0.00    -0.248 NA
ATOM     61  C   UNL A   1      42.087  30.178  36.170  1.00  0.00     0.031 C 
ATOM     62  C   UNL A   1      44.482  27.878  31.518  1.00  0.00     0.029 A 
ATOM     63  C   UNL A   1      43.428  27.771  32.403  1.00  0.00     0.049 A 
ATOM     64  H   UNL A   1      41.385  27.554  31.988  1.00  0.00     0.167 HD
ATOM     65  C   UNL A   1      42.972  28.745  34.570  1.00  0.00     0.074 A 
ATOM     66  C   UNL A   1      42.535  28.929  35.945  1.00  0.00     0.031 C 
ATOM     67  C   UNL A   1      43.292  27.626  33.845  1.00  0.00     0.034 A 
BRANCH  54  68
ATOM     68  C   UNL A   1      41.779  26.431  27.999  1.00  0.00     0.023 A 
ATOM     69  C   UNL A   1      41.611  27.127  26.780  1.00  0.00     0.012 A 
ATOM     70  C   UNL A   1      42.096  25.052  27.890  1.00  0.00     0.148 A 
ATOM     71  C   UNL A   1      41.714  26.495  25.533  1.00  0.00     0.002 A 
ATOM     72  C   UNL A   1      42.310  24.450  26.644  1.00  0.00     0.091 A 
ATOM     73  F   UNL A   1      42.103  24.283  28.986  1.00  0.00    -0.205 F 
ATOM     74  C   UNL A   1      42.085  25.161  25.463  1.00  0.00     0.022 A 
BRANCH  72  75
ATOM     75  S   UNL A   1      42.956  22.775  26.475  1.00  0.00     0.127 S 
ATOM     76  O   UNL A   1      43.142  22.367  27.866  1.00  0.00    -0.237 OA
ATOM     77  O   UNL A   1      41.865  22.084  25.783  1.00  0.00    -0.237 OA
ATOM     78  O   UNL A   1      44.176  22.898  25.685  1.00  0.00    -0.744 OA
ENDBRANCH  72  75
ENDBRANCH  54  68
BRANCH  55  79
ATOM     79  C   UNL A   1      40.814  33.070  35.290  1.00  0.00     0.023 A 
ATOM     80  C   UNL A   1      41.267  34.411  35.345  1.00  0.00     0.012 A 
ATOM     81  C   UNL A   1      39.445  32.805  35.432  1.00  0.00     0.148 A 
ATOM     82  C   UNL A   1      40.361  35.471  35.358  1.00  0.00     0.002 A 
ATOM     83  C   UNL A   1      38.546  33.869  35.379  1.00  0.00     0.091 A 
ATOM     84  F   UNL A   1      39.041  31.529  35.428  1.00  0.00    -0.205 F 
ATOM     85  C   UNL A   1      38.999  35.197  35.321  1.00  0.00     0.022 A 
BRANCH  83  86
ATOM     86  S   UNL A   1      36.800  33.571  35.059  1.00  0.00     0.127 S 
ATOM     87  O   UNL A   1      36.432  34.755  34.292  1.00  0.00    -0.237 OA
ATOM     88  O   UNL A   1      36.830  32.319  34.302  1.00  0.00    -0.237 OA
ATOM     89  O   UNL A   1      36.209  33.442  36.383  1.00  0.00    -0.744 OA
ENDBRANCH  83  86
ENDBRANCH  55  79
BRANCH  67  90
ATOM     90  C   UNL A   1      43.429  26.226  34.425  1.00  0.00     0.023 A 
ATOM     91  C   UNL A   1      42.304  25.507  34.870  1.00  0.00     0.012 A 
ATOM     92  C   UNL A   1      44.702  25.630  34.656  1.00  0.00     0.148 A 
ATOM     93  C   UNL A   1      42.423  24.226  35.421  1.00  0.00     0.002 A 
ATOM     94  C   UNL A   1      44.820  24.387  35.269  1.00  0.00     0.091 A 
ATOM     95  F   UNL A   1      45.816  26.264  34.272  1.00  0.00    -0.205 F 
ATOM     96  C   UNL A   1      43.679  23.667  35.622  1.00  0.00     0.022 A 
BRANCH  94  97
ATOM     97  S   UNL A   1      46.410  23.663  35.708  1.00  0.00     0.127 S 
ATOM     98  O   UNL A   1      46.881  24.590  36.740  1.00  0.00    -0.237 OA
ATOM     99  O   UNL A   1      46.010  22.349  36.207  1.00  0.00    -0.237 OA
ATOM    100  O   UNL A   1      47.211  23.659  34.493  1.00  0.00    -0.744 OA
ENDBRANCH  94  97
ENDBRANCH  67  90
ENDBRANCH  41  42
ENDBRANCH  34  36
ENDBRANCH  33  34
ENDBRANCH  32  33
ENDBRANCH  31  32
ENDBRANCH  30  31
ENDBRANCH  29  30
ENDBRANCH  28  29
ENDBRANCH   1  28
TORSDOF 26
ENDMDL
MODEL 2
REMARK VINA RESULT:     -10.0      4.682     10.560
REMARK SMILES Cc1ccc(Nc2c(Cl)cccc2Cl)c(CC(=O)OCCOCCOCCOCCOC(=O)c2ccc(-c3c4nc(c(-c5cccc(S(=O)(=O)[O-])c5F)c5ccc([nH]5)c(-c5cccc(S(=O)(=O)[O-])c5F)c5nc(c(-c6cccc(S(=O)(=O)[O-])c6F)c6ccc3[nH]6)C=C5)C=C4)cc2)c1
REMARK SMILES IDX 25 1 24 2 23 3 22 4 21 5 20 6 19 7 17 8 18 9 16 10 15 11
REMARK SMILES IDX 1 12 2 13 3 14 97 15 4 16 5 17 6 18 7 20 8 21 13 22 9 23
REMARK SMILES IDX 10 24 12 25 14 26 11 27 26 28 27 29 28 30 29 31 30 32 31 33
REMARK SMILES IDX 32 34 33 35 34 36 35 37 96 38 36 39 95 40 37 41 38 42 39 43
REMARK SMILES IDX 89 44 40 45 94 46 88 47 90 48 41 49 93 50 87 51 86 52 42 54
REMARK SMILES IDX 74 55 54 56 73 57 55 58 58 59 72 60 91 61 56 62 57 63 71 65
REMARK SMILES IDX 92 66 59 67 43 68 44 69 52 70 45 71 47 72 53 73 46 74 48 75
REMARK SMILES IDX 49 76 50 77 51 78 75 79 76 80 84 81 77 82 79 83 85 84 78 85
REMARK SMILES IDX 80 86 81 87 82 88 83 89 60 90 61 91 69 92 62 93 64 94 70 95
REMARK SMILES IDX 63 96 65 97 66 98 67 99 68 100
REMARK H PARENT 6 19 90 53 58 64
REMARK Flexibility Score: inf
ROOT
ATOM      1  O   UNL A   1      36.963  22.439  24.452  1.00  0.00    -0.377 OA
ENDROOT
BRANCH   1   2
ATOM      2  C   UNL A   1      35.607  22.430  24.009  1.00  0.00     0.188 C 
BRANCH   2   3
ATOM      3  C   UNL A   1      34.847  21.358  24.738  1.00  0.00     0.188 C 
BRANCH   3   4
ATOM      4  O   UNL A   1      33.433  21.491  24.747  1.00  0.00    -0.376 OA
BRANCH   4   5
ATOM      5  C   UNL A   1      33.028  22.725  25.312  1.00  0.00     0.202 C 
BRANCH   5   6
ATOM      6  C   UNL A   1      31.766  22.701  26.195  1.00  0.00     0.261 C 
BRANCH   6   7
ATOM      7  O   UNL A   1      30.638  23.433  25.670  1.00  0.00    -0.463 OA
BRANCH   7   8
ATOM      8  C   UNL A   1      30.671  24.782  25.803  1.00  0.00     0.310 C 
ATOM      9  O   UNL A   1      30.915  25.387  26.841  1.00  0.00    -0.252 OA
BRANCH   8  10
ATOM     10  C   UNL A   1      30.277  25.514  24.539  1.00  0.00     0.160 C 
BRANCH  10  11
ATOM     11  C   UNL A   1      31.384  26.075  23.668  1.00  0.00    -0.013 A 
ATOM     12  C   UNL A   1      32.612  25.352  20.088  1.00  0.00     0.044 C 
ATOM     13  C   UNL A   1      32.505  25.918  21.471  1.00  0.00    -0.051 A 
ATOM     14  C   UNL A   1      33.387  26.909  21.873  1.00  0.00     0.005 A 
ATOM     15  C   UNL A   1      31.525  25.497  22.375  1.00  0.00     0.009 A 
ATOM     16  C   UNL A   1      33.279  27.468  23.148  1.00  0.00     0.026 A 
ATOM     17  C   UNL A   1      32.270  27.110  24.067  1.00  0.00     0.042 A 
BRANCH  17  18
ATOM     18  N   UNL A   1      32.192  27.736  25.357  1.00  0.00    -0.353 N 
ATOM     19  H   UNL A   1      32.070  27.134  26.127  1.00  0.00     0.167 HD
BRANCH  18  20
ATOM     20  C   UNL A   1      32.271  29.144  25.655  1.00  0.00     0.076 A 
ATOM     21  C   UNL A   1      33.162  29.697  26.591  1.00  0.00     0.066 A 
ATOM     22  C   UNL A   1      31.265  30.011  25.169  1.00  0.00     0.066 A 
ATOM     23  Cl  UNL A   1      34.676  28.935  26.969  1.00  0.00    -0.082 Cl
ATOM     24  C   UNL A   1      32.906  30.937  27.198  1.00  0.00     0.023 A 
ATOM     25  C   UNL A   1      30.996  31.243  25.779  1.00  0.00     0.023 A 
ATOM     26  Cl  UNL A   1      30.361  29.601  23.754  1.00  0.00    -0.082 Cl
ATOM     27  C   UNL A   1      31.788  31.684  26.834  1.00  0.00     0.003 A 
ENDBRANCH  18  20
ENDBRANCH  17  18
ENDBRANCH  10  11
ENDBRANCH   8  10
ENDBRANCH   7   8
ENDBRANCH   6   7
ENDBRANCH   5   6
ENDBRANCH   4   5
ENDBRANCH   3   4
ENDBRANCH   2   3
ENDBRANCH   1   2
BRANCH   1  28
ATOM     28  C   UNL A   1      37.272  23.609  25.208  1.00  0.00     0.188 C 
BRANCH  28  29
ATOM     29  C   UNL A   1      38.303  23.328  26.295  1.00  0.00     0.188 C 
BRANCH  29  30
ATOM     30  O   UNL A   1      38.487  21.927  26.465  1.00  0.00    -0.376 OA
BRANCH  30  31
ATOM     31  C   UNL A   1      39.427  21.292  25.606  1.00  0.00     0.202 C 
BRANCH  31  32
ATOM     32  C   UNL A   1      39.665  19.875  26.129  1.00  0.00     0.261 C 
BRANCH  32  33
ATOM     33  O   UNL A   1      40.900  19.861  26.870  1.00  0.00    -0.460 OA
BRANCH  33  34
ATOM     34  C   UNL A   1      41.995  20.172  26.117  1.00  0.00     0.338 C 
ATOM     35  O   UNL A   1      42.471  19.446  25.257  1.00  0.00    -0.246 OA
BRANCH  34  36
ATOM     36  C   UNL A   1      42.623  21.427  26.628  1.00  0.00     0.060 A 
ATOM     37  C   UNL A   1      42.299  21.888  27.914  1.00  0.00     0.016 A 
ATOM     38  C   UNL A   1      43.375  22.245  25.786  1.00  0.00     0.016 A 
ATOM     39  C   UNL A   1      42.621  23.199  28.311  1.00  0.00     0.010 A 
ATOM     40  C   UNL A   1      43.687  23.545  26.184  1.00  0.00     0.010 A 
ATOM     41  C   UNL A   1      43.264  24.066  27.426  1.00  0.00    -0.014 A 
BRANCH  41  42
ATOM     42  C   UNL A   1      43.358  25.541  27.591  1.00  0.00     0.031 A 
ATOM     43  C   UNL A   1      42.129  26.395  27.708  1.00  0.00     0.074 A 
ATOM     44  C   UNL A   1      44.500  26.050  28.131  1.00  0.00     0.049 A 
ATOM     45  N   UNL A   1      42.157  27.651  28.030  1.00  0.00    -0.248 NA
ATOM     46  C   UNL A   1      40.765  25.924  27.465  1.00  0.00     0.031 C 
ATOM     47  C   UNL A   1      44.560  27.109  29.141  1.00  0.00     0.029 A 
ATOM     48  N   UNL A   1      45.847  25.740  27.931  1.00  0.00    -0.354 N 
ATOM     49  C   UNL A   1      40.895  27.999  28.443  1.00  0.00     0.074 A 
ATOM     50  C   UNL A   1      40.043  26.969  27.897  1.00  0.00     0.031 C 
ATOM     51  C   UNL A   1      45.820  27.366  29.483  1.00  0.00     0.029 A 
ATOM     52  C   UNL A   1      46.635  26.782  28.457  1.00  0.00     0.049 A 
ATOM     53  H   UNL A   1      46.188  24.927  27.493  1.00  0.00     0.167 HD
ATOM     54  C   UNL A   1      40.718  29.009  29.345  1.00  0.00     0.034 A 
ATOM     55  C   UNL A   1      47.575  27.500  27.780  1.00  0.00     0.034 A 
ATOM     56  C   UNL A   1      41.927  29.827  29.627  1.00  0.00     0.049 A 
ATOM     57  C   UNL A   1      47.150  28.952  27.577  1.00  0.00     0.074 A 
ATOM     58  C   UNL A   1      42.441  30.490  30.734  1.00  0.00     0.029 A 
ATOM     59  N   UNL A   1      42.857  30.060  28.617  1.00  0.00    -0.354 N 
ATOM     60  N   UNL A   1      46.267  29.589  28.308  1.00  0.00    -0.248 NA
ATOM     61  C   UNL A   1      47.618  29.775  26.464  1.00  0.00     0.031 C 
ATOM     62  C   UNL A   1      43.669  31.123  30.369  1.00  0.00     0.029 A 
ATOM     63  C   UNL A   1      43.880  30.896  29.023  1.00  0.00     0.049 A 
ATOM     64  H   UNL A   1      42.792  29.673  27.714  1.00  0.00     0.167 HD
ATOM     65  C   UNL A   1      45.871  30.731  27.658  1.00  0.00     0.074 A 
ATOM     66  C   UNL A   1      46.810  30.847  26.554  1.00  0.00     0.031 C 
ATOM     67  C   UNL A   1      44.755  31.450  28.000  1.00  0.00     0.034 A 
BRANCH  54  68
ATOM     68  C   UNL A   1      39.410  29.232  30.101  1.00  0.00     0.023 A 
ATOM     69  C   UNL A   1      39.038  28.269  31.067  1.00  0.00     0.012 A 
ATOM     70  C   UNL A   1      38.477  30.275  29.870  1.00  0.00     0.148 A 
ATOM     71  C   UNL A   1      37.806  28.311  31.734  1.00  0.00     0.002 A 
ATOM     72  C   UNL A   1      37.298  30.378  30.619  1.00  0.00     0.091 A 
ATOM     73  F   UNL A   1      38.671  31.129  28.857  1.00  0.00    -0.205 F 
ATOM     74  C   UNL A   1      36.945  29.377  31.528  1.00  0.00     0.022 A 
BRANCH  72  75
ATOM     75  S   UNL A   1      36.215  31.816  30.530  1.00  0.00     0.127 S 
ATOM     76  O   UNL A   1      35.407  31.531  29.346  1.00  0.00    -0.237 OA
ATOM     77  O   UNL A   1      35.482  31.738  31.796  1.00  0.00    -0.237 OA
ATOM     78  O   UNL A   1      37.098  32.973  30.427  1.00  0.00    -0.744 OA
ENDBRANCH  72  75
ENDBRANCH  54  68
BRANCH  55  79
ATOM     79  C   UNL A   1      48.431  26.632  26.934  1.00  0.00     0.023 A 
ATOM     80  C   UNL A   1      47.965  26.462  25.607  1.00  0.00     0.012 A 
ATOM     81  C   UNL A   1      49.802  26.517  27.197  1.00  0.00     0.148 A 
ATOM     82  C   UNL A   1      48.860  26.361  24.543  1.00  0.00     0.002 A 
ATOM     83  C   UNL A   1      50.691  26.481  26.124  1.00  0.00     0.091 A 
ATOM     84  F   UNL A   1      50.218  26.630  28.464  1.00  0.00    -0.205 F 
ATOM     85  C   UNL A   1      50.225  26.425  24.800  1.00  0.00     0.022 A 
BRANCH  83  86
ATOM     86  S   UNL A   1      52.439  26.831  26.375  1.00  0.00     0.127 S 
ATOM     87  O   UNL A   1      52.767  25.932  27.475  1.00  0.00    -0.237 OA
ATOM     88  O   UNL A   1      53.018  26.474  25.080  1.00  0.00    -0.237 OA
ATOM     89  O   UNL A   1      52.482  28.257  26.663  1.00  0.00    -0.744 OA
ENDBRANCH  83  86
ENDBRANCH  55  79
BRANCH  67  90
ATOM     90  C   UNL A   1      44.314  32.742  27.327  1.00  0.00     0.023 A 
ATOM     91  C   UNL A   1      44.100  32.804  25.938  1.00  0.00     0.012 A 
ATOM     92  C   UNL A   1      44.216  33.968  28.046  1.00  0.00     0.148 A 
ATOM     93  C   UNL A   1      43.712  33.992  25.307  1.00  0.00     0.002 A 
ATOM     94  C   UNL A   1      43.899  35.160  27.404  1.00  0.00     0.091 A 
ATOM     95  F   UNL A   1      44.420  33.985  29.367  1.00  0.00    -0.205 F 
ATOM     96  C   UNL A   1      43.613  35.169  26.039  1.00  0.00     0.022 A 
BRANCH  94  97
ATOM     97  S   UNL A   1      43.905  36.752  28.247  1.00  0.00     0.127 S 
ATOM     98  O   UNL A   1      45.334  36.944  28.506  1.00  0.00    -0.237 OA
ATOM     99  O   UNL A   1      43.349  37.633  27.222  1.00  0.00    -0.237 OA
ATOM    100  O   UNL A   1      43.094  36.589  29.444  1.00  0.00    -0.744 OA
ENDBRANCH  94  97
ENDBRANCH  67  90
ENDBRANCH  41  42
ENDBRANCH  34  36
ENDBRANCH  33  34
ENDBRANCH  32  33
ENDBRANCH  31  32
ENDBRANCH  30  31
ENDBRANCH  29  30
ENDBRANCH  28  29
ENDBRANCH   1  28
TORSDOF 26
ENDMDL
MODEL 3
REMARK VINA RESULT:      -9.7      3.738      9.121
REMARK SMILES Cc1ccc(Nc2c(Cl)cccc2Cl)c(CC(=O)OCCOCCOCCOCCOC(=O)c2ccc(-c3c4nc(c(-c5cccc(S(=O)(=O)[O-])c5F)c5ccc([nH]5)c(-c5cccc(S(=O)(=O)[O-])c5F)c5nc(c(-c6cccc(S(=O)(=O)[O-])c6F)c6ccc3[nH]6)C=C5)C=C4)cc2)c1
REMARK SMILES IDX 25 1 24 2 23 3 22 4 21 5 20 6 19 7 17 8 18 9 16 10 15 11
REMARK SMILES IDX 1 12 2 13 3 14 97 15 4 16 5 17 6 18 7 20 8 21 13 22 9 23
REMARK SMILES IDX 10 24 12 25 14 26 11 27 26 28 27 29 28 30 29 31 30 32 31 33
REMARK SMILES IDX 32 34 33 35 34 36 35 37 96 38 36 39 95 40 37 41 38 42 39 43
REMARK SMILES IDX 89 44 40 45 94 46 88 47 90 48 41 49 93 50 87 51 86 52 42 54
REMARK SMILES IDX 74 55 54 56 73 57 55 58 58 59 72 60 91 61 56 62 57 63 71 65
REMARK SMILES IDX 92 66 59 67 43 68 44 69 52 70 45 71 47 72 53 73 46 74 48 75
REMARK SMILES IDX 49 76 50 77 51 78 75 79 76 80 84 81 77 82 79 83 85 84 78 85
REMARK SMILES IDX 80 86 81 87 82 88 83 89 60 90 61 91 69 92 62 93 64 94 70 95
REMARK SMILES IDX 63 96 65 97 66 98 67 99 68 100
REMARK H PARENT 6 19 90 53 58 64
REMARK Flexibility Score: inf
ROOT
ATOM      1  O   UNL A   1      31.252  24.689  26.063  1.00  0.00    -0.377 OA
ENDROOT
BRANCH   1   2
ATOM      2  C   UNL A   1      30.667  23.416  25.793  1.00  0.00     0.188 C 
BRANCH   2   3
ATOM      3  C   UNL A   1      31.535  22.659  24.828  1.00  0.00     0.188 C 
BRANCH   3   4
ATOM      4  O   UNL A   1      31.378  22.989  23.455  1.00  0.00    -0.376 OA
BRANCH   4   5
ATOM      5  C   UNL A   1      32.601  22.874  22.748  1.00  0.00     0.202 C 
BRANCH   5   6
ATOM      6  C   UNL A   1      33.349  24.184  22.442  1.00  0.00     0.261 C 
BRANCH   6   7
ATOM      7  O   UNL A   1      34.719  24.228  22.895  1.00  0.00    -0.463 OA
BRANCH   7   8
ATOM      8  C   UNL A   1      34.916  24.331  24.232  1.00  0.00     0.310 C 
ATOM      9  O   UNL A   1      34.210  24.966  25.007  1.00  0.00    -0.252 OA
BRANCH   8  10
ATOM     10  C   UNL A   1      36.181  23.646  24.701  1.00  0.00     0.160 C 
BRANCH  10  11
ATOM     11  C   UNL A   1      36.182  22.131  24.783  1.00  0.00    -0.013 A 
ATOM     12  C   UNL A   1      33.444  19.429  24.564  1.00  0.00     0.044 C 
ATOM     13  C   UNL A   1      34.770  20.103  24.738  1.00  0.00    -0.051 A 
ATOM     14  C   UNL A   1      35.905  19.335  24.945  1.00  0.00     0.005 A 
ATOM     15  C   UNL A   1      34.914  21.493  24.678  1.00  0.00     0.009 A 
ATOM     16  C   UNL A   1      37.153  19.948  25.078  1.00  0.00     0.026 A 
ATOM     17  C   UNL A   1      37.346  21.341  24.966  1.00  0.00     0.042 A 
BRANCH  17  18
ATOM     18  N   UNL A   1      38.657  21.915  25.086  1.00  0.00    -0.353 N 
ATOM     19  H   UNL A   1      39.025  22.331  24.273  1.00  0.00     0.167 HD
BRANCH  18  20
ATOM     20  C   UNL A   1      39.494  21.953  26.258  1.00  0.00     0.076 A 
ATOM     21  C   UNL A   1      39.666  23.094  27.061  1.00  0.00     0.066 A 
ATOM     22  C   UNL A   1      40.376  20.877  26.512  1.00  0.00     0.066 A 
ATOM     23  Cl  UNL A   1      38.441  24.317  27.182  1.00  0.00    -0.082 Cl
ATOM     24  C   UNL A   1      40.804  23.252  27.870  1.00  0.00     0.023 A 
ATOM     25  C   UNL A   1      41.520  21.033  27.306  1.00  0.00     0.023 A 
ATOM     26  Cl  UNL A   1      40.039  19.300  25.890  1.00  0.00    -0.082 Cl
ATOM     27  C   UNL A   1      41.761  22.244  27.946  1.00  0.00     0.003 A 
ENDBRANCH  18  20
ENDBRANCH  17  18
ENDBRANCH  10  11
ENDBRANCH   8  10
ENDBRANCH   7   8
ENDBRANCH   6   7
ENDBRANCH   5   6
ENDBRANCH   4   5
ENDBRANCH   3   4
ENDBRANCH   2   3
ENDBRANCH   1   2
BRANCH   1  28
ATOM     28  C   UNL A   1      30.287  25.740  26.032  1.00  0.00     0.188 C 
BRANCH  28  29
ATOM     29  C   UNL A   1      29.716  25.946  24.634  1.00  0.00     0.188 C 
BRANCH  29  30
ATOM     30  O   UNL A   1      30.761  26.094  23.679  1.00  0.00    -0.376 OA
BRANCH  30  31
ATOM     31  C   UNL A   1      30.654  27.184  22.770  1.00  0.00     0.202 C 
BRANCH  31  32
ATOM     32  C   UNL A   1      31.983  27.940  22.778  1.00  0.00     0.261 C 
BRANCH  32  33
ATOM     33  O   UNL A   1      32.678  27.633  24.002  1.00  0.00    -0.460 OA
BRANCH  33  34
ATOM     34  C   UNL A   1      32.452  28.536  25.001  1.00  0.00     0.338 C 
ATOM     35  O   UNL A   1      31.466  29.253  25.075  1.00  0.00    -0.246 OA
BRANCH  34  36
ATOM     36  C   UNL A   1      33.663  28.647  25.869  1.00  0.00     0.060 A 
ATOM     37  C   UNL A   1      33.524  28.564  27.263  1.00  0.00     0.016 A 
ATOM     38  C   UNL A   1      34.896  29.018  25.332  1.00  0.00     0.016 A 
ATOM     39  C   UNL A   1      34.571  28.961  28.116  1.00  0.00     0.010 A 
ATOM     40  C   UNL A   1      35.928  29.415  26.184  1.00  0.00     0.010 A 
ATOM     41  C   UNL A   1      35.765  29.453  27.585  1.00  0.00    -0.014 A 
BRANCH  41  42
ATOM     42  C   UNL A   1      36.795  30.203  28.351  1.00  0.00     0.031 A 
ATOM     43  C   UNL A   1      36.513  31.566  28.913  1.00  0.00     0.074 A 
ATOM     44  C   UNL A   1      37.778  29.489  28.966  1.00  0.00     0.049 A 
ATOM     45  N   UNL A   1      37.308  32.182  29.733  1.00  0.00    -0.248 NA
ATOM     46  C   UNL A   1      35.327  32.364  28.600  1.00  0.00     0.031 C 
ATOM     47  C   UNL A   1      38.279  29.730  30.321  1.00  0.00     0.029 A 
ATOM     48  N   UNL A   1      38.534  28.391  28.550  1.00  0.00    -0.354 N 
ATOM     49  C   UNL A   1      36.579  33.168  30.351  1.00  0.00     0.074 A 
ATOM     50  C   UNL A   1      35.438  33.364  29.487  1.00  0.00     0.031 C 
ATOM     51  C   UNL A   1      39.222  28.847  30.641  1.00  0.00     0.029 A 
ATOM     52  C   UNL A   1      39.645  28.256  29.405  1.00  0.00     0.049 A 
ATOM     53  H   UNL A   1      38.325  27.808  27.784  1.00  0.00     0.167 HD
ATOM     54  C   UNL A   1      36.914  33.590  31.606  1.00  0.00     0.034 A 
ATOM     55  C   UNL A   1      40.954  28.227  29.024  1.00  0.00     0.034 A 
ATOM     56  C   UNL A   1      38.221  33.098  32.114  1.00  0.00     0.049 A 
ATOM     57  C   UNL A   1      41.713  29.467  29.489  1.00  0.00     0.074 A 
ATOM     58  C   UNL A   1      38.734  32.739  33.353  1.00  0.00     0.029 A 
ATOM     59  N   UNL A   1      39.278  32.902  31.228  1.00  0.00    -0.354 N 
ATOM     60  N   UNL A   1      41.356  30.241  30.486  1.00  0.00    -0.248 NA
ATOM     61  C   UNL A   1      42.887  29.994  28.796  1.00  0.00     0.031 C 
ATOM     62  C   UNL A   1      40.099  32.344  33.196  1.00  0.00     0.029 A 
ATOM     63  C   UNL A   1      40.440  32.513  31.869  1.00  0.00     0.049 A 
ATOM     64  H   UNL A   1      39.207  33.027  30.254  1.00  0.00     0.167 HD
ATOM     65  C   UNL A   1      42.040  31.429  30.414  1.00  0.00     0.074 A 
ATOM     66  C   UNL A   1      43.047  31.189  29.393  1.00  0.00     0.031 C 
ATOM     67  C   UNL A   1      41.683  32.553  31.112  1.00  0.00     0.034 A 
BRANCH  54  68
ATOM     68  C   UNL A   1      35.978  34.418  32.484  1.00  0.00     0.023 A 
ATOM     69  C   UNL A   1      36.055  34.231  33.883  1.00  0.00     0.012 A 
ATOM     70  C   UNL A   1      34.967  35.303  32.028  1.00  0.00     0.148 A 
ATOM     71  C   UNL A   1      35.166  34.849  34.773  1.00  0.00     0.002 A 
ATOM     72  C   UNL A   1      34.155  36.006  32.926  1.00  0.00     0.091 A 
ATOM     73  F   UNL A   1      34.714  35.405  30.717  1.00  0.00    -0.205 F 
ATOM     74  C   UNL A   1      34.230  35.754  34.298  1.00  0.00     0.022 A 
BRANCH  72  75
ATOM     75  S   UNL A   1      33.037  37.319  32.399  1.00  0.00     0.127 S 
ATOM     76  O   UNL A   1      33.752  38.526  32.807  1.00  0.00    -0.237 OA
ATOM     77  O   UNL A   1      32.970  37.114  30.950  1.00  0.00    -0.237 OA
ATOM     78  O   UNL A   1      31.777  37.069  33.091  1.00  0.00    -0.744 OA
ENDBRANCH  72  75
ENDBRANCH  54  68
BRANCH  55  79
ATOM     79  C   UNL A   1      41.164  27.376  27.828  1.00  0.00     0.023 A 
ATOM     80  C   UNL A   1      40.732  27.958  26.611  1.00  0.00     0.012 A 
ATOM     81  C   UNL A   1      42.195  26.428  27.805  1.00  0.00     0.148 A 
ATOM     82  C   UNL A   1      41.433  27.736  25.425  1.00  0.00     0.002 A 
ATOM     83  C   UNL A   1      42.929  26.262  26.631  1.00  0.00     0.091 A 
ATOM     84  F   UNL A   1      42.555  25.851  28.958  1.00  0.00    -0.205 F 
ATOM     85  C   UNL A   1      42.565  26.929  25.450  1.00  0.00     0.022 A 
BRANCH  83  86
ATOM     86  S   UNL A   1      44.538  25.456  26.668  1.00  0.00     0.127 S 
ATOM     87  O   UNL A   1      45.300  26.351  27.530  1.00  0.00    -0.237 OA
ATOM     88  O   UNL A   1      44.220  24.150  27.245  1.00  0.00    -0.237 OA
ATOM     89  O   UNL A   1      44.941  25.396  25.270  1.00  0.00    -0.744 OA
ENDBRANCH  83  86
ENDBRANCH  55  79
BRANCH  67  90
ATOM     90  C   UNL A   1      42.444  33.871  31.085  1.00  0.00     0.023 A 
ATOM     91  C   UNL A   1      43.085  34.366  32.236  1.00  0.00     0.012 A 
ATOM     92  C   UNL A   1      42.439  34.718  29.940  1.00  0.00     0.148 A 
ATOM     93  C   UNL A   1      43.772  35.586  32.225  1.00  0.00     0.002 A 
ATOM     94  C   UNL A   1      43.062  35.961  29.955  1.00  0.00     0.091 A 
ATOM     95  F   UNL A   1      41.836  34.317  28.815  1.00  0.00    -0.205 F 
ATOM     96  C   UNL A   1      43.759  36.383  31.088  1.00  0.00     0.022 A 
BRANCH  94  97
ATOM     97  S   UNL A   1      42.959  37.120  28.581  1.00  0.00     0.127 S 
ATOM     98  O   UNL A   1      43.179  38.400  29.257  1.00  0.00    -0.237 OA
ATOM     99  O   UNL A   1      44.068  36.679  27.736  1.00  0.00    -0.237 OA
ATOM    100  O   UNL A   1      41.630  36.963  28.008  1.00  0.00    -0.744 OA
ENDBRANCH  94  97
ENDBRANCH  67  90
ENDBRANCH  41  42
ENDBRANCH  34  36
ENDBRANCH  33  34
ENDBRANCH  32  33
ENDBRANCH  31  32
ENDBRANCH  30  31
ENDBRANCH  29  30
ENDBRANCH  28  29
ENDBRANCH   1  28
TORSDOF 26
ENDMDL
