MODEL 1
REMARK VINA RESULT:      -7.6      0.000      0.000
REMARK SMILES C[C@H](NC(=O)c1c(C(=O)OCCOCCOCCOCCOC(=O)c2ccc(-c3c4nc(c(-c5cccc(S(=O)(=O)[O-])c5F)c5ccc([nH]5)c(-c5cccc(S(=O)(=O)[O-])c5F)c5nc(c(-c6cccc(S(=O)(=O)[O-])c6F)c6ccc3[nH]6)C=C5)C=C4)cc2)cnn1C)[C@]12C[C@H]3C[C@H](C[C@H](C3)C1)C2
REMARK SMILES IDX 16 1 15 2 14 3 13 4 12 5 11 6 10 7 8 8 9 9 7 10 6 11 90 12
REMARK SMILES IDX 88 13 89 14 91 15 4 16 3 17 5 19 2 20 1 21 92 22 93 23
REMARK SMILES IDX 100 24 101 25 94 26 98 27 96 28 95 29 99 30 97 31 17 32
REMARK SMILES IDX 18 33 19 34 20 35 21 36 22 37 23 38 24 39 25 40 26 41 87 42
REMARK SMILES IDX 27 43 86 44 28 45 29 46 30 47 80 48 31 49 85 50 79 51 81 52
REMARK SMILES IDX 32 53 84 54 78 55 77 56 33 58 65 59 45 60 64 61 46 62 49 63
REMARK SMILES IDX 63 64 82 65 47 66 48 67 62 69 83 70 50 71 34 72 35 73 43 74
REMARK SMILES IDX 36 75 38 76 44 77 37 78 39 79 40 80 41 81 42 82 66 83 67 84
REMARK SMILES IDX 75 85 68 86 70 87 76 88 69 89 71 90 72 91 73 92 74 93 51 94
REMARK SMILES IDX 52 95 60 96 53 97 55 98 61 99 54 100 56 101 57 102 58 103
REMARK SMILES IDX 59 104
REMARK H PARENT 3 18 81 57 49 68
REMARK Flexibility Score: inf
ROOT
ATOM      1  O   UNL A   1      37.410  33.321  40.947  1.00  0.00    -0.377 OA
ENDROOT
BRANCH   1   2
ATOM      2  C   UNL A   1      37.804  33.129  39.602  1.00  0.00     0.188 C 
BRANCH   2   3
ATOM      3  C   UNL A   1      36.801  32.551  38.585  1.00  0.00     0.188 C 
BRANCH   3   4
ATOM      4  O   UNL A   1      37.327  32.294  37.288  1.00  0.00    -0.376 OA
BRANCH   4   5
ATOM      5  C   UNL A   1      37.854  33.413  36.587  1.00  0.00     0.202 C 
BRANCH   5   6
ATOM      6  C   UNL A   1      37.257  33.606  35.187  1.00  0.00     0.261 C 
BRANCH   6   7
ATOM      7  O   UNL A   1      37.882  32.805  34.174  1.00  0.00    -0.460 OA
BRANCH   7   8
ATOM      8  C   UNL A   1      37.047  32.029  33.443  1.00  0.00     0.342 C 
ATOM      9  O   UNL A   1      37.013  30.805  33.491  1.00  0.00    -0.246 OA
BRANCH   8  10
ATOM     10  C   UNL A   1      36.064  32.788  32.704  1.00  0.00     0.111 A 
ATOM     11  C   UNL A   1      36.176  33.430  31.471  1.00  0.00     0.140 A 
ATOM     12  N   UNL A   1      34.859  33.606  31.113  1.00  0.00    -0.262 N 
ATOM     13  C   UNL A   1      34.731  33.003  33.111  1.00  0.00     0.151 A 
ATOM     14  N   UNL A   1      34.007  33.593  32.162  1.00  0.00    -0.180 NA
ATOM     15  C   UNL A   1      34.294  33.447  29.792  1.00  0.00     0.174 C 
BRANCH  11  16
ATOM     16  C   UNL A   1      37.297  33.468  30.572  1.00  0.00     0.270 C 
ATOM     17  N   UNL A   1      37.683  32.366  29.850  1.00  0.00    -0.348 N 
ATOM     18  H   UNL A   1      38.570  32.479  29.438  1.00  0.00     0.164 HD
ATOM     19  O   UNL A   1      37.974  34.488  30.464  1.00  0.00    -0.267 OA
BRANCH  17  20
ATOM     20  C   UNL A   1      37.080  31.047  29.544  1.00  0.00     0.085 C 
ATOM     21  C   UNL A   1      36.406  31.171  28.167  1.00  0.00     0.031 C 
BRANCH  20  22
ATOM     22  C   UNL A   1      38.121  29.846  29.602  1.00  0.00    -0.009 C 
ATOM     23  C   UNL A   1      38.140  28.915  28.343  1.00  0.00     0.012 C 
ATOM     24  C   UNL A   1      37.732  28.915  30.780  1.00  0.00     0.012 C 
ATOM     25  C   UNL A   1      39.578  30.360  29.782  1.00  0.00     0.012 C 
ATOM     26  C   UNL A   1      39.143  27.746  28.517  1.00  0.00    -0.010 C 
ATOM     27  C   UNL A   1      38.750  27.787  30.991  1.00  0.00    -0.010 C 
ATOM     28  C   UNL A   1      40.570  29.204  29.979  1.00  0.00    -0.010 C 
ATOM     29  C   UNL A   1      40.555  28.310  28.734  1.00  0.00     0.007 C 
ATOM     30  C   UNL A   1      38.759  26.901  29.740  1.00  0.00     0.007 C 
ATOM     31  C   UNL A   1      40.148  28.385  31.208  1.00  0.00     0.007 C 
ENDBRANCH  20  22
ENDBRANCH  17  20
ENDBRANCH  11  16
ENDBRANCH   8  10
ENDBRANCH   7   8
ENDBRANCH   6   7
ENDBRANCH   5   6
ENDBRANCH   4   5
ENDBRANCH   3   4
ENDBRANCH   2   3
ENDBRANCH   1   2
BRANCH   1  32
ATOM     32  C   UNL A   1      38.364  33.735  41.916  1.00  0.00     0.188 C 
BRANCH  32  33
ATOM     33  C   UNL A   1      39.758  33.079  41.972  1.00  0.00     0.188 C 
BRANCH  33  34
ATOM     34  O   UNL A   1      40.814  33.865  41.430  1.00  0.00    -0.376 OA
BRANCH  34  35
ATOM     35  C   UNL A   1      40.627  35.273  41.486  1.00  0.00     0.202 C 
BRANCH  35  36
ATOM     36  C   UNL A   1      41.831  36.079  40.986  1.00  0.00     0.261 C 
BRANCH  36  37
ATOM     37  O   UNL A   1      42.218  35.809  39.631  1.00  0.00    -0.460 OA
BRANCH  37  38
ATOM     38  C   UNL A   1      41.390  36.242  38.654  1.00  0.00     0.338 C 
ATOM     39  O   UNL A   1      40.548  37.119  38.733  1.00  0.00    -0.246 OA
BRANCH  38  40
ATOM     40  C   UNL A   1      41.797  35.584  37.400  1.00  0.00     0.060 A 
ATOM     41  C   UNL A   1      40.819  35.276  36.446  1.00  0.00     0.016 A 
ATOM     42  C   UNL A   1      43.140  35.274  37.174  1.00  0.00     0.016 A 
ATOM     43  C   UNL A   1      41.182  34.618  35.271  1.00  0.00     0.010 A 
ATOM     44  C   UNL A   1      43.498  34.602  36.007  1.00  0.00     0.010 A 
ATOM     45  C   UNL A   1      42.516  34.241  35.068  1.00  0.00    -0.014 A 
BRANCH  45  46
ATOM     46  C   UNL A   1      42.865  33.299  33.981  1.00  0.00     0.031 A 
ATOM     47  C   UNL A   1      43.022  33.850  32.590  1.00  0.00     0.074 A 
ATOM     48  C   UNL A   1      42.996  31.981  34.211  1.00  0.00     0.049 A 
ATOM     49  N   UNL A   1      43.287  33.223  31.476  1.00  0.00    -0.248 NA
ATOM     50  C   UNL A   1      42.847  35.306  32.435  1.00  0.00     0.031 C 
ATOM     51  C   UNL A   1      42.852  31.328  35.511  1.00  0.00     0.029 A 
ATOM     52  N   UNL A   1      43.251  30.950  33.340  1.00  0.00    -0.354 N 
ATOM     53  C   UNL A   1      43.282  34.198  30.486  1.00  0.00     0.074 A 
ATOM     54  C   UNL A   1      42.984  35.458  31.126  1.00  0.00     0.031 C 
ATOM     55  C   UNL A   1      42.991  30.000  35.348  1.00  0.00     0.029 A 
ATOM     56  C   UNL A   1      43.217  29.710  33.932  1.00  0.00     0.049 A 
ATOM     57  H   UNL A   1      43.439  31.087  32.384  1.00  0.00     0.167 HD
ATOM     58  C   UNL A   1      43.521  34.059  29.162  1.00  0.00     0.034 A 
ATOM     59  C   UNL A   1      43.340  28.483  33.385  1.00  0.00     0.034 A 
ATOM     60  C   UNL A   1      43.841  32.810  28.527  1.00  0.00     0.049 A 
ATOM     61  C   UNL A   1      43.592  28.359  31.904  1.00  0.00     0.074 A 
ATOM     62  C   UNL A   1      44.169  32.579  27.204  1.00  0.00     0.029 A 
ATOM     63  N   UNL A   1      43.855  31.582  29.167  1.00  0.00    -0.354 N 
ATOM     64  N   UNL A   1      43.747  29.304  31.007  1.00  0.00    -0.248 NA
ATOM     65  C   UNL A   1      43.719  26.996  31.363  1.00  0.00     0.031 C 
ATOM     66  C   UNL A   1      44.361  31.203  27.038  1.00  0.00     0.029 A 
ATOM     67  C   UNL A   1      44.170  30.583  28.263  1.00  0.00     0.049 A 
ATOM     68  H   UNL A   1      43.669  31.441  30.123  1.00  0.00     0.167 HD
ATOM     69  C   UNL A   1      44.029  28.653  29.810  1.00  0.00     0.074 A 
ATOM     70  C   UNL A   1      44.039  27.234  30.097  1.00  0.00     0.031 C 
ATOM     71  C   UNL A   1      44.243  29.181  28.578  1.00  0.00     0.034 A 
BRANCH  58  72
ATOM     72  C   UNL A   1      43.477  35.298  28.311  1.00  0.00     0.023 A 
ATOM     73  C   UNL A   1      42.247  35.733  27.781  1.00  0.00     0.012 A 
ATOM     74  C   UNL A   1      44.641  36.059  28.085  1.00  0.00     0.148 A 
ATOM     75  C   UNL A   1      42.178  36.896  27.018  1.00  0.00     0.002 A 
ATOM     76  C   UNL A   1      44.556  37.238  27.355  1.00  0.00     0.091 A 
ATOM     77  F   UNL A   1      45.804  35.609  28.575  1.00  0.00    -0.205 F 
ATOM     78  C   UNL A   1      43.328  37.654  26.815  1.00  0.00     0.022 A 
BRANCH  76  79
ATOM     79  S   UNL A   1      45.969  38.316  27.098  1.00  0.00     0.127 S 
ATOM     80  O   UNL A   1      45.415  39.316  26.186  1.00  0.00    -0.237 OA
ATOM     81  O   UNL A   1      46.235  38.806  28.451  1.00  0.00    -0.237 OA
ATOM     82  O   UNL A   1      47.020  37.475  26.541  1.00  0.00    -0.744 OA
ENDBRANCH  76  79
ENDBRANCH  58  72
BRANCH  59  83
ATOM     83  C   UNL A   1      43.272  27.267  34.244  1.00  0.00     0.023 A 
ATOM     84  C   UNL A   1      42.014  26.728  34.580  1.00  0.00     0.012 A 
ATOM     85  C   UNL A   1      44.437  26.648  34.736  1.00  0.00     0.148 A 
ATOM     86  C   UNL A   1      41.917  25.617  35.416  1.00  0.00     0.002 A 
ATOM     87  C   UNL A   1      44.335  25.511  35.530  1.00  0.00     0.091 A 
ATOM     88  F   UNL A   1      45.624  27.190  34.428  1.00  0.00    -0.205 F 
ATOM     89  C   UNL A   1      43.076  25.002  35.884  1.00  0.00     0.022 A 
BRANCH  87  90
ATOM     90  S   UNL A   1      45.780  24.598  36.080  1.00  0.00     0.127 S 
ATOM     91  O   UNL A   1      45.173  23.456  36.759  1.00  0.00    -0.237 OA
ATOM     92  O   UNL A   1      46.442  24.280  34.814  1.00  0.00    -0.237 OA
ATOM     93  O   UNL A   1      46.521  25.523  36.927  1.00  0.00    -0.744 OA
ENDBRANCH  87  90
ENDBRANCH  59  83
BRANCH  71  94
ATOM     94  C   UNL A   1      44.548  28.232  27.449  1.00  0.00     0.023 A 
ATOM     95  C   UNL A   1      43.492  27.695  26.685  1.00  0.00     0.012 A 
ATOM     96  C   UNL A   1      45.879  27.950  27.085  1.00  0.00     0.148 A 
ATOM     97  C   UNL A   1      43.759  26.869  25.593  1.00  0.00     0.002 A 
ATOM     98  C   UNL A   1      46.136  27.164  25.967  1.00  0.00     0.091 A 
ATOM     99  F   UNL A   1      46.869  28.456  27.835  1.00  0.00    -0.205 F 
ATOM    100  C   UNL A   1      45.078  26.615  25.227  1.00  0.00     0.022 A 
BRANCH  98 101
ATOM    101  S   UNL A   1      47.805  26.869  25.368  1.00  0.00     0.127 S 
ATOM    102  O   UNL A   1      47.563  25.973  24.239  1.00  0.00    -0.237 OA
ATOM    103  O   UNL A   1      48.248  28.213  24.996  1.00  0.00    -0.237 OA
ATOM    104  O   UNL A   1      48.532  26.286  26.489  1.00  0.00    -0.744 OA
ENDBRANCH  98 101
ENDBRANCH  71  94
ENDBRANCH  45  46
ENDBRANCH  38  40
ENDBRANCH  37  38
ENDBRANCH  36  37
ENDBRANCH  35  36
ENDBRANCH  34  35
ENDBRANCH  33  34
ENDBRANCH  32  33
ENDBRANCH   1  32
TORSDOF 26
ENDMDL
MODEL 2
REMARK VINA RESULT:      -7.4      3.543      8.792
REMARK SMILES C[C@H](NC(=O)c1c(C(=O)OCCOCCOCCOCCOC(=O)c2ccc(-c3c4nc(c(-c5cccc(S(=O)(=O)[O-])c5F)c5ccc([nH]5)c(-c5cccc(S(=O)(=O)[O-])c5F)c5nc(c(-c6cccc(S(=O)(=O)[O-])c6F)c6ccc3[nH]6)C=C5)C=C4)cc2)cnn1C)[C@]12C[C@H]3C[C@H](C[C@H](C3)C1)C2
REMARK SMILES IDX 16 1 15 2 14 3 13 4 12 5 11 6 10 7 8 8 9 9 7 10 6 11 90 12
REMARK SMILES IDX 88 13 89 14 91 15 4 16 3 17 5 19 2 20 1 21 92 22 93 23
REMARK SMILES IDX 100 24 101 25 94 26 98 27 96 28 95 29 99 30 97 31 17 32
REMARK SMILES IDX 18 33 19 34 20 35 21 36 22 37 23 38 24 39 25 40 26 41 87 42
REMARK SMILES IDX 27 43 86 44 28 45 29 46 30 47 80 48 31 49 85 50 79 51 81 52
REMARK SMILES IDX 32 53 84 54 78 55 77 56 33 58 65 59 45 60 64 61 46 62 49 63
REMARK SMILES IDX 63 64 82 65 47 66 48 67 62 69 83 70 50 71 34 72 35 73 43 74
REMARK SMILES IDX 36 75 38 76 44 77 37 78 39 79 40 80 41 81 42 82 66 83 67 84
REMARK SMILES IDX 75 85 68 86 70 87 76 88 69 89 71 90 72 91 73 92 74 93 51 94
REMARK SMILES IDX 52 95 60 96 53 97 55 98 61 99 54 100 56 101 57 102 58 103
REMARK SMILES IDX 59 104
REMARK H PARENT 3 18 81 57 49 68
REMARK Flexibility Score: inf
ROOT
ATOM      1  O   UNL A   1      33.625  33.993  32.542  1.00  0.00    -0.377 OA
ENDROOT
BRANCH   1   2
ATOM      2  C   UNL A   1      34.547  33.001  32.129  1.00  0.00     0.188 C 
BRANCH   2   3
ATOM      3  C   UNL A   1      35.803  32.724  32.976  1.00  0.00     0.188 C 
BRANCH   3   4
ATOM      4  O   UNL A   1      36.338  31.410  32.863  1.00  0.00    -0.376 OA
BRANCH   4   5
ATOM      5  C   UNL A   1      37.566  31.168  33.537  1.00  0.00     0.202 C 
BRANCH   5   6
ATOM      6  C   UNL A   1      38.188  29.801  33.223  1.00  0.00     0.261 C 
BRANCH   6   7
ATOM      7  O   UNL A   1      39.623  29.792  33.265  1.00  0.00    -0.460 OA
BRANCH   7   8
ATOM      8  C   UNL A   1      40.173  29.939  34.494  1.00  0.00     0.342 C 
ATOM      9  O   UNL A   1      39.628  29.620  35.544  1.00  0.00    -0.246 OA
BRANCH   8  10
ATOM     10  C   UNL A   1      41.553  30.364  34.452  1.00  0.00     0.111 A 
ATOM     11  C   UNL A   1      42.676  29.703  33.952  1.00  0.00     0.140 A 
ATOM     12  N   UNL A   1      43.581  30.730  33.814  1.00  0.00    -0.262 N 
ATOM     13  C   UNL A   1      42.035  31.607  34.914  1.00  0.00     0.151 A 
ATOM     14  N   UNL A   1      43.315  31.796  34.600  1.00  0.00    -0.180 NA
ATOM     15  C   UNL A   1      44.512  30.921  32.723  1.00  0.00     0.174 C 
BRANCH  11  16
ATOM     16  C   UNL A   1      42.751  28.429  33.291  1.00  0.00     0.270 C 
ATOM     17  N   UNL A   1      42.429  28.282  31.965  1.00  0.00    -0.348 N 
ATOM     18  H   UNL A   1      42.335  27.337  31.704  1.00  0.00     0.164 HD
ATOM     19  O   UNL A   1      43.066  27.420  33.918  1.00  0.00    -0.267 OA
BRANCH  17  20
ATOM     20  C   UNL A   1      42.188  29.208  30.832  1.00  0.00     0.085 C 
ATOM     21  C   UNL A   1      43.564  29.564  30.245  1.00  0.00     0.031 C 
BRANCH  20  22
ATOM     22  C   UNL A   1      41.195  28.623  29.737  1.00  0.00    -0.009 C 
ATOM     23  C   UNL A   1      40.816  29.611  28.582  1.00  0.00     0.012 C 
ATOM     24  C   UNL A   1      39.848  28.282  30.426  1.00  0.00     0.012 C 
ATOM     25  C   UNL A   1      41.783  27.358  29.048  1.00  0.00     0.012 C 
ATOM     26  C   UNL A   1      39.804  28.972  27.597  1.00  0.00    -0.010 C 
ATOM     27  C   UNL A   1      38.862  27.599  29.470  1.00  0.00    -0.010 C 
ATOM     28  C   UNL A   1      40.772  26.709  28.091  1.00  0.00    -0.010 C 
ATOM     29  C   UNL A   1      40.418  27.706  26.980  1.00  0.00     0.007 C 
ATOM     30  C   UNL A   1      38.520  28.582  28.343  1.00  0.00     0.007 C 
ATOM     31  C   UNL A   1      39.505  26.338  28.875  1.00  0.00     0.007 C 
ENDBRANCH  20  22
ENDBRANCH  17  20
ENDBRANCH  11  16
ENDBRANCH   8  10
ENDBRANCH   7   8
ENDBRANCH   6   7
ENDBRANCH   5   6
ENDBRANCH   4   5
ENDBRANCH   3   4
ENDBRANCH   2   3
ENDBRANCH   1   2
BRANCH   1  32
ATOM     32  C   UNL A   1      33.676  35.292  31.968  1.00  0.00     0.188 C 
BRANCH  32  33
ATOM     33  C   UNL A   1      32.877  35.615  30.689  1.00  0.00     0.188 C 
BRANCH  33  34
ATOM     34  O   UNL A   1      33.661  35.734  29.507  1.00  0.00    -0.376 OA
BRANCH  34  35
ATOM     35  C   UNL A   1      33.224  34.963  28.396  1.00  0.00     0.202 C 
BRANCH  35  36
ATOM     36  C   UNL A   1      34.090  33.730  28.116  1.00  0.00     0.261 C 
BRANCH  36  37
ATOM     37  O   UNL A   1      35.273  33.626  28.924  1.00  0.00    -0.460 OA
BRANCH  37  38
ATOM     38  C   UNL A   1      36.145  32.641  28.617  1.00  0.00     0.338 C 
ATOM     39  O   UNL A   1      35.969  31.709  27.853  1.00  0.00    -0.246 OA
BRANCH  38  40
ATOM     40  C   UNL A   1      37.437  32.979  29.240  1.00  0.00     0.060 A 
ATOM     41  C   UNL A   1      38.210  31.954  29.800  1.00  0.00     0.016 A 
ATOM     42  C   UNL A   1      37.877  34.304  29.267  1.00  0.00     0.016 A 
ATOM     43  C   UNL A   1      39.416  32.262  30.428  1.00  0.00     0.010 A 
ATOM     44  C   UNL A   1      39.076  34.611  29.909  1.00  0.00     0.010 A 
ATOM     45  C   UNL A   1      39.831  33.597  30.522  1.00  0.00    -0.014 A 
BRANCH  45  46
ATOM     46  C   UNL A   1      40.944  33.969  31.425  1.00  0.00     0.031 A 
ATOM     47  C   UNL A   1      42.345  33.914  30.881  1.00  0.00     0.074 A 
ATOM     48  C   UNL A   1      40.723  34.302  32.708  1.00  0.00     0.049 A 
ATOM     49  N   UNL A   1      43.478  34.157  31.484  1.00  0.00    -0.248 NA
ATOM     50  C   UNL A   1      42.487  33.525  29.465  1.00  0.00     0.031 C 
ATOM     51  C   UNL A   1      39.413  34.374  33.353  1.00  0.00     0.029 A 
ATOM     52  N   UNL A   1      41.611  34.613  33.709  1.00  0.00    -0.354 N 
ATOM     53  C   UNL A   1      44.466  33.923  30.535  1.00  0.00     0.074 A 
ATOM     54  C   UNL A   1      43.804  33.514  29.318  1.00  0.00     0.031 C 
ATOM     55  C   UNL A   1      39.585  34.680  34.652  1.00  0.00     0.029 A 
ATOM     56  C   UNL A   1      41.014  34.808  34.932  1.00  0.00     0.049 A 
ATOM     57  H   UNL A   1      42.581  34.689  33.563  1.00  0.00     0.167 HD
ATOM     58  C   UNL A   1      45.806  34.051  30.662  1.00  0.00     0.034 A 
ATOM     59  C   UNL A   1      41.567  35.047  36.138  1.00  0.00     0.034 A 
ATOM     60  C   UNL A   1      46.465  34.480  31.866  1.00  0.00     0.049 A 
ATOM     61  C   UNL A   1      43.065  35.172  36.252  1.00  0.00     0.074 A 
ATOM     62  C   UNL A   1      47.813  34.709  32.071  1.00  0.00     0.029 A 
ATOM     63  N   UNL A   1      45.825  34.724  33.069  1.00  0.00    -0.354 N 
ATOM     64  N   UNL A   1      43.975  35.109  35.310  1.00  0.00    -0.248 NA
ATOM     65  C   UNL A   1      43.611  35.435  37.593  1.00  0.00     0.031 C 
ATOM     66  C   UNL A   1      47.992  35.072  33.411  1.00  0.00     0.029 A 
ATOM     67  C   UNL A   1      46.752  35.087  34.030  1.00  0.00     0.049 A 
ATOM     68  H   UNL A   1      44.855  34.651  33.219  1.00  0.00     0.167 HD
ATOM     69  C   UNL A   1      45.192  35.363  35.936  1.00  0.00     0.074 A 
ATOM     70  C   UNL A   1      44.903  35.596  37.335  1.00  0.00     0.031 C 
ATOM     71  C   UNL A   1      46.441  35.383  35.404  1.00  0.00     0.034 A 
BRANCH  58  72
ATOM     72  C   UNL A   1      46.653  33.756  29.456  1.00  0.00     0.023 A 
ATOM     73  C   UNL A   1      47.155  32.454  29.262  1.00  0.00     0.012 A 
ATOM     74  C   UNL A   1      46.903  34.749  28.489  1.00  0.00     0.148 A 
ATOM     75  C   UNL A   1      47.914  32.149  28.133  1.00  0.00     0.002 A 
ATOM     76  C   UNL A   1      47.628  34.427  27.348  1.00  0.00     0.091 A 
ATOM     77  F   UNL A   1      46.440  35.987  28.709  1.00  0.00    -0.205 F 
ATOM     78  C   UNL A   1      48.140  33.131  27.173  1.00  0.00     0.022 A 
BRANCH  76  79
ATOM     79  S   UNL A   1      47.913  35.605  26.023  1.00  0.00     0.127 S 
ATOM     80  O   UNL A   1      48.216  34.718  24.901  1.00  0.00    -0.237 OA
ATOM     81  O   UNL A   1      46.621  36.286  25.930  1.00  0.00    -0.237 OA
ATOM     82  O   UNL A   1      49.012  36.450  26.468  1.00  0.00    -0.744 OA
ENDBRANCH  76  79
ENDBRANCH  58  72
BRANCH  59  83
ATOM     83  C   UNL A   1      40.702  35.230  37.338  1.00  0.00     0.023 A 
ATOM     84  C   UNL A   1      40.302  36.530  37.709  1.00  0.00     0.012 A 
ATOM     85  C   UNL A   1      40.281  34.135  38.117  1.00  0.00     0.148 A 
ATOM     86  C   UNL A   1      39.529  36.738  38.851  1.00  0.00     0.002 A 
ATOM     87  C   UNL A   1      39.469  34.345  39.226  1.00  0.00     0.091 A 
ATOM     88  F   UNL A   1      40.693  32.909  37.764  1.00  0.00    -0.205 F 
ATOM     89  C   UNL A   1      39.105  35.646  39.604  1.00  0.00     0.022 A 
BRANCH  87  90
ATOM     90  S   UNL A   1      38.791  32.985  40.183  1.00  0.00     0.127 S 
ATOM     91  O   UNL A   1      39.998  32.371  40.729  1.00  0.00    -0.237 OA
ATOM     92  O   UNL A   1      37.959  33.685  41.163  1.00  0.00    -0.237 OA
ATOM     93  O   UNL A   1      38.041  32.179  39.229  1.00  0.00    -0.744 OA
ENDBRANCH  87  90
ENDBRANCH  59  83
BRANCH  71  94
ATOM     94  C   UNL A   1      47.591  35.707  36.320  1.00  0.00     0.023 A 
ATOM     95  C   UNL A   1      47.988  37.048  36.493  1.00  0.00     0.012 A 
ATOM     96  C   UNL A   1      48.213  34.697  37.080  1.00  0.00     0.148 A 
ATOM     97  C   UNL A   1      49.007  37.374  37.389  1.00  0.00     0.002 A 
ATOM     98  C   UNL A   1      49.195  35.036  38.005  1.00  0.00     0.091 A 
ATOM     99  F   UNL A   1      47.834  33.425  36.888  1.00  0.00    -0.205 F 
ATOM    100  C   UNL A   1      49.600  36.372  38.153  1.00  0.00     0.022 A 
BRANCH  98 101
ATOM    101  S   UNL A   1      49.940  33.821  39.099  1.00  0.00     0.127 S 
ATOM    102  O   UNL A   1      51.008  34.596  39.725  1.00  0.00    -0.237 OA
ATOM    103  O   UNL A   1      48.831  33.479  39.991  1.00  0.00    -0.237 OA
ATOM    104  O   UNL A   1      50.377  32.728  38.239  1.00  0.00    -0.744 OA
ENDBRANCH  98 101
ENDBRANCH  71  94
ENDBRANCH  45  46
ENDBRANCH  38  40
ENDBRANCH  37  38
ENDBRANCH  36  37
ENDBRANCH  35  36
ENDBRANCH  34  35
ENDBRANCH  33  34
ENDBRANCH  32  33
ENDBRANCH   1  32
TORSDOF 26
ENDMDL
MODEL 3
REMARK VINA RESULT:      -7.0      3.702      8.893
REMARK SMILES C[C@H](NC(=O)c1c(C(=O)OCCOCCOCCOCCOC(=O)c2ccc(-c3c4nc(c(-c5cccc(S(=O)(=O)[O-])c5F)c5ccc([nH]5)c(-c5cccc(S(=O)(=O)[O-])c5F)c5nc(c(-c6cccc(S(=O)(=O)[O-])c6F)c6ccc3[nH]6)C=C5)C=C4)cc2)cnn1C)[C@]12C[C@H]3C[C@H](C[C@H](C3)C1)C2
REMARK SMILES IDX 16 1 15 2 14 3 13 4 12 5 11 6 10 7 8 8 9 9 7 10 6 11 90 12
REMARK SMILES IDX 88 13 89 14 91 15 4 16 3 17 5 19 2 20 1 21 92 22 93 23
REMARK SMILES IDX 100 24 101 25 94 26 98 27 96 28 95 29 99 30 97 31 17 32
REMARK SMILES IDX 18 33 19 34 20 35 21 36 22 37 23 38 24 39 25 40 26 41 87 42
REMARK SMILES IDX 27 43 86 44 28 45 29 46 30 47 80 48 31 49 85 50 79 51 81 52
REMARK SMILES IDX 32 53 84 54 78 55 77 56 33 58 65 59 45 60 64 61 46 62 49 63
REMARK SMILES IDX 63 64 82 65 47 66 48 67 62 69 83 70 50 71 34 72 35 73 43 74
REMARK SMILES IDX 36 75 38 76 44 77 37 78 39 79 40 80 41 81 42 82 66 83 67 84
REMARK SMILES IDX 75 85 68 86 70 87 76 88 69 89 71 90 72 91 73 92 74 93 51 94
REMARK SMILES IDX 52 95 60 96 53 97 55 98 61 99 54 100 56 101 57 102 58 103
REMARK SMILES IDX 59 104
REMARK H PARENT 3 18 81 57 49 68
REMARK Flexibility Score: inf
ROOT
ATOM      1  O   UNL A   1      34.076  34.494  33.108  1.00  0.00    -0.377 OA
ENDROOT
BRANCH   1   2
ATOM      2  C   UNL A   1      34.519  33.284  32.521  1.00  0.00     0.188 C 
BRANCH   2   3
ATOM      3  C   UNL A   1      35.970  32.814  32.740  1.00  0.00     0.188 C 
BRANCH   3   4
ATOM      4  O   UNL A   1      36.123  31.436  33.061  1.00  0.00    -0.376 OA
BRANCH   4   5
ATOM      5  C   UNL A   1      37.448  30.922  33.018  1.00  0.00     0.202 C 
BRANCH   5   6
ATOM      6  C   UNL A   1      38.164  30.938  34.375  1.00  0.00     0.261 C 
BRANCH   6   7
ATOM      7  O   UNL A   1      39.147  29.905  34.526  1.00  0.00    -0.460 OA
BRANCH   7   8
ATOM      8  C   UNL A   1      40.395  30.217  34.100  1.00  0.00     0.342 C 
ATOM      9  O   UNL A   1      40.908  31.325  34.201  1.00  0.00    -0.246 OA
BRANCH   8  10
ATOM     10  C   UNL A   1      41.149  29.068  33.654  1.00  0.00     0.111 A 
ATOM     11  C   UNL A   1      41.646  28.765  32.386  1.00  0.00     0.140 A 
ATOM     12  N   UNL A   1      42.590  27.804  32.666  1.00  0.00    -0.262 N 
ATOM     13  C   UNL A   1      41.565  28.001  34.477  1.00  0.00     0.151 A 
ATOM     14  N   UNL A   1      42.383  27.166  33.839  1.00  0.00    -0.180 NA
ATOM     15  C   UNL A   1      43.893  27.669  32.053  1.00  0.00     0.174 C 
BRANCH  11  16
ATOM     16  C   UNL A   1      41.581  29.546  31.182  1.00  0.00     0.270 C 
ATOM     17  N   UNL A   1      40.899  29.110  30.072  1.00  0.00    -0.348 N 
ATOM     18  H   UNL A   1      41.105  29.644  29.272  1.00  0.00     0.164 HD
ATOM     19  O   UNL A   1      42.181  30.615  31.099  1.00  0.00    -0.267 OA
BRANCH  17  20
ATOM     20  C   UNL A   1      39.927  28.025  29.796  1.00  0.00     0.085 C 
ATOM     21  C   UNL A   1      38.647  28.695  29.268  1.00  0.00     0.031 C 
BRANCH  20  22
ATOM     22  C   UNL A   1      40.483  26.915  28.803  1.00  0.00    -0.009 C 
ATOM     23  C   UNL A   1      41.929  26.400  29.118  1.00  0.00     0.012 C 
ATOM     24  C   UNL A   1      40.581  27.529  27.382  1.00  0.00     0.012 C 
ATOM     25  C   UNL A   1      39.571  25.655  28.783  1.00  0.00     0.012 C 
ATOM     26  C   UNL A   1      42.404  25.364  28.067  1.00  0.00    -0.010 C 
ATOM     27  C   UNL A   1      40.998  26.496  26.328  1.00  0.00    -0.010 C 
ATOM     28  C   UNL A   1      40.026  24.639  27.724  1.00  0.00    -0.010 C 
ATOM     29  C   UNL A   1      41.445  24.164  28.058  1.00  0.00     0.007 C 
ATOM     30  C   UNL A   1      42.408  25.999  26.668  1.00  0.00     0.007 C 
ATOM     31  C   UNL A   1      40.018  25.313  26.345  1.00  0.00     0.007 C 
ENDBRANCH  20  22
ENDBRANCH  17  20
ENDBRANCH  11  16
ENDBRANCH   8  10
ENDBRANCH   7   8
ENDBRANCH   6   7
ENDBRANCH   5   6
ENDBRANCH   4   5
ENDBRANCH   3   4
ENDBRANCH   2   3
ENDBRANCH   1   2
BRANCH   1  32
ATOM     32  C   UNL A   1      33.789  35.619  32.287  1.00  0.00     0.188 C 
BRANCH  32  33
ATOM     33  C   UNL A   1      32.886  35.473  31.047  1.00  0.00     0.188 C 
BRANCH  33  34
ATOM     34  O   UNL A   1      33.498  35.834  29.813  1.00  0.00    -0.376 OA
BRANCH  34  35
ATOM     35  C   UNL A   1      33.046  35.124  28.668  1.00  0.00     0.202 C 
BRANCH  35  36
ATOM     36  C   UNL A   1      33.933  33.933  28.286  1.00  0.00     0.261 C 
BRANCH  36  37
ATOM     37  O   UNL A   1      35.180  33.857  28.993  1.00  0.00    -0.460 OA
BRANCH  37  38
ATOM     38  C   UNL A   1      36.073  32.935  28.569  1.00  0.00     0.338 C 
ATOM     39  O   UNL A   1      35.912  32.090  27.707  1.00  0.00    -0.246 OA
BRANCH  38  40
ATOM     40  C   UNL A   1      37.364  33.237  29.214  1.00  0.00     0.060 A 
ATOM     41  C   UNL A   1      38.139  32.181  29.708  1.00  0.00     0.016 A 
ATOM     42  C   UNL A   1      37.800  34.559  29.327  1.00  0.00     0.016 A 
ATOM     43  C   UNL A   1      39.344  32.452  30.356  1.00  0.00     0.010 A 
ATOM     44  C   UNL A   1      38.997  34.828  29.989  1.00  0.00     0.010 A 
ATOM     45  C   UNL A   1      39.755  33.779  30.536  1.00  0.00    -0.014 A 
BRANCH  45  46
ATOM     46  C   UNL A   1      40.865  34.095  31.462  1.00  0.00     0.031 A 
ATOM     47  C   UNL A   1      42.270  34.039  30.928  1.00  0.00     0.074 A 
ATOM     48  C   UNL A   1      40.639  34.380  32.756  1.00  0.00     0.049 A 
ATOM     49  N   UNL A   1      43.401  34.238  31.549  1.00  0.00    -0.248 NA
ATOM     50  C   UNL A   1      42.418  33.705  29.499  1.00  0.00     0.031 C 
ATOM     51  C   UNL A   1      39.325  34.447  33.392  1.00  0.00     0.029 A 
ATOM     52  N   UNL A   1      41.523  34.635  33.776  1.00  0.00    -0.354 N 
ATOM     53  C   UNL A   1      44.394  34.026  30.600  1.00  0.00     0.074 A 
ATOM     54  C   UNL A   1      43.736  33.678  29.362  1.00  0.00     0.031 C 
ATOM     55  C   UNL A   1      39.490  34.697  34.705  1.00  0.00     0.029 A 
ATOM     56  C   UNL A   1      40.919  34.790  35.001  1.00  0.00     0.049 A 
ATOM     57  H   UNL A   1      42.495  34.700  33.641  1.00  0.00     0.167 HD
ATOM     58  C   UNL A   1      45.735  34.127  30.743  1.00  0.00     0.034 A 
ATOM     59  C   UNL A   1      41.464  34.971  36.221  1.00  0.00     0.034 A 
ATOM     60  C   UNL A   1      46.390  34.495  31.968  1.00  0.00     0.049 A 
ATOM     61  C   UNL A   1      42.964  35.067  36.351  1.00  0.00     0.074 A 
ATOM     62  C   UNL A   1      47.739  34.694  32.194  1.00  0.00     0.029 A 
ATOM     63  N   UNL A   1      45.743  34.702  33.175  1.00  0.00    -0.354 N 
ATOM     64  N   UNL A   1      43.881  35.026  35.415  1.00  0.00    -0.248 NA
ATOM     65  C   UNL A   1      43.502  35.266  37.706  1.00  0.00     0.031 C 
ATOM     66  C   UNL A   1      47.913  35.000  33.548  1.00  0.00     0.029 A 
ATOM     67  C   UNL A   1      46.668  35.010  34.157  1.00  0.00     0.049 A 
ATOM     68  H   UNL A   1      44.772  34.639  33.314  1.00  0.00     0.167 HD
ATOM     69  C   UNL A   1      45.096  35.234  36.060  1.00  0.00     0.074 A 
ATOM     70  C   UNL A   1      44.798  35.416  37.465  1.00  0.00     0.031 C 
ATOM     71  C   UNL A   1      46.349  35.255  35.540  1.00  0.00     0.034 A 
BRANCH  58  72
ATOM     72  C   UNL A   1      46.587  33.866  29.532  1.00  0.00     0.023 A 
ATOM     73  C   UNL A   1      46.869  34.921  28.642  1.00  0.00     0.012 A 
ATOM     74  C   UNL A   1      47.152  32.596  29.307  1.00  0.00     0.148 A 
ATOM     75  C   UNL A   1      47.684  34.709  27.531  1.00  0.00     0.002 A 
ATOM     76  C   UNL A   1      47.993  32.403  28.219  1.00  0.00     0.091 A 
ATOM     77  F   UNL A   1      46.845  31.601  30.152  1.00  0.00    -0.205 F 
ATOM     78  C   UNL A   1      48.254  33.456  27.327  1.00  0.00     0.022 A 
BRANCH  76  79
ATOM     79  S   UNL A   1      48.828  30.844  27.910  1.00  0.00     0.127 S 
ATOM     80  O   UNL A   1      49.254  31.008  26.520  1.00  0.00    -0.237 OA
ATOM     81  O   UNL A   1      49.916  30.876  28.888  1.00  0.00    -0.237 OA
ATOM     82  O   UNL A   1      47.836  29.804  28.142  1.00  0.00    -0.744 OA
ENDBRANCH  76  79
ENDBRANCH  58  72
BRANCH  59  83
ATOM     83  C   UNL A   1      40.592  35.121  37.420  1.00  0.00     0.023 A 
ATOM     84  C   UNL A   1      40.132  36.402  37.783  1.00  0.00     0.012 A 
ATOM     85  C   UNL A   1      40.224  34.011  38.205  1.00  0.00     0.148 A 
ATOM     86  C   UNL A   1      39.350  36.579  38.925  1.00  0.00     0.002 A 
ATOM     87  C   UNL A   1      39.403  34.188  39.313  1.00  0.00     0.091 A 
ATOM     88  F   UNL A   1      40.692  32.804  37.858  1.00  0.00    -0.205 F 
ATOM     89  C   UNL A   1      38.977  35.473  39.684  1.00  0.00     0.022 A 
BRANCH  87  90
ATOM     90  S   UNL A   1      38.789  32.804  40.278  1.00  0.00     0.127 S 
ATOM     91  O   UNL A   1      40.021  32.270  40.853  1.00  0.00    -0.237 OA
ATOM     92  O   UNL A   1      37.899  33.466  41.233  1.00  0.00    -0.237 OA
ATOM     93  O   UNL A   1      38.106  31.941  39.323  1.00  0.00    -0.744 OA
ENDBRANCH  87  90
ENDBRANCH  59  83
BRANCH  71  94
ATOM     94  C   UNL A   1      47.497  35.523  36.478  1.00  0.00     0.023 A 
ATOM     95  C   UNL A   1      47.900  36.850  36.726  1.00  0.00     0.012 A 
ATOM     96  C   UNL A   1      48.110  34.470  37.184  1.00  0.00     0.148 A 
ATOM     97  C   UNL A   1      48.916  37.122  37.643  1.00  0.00     0.002 A 
ATOM     98  C   UNL A   1      49.089  34.752  38.130  1.00  0.00     0.091 A 
ATOM     99  F   UNL A   1      47.725  33.212  36.921  1.00  0.00    -0.205 F 
ATOM    100  C   UNL A   1      49.499  36.076  38.353  1.00  0.00     0.022 A 
BRANCH  98 101
ATOM    101  S   UNL A   1      49.822  33.475  39.160  1.00  0.00     0.127 S 
ATOM    102  O   UNL A   1      50.684  34.260  40.042  1.00  0.00    -0.237 OA
ATOM    103  O   UNL A   1      48.652  32.888  39.814  1.00  0.00    -0.237 OA
ATOM    104  O   UNL A   1      50.512  32.575  38.245  1.00  0.00    -0.744 OA
ENDBRANCH  98 101
ENDBRANCH  71  94
ENDBRANCH  45  46
ENDBRANCH  38  40
ENDBRANCH  37  38
ENDBRANCH  36  37
ENDBRANCH  35  36
ENDBRANCH  34  35
ENDBRANCH  33  34
ENDBRANCH  32  33
ENDBRANCH   1  32
TORSDOF 26
ENDMDL
