MODEL 1
REMARK VINA RESULT:      -8.1      0.000      0.000
REMARK SMILES O=C(OCCOCCOCCOCCOC(=O)c1nnn(Cc2ccccc2Cl)c1-c1ccc(Cl)cc1)c1ccc(-c2c3nc(c(-c4cccc(S(=O)(=O)[O-])c4F)c4ccc([nH]4)c(-c4cccc(S(=O)(=O)[O-])c4F)c4nc(c(-c5cccc(S(=O)(=O)[O-])c5F)c5ccc2[nH]5)C=C4)C=C3)cc1
REMARK SMILES IDX 8 1 7 2 6 3 5 4 4 5 3 6 2 7 1 8 38 9 39 10 100 11 40 12
REMARK SMILES IDX 99 13 41 14 42 15 43 16 93 17 44 18 98 19 92 20 94 21 45 22
REMARK SMILES IDX 97 23 91 24 90 25 46 27 78 28 58 29 77 30 59 31 62 32 76 33
REMARK SMILES IDX 95 34 60 35 61 36 75 38 96 39 63 40 47 41 48 42 56 43 49 44
REMARK SMILES IDX 51 45 57 46 50 47 52 48 53 49 54 50 55 51 79 52 80 53 88 54
REMARK SMILES IDX 81 55 83 56 89 57 82 58 84 59 85 60 86 61 87 62 64 63 65 64
REMARK SMILES IDX 73 65 66 66 68 67 74 68 67 69 69 70 70 71 71 72 72 73 9 74
REMARK SMILES IDX 10 75 11 76 12 77 13 78 14 79 15 80 16 81 17 82 18 83 19 84
REMARK SMILES IDX 30 85 20 86 21 87 31 88 32 89 37 90 33 91 36 92 34 93 35 94
REMARK SMILES IDX 22 95 23 96 24 97 28 98 25 99 27 100 29 101 26 102
REMARK H PARENT 94 26 62 37
REMARK Flexibility Score: inf
ROOT
ATOM      1  C   UNL A   1      33.785  34.973  31.854  1.00  0.00     0.188 C 
ENDROOT
BRANCH   1   2
ATOM      2  C   UNL A   1      33.098  35.606  30.635  1.00  0.00     0.188 C 
BRANCH   2   3
ATOM      3  O   UNL A   1      33.902  35.974  29.534  1.00  0.00    -0.376 OA
BRANCH   3   4
ATOM      4  C   UNL A   1      34.048  35.301  28.300  1.00  0.00     0.202 C 
BRANCH   4   5
ATOM      5  C   UNL A   1      33.817  33.812  28.019  1.00  0.00     0.261 C 
BRANCH   5   6
ATOM      6  O   UNL A   1      34.647  32.866  28.676  1.00  0.00    -0.460 OA
BRANCH   6   7
ATOM      7  C   UNL A   1      35.163  31.707  28.223  1.00  0.00     0.338 C 
ATOM      8  O   UNL A   1      34.506  31.063  27.408  1.00  0.00    -0.246 OA
BRANCH   7   9
ATOM      9  C   UNL A   1      36.402  31.099  28.779  1.00  0.00     0.060 A 
ATOM     10  C   UNL A   1      37.607  31.765  29.017  1.00  0.00     0.016 A 
ATOM     11  C   UNL A   1      36.313  29.726  29.079  1.00  0.00     0.016 A 
ATOM     12  C   UNL A   1      38.725  31.062  29.425  1.00  0.00     0.010 A 
ATOM     13  C   UNL A   1      37.429  29.016  29.494  1.00  0.00     0.010 A 
ATOM     14  C   UNL A   1      38.645  29.684  29.583  1.00  0.00    -0.014 A 
BRANCH  14  15
ATOM     15  C   UNL A   1      39.911  28.984  29.687  1.00  0.00     0.031 A 
ATOM     16  C   UNL A   1      40.518  28.877  31.036  1.00  0.00     0.074 A 
ATOM     17  C   UNL A   1      40.503  28.504  28.577  1.00  0.00     0.049 A 
ATOM     18  N   UNL A   1      41.655  29.348  31.439  1.00  0.00    -0.248 NA
ATOM     19  C   UNL A   1      39.718  28.237  32.087  1.00  0.00     0.031 C 
ATOM     20  C   UNL A   1      39.911  28.342  27.243  1.00  0.00     0.029 A 
ATOM     21  N   UNL A   1      41.728  27.930  28.449  1.00  0.00    -0.354 N 
ATOM     22  C   UNL A   1      41.808  28.884  32.744  1.00  0.00     0.074 A 
ATOM     23  C   UNL A   1      40.540  28.322  33.133  1.00  0.00     0.031 C 
ATOM     24  C   UNL A   1      40.664  27.476  26.534  1.00  0.00     0.029 A 
ATOM     25  C   UNL A   1      41.848  27.152  27.308  1.00  0.00     0.049 A 
ATOM     26  H   UNL A   1      42.457  28.054  29.100  1.00  0.00     0.167 HD
ATOM     27  C   UNL A   1      43.021  28.812  33.357  1.00  0.00     0.034 A 
ATOM     28  C   UNL A   1      42.800  26.224  27.069  1.00  0.00     0.034 A 
ATOM     29  C   UNL A   1      44.012  29.637  32.726  1.00  0.00     0.049 A 
ATOM     30  C   UNL A   1      43.952  26.525  27.947  1.00  0.00     0.074 A 
ATOM     31  C   UNL A   1      44.158  30.990  32.502  1.00  0.00     0.029 A 
ATOM     32  N   UNL A   1      44.935  29.020  31.920  1.00  0.00    -0.354 N 
ATOM     33  N   UNL A   1      44.705  27.582  27.820  1.00  0.00    -0.248 NA
ATOM     34  C   UNL A   1      44.044  25.844  29.227  1.00  0.00     0.031 C 
ATOM     35  C   UNL A   1      44.828  31.088  31.248  1.00  0.00     0.029 A 
ATOM     36  C   UNL A   1      45.065  29.789  30.793  1.00  0.00     0.049 A 
ATOM     37  H   UNL A   1      45.414  28.183  32.115  1.00  0.00     0.167 HD
ATOM     38  C   UNL A   1      45.025  27.945  29.121  1.00  0.00     0.074 A 
ATOM     39  C   UNL A   1      44.703  26.770  29.928  1.00  0.00     0.031 C 
ATOM     40  C   UNL A   1      45.250  29.250  29.462  1.00  0.00     0.034 A 
BRANCH  27  41
ATOM     41  C   UNL A   1      43.384  27.764  34.377  1.00  0.00     0.023 A 
ATOM     42  C   UNL A   1      43.681  28.178  35.693  1.00  0.00     0.012 A 
ATOM     43  C   UNL A   1      43.677  26.423  34.042  1.00  0.00     0.148 A 
ATOM     44  C   UNL A   1      44.248  27.299  36.624  1.00  0.00     0.002 A 
ATOM     45  C   UNL A   1      44.156  25.532  34.994  1.00  0.00     0.091 A 
ATOM     46  F   UNL A   1      43.620  26.028  32.764  1.00  0.00    -0.205 F 
ATOM     47  C   UNL A   1      44.468  25.970  36.282  1.00  0.00     0.022 A 
BRANCH  45  48
ATOM     48  S   UNL A   1      44.370  23.792  34.604  1.00  0.00     0.127 S 
ATOM     49  O   UNL A   1      45.372  23.846  33.546  1.00  0.00    -0.237 OA
ATOM     50  O   UNL A   1      44.842  23.247  35.878  1.00  0.00    -0.237 OA
ATOM     51  O   UNL A   1      43.041  23.329  34.221  1.00  0.00    -0.744 OA
ENDBRANCH  45  48
ENDBRANCH  27  41
BRANCH  28  52
ATOM     52  C   UNL A   1      42.645  24.946  26.346  1.00  0.00     0.023 A 
ATOM     53  C   UNL A   1      43.583  24.582  25.365  1.00  0.00     0.012 A 
ATOM     54  C   UNL A   1      41.718  23.971  26.785  1.00  0.00     0.148 A 
ATOM     55  C   UNL A   1      43.608  23.283  24.846  1.00  0.00     0.002 A 
ATOM     56  C   UNL A   1      41.736  22.687  26.254  1.00  0.00     0.091 A 
ATOM     57  F   UNL A   1      40.881  24.275  27.786  1.00  0.00    -0.205 F 
ATOM     58  C   UNL A   1      42.687  22.335  25.291  1.00  0.00     0.022 A 
BRANCH  56  59
ATOM     59  S   UNL A   1      40.579  21.419  26.790  1.00  0.00     0.127 S 
ATOM     60  O   UNL A   1      39.311  21.918  26.259  1.00  0.00    -0.237 OA
ATOM     61  O   UNL A   1      41.100  20.232  26.117  1.00  0.00    -0.237 OA
ATOM     62  O   UNL A   1      40.651  21.407  28.246  1.00  0.00    -0.744 OA
ENDBRANCH  56  59
ENDBRANCH  28  52
BRANCH  40  63
ATOM     63  C   UNL A   1      45.376  30.263  28.345  1.00  0.00     0.023 A 
ATOM     64  C   UNL A   1      44.236  30.821  27.725  1.00  0.00     0.012 A 
ATOM     65  C   UNL A   1      46.638  30.802  28.042  1.00  0.00     0.148 A 
ATOM     66  C   UNL A   1      44.353  31.865  26.805  1.00  0.00     0.002 A 
ATOM     67  C   UNL A   1      46.747  31.873  27.161  1.00  0.00     0.091 A 
ATOM     68  F   UNL A   1      47.716  30.276  28.645  1.00  0.00    -0.205 F 
ATOM     69  C   UNL A   1      45.608  32.400  26.532  1.00  0.00     0.022 A 
BRANCH  67  70
ATOM     70  S   UNL A   1      48.315  32.701  26.872  1.00  0.00     0.127 S 
ATOM     71  O   UNL A   1      49.149  31.612  26.370  1.00  0.00    -0.237 OA
ATOM     72  O   UNL A   1      47.963  33.711  25.873  1.00  0.00    -0.237 OA
ATOM     73  O   UNL A   1      48.711  33.258  28.161  1.00  0.00    -0.744 OA
ENDBRANCH  67  70
ENDBRANCH  40  63
ENDBRANCH  14  15
ENDBRANCH   7   9
ENDBRANCH   6   7
ENDBRANCH   5   6
ENDBRANCH   4   5
ENDBRANCH   3   4
ENDBRANCH   2   3
ENDBRANCH   1   2
BRANCH   1  74
ATOM     74  O   UNL A   1      34.931  34.180  31.556  1.00  0.00    -0.377 OA
BRANCH  74  75
ATOM     75  C   UNL A   1      35.127  33.090  32.439  1.00  0.00     0.188 C 
BRANCH  75  76
ATOM     76  C   UNL A   1      36.599  32.755  32.783  1.00  0.00     0.188 C 
BRANCH  76  77
ATOM     77  O   UNL A   1      37.141  32.791  34.100  1.00  0.00    -0.376 OA
BRANCH  77  78
ATOM     78  C   UNL A   1      36.694  33.723  35.064  1.00  0.00     0.202 C 
BRANCH  78  79
ATOM     79  C   UNL A   1      36.860  33.331  36.535  1.00  0.00     0.261 C 
BRANCH  79  80
ATOM     80  O   UNL A   1      38.167  33.570  37.062  1.00  0.00    -0.458 OA
BRANCH  80  81
ATOM     81  C   UNL A   1      38.904  32.464  37.367  1.00  0.00     0.361 C 
ATOM     82  O   UNL A   1      38.506  31.306  37.315  1.00  0.00    -0.244 OA
BRANCH  81  83
ATOM     83  C   UNL A   1      40.256  32.829  37.746  1.00  0.00     0.198 A 
ATOM     84  N   UNL A   1      40.711  32.775  39.036  1.00  0.00    -0.122 NA
ATOM     85  C   UNL A   1      41.290  33.194  36.895  1.00  0.00     0.104 A 
ATOM     86  N   UNL A   1      42.008  33.029  39.020  1.00  0.00    -0.066 NA
ATOM     87  N   UNL A   1      42.354  33.346  37.754  1.00  0.00    -0.239 N 
BRANCH  85  88
ATOM     88  C   UNL A   1      41.224  33.414  35.458  1.00  0.00     0.002 A 
ATOM     89  C   UNL A   1      40.960  34.714  34.993  1.00  0.00     0.012 A 
ATOM     90  C   UNL A   1      41.244  32.356  34.545  1.00  0.00     0.012 A 
ATOM     91  C   UNL A   1      40.685  34.951  33.648  1.00  0.00     0.021 A 
ATOM     92  C   UNL A   1      40.986  32.597  33.190  1.00  0.00     0.021 A 
ATOM     93  C   UNL A   1      40.696  33.888  32.750  1.00  0.00     0.041 A 
ATOM     94  Cl  UNL A   1      40.322  34.173  31.096  1.00  0.00    -0.084 Cl
ENDBRANCH  85  88
BRANCH  87  95
ATOM     95  C   UNL A   1      43.686  33.876  37.511  1.00  0.00     0.183 C 
BRANCH  95  96
ATOM     96  C   UNL A   1      44.632  32.761  37.125  1.00  0.00    -0.008 A 
ATOM     97  C   UNL A   1      44.983  31.807  38.099  1.00  0.00     0.007 A 
ATOM     98  C   UNL A   1      45.091  32.573  35.809  1.00  0.00     0.046 A 
ATOM     99  C   UNL A   1      45.758  30.695  37.765  1.00  0.00     0.000 A 
ATOM    100  C   UNL A   1      45.859  31.451  35.478  1.00  0.00     0.021 A 
ATOM    101  Cl  UNL A   1      44.748  33.695  34.541  1.00  0.00    -0.084 Cl
ATOM    102  C   UNL A   1      46.188  30.512  36.455  1.00  0.00     0.002 A 
ENDBRANCH  95  96
ENDBRANCH  87  95
ENDBRANCH  81  83
ENDBRANCH  80  81
ENDBRANCH  79  80
ENDBRANCH  78  79
ENDBRANCH  77  78
ENDBRANCH  76  77
ENDBRANCH  75  76
ENDBRANCH  74  75
ENDBRANCH   1  74
TORSDOF 26
ENDMDL
MODEL 2
REMARK VINA RESULT:      -7.6      4.749     10.730
REMARK SMILES O=C(OCCOCCOCCOCCOC(=O)c1nnn(Cc2ccccc2Cl)c1-c1ccc(Cl)cc1)c1ccc(-c2c3nc(c(-c4cccc(S(=O)(=O)[O-])c4F)c4ccc([nH]4)c(-c4cccc(S(=O)(=O)[O-])c4F)c4nc(c(-c5cccc(S(=O)(=O)[O-])c5F)c5ccc2[nH]5)C=C4)C=C3)cc1
REMARK SMILES IDX 8 1 7 2 6 3 5 4 4 5 3 6 2 7 1 8 38 9 39 10 100 11 40 12
REMARK SMILES IDX 99 13 41 14 42 15 43 16 93 17 44 18 98 19 92 20 94 21 45 22
REMARK SMILES IDX 97 23 91 24 90 25 46 27 78 28 58 29 77 30 59 31 62 32 76 33
REMARK SMILES IDX 95 34 60 35 61 36 75 38 96 39 63 40 47 41 48 42 56 43 49 44
REMARK SMILES IDX 51 45 57 46 50 47 52 48 53 49 54 50 55 51 79 52 80 53 88 54
REMARK SMILES IDX 81 55 83 56 89 57 82 58 84 59 85 60 86 61 87 62 64 63 65 64
REMARK SMILES IDX 73 65 66 66 68 67 74 68 67 69 69 70 70 71 71 72 72 73 9 74
REMARK SMILES IDX 10 75 11 76 12 77 13 78 14 79 15 80 16 81 17 82 18 83 19 84
REMARK SMILES IDX 30 85 20 86 21 87 31 88 32 89 37 90 33 91 36 92 34 93 35 94
REMARK SMILES IDX 22 95 23 96 24 97 28 98 25 99 27 100 29 101 26 102
REMARK H PARENT 94 26 62 37
REMARK Flexibility Score: inf
ROOT
ATOM      1  C   UNL A   1      32.884  35.718  29.899  1.00  0.00     0.188 C 
ENDROOT
BRANCH   1   2
ATOM      2  C   UNL A   1      33.343  36.164  31.295  1.00  0.00     0.188 C 
BRANCH   2   3
ATOM      3  O   UNL A   1      33.761  35.172  32.208  1.00  0.00    -0.376 OA
BRANCH   3   4
ATOM      4  C   UNL A   1      34.690  34.129  31.995  1.00  0.00     0.202 C 
BRANCH   4   5
ATOM      5  C   UNL A   1      34.965  32.926  32.904  1.00  0.00     0.261 C 
BRANCH   5   6
ATOM      6  O   UNL A   1      36.268  32.362  32.899  1.00  0.00    -0.460 OA
BRANCH   6   7
ATOM      7  C   UNL A   1      36.735  31.272  32.260  1.00  0.00     0.338 C 
ATOM      8  O   UNL A   1      36.057  30.247  32.296  1.00  0.00    -0.246 OA
BRANCH   7   9
ATOM      9  C   UNL A   1      38.094  31.205  31.656  1.00  0.00     0.060 A 
ATOM     10  C   UNL A   1      38.437  31.607  30.363  1.00  0.00     0.016 A 
ATOM     11  C   UNL A   1      39.097  30.684  32.496  1.00  0.00     0.016 A 
ATOM     12  C   UNL A   1      39.711  31.384  29.877  1.00  0.00     0.010 A 
ATOM     13  C   UNL A   1      40.378  30.462  32.017  1.00  0.00     0.010 A 
ATOM     14  C   UNL A   1      40.646  30.742  30.681  1.00  0.00    -0.014 A 
BRANCH  14  15
ATOM     15  C   UNL A   1      41.832  30.253  30.006  1.00  0.00     0.031 A 
ATOM     16  C   UNL A   1      41.839  28.828  29.594  1.00  0.00     0.074 A 
ATOM     17  C   UNL A   1      42.882  31.076  29.819  1.00  0.00     0.049 A 
ATOM     18  N   UNL A   1      42.643  27.890  29.980  1.00  0.00    -0.248 NA
ATOM     19  C   UNL A   1      40.763  28.378  28.703  1.00  0.00     0.031 C 
ATOM     20  C   UNL A   1      42.915  32.536  29.967  1.00  0.00     0.029 A 
ATOM     21  N   UNL A   1      44.112  30.782  29.320  1.00  0.00    -0.354 N 
ATOM     22  C   UNL A   1      42.302  26.772  29.222  1.00  0.00     0.074 A 
ATOM     23  C   UNL A   1      41.065  27.089  28.554  1.00  0.00     0.031 C 
ATOM     24  C   UNL A   1      43.992  33.016  29.313  1.00  0.00     0.029 A 
ATOM     25  C   UNL A   1      44.784  31.895  28.840  1.00  0.00     0.049 A 
ATOM     26  H   UNL A   1      44.487  29.872  29.301  1.00  0.00     0.167 HD
ATOM     27  C   UNL A   1      43.154  25.728  29.033  1.00  0.00     0.034 A 
ATOM     28  C   UNL A   1      45.855  31.889  28.017  1.00  0.00     0.034 A 
ATOM     29  C   UNL A   1      44.208  25.689  30.007  1.00  0.00     0.049 A 
ATOM     30  C   UNL A   1      46.499  30.561  28.126  1.00  0.00     0.074 A 
ATOM     31  C   UNL A   1      44.267  25.543  31.377  1.00  0.00     0.029 A 
ATOM     32  N   UNL A   1      45.448  26.130  29.622  1.00  0.00    -0.354 N 
ATOM     33  N   UNL A   1      47.102  30.132  29.200  1.00  0.00    -0.248 NA
ATOM     34  C   UNL A   1      46.138  29.536  27.162  1.00  0.00     0.031 C 
ATOM     35  C   UNL A   1      45.375  26.340  31.787  1.00  0.00     0.029 A 
ATOM     36  C   UNL A   1      45.935  26.907  30.640  1.00  0.00     0.049 A 
ATOM     37  H   UNL A   1      45.903  25.926  28.773  1.00  0.00     0.167 HD
ATOM     38  C   UNL A   1      46.811  28.775  29.248  1.00  0.00     0.074 A 
ATOM     39  C   UNL A   1      46.333  28.446  27.908  1.00  0.00     0.031 C 
ATOM     40  C   UNL A   1      46.715  28.110  30.439  1.00  0.00     0.034 A 
BRANCH  27  41
ATOM     41  C   UNL A   1      43.191  24.892  27.780  1.00  0.00     0.023 A 
ATOM     42  C   UNL A   1      43.630  25.492  26.581  1.00  0.00     0.012 A 
ATOM     43  C   UNL A   1      42.591  23.617  27.680  1.00  0.00     0.148 A 
ATOM     44  C   UNL A   1      43.471  24.855  25.344  1.00  0.00     0.002 A 
ATOM     45  C   UNL A   1      42.515  22.951  26.463  1.00  0.00     0.091 A 
ATOM     46  F   UNL A   1      41.964  23.090  28.739  1.00  0.00    -0.205 F 
ATOM     47  C   UNL A   1      42.932  23.575  25.286  1.00  0.00     0.022 A 
BRANCH  45  48
ATOM     48  S   UNL A   1      41.902  21.266  26.370  1.00  0.00     0.127 S 
ATOM     49  O   UNL A   1      42.709  20.716  25.286  1.00  0.00    -0.237 OA
ATOM     50  O   UNL A   1      42.218  20.750  27.702  1.00  0.00    -0.237 OA
ATOM     51  O   UNL A   1      40.473  21.402  26.114  1.00  0.00    -0.744 OA
ENDBRANCH  45  48
ENDBRANCH  27  41
BRANCH  28  52
ATOM     52  C   UNL A   1      46.169  32.855  26.946  1.00  0.00     0.023 A 
ATOM     53  C   UNL A   1      45.131  33.399  26.170  1.00  0.00     0.012 A 
ATOM     54  C   UNL A   1      47.459  33.428  26.841  1.00  0.00     0.148 A 
ATOM     55  C   UNL A   1      45.365  34.490  25.326  1.00  0.00     0.002 A 
ATOM     56  C   UNL A   1      47.690  34.501  25.989  1.00  0.00     0.091 A 
ATOM     57  F   UNL A   1      48.435  32.982  27.643  1.00  0.00    -0.205 F 
ATOM     58  C   UNL A   1      46.642  35.043  25.237  1.00  0.00     0.022 A 
BRANCH  56  59
ATOM     59  S   UNL A   1      49.312  35.262  25.832  1.00  0.00     0.127 S 
ATOM     60  O   UNL A   1      49.767  35.296  27.222  1.00  0.00    -0.237 OA
ATOM     61  O   UNL A   1      50.013  34.305  24.981  1.00  0.00    -0.237 OA
ATOM     62  O   UNL A   1      49.077  36.578  25.250  1.00  0.00    -0.744 OA
ENDBRANCH  56  59
ENDBRANCH  28  52
BRANCH  40  63
ATOM     63  C   UNL A   1      47.164  28.829  31.692  1.00  0.00     0.023 A 
ATOM     64  C   UNL A   1      48.515  28.824  32.100  1.00  0.00     0.012 A 
ATOM     65  C   UNL A   1      46.261  29.672  32.364  1.00  0.00     0.148 A 
ATOM     66  C   UNL A   1      48.951  29.612  33.168  1.00  0.00     0.002 A 
ATOM     67  C   UNL A   1      46.708  30.491  33.397  1.00  0.00     0.091 A 
ATOM     68  F   UNL A   1      44.981  29.682  31.962  1.00  0.00    -0.205 F 
ATOM     69  C   UNL A   1      48.049  30.456  33.808  1.00  0.00     0.022 A 
BRANCH  67  70
ATOM     70  S   UNL A   1      45.631  31.703  34.170  1.00  0.00     0.127 S 
ATOM     71  O   UNL A   1      45.669  32.805  33.211  1.00  0.00    -0.237 OA
ATOM     72  O   UNL A   1      44.351  30.995  34.237  1.00  0.00    -0.237 OA
ATOM     73  O   UNL A   1      46.220  31.980  35.475  1.00  0.00    -0.744 OA
ENDBRANCH  67  70
ENDBRANCH  40  63
ENDBRANCH  14  15
ENDBRANCH   7   9
ENDBRANCH   6   7
ENDBRANCH   5   6
ENDBRANCH   4   5
ENDBRANCH   3   4
ENDBRANCH   2   3
ENDBRANCH   1   2
BRANCH   1  74
ATOM     74  O   UNL A   1      33.683  36.196  28.821  1.00  0.00    -0.377 OA
BRANCH  74  75
ATOM     75  C   UNL A   1      34.564  35.228  28.278  1.00  0.00     0.188 C 
BRANCH  75  76
ATOM     76  C   UNL A   1      33.929  33.861  27.924  1.00  0.00     0.188 C 
BRANCH  76  77
ATOM     77  O   UNL A   1      34.676  32.676  27.659  1.00  0.00    -0.376 OA
BRANCH  77  78
ATOM     78  C   UNL A   1      34.156  31.392  27.939  1.00  0.00     0.202 C 
BRANCH  78  79
ATOM     79  C   UNL A   1      35.107  30.205  27.751  1.00  0.00     0.261 C 
BRANCH  79  80
ATOM     80  O   UNL A   1      34.621  29.199  26.859  1.00  0.00    -0.458 OA
BRANCH  80  81
ATOM     81  C   UNL A   1      33.356  28.749  27.094  1.00  0.00     0.361 C 
ATOM     82  O   UNL A   1      32.904  28.430  28.187  1.00  0.00    -0.244 OA
BRANCH  81  83
ATOM     83  C   UNL A   1      32.582  28.713  25.867  1.00  0.00     0.198 A 
ATOM     84  N   UNL A   1      32.083  29.837  25.265  1.00  0.00    -0.122 NA
ATOM     85  C   UNL A   1      32.304  27.598  25.089  1.00  0.00     0.104 A 
ATOM     86  N   UNL A   1      31.559  29.478  24.106  1.00  0.00    -0.066 NA
ATOM     87  N   UNL A   1      31.625  28.133  24.018  1.00  0.00    -0.239 N 
BRANCH  85  88
ATOM     88  C   UNL A   1      32.612  26.207  25.385  1.00  0.00     0.002 A 
ATOM     89  C   UNL A   1      31.660  25.446  26.085  1.00  0.00     0.012 A 
ATOM     90  C   UNL A   1      33.878  25.663  25.151  1.00  0.00     0.012 A 
ATOM     91  C   UNL A   1      31.974  24.179  26.573  1.00  0.00     0.021 A 
ATOM     92  C   UNL A   1      34.189  24.383  25.626  1.00  0.00     0.021 A 
ATOM     93  C   UNL A   1      33.241  23.653  26.344  1.00  0.00     0.041 A 
ATOM     94  Cl  UNL A   1      33.642  22.105  26.977  1.00  0.00    -0.084 Cl
ENDBRANCH  85  88
BRANCH  87  95
ATOM     95  C   UNL A   1      30.920  27.472  22.932  1.00  0.00     0.183 C 
BRANCH  95  96
ATOM     96  C   UNL A   1      29.428  27.667  23.079  1.00  0.00    -0.008 A 
ATOM     97  C   UNL A   1      28.687  26.697  23.781  1.00  0.00     0.007 A 
ATOM     98  C   UNL A   1      28.763  28.827  22.640  1.00  0.00     0.046 A 
ATOM     99  C   UNL A   1      27.330  26.886  24.046  1.00  0.00     0.000 A 
ATOM    100  C   UNL A   1      27.406  29.016  22.918  1.00  0.00     0.021 A 
ATOM    101  Cl  UNL A   1      29.565  30.067  21.744  1.00  0.00    -0.084 Cl
ATOM    102  C   UNL A   1      26.691  28.048  23.623  1.00  0.00     0.002 A 
ENDBRANCH  95  96
ENDBRANCH  87  95
ENDBRANCH  81  83
ENDBRANCH  80  81
ENDBRANCH  79  80
ENDBRANCH  78  79
ENDBRANCH  77  78
ENDBRANCH  76  77
ENDBRANCH  75  76
ENDBRANCH  74  75
ENDBRANCH   1  74
TORSDOF 26
ENDMDL
MODEL 3
REMARK VINA RESULT:      -6.9      4.793      9.339
REMARK SMILES O=C(OCCOCCOCCOCCOC(=O)c1nnn(Cc2ccccc2Cl)c1-c1ccc(Cl)cc1)c1ccc(-c2c3nc(c(-c4cccc(S(=O)(=O)[O-])c4F)c4ccc([nH]4)c(-c4cccc(S(=O)(=O)[O-])c4F)c4nc(c(-c5cccc(S(=O)(=O)[O-])c5F)c5ccc2[nH]5)C=C4)C=C3)cc1
REMARK SMILES IDX 8 1 7 2 6 3 5 4 4 5 3 6 2 7 1 8 38 9 39 10 100 11 40 12
REMARK SMILES IDX 99 13 41 14 42 15 43 16 93 17 44 18 98 19 92 20 94 21 45 22
REMARK SMILES IDX 97 23 91 24 90 25 46 27 78 28 58 29 77 30 59 31 62 32 76 33
REMARK SMILES IDX 95 34 60 35 61 36 75 38 96 39 63 40 47 41 48 42 56 43 49 44
REMARK SMILES IDX 51 45 57 46 50 47 52 48 53 49 54 50 55 51 79 52 80 53 88 54
REMARK SMILES IDX 81 55 83 56 89 57 82 58 84 59 85 60 86 61 87 62 64 63 65 64
REMARK SMILES IDX 73 65 66 66 68 67 74 68 67 69 69 70 70 71 71 72 72 73 9 74
REMARK SMILES IDX 10 75 11 76 12 77 13 78 14 79 15 80 16 81 17 82 18 83 19 84
REMARK SMILES IDX 30 85 20 86 21 87 31 88 32 89 37 90 33 91 36 92 34 93 35 94
REMARK SMILES IDX 22 95 23 96 24 97 28 98 25 99 27 100 29 101 26 102
REMARK H PARENT 94 26 62 37
REMARK Flexibility Score: inf
ROOT
ATOM      1  C   UNL A   1      32.935  36.089  29.299  1.00  0.00     0.188 C 
ENDROOT
BRANCH   1   2
ATOM      2  C   UNL A   1      33.172  36.857  30.608  1.00  0.00     0.188 C 
BRANCH   2   3
ATOM      3  O   UNL A   1      33.289  36.115  31.804  1.00  0.00    -0.376 OA
BRANCH   3   4
ATOM      4  C   UNL A   1      33.932  34.872  31.997  1.00  0.00     0.202 C 
BRANCH   4   5
ATOM      5  C   UNL A   1      34.334  34.229  33.329  1.00  0.00     0.261 C 
BRANCH   5   6
ATOM      6  O   UNL A   1      35.682  34.351  33.756  1.00  0.00    -0.460 OA
BRANCH   6   7
ATOM      7  C   UNL A   1      36.352  33.676  34.710  1.00  0.00     0.338 C 
ATOM      8  O   UNL A   1      35.875  33.655  35.843  1.00  0.00    -0.246 OA
BRANCH   7   9
ATOM      9  C   UNL A   1      37.706  33.097  34.496  1.00  0.00     0.060 A 
ATOM     10  C   UNL A   1      38.818  33.776  33.994  1.00  0.00     0.016 A 
ATOM     11  C   UNL A   1      37.837  31.738  34.841  1.00  0.00     0.016 A 
ATOM     12  C   UNL A   1      39.991  33.096  33.728  1.00  0.00     0.010 A 
ATOM     13  C   UNL A   1      39.013  31.051  34.583  1.00  0.00     0.010 A 
ATOM     14  C   UNL A   1      40.051  31.725  33.951  1.00  0.00    -0.014 A 
BRANCH  14  15
ATOM     15  C   UNL A   1      41.177  31.035  33.351  1.00  0.00     0.031 A 
ATOM     16  C   UNL A   1      42.143  30.386  34.271  1.00  0.00     0.074 A 
ATOM     17  C   UNL A   1      41.329  31.042  32.013  1.00  0.00     0.049 A 
ATOM     18  N   UNL A   1      43.403  30.645  34.416  1.00  0.00    -0.248 NA
ATOM     19  C   UNL A   1      41.618  29.380  35.202  1.00  0.00     0.031 C 
ATOM     20  C   UNL A   1      40.343  31.438  31.000  1.00  0.00     0.029 A 
ATOM     21  N   UNL A   1      42.363  30.561  31.275  1.00  0.00    -0.354 N 
ATOM     22  C   UNL A   1      43.878  29.692  35.314  1.00  0.00     0.074 A 
ATOM     23  C   UNL A   1      42.722  29.029  35.861  1.00  0.00     0.031 C 
ATOM     24  C   UNL A   1      40.714  30.929  29.808  1.00  0.00     0.029 A 
ATOM     25  C   UNL A   1      42.020  30.311  29.956  1.00  0.00     0.049 A 
ATOM     26  H   UNL A   1      43.265  30.405  31.639  1.00  0.00     0.167 HD
ATOM     27  C   UNL A   1      45.197  29.370  35.409  1.00  0.00     0.034 A 
ATOM     28  C   UNL A   1      42.712  29.552  29.079  1.00  0.00     0.034 A 
ATOM     29  C   UNL A   1      46.055  30.372  34.846  1.00  0.00     0.049 A 
ATOM     30  C   UNL A   1      44.107  29.464  29.563  1.00  0.00     0.074 A 
ATOM     31  C   UNL A   1      46.317  31.699  35.118  1.00  0.00     0.029 A 
ATOM     32  N   UNL A   1      46.593  30.129  33.608  1.00  0.00    -0.354 N 
ATOM     33  N   UNL A   1      44.927  30.477  29.603  1.00  0.00    -0.248 NA
ATOM     34  C   UNL A   1      44.486  28.323  30.378  1.00  0.00     0.031 C 
ATOM     35  C   UNL A   1      46.581  32.293  33.849  1.00  0.00     0.029 A 
ATOM     36  C   UNL A   1      46.482  31.287  32.884  1.00  0.00     0.049 A 
ATOM     37  H   UNL A   1      46.985  29.281  33.298  1.00  0.00     0.167 HD
ATOM     38  C   UNL A   1      45.676  30.279  30.756  1.00  0.00     0.074 A 
ATOM     39  C   UNL A   1      45.451  28.880  31.113  1.00  0.00     0.031 C 
ATOM     40  C   UNL A   1      46.176  31.333  31.469  1.00  0.00     0.034 A 
BRANCH  27  41
ATOM     41  C   UNL A   1      45.700  27.996  35.769  1.00  0.00     0.023 A 
ATOM     42  C   UNL A   1      46.585  27.866  36.861  1.00  0.00     0.012 A 
ATOM     43  C   UNL A   1      45.532  26.864  34.939  1.00  0.00     0.148 A 
ATOM     44  C   UNL A   1      47.271  26.671  37.107  1.00  0.00     0.002 A 
ATOM     45  C   UNL A   1      46.146  25.655  35.238  1.00  0.00     0.091 A 
ATOM     46  F   UNL A   1      44.881  26.984  33.775  1.00  0.00    -0.205 F 
ATOM     47  C   UNL A   1      47.037  25.557  36.308  1.00  0.00     0.022 A 
BRANCH  45  48
ATOM     48  S   UNL A   1      45.798  24.181  34.274  1.00  0.00     0.127 S 
ATOM     49  O   UNL A   1      46.248  24.582  32.946  1.00  0.00    -0.237 OA
ATOM     50  O   UNL A   1      46.634  23.177  34.935  1.00  0.00    -0.237 OA
ATOM     51  O   UNL A   1      44.367  23.956  34.437  1.00  0.00    -0.744 OA
ENDBRANCH  45  48
ENDBRANCH  27  41
BRANCH  28  52
ATOM     52  C   UNL A   1      42.166  28.678  28.021  1.00  0.00     0.023 A 
ATOM     53  C   UNL A   1      42.492  28.922  26.677  1.00  0.00     0.012 A 
ATOM     54  C   UNL A   1      41.523  27.461  28.347  1.00  0.00     0.148 A 
ATOM     55  C   UNL A   1      42.201  27.977  25.686  1.00  0.00     0.002 A 
ATOM     56  C   UNL A   1      41.220  26.533  27.358  1.00  0.00     0.091 A 
ATOM     57  F   UNL A   1      41.291  27.172  29.635  1.00  0.00    -0.205 F 
ATOM     58  C   UNL A   1      41.568  26.782  26.027  1.00  0.00     0.022 A 
BRANCH  56  59
ATOM     59  S   UNL A   1      40.410  24.971  27.732  1.00  0.00     0.127 S 
ATOM     60  O   UNL A   1      39.237  25.410  28.487  1.00  0.00    -0.237 OA
ATOM     61  O   UNL A   1      40.121  24.454  26.398  1.00  0.00    -0.237 OA
ATOM     62  O   UNL A   1      41.371  24.205  28.517  1.00  0.00    -0.744 OA
ENDBRANCH  56  59
ENDBRANCH  28  52
BRANCH  40  63
ATOM     63  C   UNL A   1      46.099  32.710  30.849  1.00  0.00     0.023 A 
ATOM     64  C   UNL A   1      47.087  33.170  29.952  1.00  0.00     0.012 A 
ATOM     65  C   UNL A   1      44.933  33.479  31.019  1.00  0.00     0.148 A 
ATOM     66  C   UNL A   1      46.934  34.377  29.266  1.00  0.00     0.002 A 
ATOM     67  C   UNL A   1      44.763  34.657  30.298  1.00  0.00     0.091 A 
ATOM     68  F   UNL A   1      43.992  33.029  31.863  1.00  0.00    -0.205 F 
ATOM     69  C   UNL A   1      45.766  35.115  29.429  1.00  0.00     0.022 A 
BRANCH  67  70
ATOM     70  S   UNL A   1      43.224  35.582  30.354  1.00  0.00     0.127 S 
ATOM     71  O   UNL A   1      43.025  35.760  31.791  1.00  0.00    -0.237 OA
ATOM     72  O   UNL A   1      43.562  36.807  29.627  1.00  0.00    -0.237 OA
ATOM     73  O   UNL A   1      42.237  34.748  29.678  1.00  0.00    -0.744 OA
ENDBRANCH  67  70
ENDBRANCH  40  63
ENDBRANCH  14  15
ENDBRANCH   7   9
ENDBRANCH   6   7
ENDBRANCH   5   6
ENDBRANCH   4   5
ENDBRANCH   3   4
ENDBRANCH   2   3
ENDBRANCH   1   2
BRANCH   1  74
ATOM     74  O   UNL A   1      34.004  36.154  28.360  1.00  0.00    -0.377 OA
BRANCH  74  75
ATOM     75  C   UNL A   1      34.871  35.034  28.390  1.00  0.00     0.188 C 
BRANCH  75  76
ATOM     76  C   UNL A   1      34.227  33.672  28.033  1.00  0.00     0.188 C 
BRANCH  76  77
ATOM     77  O   UNL A   1      34.958  32.533  27.588  1.00  0.00    -0.376 OA
BRANCH  77  78
ATOM     78  C   UNL A   1      34.785  31.261  28.179  1.00  0.00     0.202 C 
BRANCH  78  79
ATOM     79  C   UNL A   1      35.643  30.119  27.625  1.00  0.00     0.261 C 
BRANCH  79  80
ATOM     80  O   UNL A   1      35.002  29.343  26.610  1.00  0.00    -0.458 OA
BRANCH  80  81
ATOM     81  C   UNL A   1      33.778  28.833  26.925  1.00  0.00     0.361 C 
ATOM     82  O   UNL A   1      33.462  28.358  28.010  1.00  0.00    -0.244 OA
BRANCH  81  83
ATOM     83  C   UNL A   1      32.865  28.943  25.804  1.00  0.00     0.198 A 
ATOM     84  N   UNL A   1      32.169  30.087  25.516  1.00  0.00    -0.122 NA
ATOM     85  C   UNL A   1      32.619  27.984  24.831  1.00  0.00     0.104 A 
ATOM     86  N   UNL A   1      31.547  29.905  24.364  1.00  0.00    -0.066 NA
ATOM     87  N   UNL A   1      31.755  28.628  23.977  1.00  0.00    -0.239 N 
BRANCH  85  88
ATOM     88  C   UNL A   1      33.119  26.618  24.782  1.00  0.00     0.002 A 
ATOM     89  C   UNL A   1      33.770  26.186  23.614  1.00  0.00     0.012 A 
ATOM     90  C   UNL A   1      32.823  25.685  25.780  1.00  0.00     0.012 A 
ATOM     91  C   UNL A   1      34.089  24.843  23.427  1.00  0.00     0.021 A 
ATOM     92  C   UNL A   1      33.160  24.338  25.601  1.00  0.00     0.021 A 
ATOM     93  C   UNL A   1      33.779  23.922  24.422  1.00  0.00     0.041 A 
ATOM     94  Cl  UNL A   1      34.140  22.258  24.178  1.00  0.00    -0.084 Cl
ENDBRANCH  85  88
BRANCH  87  95
ATOM     95  C   UNL A   1      30.997  28.114  22.847  1.00  0.00     0.183 C 
BRANCH  95  96
ATOM     96  C   UNL A   1      29.519  28.105  23.166  1.00  0.00    -0.008 A 
ATOM     97  C   UNL A   1      28.747  29.229  22.815  1.00  0.00     0.007 A 
ATOM     98  C   UNL A   1      28.862  26.982  23.699  1.00  0.00     0.046 A 
ATOM     99  C   UNL A   1      27.361  29.225  22.980  1.00  0.00     0.000 A 
ATOM    100  C   UNL A   1      27.471  26.980  23.853  1.00  0.00     0.021 A 
ATOM    101  Cl  UNL A   1      29.712  25.562  24.193  1.00  0.00    -0.084 Cl
ATOM    102  C   UNL A   1      26.722  28.099  23.491  1.00  0.00     0.002 A 
ENDBRANCH  95  96
ENDBRANCH  87  95
ENDBRANCH  81  83
ENDBRANCH  80  81
ENDBRANCH  79  80
ENDBRANCH  78  79
ENDBRANCH  77  78
ENDBRANCH  76  77
ENDBRANCH  75  76
ENDBRANCH  74  75
ENDBRANCH   1  74
TORSDOF 26
ENDMDL
