MODEL 1
REMARK VINA RESULT:      -9.3      0.000      0.000
REMARK SMILES CC(C)(C)OC(=O)N[C@H](Cc1ccc(N=[N+]=[N-])cc1)C(=O)OCCOCCOCCOCCOC(=O)c1ccc(-c2c3nc(c(-c4cccc(S(=O)(=O)[O-])c4F)c4ccc([nH]4)c(-c4cccc(S(=O)(=O)[O-])c4F)c4nc(c(-c5cccc(S(=O)(=O)[O-])c5F)c5ccc2[nH]5)C=C4)C=C3)cc1
REMARK SMILES IDX 28 1 27 2 26 3 25 4 24 5 23 6 22 7 20 8 21 9 9 10 8 11 6 12
REMARK SMILES IDX 7 13 5 15 2 16 1 17 3 18 4 19 10 20 11 21 12 22 19 23 13 24
REMARK SMILES IDX 18 25 14 26 15 27 16 28 17 29 29 30 30 31 31 32 32 33 33 34
REMARK SMILES IDX 34 35 35 36 36 37 37 38 38 39 99 40 39 41 98 42 40 43 41 44
REMARK SMILES IDX 42 45 92 46 43 47 97 48 91 49 93 50 44 51 96 52 90 53 89 54
REMARK SMILES IDX 45 56 77 57 57 58 76 59 58 60 61 61 75 62 94 63 59 64 60 65
REMARK SMILES IDX 74 67 95 68 62 69 46 70 47 71 55 72 48 73 50 74 56 75 49 76
REMARK SMILES IDX 51 77 52 78 53 79 54 80 78 81 79 82 87 83 80 84 82 85 88 86
REMARK SMILES IDX 81 87 83 88 84 89 85 90 86 91 63 92 64 93 72 94 65 95 67 96
REMARK SMILES IDX 73 97 66 98 68 99 69 100 70 101 71 102
REMARK H PARENT 8 14 93 55 61 66
REMARK Flexibility Score: inf
ROOT
ATOM      1  O   UNL A   1      37.186  21.649  24.263  1.00  0.00    -0.377 OA
ENDROOT
BRANCH   1   2
ATOM      2  C   UNL A   1      35.833  21.909  24.566  1.00  0.00     0.188 C 
BRANCH   2   3
ATOM      3  C   UNL A   1      34.974  20.693  24.930  1.00  0.00     0.188 C 
BRANCH   3   4
ATOM      4  O   UNL A   1      34.130  20.720  26.062  1.00  0.00    -0.376 OA
BRANCH   4   5
ATOM      5  C   UNL A   1      33.086  21.671  26.211  1.00  0.00     0.202 C 
BRANCH   5   6
ATOM      6  C   UNL A   1      33.276  23.182  26.440  1.00  0.00     0.261 C 
BRANCH   6   7
ATOM      7  O   UNL A   1      32.379  23.825  27.358  1.00  0.00    -0.462 OA
BRANCH   7   8
ATOM      8  C   UNL A   1      31.145  24.072  26.874  1.00  0.00     0.329 C 
ATOM      9  O   UNL A   1      30.156  23.446  27.255  1.00  0.00    -0.250 OA
BRANCH   8  10
ATOM     10  C   UNL A   1      31.036  25.233  25.853  1.00  0.00     0.199 C 
BRANCH  10  11
ATOM     11  N   UNL A   1      30.596  26.406  26.602  1.00  0.00    -0.308 N 
ATOM     12  C   UNL A   1      31.411  27.388  27.068  1.00  0.00     0.408 C 
ATOM     13  O   UNL A   1      30.995  28.237  27.842  1.00  0.00    -0.225 OA
ATOM     14  H   UNL A   1      29.633  26.494  26.782  1.00  0.00     0.168 HD
BRANCH  12  15
ATOM     15  O   UNL A   1      32.679  27.276  26.605  1.00  0.00    -0.444 OA
BRANCH  15  16
ATOM     16  C   UNL A   1      33.314  28.406  25.965  1.00  0.00     0.106 C 
ATOM     17  C   UNL A   1      33.971  27.840  24.696  1.00  0.00     0.056 C 
ATOM     18  C   UNL A   1      34.420  29.003  26.846  1.00  0.00     0.056 C 
ATOM     19  C   UNL A   1      32.262  29.439  25.555  1.00  0.00     0.056 C 
ENDBRANCH  15  16
ENDBRANCH  12  15
ENDBRANCH  10  11
BRANCH  10  20
ATOM     20  C   UNL A   1      30.278  25.111  24.517  1.00  0.00     0.072 C 
BRANCH  20  21
ATOM     21  C   UNL A   1      29.769  26.388  23.910  1.00  0.00    -0.045 A 
ATOM     22  C   UNL A   1      28.418  26.744  24.015  1.00  0.00     0.004 A 
ATOM     23  C   UNL A   1      30.644  27.231  23.226  1.00  0.00     0.004 A 
ATOM     24  C   UNL A   1      27.951  27.908  23.402  1.00  0.00     0.010 A 
ATOM     25  C   UNL A   1      30.167  28.376  22.595  1.00  0.00     0.010 A 
ATOM     26  C   UNL A   1      28.815  28.735  22.678  1.00  0.00     0.038 A 
BRANCH  26  27
ATOM     27  N   UNL A   1      28.271  29.869  22.048  1.00  0.00    -0.061 NA
ATOM     28  N   UNL A   1      27.760  30.693  22.841  1.00  0.00     0.005 N 
ATOM     29  N   UNL A   1      27.266  31.363  23.613  1.00  0.00    -0.003 NA
ENDBRANCH  26  27
ENDBRANCH  20  21
ENDBRANCH  10  20
ENDBRANCH   8  10
ENDBRANCH   7   8
ENDBRANCH   6   7
ENDBRANCH   5   6
ENDBRANCH   4   5
ENDBRANCH   3   4
ENDBRANCH   2   3
ENDBRANCH   1   2
BRANCH   1  30
ATOM     30  C   UNL A   1      38.023  21.041  25.239  1.00  0.00     0.188 C 
BRANCH  30  31
ATOM     31  C   UNL A   1      38.489  19.583  25.058  1.00  0.00     0.188 C 
BRANCH  31  32
ATOM     32  O   UNL A   1      39.798  19.317  25.535  1.00  0.00    -0.376 OA
BRANCH  32  33
ATOM     33  C   UNL A   1      40.414  20.251  26.408  1.00  0.00     0.202 C 
BRANCH  33  34
ATOM     34  C   UNL A   1      41.887  20.628  26.177  1.00  0.00     0.261 C 
BRANCH  34  35
ATOM     35  O   UNL A   1      42.323  21.911  26.654  1.00  0.00    -0.460 OA
BRANCH  35  36
ATOM     36  C   UNL A   1      42.726  22.840  25.762  1.00  0.00     0.338 C 
ATOM     37  O   UNL A   1      43.012  22.658  24.593  1.00  0.00    -0.246 OA
BRANCH  36  38
ATOM     38  C   UNL A   1      42.561  24.166  26.398  1.00  0.00     0.060 A 
ATOM     39  C   UNL A   1      42.497  25.311  25.592  1.00  0.00     0.016 A 
ATOM     40  C   UNL A   1      42.463  24.276  27.787  1.00  0.00     0.016 A 
ATOM     41  C   UNL A   1      42.365  26.574  26.175  1.00  0.00     0.010 A 
ATOM     42  C   UNL A   1      42.354  25.542  28.370  1.00  0.00     0.010 A 
ATOM     43  C   UNL A   1      42.336  26.699  27.569  1.00  0.00    -0.014 A 
BRANCH  43  44
ATOM     44  C   UNL A   1      42.471  28.033  28.205  1.00  0.00     0.031 A 
ATOM     45  C   UNL A   1      43.855  28.568  28.457  1.00  0.00     0.074 A 
ATOM     46  C   UNL A   1      41.392  28.745  28.579  1.00  0.00     0.049 A 
ATOM     47  N   UNL A   1      44.226  29.657  29.077  1.00  0.00    -0.248 NA
ATOM     48  C   UNL A   1      44.974  27.757  27.945  1.00  0.00     0.031 C 
ATOM     49  C   UNL A   1      40.000  28.347  28.374  1.00  0.00     0.029 A 
ATOM     50  N   UNL A   1      41.305  29.943  29.245  1.00  0.00    -0.354 N 
ATOM     51  C   UNL A   1      45.616  29.644  29.067  1.00  0.00     0.074 A 
ATOM     52  C   UNL A   1      46.024  28.437  28.381  1.00  0.00     0.031 C 
ATOM     53  C   UNL A   1      39.197  29.269  28.936  1.00  0.00     0.029 A 
ATOM     54  C   UNL A   1      40.016  30.301  29.567  1.00  0.00     0.049 A 
ATOM     55  H   UNL A   1      42.090  30.493  29.470  1.00  0.00     0.167 HD
ATOM     56  C   UNL A   1      46.477  30.555  29.577  1.00  0.00     0.034 A 
ATOM     57  C   UNL A   1      39.558  31.326  30.312  1.00  0.00     0.034 A 
ATOM     58  C   UNL A   1      46.069  31.757  30.252  1.00  0.00     0.049 A 
ATOM     59  C   UNL A   1      40.542  32.305  30.908  1.00  0.00     0.074 A 
ATOM     60  C   UNL A   1      46.864  32.766  30.764  1.00  0.00     0.029 A 
ATOM     61  N   UNL A   1      44.756  32.101  30.530  1.00  0.00    -0.354 N 
ATOM     62  N   UNL A   1      41.847  32.340  30.795  1.00  0.00    -0.248 NA
ATOM     63  C   UNL A   1      39.983  33.403  31.713  1.00  0.00     0.031 C 
ATOM     64  C   UNL A   1      46.034  33.699  31.392  1.00  0.00     0.029 A 
ATOM     65  C   UNL A   1      44.718  33.297  31.226  1.00  0.00     0.049 A 
ATOM     66  H   UNL A   1      43.966  31.574  30.271  1.00  0.00     0.167 HD
ATOM     67  C   UNL A   1      42.261  33.479  31.481  1.00  0.00     0.074 A 
ATOM     68  C   UNL A   1      41.065  34.117  31.989  1.00  0.00     0.031 C 
ATOM     69  C   UNL A   1      43.517  33.949  31.683  1.00  0.00     0.034 A 
BRANCH  56  70
ATOM     70  C   UNL A   1      47.953  30.287  29.429  1.00  0.00     0.023 A 
ATOM     71  C   UNL A   1      48.593  29.370  30.286  1.00  0.00     0.012 A 
ATOM     72  C   UNL A   1      48.694  30.908  28.404  1.00  0.00     0.148 A 
ATOM     73  C   UNL A   1      49.954  29.100  30.148  1.00  0.00     0.002 A 
ATOM     74  C   UNL A   1      50.038  30.597  28.241  1.00  0.00     0.091 A 
ATOM     75  F   UNL A   1      48.072  31.792  27.611  1.00  0.00    -0.205 F 
ATOM     76  C   UNL A   1      50.673  29.705  29.120  1.00  0.00     0.022 A 
BRANCH  74  77
ATOM     77  S   UNL A   1      51.032  31.259  26.900  1.00  0.00     0.127 S 
ATOM     78  O   UNL A   1      50.585  30.443  25.772  1.00  0.00    -0.237 OA
ATOM     79  O   UNL A   1      50.592  32.654  26.853  1.00  0.00    -0.237 OA
ATOM     80  O   UNL A   1      52.420  31.070  27.294  1.00  0.00    -0.744 OA
ENDBRANCH  74  77
ENDBRANCH  56  70
BRANCH  57  81
ATOM     81  C   UNL A   1      38.093  31.509  30.530  1.00  0.00     0.023 A 
ATOM     82  C   UNL A   1      37.479  30.899  31.642  1.00  0.00     0.012 A 
ATOM     83  C   UNL A   1      37.301  32.257  29.638  1.00  0.00     0.148 A 
ATOM     84  C   UNL A   1      36.101  30.997  31.839  1.00  0.00     0.002 A 
ATOM     85  C   UNL A   1      35.935  32.389  29.863  1.00  0.00     0.091 A 
ATOM     86  F   UNL A   1      37.904  32.851  28.599  1.00  0.00    -0.205 F 
ATOM     87  C   UNL A   1      35.330  31.741  30.950  1.00  0.00     0.022 A 
BRANCH  85  88
ATOM     88  S   UNL A   1      34.884  33.395  28.808  1.00  0.00     0.127 S 
ATOM     89  O   UNL A   1      33.636  33.447  29.568  1.00  0.00    -0.237 OA
ATOM     90  O   UNL A   1      35.633  34.649  28.766  1.00  0.00    -0.237 OA
ATOM     91  O   UNL A   1      34.788  32.673  27.548  1.00  0.00    -0.744 OA
ENDBRANCH  85  88
ENDBRANCH  57  81
BRANCH  69  92
ATOM     92  C   UNL A   1      43.676  35.242  32.443  1.00  0.00     0.023 A 
ATOM     93  C   UNL A   1      43.791  35.229  33.848  1.00  0.00     0.012 A 
ATOM     94  C   UNL A   1      43.799  36.465  31.752  1.00  0.00     0.148 A 
ATOM     95  C   UNL A   1      43.993  36.416  34.553  1.00  0.00     0.002 A 
ATOM     96  C   UNL A   1      44.054  37.635  32.458  1.00  0.00     0.091 A 
ATOM     97  F   UNL A   1      43.675  36.460  30.417  1.00  0.00    -0.205 F 
ATOM     98  C   UNL A   1      44.136  37.614  33.860  1.00  0.00     0.022 A 
BRANCH  96  99
ATOM     99  S   UNL A   1      44.354  39.209  31.645  1.00  0.00     0.127 S 
ATOM    100  O   UNL A   1      44.471  40.116  32.785  1.00  0.00    -0.237 OA
ATOM    101  O   UNL A   1      45.608  38.954  30.935  1.00  0.00    -0.237 OA
ATOM    102  O   UNL A   1      43.205  39.444  30.780  1.00  0.00    -0.744 OA
ENDBRANCH  96  99
ENDBRANCH  69  92
ENDBRANCH  43  44
ENDBRANCH  36  38
ENDBRANCH  35  36
ENDBRANCH  34  35
ENDBRANCH  33  34
ENDBRANCH  32  33
ENDBRANCH  31  32
ENDBRANCH  30  31
ENDBRANCH   1  30
TORSDOF 29
ENDMDL
MODEL 2
REMARK VINA RESULT:      -8.6      2.601      3.923
REMARK SMILES CC(C)(C)OC(=O)N[C@H](Cc1ccc(N=[N+]=[N-])cc1)C(=O)OCCOCCOCCOCCOC(=O)c1ccc(-c2c3nc(c(-c4cccc(S(=O)(=O)[O-])c4F)c4ccc([nH]4)c(-c4cccc(S(=O)(=O)[O-])c4F)c4nc(c(-c5cccc(S(=O)(=O)[O-])c5F)c5ccc2[nH]5)C=C4)C=C3)cc1
REMARK SMILES IDX 28 1 27 2 26 3 25 4 24 5 23 6 22 7 20 8 21 9 9 10 8 11 6 12
REMARK SMILES IDX 7 13 5 15 2 16 1 17 3 18 4 19 10 20 11 21 12 22 19 23 13 24
REMARK SMILES IDX 18 25 14 26 15 27 16 28 17 29 29 30 30 31 31 32 32 33 33 34
REMARK SMILES IDX 34 35 35 36 36 37 37 38 38 39 99 40 39 41 98 42 40 43 41 44
REMARK SMILES IDX 42 45 92 46 43 47 97 48 91 49 93 50 44 51 96 52 90 53 89 54
REMARK SMILES IDX 45 56 77 57 57 58 76 59 58 60 61 61 75 62 94 63 59 64 60 65
REMARK SMILES IDX 74 67 95 68 62 69 46 70 47 71 55 72 48 73 50 74 56 75 49 76
REMARK SMILES IDX 51 77 52 78 53 79 54 80 78 81 79 82 87 83 80 84 82 85 88 86
REMARK SMILES IDX 81 87 83 88 84 89 85 90 86 91 63 92 64 93 72 94 65 95 67 96
REMARK SMILES IDX 73 97 66 98 68 99 69 100 70 101 71 102
REMARK H PARENT 8 14 93 55 61 66
REMARK Flexibility Score: inf
ROOT
ATOM      1  O   UNL A   1      37.550  22.651  24.600  1.00  0.00    -0.377 OA
ENDROOT
BRANCH   1   2
ATOM      2  C   UNL A   1      36.585  23.500  25.181  1.00  0.00     0.188 C 
BRANCH   2   3
ATOM      3  C   UNL A   1      35.529  22.824  26.062  1.00  0.00     0.188 C 
BRANCH   3   4
ATOM      4  O   UNL A   1      34.718  23.588  26.928  1.00  0.00    -0.376 OA
BRANCH   4   5
ATOM      5  C   UNL A   1      33.347  23.850  26.658  1.00  0.00     0.202 C 
BRANCH   5   6
ATOM      6  C   UNL A   1      32.754  25.219  26.278  1.00  0.00     0.261 C 
BRANCH   6   7
ATOM      7  O   UNL A   1      31.476  25.559  26.836  1.00  0.00    -0.462 OA
BRANCH   7   8
ATOM      8  C   UNL A   1      30.416  25.265  26.057  1.00  0.00     0.329 C 
ATOM      9  O   UNL A   1      29.313  24.991  26.530  1.00  0.00    -0.250 OA
BRANCH   8  10
ATOM     10  C   UNL A   1      30.653  25.351  24.528  1.00  0.00     0.199 C 
BRANCH  10  11
ATOM     11  N   UNL A   1      29.966  26.555  24.069  1.00  0.00    -0.308 N 
ATOM     12  C   UNL A   1      30.573  27.641  23.523  1.00  0.00     0.408 C 
ATOM     13  O   UNL A   1      29.956  28.679  23.335  1.00  0.00    -0.225 OA
ATOM     14  H   UNL A   1      28.987  26.581  24.159  1.00  0.00     0.168 HD
BRANCH  12  15
ATOM     15  O   UNL A   1      31.886  27.430  23.264  1.00  0.00    -0.444 OA
BRANCH  15  16
ATOM     16  C   UNL A   1      32.881  28.321  23.816  1.00  0.00     0.106 C 
ATOM     17  C   UNL A   1      34.027  27.413  24.287  1.00  0.00     0.056 C 
ATOM     18  C   UNL A   1      32.342  29.079  25.037  1.00  0.00     0.056 C 
ATOM     19  C   UNL A   1      33.412  29.256  22.727  1.00  0.00     0.056 C 
ENDBRANCH  15  16
ENDBRANCH  12  15
ENDBRANCH  10  11
BRANCH  10  20
ATOM     20  C   UNL A   1      30.403  24.171  23.570  1.00  0.00     0.072 C 
BRANCH  20  21
ATOM     21  C   UNL A   1      31.175  22.909  23.836  1.00  0.00    -0.045 A 
ATOM     22  C   UNL A   1      31.043  22.233  25.056  1.00  0.00     0.004 A 
ATOM     23  C   UNL A   1      32.038  22.402  22.867  1.00  0.00     0.004 A 
ATOM     24  C   UNL A   1      31.804  21.090  25.309  1.00  0.00     0.010 A 
ATOM     25  C   UNL A   1      32.813  21.278  23.134  1.00  0.00     0.010 A 
ATOM     26  C   UNL A   1      32.704  20.601  24.357  1.00  0.00     0.038 A 
BRANCH  26  27
ATOM     27  N   UNL A   1      33.472  19.471  24.693  1.00  0.00    -0.061 NA
ATOM     28  N   UNL A   1      33.346  18.517  23.892  1.00  0.00     0.005 N 
ATOM     29  N   UNL A   1      33.137  17.676  23.158  1.00  0.00    -0.003 NA
ENDBRANCH  26  27
ENDBRANCH  20  21
ENDBRANCH  10  20
ENDBRANCH   8  10
ENDBRANCH   7   8
ENDBRANCH   6   7
ENDBRANCH   5   6
ENDBRANCH   4   5
ENDBRANCH   3   4
ENDBRANCH   2   3
ENDBRANCH   1   2
BRANCH   1  30
ATOM     30  C   UNL A   1      38.102  21.584  25.363  1.00  0.00     0.188 C 
BRANCH  30  31
ATOM     31  C   UNL A   1      37.871  20.123  24.930  1.00  0.00     0.188 C 
BRANCH  31  32
ATOM     32  O   UNL A   1      38.901  19.225  25.308  1.00  0.00    -0.376 OA
BRANCH  32  33
ATOM     33  C   UNL A   1      40.047  19.735  25.972  1.00  0.00     0.202 C 
BRANCH  33  34
ATOM     34  C   UNL A   1      41.326  18.880  26.014  1.00  0.00     0.261 C 
BRANCH  34  35
ATOM     35  O   UNL A   1      42.520  19.505  26.512  1.00  0.00    -0.460 OA
BRANCH  35  36
ATOM     36  C   UNL A   1      43.263  20.259  25.674  1.00  0.00     0.338 C 
ATOM     37  O   UNL A   1      43.802  19.898  24.645  1.00  0.00    -0.246 OA
BRANCH  36  38
ATOM     38  C   UNL A   1      43.136  21.666  26.115  1.00  0.00     0.060 A 
ATOM     39  C   UNL A   1      43.054  22.683  25.154  1.00  0.00     0.016 A 
ATOM     40  C   UNL A   1      43.091  21.979  27.475  1.00  0.00     0.016 A 
ATOM     41  C   UNL A   1      42.957  24.019  25.550  1.00  0.00     0.010 A 
ATOM     42  C   UNL A   1      43.018  23.317  27.871  1.00  0.00     0.010 A 
ATOM     43  C   UNL A   1      42.982  24.346  26.911  1.00  0.00    -0.014 A 
BRANCH  43  44
ATOM     44  C   UNL A   1      43.155  25.755  27.340  1.00  0.00     0.031 A 
ATOM     45  C   UNL A   1      44.544  26.335  27.347  1.00  0.00     0.074 A 
ATOM     46  C   UNL A   1      42.109  26.500  27.745  1.00  0.00     0.049 A 
ATOM     47  N   UNL A   1      44.957  27.503  27.765  1.00  0.00    -0.248 NA
ATOM     48  C   UNL A   1      45.616  25.474  26.816  1.00  0.00     0.031 C 
ATOM     49  C   UNL A   1      40.714  26.062  27.767  1.00  0.00     0.029 A 
ATOM     50  N   UNL A   1      42.070  27.777  28.249  1.00  0.00    -0.354 N 
ATOM     51  C   UNL A   1      46.335  27.504  27.587  1.00  0.00     0.074 A 
ATOM     52  C   UNL A   1      46.691  26.220  27.025  1.00  0.00     0.031 C 
ATOM     53  C   UNL A   1      39.959  27.043  28.293  1.00  0.00     0.029 A 
ATOM     54  C   UNL A   1      40.819  28.161  28.675  1.00  0.00     0.049 A 
ATOM     55  H   UNL A   1      42.861  28.361  28.300  1.00  0.00     0.167 HD
ATOM     56  C   UNL A   1      47.226  28.486  27.860  1.00  0.00     0.034 A 
ATOM     57  C   UNL A   1      40.425  29.274  29.326  1.00  0.00     0.034 A 
ATOM     58  C   UNL A   1      46.868  29.764  28.412  1.00  0.00     0.049 A 
ATOM     59  C   UNL A   1      41.446  30.336  29.660  1.00  0.00     0.074 A 
ATOM     60  C   UNL A   1      47.690  30.843  28.683  1.00  0.00     0.029 A 
ATOM     61  N   UNL A   1      45.589  30.129  28.800  1.00  0.00    -0.354 N 
ATOM     62  N   UNL A   1      42.727  30.369  29.385  1.00  0.00    -0.248 NA
ATOM     63  C   UNL A   1      40.957  31.527  30.372  1.00  0.00     0.031 C 
ATOM     64  C   UNL A   1      46.916  31.845  29.276  1.00  0.00     0.029 A 
ATOM     65  C   UNL A   1      45.601  31.408  29.328  1.00  0.00     0.049 A 
ATOM     66  H   UNL A   1      44.788  29.562  28.712  1.00  0.00     0.167 HD
ATOM     67  C   UNL A   1      43.188  31.596  29.855  1.00  0.00     0.074 A 
ATOM     68  C   UNL A   1      42.044  32.285  30.415  1.00  0.00     0.031 C 
ATOM     69  C   UNL A   1      44.446  32.104  29.837  1.00  0.00     0.034 A 
BRANCH  56  70
ATOM     70  C   UNL A   1      48.680  28.218  27.570  1.00  0.00     0.023 A 
ATOM     71  C   UNL A   1      49.563  27.909  28.623  1.00  0.00     0.012 A 
ATOM     72  C   UNL A   1      49.158  28.220  26.245  1.00  0.00     0.148 A 
ATOM     73  C   UNL A   1      50.908  27.641  28.367  1.00  0.00     0.002 A 
ATOM     74  C   UNL A   1      50.487  27.904  25.992  1.00  0.00     0.091 A 
ATOM     75  F   UNL A   1      48.307  28.535  25.258  1.00  0.00    -0.205 F 
ATOM     76  C   UNL A   1      51.366  27.628  27.052  1.00  0.00     0.022 A 
BRANCH  74  77
ATOM     77  S   UNL A   1      51.155  27.781  24.330  1.00  0.00     0.127 S 
ATOM     78  O   UNL A   1      51.142  29.179  23.903  1.00  0.00    -0.237 OA
ATOM     79  O   UNL A   1      52.489  27.232  24.577  1.00  0.00    -0.237 OA
ATOM     80  O   UNL A   1      50.258  26.898  23.598  1.00  0.00    -0.744 OA
ENDBRANCH  74  77
ENDBRANCH  56  70
BRANCH  57  81
ATOM     81  C   UNL A   1      38.992  29.469  29.695  1.00  0.00     0.023 A 
ATOM     82  C   UNL A   1      38.542  29.047  30.962  1.00  0.00     0.012 A 
ATOM     83  C   UNL A   1      38.070  30.042  28.798  1.00  0.00     0.148 A 
ATOM     84  C   UNL A   1      37.196  29.155  31.313  1.00  0.00     0.002 A 
ATOM     85  C   UNL A   1      36.738  30.189  29.171  1.00  0.00     0.091 A 
ATOM     86  F   UNL A   1      38.519  30.460  27.607  1.00  0.00    -0.205 F 
ATOM     87  C   UNL A   1      36.295  29.726  30.418  1.00  0.00     0.022 A 
BRANCH  85  88
ATOM     88  S   UNL A   1      35.529  30.985  28.105  1.00  0.00     0.127 S 
ATOM     89  O   UNL A   1      34.396  31.179  29.009  1.00  0.00    -0.237 OA
ATOM     90  O   UNL A   1      36.236  32.208  27.730  1.00  0.00    -0.237 OA
ATOM     91  O   UNL A   1      35.279  30.042  27.025  1.00  0.00    -0.744 OA
ENDBRANCH  85  88
ENDBRANCH  57  81
BRANCH  69  92
ATOM     92  C   UNL A   1      44.659  33.491  30.390  1.00  0.00     0.023 A 
ATOM     93  C   UNL A   1      45.087  33.664  31.722  1.00  0.00     0.012 A 
ATOM     94  C   UNL A   1      44.516  34.620  29.559  1.00  0.00     0.148 A 
ATOM     95  C   UNL A   1      45.339  34.940  32.225  1.00  0.00     0.002 A 
ATOM     96  C   UNL A   1      44.821  35.884  30.052  1.00  0.00     0.091 A 
ATOM     97  F   UNL A   1      44.096  34.437  28.298  1.00  0.00    -0.205 F 
ATOM     98  C   UNL A   1      45.218  36.047  31.388  1.00  0.00     0.022 A 
BRANCH  96  99
ATOM     99  S   UNL A   1      44.793  37.356  29.022  1.00  0.00     0.127 S 
ATOM    100  O   UNL A   1      43.379  37.724  29.068  1.00  0.00    -0.237 OA
ATOM    101  O   UNL A   1      45.683  38.259  29.752  1.00  0.00    -0.237 OA
ATOM    102  O   UNL A   1      45.285  36.945  27.714  1.00  0.00    -0.744 OA
ENDBRANCH  96  99
ENDBRANCH  69  92
ENDBRANCH  43  44
ENDBRANCH  36  38
ENDBRANCH  35  36
ENDBRANCH  34  35
ENDBRANCH  33  34
ENDBRANCH  32  33
ENDBRANCH  31  32
ENDBRANCH  30  31
ENDBRANCH   1  30
TORSDOF 29
ENDMDL
MODEL 3
REMARK VINA RESULT:      -8.6      3.530      5.258
REMARK SMILES CC(C)(C)OC(=O)N[C@H](Cc1ccc(N=[N+]=[N-])cc1)C(=O)OCCOCCOCCOCCOC(=O)c1ccc(-c2c3nc(c(-c4cccc(S(=O)(=O)[O-])c4F)c4ccc([nH]4)c(-c4cccc(S(=O)(=O)[O-])c4F)c4nc(c(-c5cccc(S(=O)(=O)[O-])c5F)c5ccc2[nH]5)C=C4)C=C3)cc1
REMARK SMILES IDX 28 1 27 2 26 3 25 4 24 5 23 6 22 7 20 8 21 9 9 10 8 11 6 12
REMARK SMILES IDX 7 13 5 15 2 16 1 17 3 18 4 19 10 20 11 21 12 22 19 23 13 24
REMARK SMILES IDX 18 25 14 26 15 27 16 28 17 29 29 30 30 31 31 32 32 33 33 34
REMARK SMILES IDX 34 35 35 36 36 37 37 38 38 39 99 40 39 41 98 42 40 43 41 44
REMARK SMILES IDX 42 45 92 46 43 47 97 48 91 49 93 50 44 51 96 52 90 53 89 54
REMARK SMILES IDX 45 56 77 57 57 58 76 59 58 60 61 61 75 62 94 63 59 64 60 65
REMARK SMILES IDX 74 67 95 68 62 69 46 70 47 71 55 72 48 73 50 74 56 75 49 76
REMARK SMILES IDX 51 77 52 78 53 79 54 80 78 81 79 82 87 83 80 84 82 85 88 86
REMARK SMILES IDX 81 87 83 88 84 89 85 90 86 91 63 92 64 93 72 94 65 95 67 96
REMARK SMILES IDX 73 97 66 98 68 99 69 100 70 101 71 102
REMARK H PARENT 8 14 93 55 61 66
REMARK Flexibility Score: inf
ROOT
ATOM      1  O   UNL A   1      37.152  23.531  25.173  1.00  0.00    -0.377 OA
ENDROOT
BRANCH   1   2
ATOM      2  C   UNL A   1      36.025  23.928  25.923  1.00  0.00     0.188 C 
BRANCH   2   3
ATOM      3  C   UNL A   1      35.104  22.805  26.412  1.00  0.00     0.188 C 
BRANCH   3   4
ATOM      4  O   UNL A   1      34.367  22.948  27.607  1.00  0.00    -0.376 OA
BRANCH   4   5
ATOM      5  C   UNL A   1      32.948  22.881  27.639  1.00  0.00     0.202 C 
BRANCH   5   6
ATOM      6  C   UNL A   1      31.987  23.967  27.119  1.00  0.00     0.261 C 
BRANCH   6   7
ATOM      7  O   UNL A   1      30.761  23.526  26.517  1.00  0.00    -0.462 OA
BRANCH   7   8
ATOM      8  C   UNL A   1      30.903  22.614  25.534  1.00  0.00     0.329 C 
ATOM      9  O   UNL A   1      30.566  21.439  25.679  1.00  0.00    -0.250 OA
BRANCH   8  10
ATOM     10  C   UNL A   1      31.457  23.147  24.189  1.00  0.00     0.199 C 
BRANCH  10  11
ATOM     11  N   UNL A   1      30.462  24.081  23.670  1.00  0.00    -0.308 N 
ATOM     12  C   UNL A   1      30.539  25.435  23.757  1.00  0.00     0.408 C 
ATOM     13  O   UNL A   1      29.585  26.140  23.467  1.00  0.00    -0.225 OA
ATOM     14  H   UNL A   1      29.674  23.701  23.219  1.00  0.00     0.168 HD
BRANCH  12  15
ATOM     15  O   UNL A   1      31.741  25.860  24.216  1.00  0.00    -0.444 OA
BRANCH  15  16
ATOM     16  C   UNL A   1      32.144  27.233  24.015  1.00  0.00     0.106 C 
ATOM     17  C   UNL A   1      33.572  27.327  24.576  1.00  0.00     0.056 C 
ATOM     18  C   UNL A   1      31.257  28.201  24.811  1.00  0.00     0.056 C 
ATOM     19  C   UNL A   1      32.181  27.558  22.520  1.00  0.00     0.056 C 
ENDBRANCH  15  16
ENDBRANCH  12  15
ENDBRANCH  10  11
BRANCH  10  20
ATOM     20  C   UNL A   1      31.987  22.226  23.073  1.00  0.00     0.072 C 
BRANCH  20  21
ATOM     21  C   UNL A   1      32.567  20.908  23.503  1.00  0.00    -0.045 A 
ATOM     22  C   UNL A   1      33.663  20.857  24.374  1.00  0.00     0.004 A 
ATOM     23  C   UNL A   1      32.019  19.718  23.028  1.00  0.00     0.004 A 
ATOM     24  C   UNL A   1      34.222  19.626  24.724  1.00  0.00     0.010 A 
ATOM     25  C   UNL A   1      32.597  18.496  23.360  1.00  0.00     0.010 A 
ATOM     26  C   UNL A   1      33.704  18.431  24.217  1.00  0.00     0.038 A 
BRANCH  26  27
ATOM     27  N   UNL A   1      34.342  17.230  24.575  1.00  0.00    -0.061 NA
ATOM     28  N   UNL A   1      33.586  16.400  25.129  1.00  0.00     0.005 N 
ATOM     29  N   UNL A   1      32.856  15.723  25.676  1.00  0.00    -0.003 NA
ENDBRANCH  26  27
ENDBRANCH  20  21
ENDBRANCH  10  20
ENDBRANCH   8  10
ENDBRANCH   7   8
ENDBRANCH   6   7
ENDBRANCH   5   6
ENDBRANCH   4   5
ENDBRANCH   3   4
ENDBRANCH   2   3
ENDBRANCH   1   2
BRANCH   1  30
ATOM     30  C   UNL A   1      37.863  22.354  25.539  1.00  0.00     0.188 C 
BRANCH  30  31
ATOM     31  C   UNL A   1      37.703  21.064  24.709  1.00  0.00     0.188 C 
BRANCH  31  32
ATOM     32  O   UNL A   1      38.365  19.931  25.246  1.00  0.00    -0.376 OA
BRANCH  32  33
ATOM     33  C   UNL A   1      39.630  20.103  25.866  1.00  0.00     0.202 C 
BRANCH  33  34
ATOM     34  C   UNL A   1      40.587  18.902  25.952  1.00  0.00     0.261 C 
BRANCH  34  35
ATOM     35  O   UNL A   1      41.910  19.148  26.456  1.00  0.00    -0.460 OA
BRANCH  35  36
ATOM     36  C   UNL A   1      42.829  19.707  25.641  1.00  0.00     0.338 C 
ATOM     37  O   UNL A   1      43.381  19.184  24.691  1.00  0.00    -0.246 OA
BRANCH  36  38
ATOM     38  C   UNL A   1      42.899  21.147  25.975  1.00  0.00     0.060 A 
ATOM     39  C   UNL A   1      43.026  22.086  24.941  1.00  0.00     0.016 A 
ATOM     40  C   UNL A   1      42.833  21.568  27.304  1.00  0.00     0.016 A 
ATOM     41  C   UNL A   1      43.117  23.448  25.238  1.00  0.00     0.010 A 
ATOM     42  C   UNL A   1      42.948  22.929  27.600  1.00  0.00     0.010 A 
ATOM     43  C   UNL A   1      43.123  23.873  26.571  1.00  0.00    -0.014 A 
BRANCH  43  44
ATOM     44  C   UNL A   1      43.489  25.270  26.912  1.00  0.00     0.031 A 
ATOM     45  C   UNL A   1      44.932  25.681  26.783  1.00  0.00     0.074 A 
ATOM     46  C   UNL A   1      42.572  26.150  27.355  1.00  0.00     0.049 A 
ATOM     47  N   UNL A   1      45.507  26.809  27.107  1.00  0.00    -0.248 NA
ATOM     48  C   UNL A   1      45.852  24.678  26.218  1.00  0.00     0.031 C 
ATOM     49  C   UNL A   1      41.142  25.881  27.505  1.00  0.00     0.029 A 
ATOM     50  N   UNL A   1      42.720  27.443  27.792  1.00  0.00    -0.354 N 
ATOM     51  C   UNL A   1      46.857  26.640  26.825  1.00  0.00     0.074 A 
ATOM     52  C   UNL A   1      47.018  25.299  26.306  1.00  0.00     0.031 C 
ATOM     53  C   UNL A   1      40.549  26.966  28.035  1.00  0.00     0.029 A 
ATOM     54  C   UNL A   1      41.560  27.990  28.291  1.00  0.00     0.049 A 
ATOM     55  H   UNL A   1      43.574  27.931  27.753  1.00  0.00     0.167 HD
ATOM     56  C   UNL A   1      47.874  27.521  26.979  1.00  0.00     0.034 A 
ATOM     57  C   UNL A   1      41.350  29.169  28.911  1.00  0.00     0.034 A 
ATOM     58  C   UNL A   1      47.711  28.855  27.489  1.00  0.00     0.049 A 
ATOM     59  C   UNL A   1      42.508  30.116  29.111  1.00  0.00     0.074 A 
ATOM     60  C   UNL A   1      48.670  29.840  27.639  1.00  0.00     0.029 A 
ATOM     61  N   UNL A   1      46.517  29.385  27.952  1.00  0.00    -0.354 N 
ATOM     62  N   UNL A   1      43.759  29.986  28.738  1.00  0.00    -0.248 NA
ATOM     63  C   UNL A   1      42.218  31.386  29.794  1.00  0.00     0.031 C 
ATOM     64  C   UNL A   1      48.066  30.950  28.236  1.00  0.00     0.029 A 
ATOM     65  C   UNL A   1      46.718  30.675  28.410  1.00  0.00     0.049 A 
ATOM     66  H   UNL A   1      45.653  28.913  27.955  1.00  0.00     0.167 HD
ATOM     67  C   UNL A   1      44.393  31.169  29.107  1.00  0.00     0.074 A 
ATOM     68  C   UNL A   1      43.385  32.012  29.715  1.00  0.00     0.031 C 
ATOM     69  C   UNL A   1      45.696  31.523  28.967  1.00  0.00     0.034 A 
BRANCH  56  70
ATOM     70  C   UNL A   1      49.260  27.070  26.594  1.00  0.00     0.023 A 
ATOM     71  C   UNL A   1      50.020  26.289  27.487  1.00  0.00     0.012 A 
ATOM     72  C   UNL A   1      49.786  27.377  25.324  1.00  0.00     0.148 A 
ATOM     73  C   UNL A   1      51.297  25.851  27.137  1.00  0.00     0.002 A 
ATOM     74  C   UNL A   1      51.038  26.896  24.963  1.00  0.00     0.091 A 
ATOM     75  F   UNL A   1      49.056  28.138  24.496  1.00  0.00    -0.205 F 
ATOM     76  C   UNL A   1      51.800  26.144  25.872  1.00  0.00     0.022 A 
BRANCH  74  77
ATOM     77  S   UNL A   1      51.741  27.150  23.330  1.00  0.00     0.127 S 
ATOM     78  O   UNL A   1      50.636  26.737  22.466  1.00  0.00    -0.237 OA
ATOM     79  O   UNL A   1      52.007  28.589  23.333  1.00  0.00    -0.237 OA
ATOM     80  O   UNL A   1      52.929  26.311  23.266  1.00  0.00    -0.744 OA
ENDBRANCH  74  77
ENDBRANCH  56  70
BRANCH  57  81
ATOM     81  C   UNL A   1      39.983  29.547  29.376  1.00  0.00     0.023 A 
ATOM     82  C   UNL A   1      39.075  30.117  28.461  1.00  0.00     0.012 A 
ATOM     83  C   UNL A   1      39.584  29.372  30.715  1.00  0.00     0.148 A 
ATOM     84  C   UNL A   1      37.814  30.541  28.879  1.00  0.00     0.002 A 
ATOM     85  C   UNL A   1      38.308  29.755  31.116  1.00  0.00     0.091 A 
ATOM     86  F   UNL A   1      40.450  28.806  31.567  1.00  0.00    -0.205 F 
ATOM     87  C   UNL A   1      37.431  30.359  30.205  1.00  0.00     0.022 A 
BRANCH  85  88
ATOM     88  S   UNL A   1      37.710  29.485  32.789  1.00  0.00     0.127 S 
ATOM     89  O   UNL A   1      36.410  30.153  32.768  1.00  0.00    -0.237 OA
ATOM     90  O   UNL A   1      37.653  28.026  32.843  1.00  0.00    -0.237 OA
ATOM     91  O   UNL A   1      38.692  30.112  33.662  1.00  0.00    -0.744 OA
ENDBRANCH  85  88
ENDBRANCH  57  81
BRANCH  69  92
ATOM     92  C   UNL A   1      46.110  32.898  29.429  1.00  0.00     0.023 A 
ATOM     93  C   UNL A   1      46.012  33.999  28.554  1.00  0.00     0.012 A 
ATOM     94  C   UNL A   1      46.515  33.111  30.763  1.00  0.00     0.148 A 
ATOM     95  C   UNL A   1      46.342  35.282  28.990  1.00  0.00     0.002 A 
ATOM     96  C   UNL A   1      46.788  34.401  31.204  1.00  0.00     0.091 A 
ATOM     97  F   UNL A   1      46.613  32.050  31.578  1.00  0.00    -0.205 F 
ATOM     98  C   UNL A   1      46.717  35.485  30.315  1.00  0.00     0.022 A 
BRANCH  96  99
ATOM     99  S   UNL A   1      47.181  34.773  32.918  1.00  0.00     0.127 S 
ATOM    100  O   UNL A   1      47.420  36.213  32.862  1.00  0.00    -0.237 OA
ATOM    101  O   UNL A   1      45.950  34.384  33.607  1.00  0.00    -0.237 OA
ATOM    102  O   UNL A   1      48.345  33.962  33.252  1.00  0.00    -0.744 OA
ENDBRANCH  96  99
ENDBRANCH  69  92
ENDBRANCH  43  44
ENDBRANCH  36  38
ENDBRANCH  35  36
ENDBRANCH  34  35
ENDBRANCH  33  34
ENDBRANCH  32  33
ENDBRANCH  31  32
ENDBRANCH  30  31
ENDBRANCH   1  30
TORSDOF 29
ENDMDL
