MODEL 1
REMARK VINA RESULT:     -10.6      0.000      0.000
REMARK SMILES Cc1c(-c2nn(-c3ccccc3)cc2/C=N/O)nnn1-c1ccc(C(=O)OCCOCCOCCOCCOC(=O)c2ccc(-c3c4nc(c(-c5cccc(S(=O)(=O)[O-])c5F)c5ccc([nH]5)c(-c5cccc(S(=O)(=O)[O-])c5F)c5nc(c(-c6cccc(S(=O)(=O)[O-])c6F)c6ccc3[nH]6)C=C5)C=C4)cc2)cc1
REMARK SMILES IDX 32 1 31 2 30 3 29 4 28 5 27 6 25 7 26 8 24 9 21 10 22 11
REMARK SMILES IDX 106 12 23 13 105 14 20 15 1 16 2 17 3 18 18 19 19 20 4 21
REMARK SMILES IDX 5 22 14 23 6 24 13 25 15 26 16 27 17 28 7 30 8 31 12 32 9 33
REMARK SMILES IDX 11 34 10 35 33 36 34 37 35 38 36 39 37 40 38 41 39 42 40 43
REMARK SMILES IDX 41 44 42 45 43 46 104 47 44 48 103 49 45 50 46 51 47 52
REMARK SMILES IDX 97 53 48 54 102 55 96 56 98 57 49 58 101 59 95 60 94 61
REMARK SMILES IDX 50 63 82 64 62 65 81 66 63 67 66 68 80 69 99 70 64 71 65 72
REMARK SMILES IDX 79 74 100 75 67 76 51 77 52 78 60 79 53 80 55 81 61 82 54 83
REMARK SMILES IDX 56 84 57 85 58 86 59 87 83 88 84 89 92 90 85 91 87 92 93 93
REMARK SMILES IDX 86 94 88 95 89 96 90 97 91 98 68 99 69 100 77 101 70 102
REMARK SMILES IDX 72 103 78 104 71 105 73 106 74 107 75 108 76 109
REMARK H PARENT 17 29 98 62 66 73
REMARK Flexibility Score: inf
ROOT
ATOM      1  C   UNL A   1      29.835  32.675  24.188  1.00  0.00     0.188 C 
ENDROOT
BRANCH   1   2
ATOM      2  C   UNL A   1      28.449  32.427  23.556  1.00  0.00     0.188 C 
BRANCH   2   3
ATOM      3  O   UNL A   1      28.118  32.937  22.271  1.00  0.00    -0.376 OA
BRANCH   3   4
ATOM      4  C   UNL A   1      28.190  32.154  21.092  1.00  0.00     0.202 C 
BRANCH   4   5
ATOM      5  C   UNL A   1      27.926  30.638  21.029  1.00  0.00     0.261 C 
BRANCH   5   6
ATOM      6  O   UNL A   1      28.901  29.770  21.599  1.00  0.00    -0.460 OA
BRANCH   6   7
ATOM      7  C   UNL A   1      28.487  29.044  22.658  1.00  0.00     0.338 C 
ATOM      8  O   UNL A   1      27.404  29.103  23.215  1.00  0.00    -0.246 OA
BRANCH   7   9
ATOM      9  C   UNL A   1      29.506  28.010  22.946  1.00  0.00     0.060 A 
ATOM     10  C   UNL A   1      31.476  26.078  23.299  1.00  0.00     0.067 A 
ATOM     11  C   UNL A   1      31.840  27.360  22.877  1.00  0.00     0.029 A 
ATOM     12  C   UNL A   1      30.150  25.801  23.667  1.00  0.00     0.029 A 
ATOM     13  C   UNL A   1      30.846  28.310  22.661  1.00  0.00     0.018 A 
ATOM     14  C   UNL A   1      29.164  26.777  23.509  1.00  0.00     0.018 A 
BRANCH  10  15
ATOM     15  N   UNL A   1      32.445  25.047  23.243  1.00  0.00    -0.217 N 
ATOM     16  C   UNL A   1      31.580  23.559  25.121  1.00  0.00     0.069 C 
ATOM     17  C   UNL A   1      32.544  23.933  24.059  1.00  0.00     0.071 A 
ATOM     18  C   UNL A   1      33.628  23.255  23.538  1.00  0.00     0.137 A 
ATOM     19  N   UNL A   1      34.074  23.874  22.408  1.00  0.00    -0.128 NA
ATOM     20  N   UNL A   1      33.298  24.930  22.195  1.00  0.00    -0.061 NA
BRANCH  18  21
ATOM     21  C   UNL A   1      34.195  21.993  23.998  1.00  0.00     0.124 A 
ATOM     22  N   UNL A   1      33.576  20.819  23.807  1.00  0.00    -0.165 NA
ATOM     23  C   UNL A   1      35.377  21.867  24.763  1.00  0.00     0.044 A 
ATOM     24  N   UNL A   1      34.282  19.947  24.560  1.00  0.00    -0.240 N 
ATOM     25  C   UNL A   1      35.373  20.540  25.149  1.00  0.00     0.125 A 
BRANCH  23  26
ATOM     26  C   UNL A   1      36.389  22.824  25.129  1.00  0.00     0.166 C 
ATOM     27  N   UNL A   1      37.610  22.445  25.311  1.00  0.00    -0.097 NA
BRANCH  27  28
ATOM     28  O   UNL A   1      38.373  23.557  25.688  1.00  0.00    -0.411 OA
ATOM     29  H   UNL A   1      38.722  24.130  25.033  1.00  0.00     0.330 HD
ENDBRANCH  27  28
ENDBRANCH  23  26
BRANCH  24  30
ATOM     30  C   UNL A   1      33.858  18.607  24.711  1.00  0.00     0.065 A 
ATOM     31  C   UNL A   1      34.428  17.609  23.912  1.00  0.00     0.028 A 
ATOM     32  C   UNL A   1      32.862  18.285  25.642  1.00  0.00     0.028 A 
ATOM     33  C   UNL A   1      34.026  16.282  24.071  1.00  0.00     0.002 A 
ATOM     34  C   UNL A   1      32.427  16.963  25.755  1.00  0.00     0.002 A 
ATOM     35  C   UNL A   1      33.017  15.961  24.981  1.00  0.00     0.000 A 
ENDBRANCH  24  30
ENDBRANCH  18  21
ENDBRANCH  10  15
ENDBRANCH   7   9
ENDBRANCH   6   7
ENDBRANCH   5   6
ENDBRANCH   4   5
ENDBRANCH   3   4
ENDBRANCH   2   3
ENDBRANCH   1   2
BRANCH   1  36
ATOM     36  O   UNL A   1      30.263  31.613  25.020  1.00  0.00    -0.377 OA
BRANCH  36  37
ATOM     37  C   UNL A   1      30.935  31.990  26.217  1.00  0.00     0.188 C 
BRANCH  37  38
ATOM     38  C   UNL A   1      32.197  31.207  26.678  1.00  0.00     0.188 C 
BRANCH  38  39
ATOM     39  O   UNL A   1      33.101  31.947  27.489  1.00  0.00    -0.376 OA
BRANCH  39  40
ATOM     40  C   UNL A   1      32.983  33.343  27.713  1.00  0.00     0.202 C 
BRANCH  40  41
ATOM     41  C   UNL A   1      33.653  33.917  28.959  1.00  0.00     0.261 C 
BRANCH  41  42
ATOM     42  O   UNL A   1      34.847  33.239  29.281  1.00  0.00    -0.460 OA
BRANCH  42  43
ATOM     43  C   UNL A   1      34.781  32.497  30.396  1.00  0.00     0.338 C 
ATOM     44  O   UNL A   1      34.138  32.739  31.412  1.00  0.00    -0.246 OA
BRANCH  43  45
ATOM     45  C   UNL A   1      35.655  31.338  30.214  1.00  0.00     0.060 A 
ATOM     46  C   UNL A   1      36.241  30.860  31.383  1.00  0.00     0.016 A 
ATOM     47  C   UNL A   1      36.207  31.140  28.936  1.00  0.00     0.016 A 
ATOM     48  C   UNL A   1      37.579  30.611  31.320  1.00  0.00     0.010 A 
ATOM     49  C   UNL A   1      37.543  30.899  28.874  1.00  0.00     0.010 A 
ATOM     50  C   UNL A   1      38.208  30.802  30.088  1.00  0.00    -0.014 A 
BRANCH  50  51
ATOM     51  C   UNL A   1      39.623  31.021  30.098  1.00  0.00     0.031 A 
ATOM     52  C   UNL A   1      40.371  29.799  29.805  1.00  0.00     0.074 A 
ATOM     53  C   UNL A   1      40.131  32.248  30.300  1.00  0.00     0.049 A 
ATOM     54  N   UNL A   1      41.003  29.069  30.657  1.00  0.00    -0.248 NA
ATOM     55  C   UNL A   1      40.185  29.189  28.483  1.00  0.00     0.031 C 
ATOM     56  C   UNL A   1      39.442  33.543  30.338  1.00  0.00     0.029 A 
ATOM     57  N   UNL A   1      41.436  32.593  30.363  1.00  0.00    -0.354 N 
ATOM     58  C   UNL A   1      41.505  28.019  29.906  1.00  0.00     0.074 A 
ATOM     59  C   UNL A   1      40.762  28.003  28.673  1.00  0.00     0.031 C 
ATOM     60  C   UNL A   1      40.352  34.525  30.142  1.00  0.00     0.029 A 
ATOM     61  C   UNL A   1      41.676  33.927  30.081  1.00  0.00     0.049 A 
ATOM     62  H   UNL A   1      42.150  31.954  30.589  1.00  0.00     0.167 HD
ATOM     63  C   UNL A   1      42.687  27.436  30.228  1.00  0.00     0.034 A 
ATOM     64  C   UNL A   1      42.870  34.437  29.689  1.00  0.00     0.034 A 
ATOM     65  C   UNL A   1      43.136  27.828  31.540  1.00  0.00     0.049 A 
ATOM     66  C   UNL A   1      43.919  33.471  30.118  1.00  0.00     0.074 A 
ATOM     67  C   UNL A   1      42.624  27.702  32.816  1.00  0.00     0.029 A 
ATOM     68  N   UNL A   1      44.079  28.828  31.601  1.00  0.00    -0.354 N 
ATOM     69  N   UNL A   1      44.180  33.220  31.373  1.00  0.00    -0.248 NA
ATOM     70  C   UNL A   1      44.319  32.426  29.184  1.00  0.00     0.031 C 
ATOM     71  C   UNL A   1      42.956  28.925  33.468  1.00  0.00     0.029 A 
ATOM     72  C   UNL A   1      43.694  29.709  32.579  1.00  0.00     0.049 A 
ATOM     73  H   UNL A   1      44.887  28.899  31.042  1.00  0.00     0.167 HD
ATOM     74  C   UNL A   1      44.333  31.838  31.432  1.00  0.00     0.074 A 
ATOM     75  C   UNL A   1      44.525  31.419  30.044  1.00  0.00     0.031 C 
ATOM     76  C   UNL A   1      43.975  31.131  32.548  1.00  0.00     0.034 A 
BRANCH  63  77
ATOM     77  C   UNL A   1      43.613  26.818  29.222  1.00  0.00     0.023 A 
ATOM     78  C   UNL A   1      44.141  25.550  29.531  1.00  0.00     0.012 A 
ATOM     79  C   UNL A   1      44.180  27.511  28.126  1.00  0.00     0.148 A 
ATOM     80  C   UNL A   1      45.208  25.013  28.807  1.00  0.00     0.002 A 
ATOM     81  C   UNL A   1      45.179  26.936  27.356  1.00  0.00     0.091 A 
ATOM     82  F   UNL A   1      43.866  28.789  27.901  1.00  0.00    -0.205 F 
ATOM     83  C   UNL A   1      45.719  25.700  27.710  1.00  0.00     0.022 A 
BRANCH  81  84
ATOM     84  S   UNL A   1      45.830  27.770  25.905  1.00  0.00     0.127 S 
ATOM     85  O   UNL A   1      46.583  26.697  25.263  1.00  0.00    -0.237 OA
ATOM     86  O   UNL A   1      44.605  28.171  25.212  1.00  0.00    -0.237 OA
ATOM     87  O   UNL A   1      46.612  28.888  26.419  1.00  0.00    -0.744 OA
ENDBRANCH  81  84
ENDBRANCH  63  77
BRANCH  64  88
ATOM     88  C   UNL A   1      43.097  35.506  28.688  1.00  0.00     0.023 A 
ATOM     89  C   UNL A   1      42.832  35.273  27.327  1.00  0.00     0.012 A 
ATOM     90  C   UNL A   1      43.357  36.837  29.095  1.00  0.00     0.148 A 
ATOM     91  C   UNL A   1      42.824  36.330  26.405  1.00  0.00     0.002 A 
ATOM     92  C   UNL A   1      43.371  37.879  28.175  1.00  0.00     0.091 A 
ATOM     93  F   UNL A   1      43.495  37.103  30.400  1.00  0.00    -0.205 F 
ATOM     94  C   UNL A   1      43.095  37.631  26.827  1.00  0.00     0.022 A 
BRANCH  92  95
ATOM     95  S   UNL A   1      43.708  39.575  28.668  1.00  0.00     0.127 S 
ATOM     96  O   UNL A   1      42.448  39.965  29.301  1.00  0.00    -0.237 OA
ATOM     97  O   UNL A   1      44.830  39.406  29.587  1.00  0.00    -0.237 OA
ATOM     98  O   UNL A   1      44.003  40.297  27.436  1.00  0.00    -0.744 OA
ENDBRANCH  92  95
ENDBRANCH  64  88
BRANCH  76  99
ATOM     99  C   UNL A   1      43.559  31.915  33.776  1.00  0.00     0.023 A 
ATOM    100  C   UNL A   1      44.511  32.457  34.667  1.00  0.00     0.012 A 
ATOM    101  C   UNL A   1      42.212  32.277  33.932  1.00  0.00     0.148 A 
ATOM    102  C   UNL A   1      44.132  33.311  35.704  1.00  0.00     0.002 A 
ATOM    103  C   UNL A   1      41.842  33.165  34.939  1.00  0.00     0.091 A 
ATOM    104  F   UNL A   1      41.316  31.775  33.071  1.00  0.00    -0.205 F 
ATOM    105  C   UNL A   1      42.797  33.675  35.834  1.00  0.00     0.022 A 
BRANCH 103 106
ATOM    106  S   UNL A   1      40.164  33.784  35.080  1.00  0.00     0.127 S 
ATOM    107  O   UNL A   1      39.955  34.401  33.772  1.00  0.00    -0.237 OA
ATOM    108  O   UNL A   1      39.395  32.558  35.307  1.00  0.00    -0.237 OA
ATOM    109  O   UNL A   1      40.169  34.700  36.213  1.00  0.00    -0.744 OA
ENDBRANCH 103 106
ENDBRANCH  76  99
ENDBRANCH  50  51
ENDBRANCH  43  45
ENDBRANCH  42  43
ENDBRANCH  41  42
ENDBRANCH  40  41
ENDBRANCH  39  40
ENDBRANCH  38  39
ENDBRANCH  37  38
ENDBRANCH  36  37
ENDBRANCH   1  36
TORSDOF 28
ENDMDL
MODEL 2
REMARK VINA RESULT:     -10.4      3.436      5.311
REMARK SMILES Cc1c(-c2nn(-c3ccccc3)cc2/C=N/O)nnn1-c1ccc(C(=O)OCCOCCOCCOCCOC(=O)c2ccc(-c3c4nc(c(-c5cccc(S(=O)(=O)[O-])c5F)c5ccc([nH]5)c(-c5cccc(S(=O)(=O)[O-])c5F)c5nc(c(-c6cccc(S(=O)(=O)[O-])c6F)c6ccc3[nH]6)C=C5)C=C4)cc2)cc1
REMARK SMILES IDX 32 1 31 2 30 3 29 4 28 5 27 6 25 7 26 8 24 9 21 10 22 11
REMARK SMILES IDX 106 12 23 13 105 14 20 15 1 16 2 17 3 18 18 19 19 20 4 21
REMARK SMILES IDX 5 22 14 23 6 24 13 25 15 26 16 27 17 28 7 30 8 31 12 32 9 33
REMARK SMILES IDX 11 34 10 35 33 36 34 37 35 38 36 39 37 40 38 41 39 42 40 43
REMARK SMILES IDX 41 44 42 45 43 46 104 47 44 48 103 49 45 50 46 51 47 52
REMARK SMILES IDX 97 53 48 54 102 55 96 56 98 57 49 58 101 59 95 60 94 61
REMARK SMILES IDX 50 63 82 64 62 65 81 66 63 67 66 68 80 69 99 70 64 71 65 72
REMARK SMILES IDX 79 74 100 75 67 76 51 77 52 78 60 79 53 80 55 81 61 82 54 83
REMARK SMILES IDX 56 84 57 85 58 86 59 87 83 88 84 89 92 90 85 91 87 92 93 93
REMARK SMILES IDX 86 94 88 95 89 96 90 97 91 98 68 99 69 100 77 101 70 102
REMARK SMILES IDX 72 103 78 104 71 105 73 106 74 107 75 108 76 109
REMARK H PARENT 17 29 98 62 66 73
REMARK Flexibility Score: inf
ROOT
ATOM      1  C   UNL A   1      32.263  31.209  26.399  1.00  0.00     0.188 C 
ENDROOT
BRANCH   1   2
ATOM      2  C   UNL A   1      30.838  31.752  26.158  1.00  0.00     0.188 C 
BRANCH   2   3
ATOM      3  O   UNL A   1      30.170  31.553  24.919  1.00  0.00    -0.376 OA
BRANCH   3   4
ATOM      4  C   UNL A   1      29.700  32.624  24.119  1.00  0.00     0.202 C 
BRANCH   4   5
ATOM      5  C   UNL A   1      28.523  32.528  23.130  1.00  0.00     0.261 C 
BRANCH   5   6
ATOM      6  O   UNL A   1      28.825  32.281  21.760  1.00  0.00    -0.460 OA
BRANCH   6   7
ATOM      7  C   UNL A   1      28.326  31.136  21.251  1.00  0.00     0.338 C 
ATOM      8  O   UNL A   1      27.580  31.017  20.293  1.00  0.00    -0.246 OA
BRANCH   7   9
ATOM      9  C   UNL A   1      28.973  29.996  21.938  1.00  0.00     0.060 A 
ATOM     10  C   UNL A   1      30.105  27.914  23.393  1.00  0.00     0.067 A 
ATOM     11  C   UNL A   1      28.713  28.025  23.324  1.00  0.00     0.029 A 
ATOM     12  C   UNL A   1      30.924  28.762  22.633  1.00  0.00     0.029 A 
ATOM     13  C   UNL A   1      28.153  29.094  22.629  1.00  0.00     0.018 A 
ATOM     14  C   UNL A   1      30.356  29.795  21.885  1.00  0.00     0.018 A 
BRANCH  10  15
ATOM     15  N   UNL A   1      30.665  27.005  24.324  1.00  0.00    -0.217 N 
ATOM     16  C   UNL A   1      31.841  25.425  22.709  1.00  0.00     0.069 C 
ATOM     17  C   UNL A   1      31.409  25.870  24.056  1.00  0.00     0.071 A 
ATOM     18  C   UNL A   1      31.730  25.397  25.313  1.00  0.00     0.137 A 
ATOM     19  N   UNL A   1      31.296  26.266  26.269  1.00  0.00    -0.128 NA
ATOM     20  N   UNL A   1      30.708  27.284  25.651  1.00  0.00    -0.061 NA
BRANCH  18  21
ATOM     21  C   UNL A   1      32.517  24.217  25.647  1.00  0.00     0.124 A 
ATOM     22  N   UNL A   1      33.858  24.217  25.610  1.00  0.00    -0.165 NA
ATOM     23  C   UNL A   1      31.982  22.942  25.944  1.00  0.00     0.044 A 
ATOM     24  N   UNL A   1      34.193  22.916  25.752  1.00  0.00    -0.240 N 
ATOM     25  C   UNL A   1      33.092  22.120  25.956  1.00  0.00     0.125 A 
BRANCH  23  26
ATOM     26  C   UNL A   1      30.630  22.500  26.174  1.00  0.00     0.166 C 
ATOM     27  N   UNL A   1      30.023  22.803  27.271  1.00  0.00    -0.097 NA
BRANCH  27  28
ATOM     28  O   UNL A   1      28.747  22.225  27.252  1.00  0.00    -0.411 OA
ATOM     29  H   UNL A   1      28.058  22.626  26.757  1.00  0.00     0.330 HD
ENDBRANCH  27  28
ENDBRANCH  23  26
BRANCH  24  30
ATOM     30  C   UNL A   1      35.538  22.496  25.643  1.00  0.00     0.065 A 
ATOM     31  C   UNL A   1      36.568  23.402  25.924  1.00  0.00     0.028 A 
ATOM     32  C   UNL A   1      35.837  21.187  25.243  1.00  0.00     0.028 A 
ATOM     33  C   UNL A   1      37.897  22.986  25.837  1.00  0.00     0.002 A 
ATOM     34  C   UNL A   1      37.170  20.797  25.105  1.00  0.00     0.002 A 
ATOM     35  C   UNL A   1      38.199  21.690  25.415  1.00  0.00     0.000 A 
ENDBRANCH  24  30
ENDBRANCH  18  21
ENDBRANCH  10  15
ENDBRANCH   7   9
ENDBRANCH   6   7
ENDBRANCH   5   6
ENDBRANCH   4   5
ENDBRANCH   3   4
ENDBRANCH   2   3
ENDBRANCH   1   2
BRANCH   1  36
ATOM     36  O   UNL A   1      32.291  30.097  27.275  1.00  0.00    -0.377 OA
BRANCH  36  37
ATOM     37  C   UNL A   1      33.387  29.203  27.114  1.00  0.00     0.188 C 
BRANCH  37  38
ATOM     38  C   UNL A   1      34.722  29.468  27.865  1.00  0.00     0.188 C 
BRANCH  38  39
ATOM     39  O   UNL A   1      35.347  30.710  27.560  1.00  0.00    -0.376 OA
BRANCH  39  40
ATOM     40  C   UNL A   1      35.298  31.838  28.418  1.00  0.00     0.202 C 
BRANCH  40  41
ATOM     41  C   UNL A   1      35.625  31.617  29.893  1.00  0.00     0.261 C 
BRANCH  41  42
ATOM     42  O   UNL A   1      36.950  31.174  30.084  1.00  0.00    -0.460 OA
BRANCH  42  43
ATOM     43  C   UNL A   1      37.055  29.968  30.661  1.00  0.00     0.338 C 
ATOM     44  O   UNL A   1      36.644  29.637  31.768  1.00  0.00    -0.246 OA
BRANCH  43  45
ATOM     45  C   UNL A   1      37.792  29.097  29.745  1.00  0.00     0.060 A 
ATOM     46  C   UNL A   1      38.162  27.867  30.282  1.00  0.00     0.016 A 
ATOM     47  C   UNL A   1      38.469  29.709  28.676  1.00  0.00     0.016 A 
ATOM     48  C   UNL A   1      39.456  27.491  30.075  1.00  0.00     0.010 A 
ATOM     49  C   UNL A   1      39.762  29.340  28.475  1.00  0.00     0.010 A 
ATOM     50  C   UNL A   1      40.252  28.341  29.304  1.00  0.00    -0.014 A 
BRANCH  50  51
ATOM     51  C   UNL A   1      41.672  28.242  29.468  1.00  0.00     0.031 A 
ATOM     52  C   UNL A   1      42.285  27.389  28.451  1.00  0.00     0.074 A 
ATOM     53  C   UNL A   1      42.305  28.931  30.432  1.00  0.00     0.049 A 
ATOM     54  N   UNL A   1      42.705  26.183  28.619  1.00  0.00    -0.248 NA
ATOM     55  C   UNL A   1      42.188  27.823  27.053  1.00  0.00     0.031 C 
ATOM     56  C   UNL A   1      41.790  29.991  31.306  1.00  0.00     0.029 A 
ATOM     57  N   UNL A   1      43.625  28.910  30.719  1.00  0.00    -0.354 N 
ATOM     58  C   UNL A   1      43.156  25.798  27.368  1.00  0.00     0.074 A 
ATOM     59  C   UNL A   1      42.578  26.716  26.422  1.00  0.00     0.031 C 
ATOM     60  C   UNL A   1      42.838  30.682  31.812  1.00  0.00     0.029 A 
ATOM     61  C   UNL A   1      44.071  30.039  31.386  1.00  0.00     0.049 A 
ATOM     62  H   UNL A   1      44.217  28.161  30.476  1.00  0.00     0.167 HD
ATOM     63  C   UNL A   1      44.202  24.944  27.238  1.00  0.00     0.034 A 
ATOM     64  C   UNL A   1      45.360  30.455  31.436  1.00  0.00     0.034 A 
ATOM     65  C   UNL A   1      44.530  24.307  28.488  1.00  0.00     0.049 A 
ATOM     66  C   UNL A   1      46.213  29.272  31.134  1.00  0.00     0.074 A 
ATOM     67  C   UNL A   1      43.850  23.483  29.362  1.00  0.00     0.029 A 
ATOM     68  N   UNL A   1      45.581  24.840  29.200  1.00  0.00    -0.354 N 
ATOM     69  N   UNL A   1      46.279  28.229  31.917  1.00  0.00    -0.248 NA
ATOM     70  C   UNL A   1      46.588  29.027  29.747  1.00  0.00     0.031 C 
ATOM     71  C   UNL A   1      44.254  23.910  30.661  1.00  0.00     0.029 A 
ATOM     72  C   UNL A   1      45.193  24.932  30.513  1.00  0.00     0.049 A 
ATOM     73  H   UNL A   1      46.454  25.108  28.833  1.00  0.00     0.167 HD
ATOM     74  C   UNL A   1      46.243  27.137  31.055  1.00  0.00     0.074 A 
ATOM     75  C   UNL A   1      46.551  27.688  29.735  1.00  0.00     0.031 C 
ATOM     76  C   UNL A   1      45.658  25.957  31.427  1.00  0.00     0.034 A 
BRANCH  63  77
ATOM     77  C   UNL A   1      45.159  24.968  26.082  1.00  0.00     0.023 A 
ATOM     78  C   UNL A   1      45.457  23.735  25.471  1.00  0.00     0.012 A 
ATOM     79  C   UNL A   1      45.961  26.079  25.731  1.00  0.00     0.148 A 
ATOM     80  C   UNL A   1      46.525  23.607  24.581  1.00  0.00     0.002 A 
ATOM     81  C   UNL A   1      46.964  25.967  24.780  1.00  0.00     0.091 A 
ATOM     82  F   UNL A   1      45.864  27.224  26.413  1.00  0.00    -0.205 F 
ATOM     83  C   UNL A   1      47.271  24.725  24.224  1.00  0.00     0.022 A 
BRANCH  81  84
ATOM     84  S   UNL A   1      47.916  27.398  24.259  1.00  0.00     0.127 S 
ATOM     85  O   UNL A   1      48.008  28.156  25.503  1.00  0.00    -0.237 OA
ATOM     86  O   UNL A   1      49.166  26.782  23.812  1.00  0.00    -0.237 OA
ATOM     87  O   UNL A   1      47.140  28.010  23.187  1.00  0.00    -0.744 OA
ENDBRANCH  81  84
ENDBRANCH  63  77
BRANCH  64  88
ATOM     88  C   UNL A   1      45.848  31.854  31.388  1.00  0.00     0.023 A 
ATOM     89  C   UNL A   1      46.573  32.391  32.467  1.00  0.00     0.012 A 
ATOM     90  C   UNL A   1      45.804  32.597  30.184  1.00  0.00     0.148 A 
ATOM     91  C   UNL A   1      47.232  33.623  32.348  1.00  0.00     0.002 A 
ATOM     92  C   UNL A   1      46.438  33.829  30.077  1.00  0.00     0.091 A 
ATOM     93  F   UNL A   1      45.221  32.055  29.107  1.00  0.00    -0.205 F 
ATOM     94  C   UNL A   1      47.163  34.343  31.156  1.00  0.00     0.022 A 
BRANCH  92  95
ATOM     95  S   UNL A   1      46.386  34.793  28.560  1.00  0.00     0.127 S 
ATOM     96  O   UNL A   1      44.955  35.070  28.425  1.00  0.00    -0.237 OA
ATOM     97  O   UNL A   1      47.205  35.950  28.908  1.00  0.00    -0.237 OA
ATOM     98  O   UNL A   1      46.924  33.927  27.518  1.00  0.00    -0.744 OA
ENDBRANCH  92  95
ENDBRANCH  64  88
BRANCH  76  99
ATOM     99  C   UNL A   1      45.197  25.821  32.864  1.00  0.00     0.023 A 
ATOM    100  C   UNL A   1      43.914  26.244  33.274  1.00  0.00     0.012 A 
ATOM    101  C   UNL A   1      45.980  25.086  33.767  1.00  0.00     0.148 A 
ATOM    102  C   UNL A   1      43.434  25.973  34.557  1.00  0.00     0.002 A 
ATOM    103  C   UNL A   1      45.482  24.777  35.030  1.00  0.00     0.091 A 
ATOM    104  F   UNL A   1      47.190  24.669  33.365  1.00  0.00    -0.205 F 
ATOM    105  C   UNL A   1      44.215  25.228  35.432  1.00  0.00     0.022 A 
BRANCH 103 106
ATOM    106  S   UNL A   1      46.375  23.706  36.159  1.00  0.00     0.127 S 
ATOM    107  O   UNL A   1      46.484  22.470  35.387  1.00  0.00    -0.237 OA
ATOM    108  O   UNL A   1      47.638  24.425  36.342  1.00  0.00    -0.237 OA
ATOM    109  O   UNL A   1      45.559  23.625  37.364  1.00  0.00    -0.744 OA
ENDBRANCH 103 106
ENDBRANCH  76  99
ENDBRANCH  50  51
ENDBRANCH  43  45
ENDBRANCH  42  43
ENDBRANCH  41  42
ENDBRANCH  40  41
ENDBRANCH  39  40
ENDBRANCH  38  39
ENDBRANCH  37  38
ENDBRANCH  36  37
ENDBRANCH   1  36
TORSDOF 28
ENDMDL
MODEL 3
REMARK VINA RESULT:     -10.4      3.552      5.556
REMARK SMILES Cc1c(-c2nn(-c3ccccc3)cc2/C=N/O)nnn1-c1ccc(C(=O)OCCOCCOCCOCCOC(=O)c2ccc(-c3c4nc(c(-c5cccc(S(=O)(=O)[O-])c5F)c5ccc([nH]5)c(-c5cccc(S(=O)(=O)[O-])c5F)c5nc(c(-c6cccc(S(=O)(=O)[O-])c6F)c6ccc3[nH]6)C=C5)C=C4)cc2)cc1
REMARK SMILES IDX 32 1 31 2 30 3 29 4 28 5 27 6 25 7 26 8 24 9 21 10 22 11
REMARK SMILES IDX 106 12 23 13 105 14 20 15 1 16 2 17 3 18 18 19 19 20 4 21
REMARK SMILES IDX 5 22 14 23 6 24 13 25 15 26 16 27 17 28 7 30 8 31 12 32 9 33
REMARK SMILES IDX 11 34 10 35 33 36 34 37 35 38 36 39 37 40 38 41 39 42 40 43
REMARK SMILES IDX 41 44 42 45 43 46 104 47 44 48 103 49 45 50 46 51 47 52
REMARK SMILES IDX 97 53 48 54 102 55 96 56 98 57 49 58 101 59 95 60 94 61
REMARK SMILES IDX 50 63 82 64 62 65 81 66 63 67 66 68 80 69 99 70 64 71 65 72
REMARK SMILES IDX 79 74 100 75 67 76 51 77 52 78 60 79 53 80 55 81 61 82 54 83
REMARK SMILES IDX 56 84 57 85 58 86 59 87 83 88 84 89 92 90 85 91 87 92 93 93
REMARK SMILES IDX 86 94 88 95 89 96 90 97 91 98 68 99 69 100 77 101 70 102
REMARK SMILES IDX 72 103 78 104 71 105 73 106 74 107 75 108 76 109
REMARK H PARENT 17 29 98 62 66 73
REMARK Flexibility Score: inf
ROOT
ATOM      1  C   UNL A   1      34.066  31.020  27.767  1.00  0.00     0.188 C 
ENDROOT
BRANCH   1   2
ATOM      2  C   UNL A   1      33.907  29.775  26.870  1.00  0.00     0.188 C 
BRANCH   2   3
ATOM      3  O   UNL A   1      33.169  29.826  25.656  1.00  0.00    -0.376 OA
BRANCH   3   4
ATOM      4  C   UNL A   1      31.786  30.134  25.610  1.00  0.00     0.202 C 
BRANCH   4   5
ATOM      5  C   UNL A   1      30.760  29.422  24.709  1.00  0.00     0.261 C 
BRANCH   5   6
ATOM      6  O   UNL A   1      30.115  30.192  23.699  1.00  0.00    -0.460 OA
BRANCH   6   7
ATOM      7  C   UNL A   1      30.024  29.606  22.488  1.00  0.00     0.338 C 
ATOM      8  O   UNL A   1      29.383  29.993  21.526  1.00  0.00    -0.246 OA
BRANCH   7   9
ATOM      9  C   UNL A   1      30.983  28.479  22.439  1.00  0.00     0.060 A 
ATOM     10  C   UNL A   1      32.711  26.301  22.516  1.00  0.00     0.067 A 
ATOM     11  C   UNL A   1      31.331  26.082  22.494  1.00  0.00     0.029 A 
ATOM     12  C   UNL A   1      33.226  27.598  22.369  1.00  0.00     0.029 A 
ATOM     13  C   UNL A   1      30.470  27.176  22.498  1.00  0.00     0.018 A 
ATOM     14  C   UNL A   1      32.359  28.691  22.310  1.00  0.00     0.018 A 
BRANCH  10  15
ATOM     15  N   UNL A   1      33.565  25.207  22.796  1.00  0.00    -0.217 N 
ATOM     16  C   UNL A   1      33.930  25.591  25.287  1.00  0.00     0.069 C 
ATOM     17  C   UNL A   1      34.155  24.882  24.005  1.00  0.00     0.071 A 
ATOM     18  C   UNL A   1      34.835  23.715  23.721  1.00  0.00     0.137 A 
ATOM     19  N   UNL A   1      34.571  23.311  22.446  1.00  0.00    -0.128 NA
ATOM     20  N   UNL A   1      33.735  24.193  21.910  1.00  0.00    -0.061 NA
BRANCH  18  21
ATOM     21  C   UNL A   1      35.641  22.909  24.631  1.00  0.00     0.124 A 
ATOM     22  N   UNL A   1      36.869  23.282  25.019  1.00  0.00    -0.165 NA
ATOM     23  C   UNL A   1      35.280  21.632  25.120  1.00  0.00     0.044 A 
ATOM     24  N   UNL A   1      37.361  22.193  25.650  1.00  0.00    -0.240 N 
ATOM     25  C   UNL A   1      36.434  21.182  25.731  1.00  0.00     0.125 A 
BRANCH  23  26
ATOM     26  C   UNL A   1      34.051  20.886  25.036  1.00  0.00     0.166 C 
ATOM     27  N   UNL A   1      32.956  21.379  25.509  1.00  0.00    -0.097 NA
BRANCH  27  28
ATOM     28  O   UNL A   1      31.929  20.443  25.330  1.00  0.00    -0.411 OA
ATOM     29  H   UNL A   1      31.108  20.558  25.768  1.00  0.00     0.330 HD
ENDBRANCH  27  28
ENDBRANCH  23  26
BRANCH  24  30
ATOM     30  C   UNL A   1      38.700  22.159  26.105  1.00  0.00     0.065 A 
ATOM     31  C   UNL A   1      39.270  23.312  26.656  1.00  0.00     0.028 A 
ATOM     32  C   UNL A   1      39.453  20.984  25.988  1.00  0.00     0.028 A 
ATOM     33  C   UNL A   1      40.584  23.278  27.124  1.00  0.00     0.002 A 
ATOM     34  C   UNL A   1      40.784  20.975  26.408  1.00  0.00     0.002 A 
ATOM     35  C   UNL A   1      41.345  22.116  26.988  1.00  0.00     0.000 A 
ENDBRANCH  24  30
ENDBRANCH  18  21
ENDBRANCH  10  15
ENDBRANCH   7   9
ENDBRANCH   6   7
ENDBRANCH   5   6
ENDBRANCH   4   5
ENDBRANCH   3   4
ENDBRANCH   2   3
ENDBRANCH   1   2
BRANCH   1  36
ATOM     36  O   UNL A   1      35.414  31.293  28.104  1.00  0.00    -0.377 OA
BRANCH  36  37
ATOM     37  C   UNL A   1      35.828  32.649  27.976  1.00  0.00     0.188 C 
BRANCH  37  38
ATOM     38  C   UNL A   1      36.932  33.214  28.913  1.00  0.00     0.188 C 
BRANCH  38  39
ATOM     39  O   UNL A   1      36.453  33.964  30.024  1.00  0.00    -0.376 OA
BRANCH  39  40
ATOM     40  C   UNL A   1      36.279  33.413  31.319  1.00  0.00     0.202 C 
BRANCH  40  41
ATOM     41  C   UNL A   1      36.105  31.900  31.424  1.00  0.00     0.261 C 
BRANCH  41  42
ATOM     42  O   UNL A   1      37.295  31.206  31.124  1.00  0.00    -0.460 OA
BRANCH  42  43
ATOM     43  C   UNL A   1      37.236  29.883  31.336  1.00  0.00     0.338 C 
ATOM     44  O   UNL A   1      36.725  29.306  32.289  1.00  0.00    -0.246 OA
BRANCH  43  45
ATOM     45  C   UNL A   1      37.932  29.222  30.231  1.00  0.00     0.060 A 
ATOM     46  C   UNL A   1      38.242  27.884  30.455  1.00  0.00     0.016 A 
ATOM     47  C   UNL A   1      38.640  30.039  29.333  1.00  0.00     0.016 A 
ATOM     48  C   UNL A   1      39.516  27.508  30.151  1.00  0.00     0.010 A 
ATOM     49  C   UNL A   1      39.913  29.669  29.036  1.00  0.00     0.010 A 
ATOM     50  C   UNL A   1      40.354  28.479  29.597  1.00  0.00    -0.014 A 
BRANCH  50  51
ATOM     51  C   UNL A   1      41.766  28.277  29.719  1.00  0.00     0.031 A 
ATOM     52  C   UNL A   1      42.279  27.351  28.710  1.00  0.00     0.074 A 
ATOM     53  C   UNL A   1      42.482  28.943  30.641  1.00  0.00     0.049 A 
ATOM     54  N   UNL A   1      42.612  26.122  28.902  1.00  0.00    -0.248 NA
ATOM     55  C   UNL A   1      42.167  27.751  27.302  1.00  0.00     0.031 C 
ATOM     56  C   UNL A   1      42.079  30.064  31.497  1.00  0.00     0.029 A 
ATOM     57  N   UNL A   1      43.807  28.830  30.886  1.00  0.00    -0.354 N 
ATOM     58  C   UNL A   1      42.991  25.668  27.649  1.00  0.00     0.074 A 
ATOM     59  C   UNL A   1      42.451  26.600  26.694  1.00  0.00     0.031 C 
ATOM     60  C   UNL A   1      43.193  30.687  31.948  1.00  0.00     0.029 A 
ATOM     61  C   UNL A   1      44.358  29.941  31.502  1.00  0.00     0.049 A 
ATOM     62  H   UNL A   1      44.331  28.032  30.646  1.00  0.00     0.167 HD
ATOM     63  C   UNL A   1      43.965  24.734  27.512  1.00  0.00     0.034 A 
ATOM     64  C   UNL A   1      45.676  30.259  31.498  1.00  0.00     0.034 A 
ATOM     65  C   UNL A   1      44.286  24.110  28.770  1.00  0.00     0.049 A 
ATOM     66  C   UNL A   1      46.426  29.006  31.206  1.00  0.00     0.074 A 
ATOM     67  C   UNL A   1      43.577  23.365  29.692  1.00  0.00     0.029 A 
ATOM     68  N   UNL A   1      45.398  24.581  29.432  1.00  0.00    -0.354 N 
ATOM     69  N   UNL A   1      46.441  27.984  32.019  1.00  0.00    -0.248 NA
ATOM     70  C   UNL A   1      46.734  28.693  29.816  1.00  0.00     0.031 C 
ATOM     71  C   UNL A   1      44.055  23.797  30.963  1.00  0.00     0.029 A 
ATOM     72  C   UNL A   1      45.063  24.741  30.753  1.00  0.00     0.049 A 
ATOM     73  H   UNL A   1      46.276  24.771  29.029  1.00  0.00     0.167 HD
ATOM     74  C   UNL A   1      46.293  26.874  31.192  1.00  0.00     0.074 A 
ATOM     75  C   UNL A   1      46.596  27.362  29.846  1.00  0.00     0.031 C 
ATOM     76  C   UNL A   1      45.635  25.752  31.620  1.00  0.00     0.034 A 
BRANCH  63  77
ATOM     77  C   UNL A   1      44.880  24.652  26.326  1.00  0.00     0.023 A 
ATOM     78  C   UNL A   1      44.929  23.425  25.638  1.00  0.00     0.012 A 
ATOM     79  C   UNL A   1      45.866  25.616  26.009  1.00  0.00     0.148 A 
ATOM     80  C   UNL A   1      45.932  23.157  24.704  1.00  0.00     0.002 A 
ATOM     81  C   UNL A   1      46.807  25.379  25.018  1.00  0.00     0.091 A 
ATOM     82  F   UNL A   1      45.999  26.715  26.757  1.00  0.00    -0.205 F 
ATOM     83  C   UNL A   1      46.864  24.139  24.384  1.00  0.00     0.022 A 
BRANCH  81  84
ATOM     84  S   UNL A   1      47.994  26.640  24.544  1.00  0.00     0.127 S 
ATOM     85  O   UNL A   1      49.197  26.183  25.233  1.00  0.00    -0.237 OA
ATOM     86  O   UNL A   1      48.020  26.497  23.088  1.00  0.00    -0.237 OA
ATOM     87  O   UNL A   1      47.427  27.900  25.006  1.00  0.00    -0.744 OA
ENDBRANCH  81  84
ENDBRANCH  63  77
BRANCH  64  88
ATOM     88  C   UNL A   1      46.266  31.614  31.391  1.00  0.00     0.023 A 
ATOM     89  C   UNL A   1      47.310  32.004  32.248  1.00  0.00     0.012 A 
ATOM     90  C   UNL A   1      45.962  32.453  30.291  1.00  0.00     0.148 A 
ATOM     91  C   UNL A   1      48.027  33.187  32.016  1.00  0.00     0.002 A 
ATOM     92  C   UNL A   1      46.659  33.636  30.077  1.00  0.00     0.091 A 
ATOM     93  F   UNL A   1      45.053  32.047  29.396  1.00  0.00    -0.205 F 
ATOM     94  C   UNL A   1      47.702  34.003  30.934  1.00  0.00     0.022 A 
BRANCH  92  95
ATOM     95  S   UNL A   1      46.282  34.721  28.694  1.00  0.00     0.127 S 
ATOM     96  O   UNL A   1      46.641  33.887  27.546  1.00  0.00    -0.237 OA
ATOM     97  O   UNL A   1      44.850  34.946  28.866  1.00  0.00    -0.237 OA
ATOM     98  O   UNL A   1      47.132  35.893  28.864  1.00  0.00    -0.744 OA
ENDBRANCH  92  95
ENDBRANCH  64  88
BRANCH  76  99
ATOM     99  C   UNL A   1      45.215  25.693  33.073  1.00  0.00     0.023 A 
ATOM    100  C   UNL A   1      43.956  26.168  33.501  1.00  0.00     0.012 A 
ATOM    101  C   UNL A   1      46.007  24.979  33.986  1.00  0.00     0.148 A 
ATOM    102  C   UNL A   1      43.508  25.966  34.809  1.00  0.00     0.002 A 
ATOM    103  C   UNL A   1      45.539  24.739  35.276  1.00  0.00     0.091 A 
ATOM    104  F   UNL A   1      47.193  24.513  33.568  1.00  0.00    -0.205 F 
ATOM    105  C   UNL A   1      44.297  25.241  35.694  1.00  0.00     0.022 A 
BRANCH 103 106
ATOM    106  S   UNL A   1      46.439  23.697  36.426  1.00  0.00     0.127 S 
ATOM    107  O   UNL A   1      45.372  23.209  37.296  1.00  0.00    -0.237 OA
ATOM    108  O   UNL A   1      47.020  22.683  35.543  1.00  0.00    -0.237 OA
ATOM    109  O   UNL A   1      47.423  24.563  37.064  1.00  0.00    -0.744 OA
ENDBRANCH 103 106
ENDBRANCH  76  99
ENDBRANCH  50  51
ENDBRANCH  43  45
ENDBRANCH  42  43
ENDBRANCH  41  42
ENDBRANCH  40  41
ENDBRANCH  39  40
ENDBRANCH  38  39
ENDBRANCH  37  38
ENDBRANCH  36  37
ENDBRANCH   1  36
TORSDOF 28
ENDMDL
