MODEL 1
REMARK VINA RESULT:      -8.3      0.000      0.000
REMARK SMILES O=C(COCCNC(=O)c1cnn(-c2ccccc2)c1)OCCOCCOCCOCCOC(=O)c1ccc(-c2c3nc(c(-c4cccc(S(=O)(=O)[O-])c4F)c4ccc([nH]4)c(-c4cccc(S(=O)(=O)[O-])c4F)c4nc(c(-c5cccc(S(=O)(=O)[O-])c5F)c5ccc2[nH]5)C=C4)C=C3)cc1
REMARK SMILES IDX 25 1 24 2 23 3 22 4 21 5 2 6 1 7 3 8 4 9 5 10 6 11 7 12 8 13
REMARK SMILES IDX 9 15 10 16 11 17 20 18 12 19 13 20 14 21 15 22 19 23 16 24
REMARK SMILES IDX 18 25 17 26 26 27 27 28 28 29 29 30 30 31 31 32 32 33 33 34
REMARK SMILES IDX 34 35 35 36 36 37 37 38 98 39 38 40 97 41 39 42 40 43 41 44
REMARK SMILES IDX 91 45 42 46 96 47 90 48 92 49 43 50 95 51 89 52 88 53 44 55
REMARK SMILES IDX 76 56 56 57 75 58 57 59 60 60 74 61 93 62 58 63 59 64 73 66
REMARK SMILES IDX 94 67 61 68 45 69 46 70 54 71 47 72 49 73 55 74 48 75 50 76
REMARK SMILES IDX 51 77 52 78 53 79 77 80 78 81 86 82 79 83 81 84 87 85 80 86
REMARK SMILES IDX 82 87 83 88 84 89 85 90 62 91 63 92 71 93 64 94 66 95 72 96
REMARK SMILES IDX 65 97 67 98 68 99 69 100 70 101
REMARK H PARENT 7 14 92 54 60 65
REMARK Flexibility Score: inf
ROOT
ATOM      1  C   UNL A   1      35.473  30.694  27.982  1.00  0.00     0.188 C 
ENDROOT
BRANCH   1   2
ATOM      2  O   UNL A   1      36.802  30.353  28.325  1.00  0.00    -0.376 OA
BRANCH   2   3
ATOM      3  C   UNL A   1      37.428  29.087  28.154  1.00  0.00     0.202 C 
BRANCH   3   4
ATOM      4  C   UNL A   1      38.864  28.775  28.599  1.00  0.00     0.261 C 
BRANCH   4   5
ATOM      5  O   UNL A   1      39.704  28.084  27.682  1.00  0.00    -0.462 OA
BRANCH   5   6
ATOM      6  C   UNL A   1      40.425  26.993  28.032  1.00  0.00     0.332 C 
ATOM      7  O   UNL A   1      41.646  27.001  27.878  1.00  0.00    -0.250 OA
BRANCH   6   8
ATOM      8  C   UNL A   1      39.671  25.738  28.492  1.00  0.00     0.282 C 
BRANCH   8   9
ATOM      9  O   UNL A   1      39.593  24.664  27.578  1.00  0.00    -0.368 OA
BRANCH   9  10
ATOM     10  C   UNL A   1      38.304  24.460  27.009  1.00  0.00     0.182 C 
BRANCH  10  11
ATOM     11  C   UNL A   1      38.286  23.319  25.985  1.00  0.00     0.144 C 
BRANCH  11  12
ATOM     12  N   UNL A   1      37.270  22.300  26.229  1.00  0.00    -0.350 N 
ATOM     13  C   UNL A   1      35.916  22.348  26.011  1.00  0.00     0.254 C 
ATOM     14  H   UNL A   1      37.605  21.455  26.607  1.00  0.00     0.163 HD
ATOM     15  O   UNL A   1      35.195  21.511  26.544  1.00  0.00    -0.269 OA
BRANCH  13  16
ATOM     16  C   UNL A   1      35.411  23.344  25.099  1.00  0.00     0.078 A 
ATOM     17  C   UNL A   1      35.271  23.251  23.703  1.00  0.00     0.149 A 
ATOM     18  C   UNL A   1      34.839  24.562  25.409  1.00  0.00     0.128 A 
ATOM     19  N   UNL A   1      34.677  24.311  23.166  1.00  0.00    -0.176 NA
ATOM     20  N   UNL A   1      34.437  25.133  24.222  1.00  0.00    -0.240 N 
BRANCH  20  21
ATOM     21  C   UNL A   1      33.860  26.409  24.005  1.00  0.00     0.065 A 
ATOM     22  C   UNL A   1      33.552  27.209  25.116  1.00  0.00     0.028 A 
ATOM     23  C   UNL A   1      33.568  26.862  22.714  1.00  0.00     0.028 A 
ATOM     24  C   UNL A   1      32.968  28.461  24.938  1.00  0.00     0.002 A 
ATOM     25  C   UNL A   1      32.948  28.104  22.547  1.00  0.00     0.002 A 
ATOM     26  C   UNL A   1      32.656  28.903  23.654  1.00  0.00     0.000 A 
ENDBRANCH  20  21
ENDBRANCH  13  16
ENDBRANCH  11  12
ENDBRANCH  10  11
ENDBRANCH   9  10
ENDBRANCH   8   9
ENDBRANCH   6   8
ENDBRANCH   5   6
ENDBRANCH   4   5
ENDBRANCH   3   4
ENDBRANCH   2   3
ENDBRANCH   1   2
BRANCH   1  27
ATOM     27  C   UNL A   1      34.830  32.087  28.142  1.00  0.00     0.188 C 
BRANCH  27  28
ATOM     28  O   UNL A   1      35.511  33.310  28.042  1.00  0.00    -0.377 OA
BRANCH  28  29
ATOM     29  C   UNL A   1      34.782  34.502  28.045  1.00  0.00     0.188 C 
BRANCH  29  30
ATOM     30  C   UNL A   1      33.248  34.448  28.257  1.00  0.00     0.188 C 
BRANCH  30  31
ATOM     31  O   UNL A   1      32.555  34.793  29.446  1.00  0.00    -0.376 OA
BRANCH  31  32
ATOM     32  C   UNL A   1      32.947  35.733  30.434  1.00  0.00     0.202 C 
BRANCH  32  33
ATOM     33  C   UNL A   1      33.739  35.416  31.702  1.00  0.00     0.261 C 
BRANCH  33  34
ATOM     34  O   UNL A   1      34.855  34.603  31.461  1.00  0.00    -0.460 OA
BRANCH  34  35
ATOM     35  C   UNL A   1      34.676  33.346  31.914  1.00  0.00     0.338 C 
ATOM     36  O   UNL A   1      33.697  32.893  32.465  1.00  0.00    -0.246 OA
BRANCH  35  37
ATOM     37  C   UNL A   1      35.892  32.581  31.627  1.00  0.00     0.060 A 
ATOM     38  C   UNL A   1      35.925  31.314  32.203  1.00  0.00     0.016 A 
ATOM     39  C   UNL A   1      37.036  33.259  31.184  1.00  0.00     0.016 A 
ATOM     40  C   UNL A   1      37.121  30.923  32.727  1.00  0.00     0.010 A 
ATOM     41  C   UNL A   1      38.234  32.863  31.701  1.00  0.00     0.010 A 
ATOM     42  C   UNL A   1      38.207  31.795  32.587  1.00  0.00    -0.014 A 
BRANCH  42  43
ATOM     43  C   UNL A   1      39.331  31.566  33.448  1.00  0.00     0.031 A 
ATOM     44  C   UNL A   1      39.366  32.541  34.545  1.00  0.00     0.074 A 
ATOM     45  C   UNL A   1      40.195  30.563  33.210  1.00  0.00     0.049 A 
ATOM     46  N   UNL A   1      40.166  33.544  34.670  1.00  0.00    -0.248 NA
ATOM     47  C   UNL A   1      38.218  32.553  35.464  1.00  0.00     0.031 C 
ATOM     48  C   UNL A   1      40.057  29.418  32.304  1.00  0.00     0.029 A 
ATOM     49  N   UNL A   1      41.352  30.295  33.859  1.00  0.00    -0.354 N 
ATOM     50  C   UNL A   1      39.765  34.166  35.844  1.00  0.00     0.074 A 
ATOM     51  C   UNL A   1      38.446  33.676  36.141  1.00  0.00     0.031 C 
ATOM     52  C   UNL A   1      40.940  28.459  32.672  1.00  0.00     0.029 A 
ATOM     53  C   UNL A   1      41.783  28.982  33.732  1.00  0.00     0.049 A 
ATOM     54  H   UNL A   1      41.846  30.973  34.374  1.00  0.00     0.167 HD
ATOM     55  C   UNL A   1      40.667  34.799  36.636  1.00  0.00     0.034 A 
ATOM     56  C   UNL A   1      42.688  28.374  34.540  1.00  0.00     0.034 A 
ATOM     57  C   UNL A   1      41.885  35.087  35.922  1.00  0.00     0.049 A 
ATOM     58  C   UNL A   1      43.441  29.449  35.236  1.00  0.00     0.074 A 
ATOM     59  C   UNL A   1      42.198  35.843  34.811  1.00  0.00     0.029 A 
ATOM     60  N   UNL A   1      42.929  34.211  36.100  1.00  0.00    -0.354 N 
ATOM     61  N   UNL A   1      44.230  30.286  34.620  1.00  0.00    -0.248 NA
ATOM     62  C   UNL A   1      42.943  29.895  36.530  1.00  0.00     0.031 C 
ATOM     63  C   UNL A   1      43.179  35.080  34.114  1.00  0.00     0.029 A 
ATOM     64  C   UNL A   1      43.463  33.939  34.867  1.00  0.00     0.049 A 
ATOM     65  H   UNL A   1      43.239  33.844  36.959  1.00  0.00     0.167 HD
ATOM     66  C   UNL A   1      43.967  31.515  35.216  1.00  0.00     0.074 A 
ATOM     67  C   UNL A   1      43.239  31.196  36.444  1.00  0.00     0.031 C 
ATOM     68  C   UNL A   1      44.090  32.682  34.515  1.00  0.00     0.034 A 
BRANCH  55  69
ATOM     69  C   UNL A   1      40.592  34.803  38.138  1.00  0.00     0.023 A 
ATOM     70  C   UNL A   1      40.663  36.053  38.784  1.00  0.00     0.012 A 
ATOM     71  C   UNL A   1      40.717  33.650  38.949  1.00  0.00     0.148 A 
ATOM     72  C   UNL A   1      40.881  36.149  40.162  1.00  0.00     0.002 A 
ATOM     73  C   UNL A   1      40.845  33.747  40.327  1.00  0.00     0.091 A 
ATOM     74  F   UNL A   1      40.857  32.444  38.392  1.00  0.00    -0.205 F 
ATOM     75  C   UNL A   1      40.960  34.996  40.936  1.00  0.00     0.022 A 
BRANCH  73  76
ATOM     76  S   UNL A   1      40.898  32.285  41.369  1.00  0.00     0.127 S 
ATOM     77  O   UNL A   1      41.014  32.876  42.697  1.00  0.00    -0.237 OA
ATOM     78  O   UNL A   1      39.606  31.664  41.075  1.00  0.00    -0.237 OA
ATOM     79  O   UNL A   1      42.046  31.516  40.905  1.00  0.00    -0.744 OA
ENDBRANCH  73  76
ENDBRANCH  55  69
BRANCH  56  80
ATOM     80  C   UNL A   1      42.699  26.973  35.026  1.00  0.00     0.023 A 
ATOM     81  C   UNL A   1      41.609  26.488  35.778  1.00  0.00     0.012 A 
ATOM     82  C   UNL A   1      43.626  26.036  34.518  1.00  0.00     0.148 A 
ATOM     83  C   UNL A   1      41.436  25.115  35.994  1.00  0.00     0.002 A 
ATOM     84  C   UNL A   1      43.453  24.673  34.738  1.00  0.00     0.091 A 
ATOM     85  F   UNL A   1      44.624  26.473  33.739  1.00  0.00    -0.205 F 
ATOM     86  C   UNL A   1      42.351  24.207  35.468  1.00  0.00     0.022 A 
BRANCH  84  87
ATOM     87  S   UNL A   1      44.573  23.438  34.062  1.00  0.00     0.127 S 
ATOM     88  O   UNL A   1      45.862  23.877  34.598  1.00  0.00    -0.237 OA
ATOM     89  O   UNL A   1      44.053  22.206  34.648  1.00  0.00    -0.237 OA
ATOM     90  O   UNL A   1      44.457  23.546  32.613  1.00  0.00    -0.744 OA
ENDBRANCH  84  87
ENDBRANCH  56  80
BRANCH  68  91
ATOM     91  C   UNL A   1      44.727  32.624  33.148  1.00  0.00     0.023 A 
ATOM     92  C   UNL A   1      46.126  32.593  32.959  1.00  0.00     0.012 A 
ATOM     93  C   UNL A   1      43.889  32.389  32.047  1.00  0.00     0.148 A 
ATOM     94  C   UNL A   1      46.672  32.342  31.696  1.00  0.00     0.002 A 
ATOM     95  C   UNL A   1      44.434  32.091  30.805  1.00  0.00     0.091 A 
ATOM     96  F   UNL A   1      42.562  32.421  32.246  1.00  0.00    -0.205 F 
ATOM     97  C   UNL A   1      45.826  32.075  30.622  1.00  0.00     0.022 A 
BRANCH  95  98
ATOM     98  S   UNL A   1      43.399  31.598  29.426  1.00  0.00     0.127 S 
ATOM     99  O   UNL A   1      44.187  32.045  28.278  1.00  0.00    -0.237 OA
ATOM    100  O   UNL A   1      43.328  30.145  29.591  1.00  0.00    -0.237 OA
ATOM    101  O   UNL A   1      42.125  32.280  29.614  1.00  0.00    -0.744 OA
ENDBRANCH  95  98
ENDBRANCH  68  91
ENDBRANCH  42  43
ENDBRANCH  35  37
ENDBRANCH  34  35
ENDBRANCH  33  34
ENDBRANCH  32  33
ENDBRANCH  31  32
ENDBRANCH  30  31
ENDBRANCH  29  30
ENDBRANCH  28  29
ENDBRANCH  27  28
ENDBRANCH   1  27
TORSDOF 29
ENDMDL
MODEL 2
REMARK VINA RESULT:      -8.2      1.736      2.109
REMARK SMILES O=C(COCCNC(=O)c1cnn(-c2ccccc2)c1)OCCOCCOCCOCCOC(=O)c1ccc(-c2c3nc(c(-c4cccc(S(=O)(=O)[O-])c4F)c4ccc([nH]4)c(-c4cccc(S(=O)(=O)[O-])c4F)c4nc(c(-c5cccc(S(=O)(=O)[O-])c5F)c5ccc2[nH]5)C=C4)C=C3)cc1
REMARK SMILES IDX 25 1 24 2 23 3 22 4 21 5 2 6 1 7 3 8 4 9 5 10 6 11 7 12 8 13
REMARK SMILES IDX 9 15 10 16 11 17 20 18 12 19 13 20 14 21 15 22 19 23 16 24
REMARK SMILES IDX 18 25 17 26 26 27 27 28 28 29 29 30 30 31 31 32 32 33 33 34
REMARK SMILES IDX 34 35 35 36 36 37 37 38 98 39 38 40 97 41 39 42 40 43 41 44
REMARK SMILES IDX 91 45 42 46 96 47 90 48 92 49 43 50 95 51 89 52 88 53 44 55
REMARK SMILES IDX 76 56 56 57 75 58 57 59 60 60 74 61 93 62 58 63 59 64 73 66
REMARK SMILES IDX 94 67 61 68 45 69 46 70 54 71 47 72 49 73 55 74 48 75 50 76
REMARK SMILES IDX 51 77 52 78 53 79 77 80 78 81 86 82 79 83 81 84 87 85 80 86
REMARK SMILES IDX 82 87 83 88 84 89 85 90 62 91 63 92 71 93 64 94 66 95 72 96
REMARK SMILES IDX 65 97 67 98 68 99 69 100 70 101
REMARK H PARENT 7 14 92 54 60 65
REMARK Flexibility Score: inf
ROOT
ATOM      1  C   UNL A   1      35.408  30.611  27.938  1.00  0.00     0.188 C 
ENDROOT
BRANCH   1   2
ATOM      2  O   UNL A   1      36.751  30.312  28.268  1.00  0.00    -0.376 OA
BRANCH   2   3
ATOM      3  C   UNL A   1      37.396  29.050  28.153  1.00  0.00     0.202 C 
BRANCH   3   4
ATOM      4  C   UNL A   1      38.850  28.789  28.571  1.00  0.00     0.261 C 
BRANCH   4   5
ATOM      5  O   UNL A   1      39.682  28.078  27.662  1.00  0.00    -0.462 OA
BRANCH   5   6
ATOM      6  C   UNL A   1      40.391  26.983  28.026  1.00  0.00     0.332 C 
ATOM      7  O   UNL A   1      41.615  26.988  27.900  1.00  0.00    -0.250 OA
BRANCH   6   8
ATOM      8  C   UNL A   1      39.623  25.729  28.463  1.00  0.00     0.282 C 
BRANCH   8   9
ATOM      9  O   UNL A   1      39.567  24.657  27.546  1.00  0.00    -0.368 OA
BRANCH   9  10
ATOM     10  C   UNL A   1      38.292  24.449  26.949  1.00  0.00     0.182 C 
BRANCH  10  11
ATOM     11  C   UNL A   1      38.307  23.330  25.901  1.00  0.00     0.144 C 
BRANCH  11  12
ATOM     12  N   UNL A   1      37.324  22.274  26.126  1.00  0.00    -0.350 N 
ATOM     13  C   UNL A   1      35.968  22.287  25.923  1.00  0.00     0.254 C 
ATOM     14  H   UNL A   1      37.689  21.430  26.477  1.00  0.00     0.163 HD
ATOM     15  O   UNL A   1      35.277  21.414  26.440  1.00  0.00    -0.269 OA
BRANCH  13  16
ATOM     16  C   UNL A   1      35.423  23.292  25.044  1.00  0.00     0.078 A 
ATOM     17  C   UNL A   1      35.185  23.198  23.661  1.00  0.00     0.149 A 
ATOM     18  C   UNL A   1      34.901  24.523  25.387  1.00  0.00     0.128 A 
ATOM     19  N   UNL A   1      34.579  24.270  23.161  1.00  0.00    -0.176 NA
ATOM     20  N   UNL A   1      34.432  25.101  24.229  1.00  0.00    -0.240 N 
BRANCH  20  21
ATOM     21  C   UNL A   1      33.870  26.388  24.046  1.00  0.00     0.065 A 
ATOM     22  C   UNL A   1      33.598  26.828  22.742  1.00  0.00     0.028 A 
ATOM     23  C   UNL A   1      33.615  27.230  25.136  1.00  0.00     0.028 A 
ATOM     24  C   UNL A   1      33.062  28.096  22.526  1.00  0.00     0.002 A 
ATOM     25  C   UNL A   1      33.112  28.513  24.907  1.00  0.00     0.002 A 
ATOM     26  C   UNL A   1      32.830  28.942  23.609  1.00  0.00     0.000 A 
ENDBRANCH  20  21
ENDBRANCH  13  16
ENDBRANCH  11  12
ENDBRANCH  10  11
ENDBRANCH   9  10
ENDBRANCH   8   9
ENDBRANCH   6   8
ENDBRANCH   5   6
ENDBRANCH   4   5
ENDBRANCH   3   4
ENDBRANCH   2   3
ENDBRANCH   1   2
BRANCH   1  27
ATOM     27  C   UNL A   1      34.752  32.005  28.008  1.00  0.00     0.188 C 
BRANCH  27  28
ATOM     28  O   UNL A   1      35.406  33.222  27.761  1.00  0.00    -0.377 OA
BRANCH  28  29
ATOM     29  C   UNL A   1      34.667  34.408  27.758  1.00  0.00     0.188 C 
BRANCH  29  30
ATOM     30  C   UNL A   1      33.161  34.360  28.117  1.00  0.00     0.188 C 
BRANCH  30  31
ATOM     31  O   UNL A   1      32.587  34.711  29.366  1.00  0.00    -0.376 OA
BRANCH  31  32
ATOM     32  C   UNL A   1      33.099  35.622  30.328  1.00  0.00     0.202 C 
BRANCH  32  33
ATOM     33  C   UNL A   1      33.986  35.255  31.517  1.00  0.00     0.261 C 
BRANCH  33  34
ATOM     34  O   UNL A   1      35.037  34.396  31.171  1.00  0.00    -0.460 OA
BRANCH  34  35
ATOM     35  C   UNL A   1      34.835  33.140  31.613  1.00  0.00     0.338 C 
ATOM     36  O   UNL A   1      33.837  32.694  32.138  1.00  0.00    -0.246 OA
BRANCH  35  37
ATOM     37  C   UNL A   1      36.047  32.362  31.350  1.00  0.00     0.060 A 
ATOM     38  C   UNL A   1      36.061  31.098  31.934  1.00  0.00     0.016 A 
ATOM     39  C   UNL A   1      37.205  33.027  30.920  1.00  0.00     0.016 A 
ATOM     40  C   UNL A   1      37.245  30.701  32.480  1.00  0.00     0.010 A 
ATOM     41  C   UNL A   1      38.390  32.625  31.459  1.00  0.00     0.010 A 
ATOM     42  C   UNL A   1      38.341  31.563  32.350  1.00  0.00    -0.014 A 
BRANCH  42  43
ATOM     43  C   UNL A   1      39.449  31.330  33.231  1.00  0.00     0.031 A 
ATOM     44  C   UNL A   1      39.467  32.303  34.330  1.00  0.00     0.074 A 
ATOM     45  C   UNL A   1      40.315  30.326  33.006  1.00  0.00     0.049 A 
ATOM     46  N   UNL A   1      40.267  33.304  34.471  1.00  0.00    -0.248 NA
ATOM     47  C   UNL A   1      38.303  32.315  35.229  1.00  0.00     0.031 C 
ATOM     48  C   UNL A   1      40.191  29.183  32.095  1.00  0.00     0.029 A 
ATOM     49  N   UNL A   1      41.461  30.055  33.674  1.00  0.00    -0.354 N 
ATOM     50  C   UNL A   1      39.846  33.925  35.639  1.00  0.00     0.074 A 
ATOM     51  C   UNL A   1      38.522  33.437  35.911  1.00  0.00     0.031 C 
ATOM     52  C   UNL A   1      41.065  28.221  32.477  1.00  0.00     0.029 A 
ATOM     53  C   UNL A   1      41.892  28.741  33.552  1.00  0.00     0.049 A 
ATOM     54  H   UNL A   1      41.947  30.731  34.199  1.00  0.00     0.167 HD
ATOM     55  C   UNL A   1      40.737  34.555  36.447  1.00  0.00     0.034 A 
ATOM     56  C   UNL A   1      42.781  28.130  34.374  1.00  0.00     0.034 A 
ATOM     57  C   UNL A   1      41.967  34.842  35.755  1.00  0.00     0.049 A 
ATOM     58  C   UNL A   1      43.524  29.202  35.085  1.00  0.00     0.074 A 
ATOM     59  C   UNL A   1      42.300  35.598  34.650  1.00  0.00     0.029 A 
ATOM     60  N   UNL A   1      43.006  33.964  35.949  1.00  0.00    -0.354 N 
ATOM     61  N   UNL A   1      44.325  30.039  34.485  1.00  0.00    -0.248 NA
ATOM     62  C   UNL A   1      43.005  29.646  36.371  1.00  0.00     0.031 C 
ATOM     63  C   UNL A   1      43.292  34.836  33.969  1.00  0.00     0.029 A 
ATOM     64  C   UNL A   1      43.561  33.692  34.725  1.00  0.00     0.049 A 
ATOM     65  H   UNL A   1      43.300  33.594  36.813  1.00  0.00     0.167 HD
ATOM     66  C   UNL A   1      44.054  31.267  35.078  1.00  0.00     0.074 A 
ATOM     67  C   UNL A   1      43.305  30.947  36.293  1.00  0.00     0.031 C 
ATOM     68  C   UNL A   1      44.191  32.434  34.382  1.00  0.00     0.034 A 
BRANCH  55  69
ATOM     69  C   UNL A   1      40.636  34.556  37.948  1.00  0.00     0.023 A 
ATOM     70  C   UNL A   1      40.680  33.307  38.597  1.00  0.00     0.012 A 
ATOM     71  C   UNL A   1      40.245  35.673  38.723  1.00  0.00     0.148 A 
ATOM     72  C   UNL A   1      40.319  33.173  39.942  1.00  0.00     0.002 A 
ATOM     73  C   UNL A   1      39.973  35.551  40.078  1.00  0.00     0.091 A 
ATOM     74  F   UNL A   1      39.990  36.846  38.137  1.00  0.00    -0.205 F 
ATOM     75  C   UNL A   1      39.978  34.296  40.686  1.00  0.00     0.022 A 
BRANCH  73  76
ATOM     76  S   UNL A   1      39.579  36.984  41.087  1.00  0.00     0.127 S 
ATOM     77  O   UNL A   1      38.429  37.535  40.379  1.00  0.00    -0.237 OA
ATOM     78  O   UNL A   1      39.274  36.363  42.377  1.00  0.00    -0.237 OA
ATOM     79  O   UNL A   1      40.785  37.802  41.093  1.00  0.00    -0.744 OA
ENDBRANCH  73  76
ENDBRANCH  55  69
BRANCH  56  80
ATOM     80  C   UNL A   1      42.781  26.728  34.858  1.00  0.00     0.023 A 
ATOM     81  C   UNL A   1      41.666  26.236  35.567  1.00  0.00     0.012 A 
ATOM     82  C   UNL A   1      43.732  25.796  34.383  1.00  0.00     0.148 A 
ATOM     83  C   UNL A   1      41.492  24.861  35.773  1.00  0.00     0.002 A 
ATOM     84  C   UNL A   1      43.557  24.432  34.594  1.00  0.00     0.091 A 
ATOM     85  F   UNL A   1      44.756  26.240  33.643  1.00  0.00    -0.205 F 
ATOM     86  C   UNL A   1      42.431  23.959  35.281  1.00  0.00     0.022 A 
BRANCH  84  87
ATOM     87  S   UNL A   1      44.708  23.205  33.958  1.00  0.00     0.127 S 
ATOM     88  O   UNL A   1      44.200  21.974  34.565  1.00  0.00    -0.237 OA
ATOM     89  O   UNL A   1      44.496  23.311  32.517  1.00  0.00    -0.237 OA
ATOM     90  O   UNL A   1      46.025  23.608  34.434  1.00  0.00    -0.744 OA
ENDBRANCH  84  87
ENDBRANCH  56  80
BRANCH  68  91
ATOM     91  C   UNL A   1      44.851  32.378  33.025  1.00  0.00     0.023 A 
ATOM     92  C   UNL A   1      44.131  32.128  31.837  1.00  0.00     0.012 A 
ATOM     93  C   UNL A   1      46.190  32.788  32.933  1.00  0.00     0.148 A 
ATOM     94  C   UNL A   1      44.740  32.278  30.586  1.00  0.00     0.002 A 
ATOM     95  C   UNL A   1      46.776  32.984  31.690  1.00  0.00     0.091 A 
ATOM     96  F   UNL A   1      46.858  33.022  34.073  1.00  0.00    -0.205 F 
ATOM     97  C   UNL A   1      46.058  32.721  30.513  1.00  0.00     0.022 A 
BRANCH  95  98
ATOM     98  S   UNL A   1      48.417  33.690  31.533  1.00  0.00     0.127 S 
ATOM     99  O   UNL A   1      48.625  33.662  30.086  1.00  0.00    -0.237 OA
ATOM    100  O   UNL A   1      48.239  35.028  32.099  1.00  0.00    -0.237 OA
ATOM    101  O   UNL A   1      49.302  32.830  32.309  1.00  0.00    -0.744 OA
ENDBRANCH  95  98
ENDBRANCH  68  91
ENDBRANCH  42  43
ENDBRANCH  35  37
ENDBRANCH  34  35
ENDBRANCH  33  34
ENDBRANCH  32  33
ENDBRANCH  31  32
ENDBRANCH  30  31
ENDBRANCH  29  30
ENDBRANCH  28  29
ENDBRANCH  27  28
ENDBRANCH   1  27
TORSDOF 29
ENDMDL
MODEL 3
REMARK VINA RESULT:      -8.0      3.989      6.593
REMARK SMILES O=C(COCCNC(=O)c1cnn(-c2ccccc2)c1)OCCOCCOCCOCCOC(=O)c1ccc(-c2c3nc(c(-c4cccc(S(=O)(=O)[O-])c4F)c4ccc([nH]4)c(-c4cccc(S(=O)(=O)[O-])c4F)c4nc(c(-c5cccc(S(=O)(=O)[O-])c5F)c5ccc2[nH]5)C=C4)C=C3)cc1
REMARK SMILES IDX 25 1 24 2 23 3 22 4 21 5 2 6 1 7 3 8 4 9 5 10 6 11 7 12 8 13
REMARK SMILES IDX 9 15 10 16 11 17 20 18 12 19 13 20 14 21 15 22 19 23 16 24
REMARK SMILES IDX 18 25 17 26 26 27 27 28 28 29 29 30 30 31 31 32 32 33 33 34
REMARK SMILES IDX 34 35 35 36 36 37 37 38 98 39 38 40 97 41 39 42 40 43 41 44
REMARK SMILES IDX 91 45 42 46 96 47 90 48 92 49 43 50 95 51 89 52 88 53 44 55
REMARK SMILES IDX 76 56 56 57 75 58 57 59 60 60 74 61 93 62 58 63 59 64 73 66
REMARK SMILES IDX 94 67 61 68 45 69 46 70 54 71 47 72 49 73 55 74 48 75 50 76
REMARK SMILES IDX 51 77 52 78 53 79 77 80 78 81 86 82 79 83 81 84 87 85 80 86
REMARK SMILES IDX 82 87 83 88 84 89 85 90 62 91 63 92 71 93 64 94 66 95 72 96
REMARK SMILES IDX 65 97 67 98 68 99 69 100 70 101
REMARK H PARENT 7 14 92 54 60 65
REMARK Flexibility Score: inf
ROOT
ATOM      1  C   UNL A   1      34.185  30.182  27.286  1.00  0.00     0.188 C 
ENDROOT
BRANCH   1   2
ATOM      2  O   UNL A   1      33.272  29.233  26.767  1.00  0.00    -0.376 OA
BRANCH   2   3
ATOM      3  C   UNL A   1      33.537  28.250  25.775  1.00  0.00     0.202 C 
BRANCH   3   4
ATOM      4  C   UNL A   1      33.494  28.522  24.265  1.00  0.00     0.261 C 
BRANCH   4   5
ATOM      5  O   UNL A   1      34.174  27.611  23.409  1.00  0.00    -0.462 OA
BRANCH   5   6
ATOM      6  C   UNL A   1      33.590  26.488  22.928  1.00  0.00     0.332 C 
ATOM      7  O   UNL A   1      32.718  26.584  22.064  1.00  0.00    -0.250 OA
BRANCH   6   8
ATOM      8  C   UNL A   1      33.951  25.144  23.573  1.00  0.00     0.282 C 
BRANCH   8   9
ATOM      9  O   UNL A   1      34.800  25.180  24.701  1.00  0.00    -0.368 OA
BRANCH   9  10
ATOM     10  C   UNL A   1      34.379  24.367  25.790  1.00  0.00     0.182 C 
BRANCH  10  11
ATOM     11  C   UNL A   1      33.471  23.213  25.348  1.00  0.00     0.144 C 
BRANCH  11  12
ATOM     12  N   UNL A   1      32.376  22.915  26.267  1.00  0.00    -0.350 N 
ATOM     13  C   UNL A   1      31.166  23.542  26.414  1.00  0.00     0.254 C 
ATOM     14  H   UNL A   1      32.531  22.153  26.871  1.00  0.00     0.163 HD
ATOM     15  O   UNL A   1      30.504  23.335  27.427  1.00  0.00    -0.269 OA
BRANCH  13  16
ATOM     16  C   UNL A   1      30.691  24.366  25.330  1.00  0.00     0.078 A 
ATOM     17  C   UNL A   1      30.576  24.027  23.970  1.00  0.00     0.149 A 
ATOM     18  C   UNL A   1      30.132  25.625  25.406  1.00  0.00     0.128 A 
ATOM     19  N   UNL A   1      30.008  24.981  23.240  1.00  0.00    -0.176 NA
ATOM     20  N   UNL A   1      29.761  25.981  24.129  1.00  0.00    -0.240 N 
BRANCH  20  21
ATOM     21  C   UNL A   1      29.207  27.204  23.676  1.00  0.00     0.065 A 
ATOM     22  C   UNL A   1      30.073  28.261  23.358  1.00  0.00     0.028 A 
ATOM     23  C   UNL A   1      27.822  27.379  23.574  1.00  0.00     0.028 A 
ATOM     24  C   UNL A   1      29.560  29.483  22.927  1.00  0.00     0.002 A 
ATOM     25  C   UNL A   1      27.316  28.620  23.176  1.00  0.00     0.002 A 
ATOM     26  C   UNL A   1      28.181  29.664  22.847  1.00  0.00     0.000 A 
ENDBRANCH  20  21
ENDBRANCH  13  16
ENDBRANCH  11  12
ENDBRANCH  10  11
ENDBRANCH   9  10
ENDBRANCH   8   9
ENDBRANCH   6   8
ENDBRANCH   5   6
ENDBRANCH   4   5
ENDBRANCH   3   4
ENDBRANCH   2   3
ENDBRANCH   1   2
BRANCH   1  27
ATOM     27  C   UNL A   1      33.852  31.639  27.666  1.00  0.00     0.188 C 
BRANCH  27  28
ATOM     28  O   UNL A   1      34.760  32.710  27.642  1.00  0.00    -0.377 OA
BRANCH  28  29
ATOM     29  C   UNL A   1      35.216  33.247  28.849  1.00  0.00     0.188 C 
BRANCH  29  30
ATOM     30  C   UNL A   1      34.193  33.871  29.832  1.00  0.00     0.188 C 
BRANCH  30  31
ATOM     31  O   UNL A   1      34.296  33.887  31.247  1.00  0.00    -0.376 OA
BRANCH  31  32
ATOM     32  C   UNL A   1      34.460  32.775  32.115  1.00  0.00     0.202 C 
BRANCH  32  33
ATOM     33  C   UNL A   1      35.738  32.417  32.873  1.00  0.00     0.261 C 
BRANCH  33  34
ATOM     34  O   UNL A   1      36.854  32.294  32.035  1.00  0.00    -0.460 OA
BRANCH  34  35
ATOM     35  C   UNL A   1      36.975  31.052  31.527  1.00  0.00     0.338 C 
ATOM     36  O   UNL A   1      36.499  30.627  30.496  1.00  0.00    -0.246 OA
BRANCH  35  37
ATOM     37  C   UNL A   1      37.803  30.263  32.441  1.00  0.00     0.060 A 
ATOM     38  C   UNL A   1      38.893  30.950  32.971  1.00  0.00     0.016 A 
ATOM     39  C   UNL A   1      37.713  28.865  32.409  1.00  0.00     0.016 A 
ATOM     40  C   UNL A   1      40.058  30.249  33.062  1.00  0.00     0.010 A 
ATOM     41  C   UNL A   1      38.876  28.162  32.509  1.00  0.00     0.010 A 
ATOM     42  C   UNL A   1      40.037  28.903  32.677  1.00  0.00    -0.014 A 
BRANCH  42  43
ATOM     43  C   UNL A   1      41.308  28.291  32.413  1.00  0.00     0.031 A 
ATOM     44  C   UNL A   1      41.887  27.723  33.637  1.00  0.00     0.074 A 
ATOM     45  C   UNL A   1      41.831  28.283  31.174  1.00  0.00     0.049 A 
ATOM     46  N   UNL A   1      42.868  28.195  34.326  1.00  0.00    -0.248 NA
ATOM     47  C   UNL A   1      41.120  26.662  34.306  1.00  0.00     0.031 C 
ATOM     48  C   UNL A   1      41.184  28.591  29.894  1.00  0.00     0.029 A 
ATOM     49  N   UNL A   1      43.057  27.852  30.795  1.00  0.00    -0.354 N 
ATOM     50  C   UNL A   1      42.997  27.319  35.395  1.00  0.00     0.074 A 
ATOM     51  C   UNL A   1      41.773  26.568  35.463  1.00  0.00     0.031 C 
ATOM     52  C   UNL A   1      41.928  28.067  28.890  1.00  0.00     0.029 A 
ATOM     53  C   UNL A   1      43.153  27.525  29.450  1.00  0.00     0.049 A 
ATOM     54  H   UNL A   1      43.815  27.779  31.419  1.00  0.00     0.167 HD
ATOM     55  C   UNL A   1      44.214  27.072  35.945  1.00  0.00     0.034 A 
ATOM     56  C   UNL A   1      44.127  26.759  28.899  1.00  0.00     0.034 A 
ATOM     57  C   UNL A   1      45.170  28.088  35.589  1.00  0.00     0.049 A 
ATOM     58  C   UNL A   1      45.263  26.744  29.857  1.00  0.00     0.074 A 
ATOM     59  C   UNL A   1      45.255  29.450  35.796  1.00  0.00     0.029 A 
ATOM     60  N   UNL A   1      46.018  27.803  34.547  1.00  0.00    -0.354 N 
ATOM     61  N   UNL A   1      45.964  27.803  30.155  1.00  0.00    -0.248 NA
ATOM     62  C   UNL A   1      45.305  25.669  30.838  1.00  0.00     0.031 C 
ATOM     63  C   UNL A   1      45.788  29.973  34.583  1.00  0.00     0.029 A 
ATOM     64  C   UNL A   1      46.064  28.902  33.729  1.00  0.00     0.049 A 
ATOM     65  H   UNL A   1      46.507  26.959  34.410  1.00  0.00     0.167 HD
ATOM     66  C   UNL A   1      46.156  27.717  31.530  1.00  0.00     0.074 A 
ATOM     67  C   UNL A   1      45.813  26.338  31.878  1.00  0.00     0.031 C 
ATOM     68  C   UNL A   1      46.280  28.840  32.298  1.00  0.00     0.034 A 
BRANCH  55  69
ATOM     69  C   UNL A   1      44.626  25.725  36.472  1.00  0.00     0.023 A 
ATOM     70  C   UNL A   1      45.108  25.669  37.794  1.00  0.00     0.012 A 
ATOM     71  C   UNL A   1      44.809  24.573  35.669  1.00  0.00     0.148 A 
ATOM     72  C   UNL A   1      45.769  24.538  38.281  1.00  0.00     0.002 A 
ATOM     73  C   UNL A   1      45.387  23.421  36.183  1.00  0.00     0.091 A 
ATOM     74  F   UNL A   1      44.560  24.617  34.358  1.00  0.00    -0.205 F 
ATOM     75  C   UNL A   1      45.898  23.409  37.480  1.00  0.00     0.022 A 
BRANCH  73  76
ATOM     76  S   UNL A   1      45.526  21.925  35.199  1.00  0.00     0.127 S 
ATOM     77  O   UNL A   1      46.725  22.199  34.416  1.00  0.00    -0.237 OA
ATOM     78  O   UNL A   1      45.680  20.902  36.235  1.00  0.00    -0.237 OA
ATOM     79  O   UNL A   1      44.277  21.829  34.454  1.00  0.00    -0.744 OA
ENDBRANCH  73  76
ENDBRANCH  55  69
BRANCH  56  80
ATOM     80  C   UNL A   1      44.013  25.760  27.808  1.00  0.00     0.023 A 
ATOM     81  C   UNL A   1      45.075  25.600  26.896  1.00  0.00     0.012 A 
ATOM     82  C   UNL A   1      43.001  24.773  27.833  1.00  0.00     0.148 A 
ATOM     83  C   UNL A   1      45.141  24.481  26.054  1.00  0.00     0.002 A 
ATOM     84  C   UNL A   1      43.068  23.666  26.992  1.00  0.00     0.091 A 
ATOM     85  F   UNL A   1      42.026  24.871  28.745  1.00  0.00    -0.205 F 
ATOM     86  C   UNL A   1      44.143  23.511  26.108  1.00  0.00     0.022 A 
BRANCH  84  87
ATOM     87  S   UNL A   1      41.837  22.355  27.027  1.00  0.00     0.127 S 
ATOM     88  O   UNL A   1      40.589  23.116  27.079  1.00  0.00    -0.237 OA
ATOM     89  O   UNL A   1      42.087  21.673  25.761  1.00  0.00    -0.237 OA
ATOM     90  O   UNL A   1      42.116  21.578  28.228  1.00  0.00    -0.744 OA
ENDBRANCH  84  87
ENDBRANCH  56  80
BRANCH  68  91
ATOM     91  C   UNL A   1      46.420  30.169  31.595  1.00  0.00     0.023 A 
ATOM     92  C   UNL A   1      47.655  30.644  31.103  1.00  0.00     0.012 A 
ATOM     93  C   UNL A   1      45.244  30.851  31.247  1.00  0.00     0.148 A 
ATOM     94  C   UNL A   1      47.712  31.780  30.289  1.00  0.00     0.002 A 
ATOM     95  C   UNL A   1      45.298  31.948  30.399  1.00  0.00     0.091 A 
ATOM     96  F   UNL A   1      44.080  30.383  31.723  1.00  0.00    -0.205 F 
ATOM     97  C   UNL A   1      46.531  32.423  29.924  1.00  0.00     0.022 A 
BRANCH  95  98
ATOM     98  S   UNL A   1      43.804  32.724  29.780  1.00  0.00     0.127 S 
ATOM     99  O   UNL A   1      43.178  31.632  29.036  1.00  0.00    -0.237 OA
ATOM    100  O   UNL A   1      43.111  33.099  31.014  1.00  0.00    -0.237 OA
ATOM    101  O   UNL A   1      44.242  33.858  28.977  1.00  0.00    -0.744 OA
ENDBRANCH  95  98
ENDBRANCH  68  91
ENDBRANCH  42  43
ENDBRANCH  35  37
ENDBRANCH  34  35
ENDBRANCH  33  34
ENDBRANCH  32  33
ENDBRANCH  31  32
ENDBRANCH  30  31
ENDBRANCH  29  30
ENDBRANCH  28  29
ENDBRANCH  27  28
ENDBRANCH   1  27
TORSDOF 29
ENDMDL
