MODEL 1
REMARK VINA RESULT:      -7.9      0.000      0.000
REMARK SMILES N#CCC1(C[N@@H+]2CCO[C@H](CC(=O)OCCOCCOCCOCCOC(=O)c3ccc(-c4c5nc(c(-c6cccc(S(=O)(=O)[O-])c6F)c6ccc([nH]6)c(-c6cccc(S(=O)(=O)[O-])c6F)c6nc(c(-c7cccc(S(=O)(=O)[O-])c7F)c7ccc4[nH]7)C=C6)C=C5)cc3)C2)CC1
REMARK SMILES IDX 19 1 18 2 17 3 16 4 15 5 14 6 12 7 13 8 11 9 10 10 6 11 7 12
REMARK SMILES IDX 92 13 8 15 9 16 5 17 4 18 93 19 94 20 3 21 2 22 1 23 20 24
REMARK SMILES IDX 21 25 22 26 23 27 24 28 25 29 26 30 27 31 28 32 29 33 30 34
REMARK SMILES IDX 91 35 31 36 90 37 32 38 33 39 34 40 84 41 35 42 89 43 83 44
REMARK SMILES IDX 85 45 36 46 88 47 82 48 81 49 37 51 69 52 49 53 68 54 50 55
REMARK SMILES IDX 53 56 67 57 86 58 51 59 52 60 66 62 87 63 54 64 38 65 39 66
REMARK SMILES IDX 47 67 40 68 42 69 48 70 41 71 43 72 44 73 45 74 46 75 70 76
REMARK SMILES IDX 71 77 79 78 72 79 74 80 80 81 73 82 75 83 76 84 77 85 78 86
REMARK SMILES IDX 55 87 56 88 64 89 57 90 59 91 65 92 58 93 60 94 61 95 62 96
REMARK SMILES IDX 63 97
REMARK H PARENT 6 14 85 50 53 61
REMARK Flexibility Score: inf
ROOT
ATOM      1  C   UNL A   1      38.081  23.652  26.619  1.00  0.00     0.188 C 
ENDROOT
BRANCH   1   2
ATOM      2  C   UNL A   1      37.349  22.555  25.872  1.00  0.00     0.188 C 
BRANCH   2   3
ATOM      3  O   UNL A   1      36.031  22.820  25.405  1.00  0.00    -0.376 OA
BRANCH   3   4
ATOM      4  C   UNL A   1      35.704  24.111  24.886  1.00  0.00     0.202 C 
BRANCH   4   5
ATOM      5  C   UNL A   1      34.552  24.840  25.598  1.00  0.00     0.261 C 
BRANCH   5   6
ATOM      6  O   UNL A   1      33.566  23.978  26.221  1.00  0.00    -0.463 OA
BRANCH   6   7
ATOM      7  C   UNL A   1      32.431  24.571  26.672  1.00  0.00     0.308 C 
ATOM      8  O   UNL A   1      31.555  23.950  27.270  1.00  0.00    -0.252 OA
BRANCH   7   9
ATOM      9  C   UNL A   1      32.267  26.073  26.389  1.00  0.00     0.160 C 
BRANCH   9  10
ATOM     10  C   UNL A   1      30.913  26.682  26.069  1.00  0.00     0.184 C 
ATOM     11  N   UNL A   1      30.336  25.654  23.882  1.00  0.00    -0.330 N 
ATOM     12  C   UNL A   1      29.997  26.984  23.399  1.00  0.00     0.291 C 
ATOM     13  C   UNL A   1      29.992  25.752  25.300  1.00  0.00     0.295 C 
ATOM     14  H   UNL A   1      29.836  24.935  23.360  1.00  0.00     0.348 HD
ATOM     15  C   UNL A   1      31.011  27.981  23.947  1.00  0.00     0.222 C 
ATOM     16  O   UNL A   1      31.055  27.977  25.397  1.00  0.00    -0.366 OA
BRANCH  11  17
ATOM     17  C   UNL A   1      31.470  24.826  23.392  1.00  0.00     0.270 C 
BRANCH  17  18
ATOM     18  C   UNL A   1      32.446  24.807  22.154  1.00  0.00     0.032 C 
ATOM     19  C   UNL A   1      33.540  25.891  22.270  1.00  0.00     0.015 C 
ATOM     20  C   UNL A   1      32.616  25.922  21.116  1.00  0.00     0.015 C 
BRANCH  18  21
ATOM     21  C   UNL A   1      33.101  23.513  21.715  1.00  0.00     0.133 C 
BRANCH  21  22
ATOM     22  C   UNL A   1      33.041  22.570  22.905  1.00  0.00     0.063 C 
ATOM     23  N   UNL A   1      32.991  21.788  23.893  1.00  0.00    -0.198 NA
ENDBRANCH  21  22
ENDBRANCH  18  21
ENDBRANCH  17  18
ENDBRANCH  11  17
ENDBRANCH   9  10
ENDBRANCH   7   9
ENDBRANCH   6   7
ENDBRANCH   5   6
ENDBRANCH   4   5
ENDBRANCH   3   4
ENDBRANCH   2   3
ENDBRANCH   1   2
BRANCH   1  24
ATOM     24  O   UNL A   1      39.458  23.724  26.313  1.00  0.00    -0.377 OA
BRANCH  24  25
ATOM     25  C   UNL A   1      40.196  24.293  27.398  1.00  0.00     0.188 C 
BRANCH  25  26
ATOM     26  C   UNL A   1      39.267  25.260  28.125  1.00  0.00     0.188 C 
BRANCH  26  27
ATOM     27  O   UNL A   1      39.415  26.644  27.802  1.00  0.00    -0.376 OA
BRANCH  27  28
ATOM     28  C   UNL A   1      39.722  27.557  28.858  1.00  0.00     0.202 C 
BRANCH  28  29
ATOM     29  C   UNL A   1      38.983  27.347  30.180  1.00  0.00     0.261 C 
BRANCH  29  30
ATOM     30  O   UNL A   1      39.734  27.930  31.259  1.00  0.00    -0.460 OA
BRANCH  30  31
ATOM     31  C   UNL A   1      39.039  28.159  32.398  1.00  0.00     0.338 C 
ATOM     32  O   UNL A   1      38.186  27.463  32.906  1.00  0.00    -0.246 OA
BRANCH  31  33
ATOM     33  C   UNL A   1      39.652  29.314  33.069  1.00  0.00     0.060 A 
ATOM     34  C   UNL A   1      38.849  30.433  33.321  1.00  0.00     0.016 A 
ATOM     35  C   UNL A   1      41.015  29.319  33.365  1.00  0.00     0.016 A 
ATOM     36  C   UNL A   1      39.417  31.588  33.837  1.00  0.00     0.010 A 
ATOM     37  C   UNL A   1      41.595  30.494  33.838  1.00  0.00     0.010 A 
ATOM     38  C   UNL A   1      40.802  31.641  34.016  1.00  0.00    -0.014 A 
BRANCH  38  39
ATOM     39  C   UNL A   1      41.435  32.974  34.054  1.00  0.00     0.031 A 
ATOM     40  C   UNL A   1      41.835  33.581  32.737  1.00  0.00     0.074 A 
ATOM     41  C   UNL A   1      41.593  33.637  35.209  1.00  0.00     0.049 A 
ATOM     42  N   UNL A   1      42.410  34.726  32.492  1.00  0.00    -0.248 NA
ATOM     43  C   UNL A   1      41.544  32.786  31.529  1.00  0.00     0.031 C 
ATOM     44  C   UNL A   1      41.197  33.147  36.528  1.00  0.00     0.029 A 
ATOM     45  N   UNL A   1      42.146  34.866  35.451  1.00  0.00    -0.354 N 
ATOM     46  C   UNL A   1      42.580  34.772  31.114  1.00  0.00     0.074 A 
ATOM     47  C   UNL A   1      42.058  33.541  30.573  1.00  0.00     0.031 C 
ATOM     48  C   UNL A   1      41.554  34.058  37.451  1.00  0.00     0.029 A 
ATOM     49  C   UNL A   1      42.221  35.174  36.786  1.00  0.00     0.049 A 
ATOM     50  H   UNL A   1      42.460  35.467  34.738  1.00  0.00     0.167 HD
ATOM     51  C   UNL A   1      43.119  35.762  30.364  1.00  0.00     0.034 A 
ATOM     52  C   UNL A   1      42.793  36.232  37.393  1.00  0.00     0.034 A 
ATOM     53  C   UNL A   1      43.629  36.982  30.919  1.00  0.00     0.049 A 
ATOM     54  C   UNL A   1      43.414  37.306  36.539  1.00  0.00     0.074 A 
ATOM     55  C   UNL A   1      44.181  38.064  30.259  1.00  0.00     0.029 A 
ATOM     56  N   UNL A   1      43.665  37.276  32.274  1.00  0.00    -0.354 N 
ATOM     57  N   UNL A   1      43.506  37.375  35.231  1.00  0.00    -0.248 NA
ATOM     58  C   UNL A   1      43.974  38.468  37.241  1.00  0.00     0.031 C 
ATOM     59  C   UNL A   1      44.587  38.996  31.220  1.00  0.00     0.029 A 
ATOM     60  C   UNL A   1      44.235  38.519  32.473  1.00  0.00     0.049 A 
ATOM     61  H   UNL A   1      43.334  36.685  32.989  1.00  0.00     0.167 HD
ATOM     62  C   UNL A   1      44.085  38.608  34.952  1.00  0.00     0.074 A 
ATOM     63  C   UNL A   1      44.311  39.256  36.228  1.00  0.00     0.031 C 
ATOM     64  C   UNL A   1      44.401  39.159  33.753  1.00  0.00     0.034 A 
BRANCH  51  65
ATOM     65  C   UNL A   1      43.190  35.548  28.876  1.00  0.00     0.023 A 
ATOM     66  C   UNL A   1      42.121  35.949  28.048  1.00  0.00     0.012 A 
ATOM     67  C   UNL A   1      44.334  34.971  28.293  1.00  0.00     0.148 A 
ATOM     68  C   UNL A   1      42.176  35.745  26.669  1.00  0.00     0.002 A 
ATOM     69  C   UNL A   1      44.404  34.819  26.914  1.00  0.00     0.091 A 
ATOM     70  F   UNL A   1      45.327  34.568  29.100  1.00  0.00    -0.205 F 
ATOM     71  C   UNL A   1      43.320  35.191  26.102  1.00  0.00     0.022 A 
BRANCH  69  72
ATOM     72  S   UNL A   1      45.866  34.194  26.082  1.00  0.00     0.127 S 
ATOM     73  O   UNL A   1      45.466  34.275  24.678  1.00  0.00    -0.237 OA
ATOM     74  O   UNL A   1      46.884  35.164  26.484  1.00  0.00    -0.237 OA
ATOM     75  O   UNL A   1      46.075  32.846  26.591  1.00  0.00    -0.744 OA
ENDBRANCH  69  72
ENDBRANCH  51  65
BRANCH  52  76
ATOM     76  C   UNL A   1      42.783  36.338  38.878  1.00  0.00     0.023 A 
ATOM     77  C   UNL A   1      43.834  35.781  39.631  1.00  0.00     0.012 A 
ATOM     78  C   UNL A   1      41.734  36.999  39.547  1.00  0.00     0.148 A 
ATOM     79  C   UNL A   1      43.822  35.845  41.024  1.00  0.00     0.002 A 
ATOM     80  C   UNL A   1      41.757  37.110  40.932  1.00  0.00     0.091 A 
ATOM     81  F   UNL A   1      40.737  37.513  38.813  1.00  0.00    -0.205 F 
ATOM     82  C   UNL A   1      42.789  36.517  41.674  1.00  0.00     0.022 A 
BRANCH  80  83
ATOM     83  S   UNL A   1      40.539  38.064  41.843  1.00  0.00     0.127 S 
ATOM     84  O   UNL A   1      40.594  39.353  41.156  1.00  0.00    -0.237 OA
ATOM     85  O   UNL A   1      39.319  37.292  41.610  1.00  0.00    -0.237 OA
ATOM     86  O   UNL A   1      40.993  38.068  43.226  1.00  0.00    -0.744 OA
ENDBRANCH  80  83
ENDBRANCH  52  76
BRANCH  64  87
ATOM     87  C   UNL A   1      44.952  40.561  33.757  1.00  0.00     0.023 A 
ATOM     88  C   UNL A   1      46.341  40.786  33.811  1.00  0.00     0.012 A 
ATOM     89  C   UNL A   1      44.076  41.661  33.651  1.00  0.00     0.148 A 
ATOM     90  C   UNL A   1      46.848  42.084  33.812  1.00  0.00     0.002 A 
ATOM     91  C   UNL A   1      44.591  42.948  33.592  1.00  0.00     0.091 A 
ATOM     92  F   UNL A   1      42.756  41.428  33.616  1.00  0.00    -0.205 F 
ATOM     93  C   UNL A   1      45.975  43.164  33.691  1.00  0.00     0.022 A 
BRANCH  91  94
ATOM     94  S   UNL A   1      43.547  44.385  33.326  1.00  0.00     0.127 S 
ATOM     95  O   UNL A   1      44.521  45.474  33.386  1.00  0.00    -0.237 OA
ATOM     96  O   UNL A   1      42.999  44.128  31.994  1.00  0.00    -0.237 OA
ATOM     97  O   UNL A   1      42.561  44.367  34.398  1.00  0.00    -0.744 OA
ENDBRANCH  91  94
ENDBRANCH  64  87
ENDBRANCH  38  39
ENDBRANCH  31  33
ENDBRANCH  30  31
ENDBRANCH  29  30
ENDBRANCH  28  29
ENDBRANCH  27  28
ENDBRANCH  26  27
ENDBRANCH  25  26
ENDBRANCH  24  25
ENDBRANCH   1  24
TORSDOF 28
ENDMDL
MODEL 2
REMARK VINA RESULT:      -7.5      5.581      9.672
REMARK SMILES N#CCC1(C[N@@H+]2CCO[C@H](CC(=O)OCCOCCOCCOCCOC(=O)c3ccc(-c4c5nc(c(-c6cccc(S(=O)(=O)[O-])c6F)c6ccc([nH]6)c(-c6cccc(S(=O)(=O)[O-])c6F)c6nc(c(-c7cccc(S(=O)(=O)[O-])c7F)c7ccc4[nH]7)C=C6)C=C5)cc3)C2)CC1
REMARK SMILES IDX 19 1 18 2 17 3 16 4 15 5 14 6 12 7 13 8 11 9 10 10 6 11 7 12
REMARK SMILES IDX 92 13 8 15 9 16 5 17 4 18 93 19 94 20 3 21 2 22 1 23 20 24
REMARK SMILES IDX 21 25 22 26 23 27 24 28 25 29 26 30 27 31 28 32 29 33 30 34
REMARK SMILES IDX 91 35 31 36 90 37 32 38 33 39 34 40 84 41 35 42 89 43 83 44
REMARK SMILES IDX 85 45 36 46 88 47 82 48 81 49 37 51 69 52 49 53 68 54 50 55
REMARK SMILES IDX 53 56 67 57 86 58 51 59 52 60 66 62 87 63 54 64 38 65 39 66
REMARK SMILES IDX 47 67 40 68 42 69 48 70 41 71 43 72 44 73 45 74 46 75 70 76
REMARK SMILES IDX 71 77 79 78 72 79 74 80 80 81 73 82 75 83 76 84 77 85 78 86
REMARK SMILES IDX 55 87 56 88 64 89 57 90 59 91 65 92 58 93 60 94 61 95 62 96
REMARK SMILES IDX 63 97
REMARK H PARENT 6 14 85 50 53 61
REMARK Flexibility Score: inf
ROOT
ATOM      1  C   UNL A   1      34.040  29.630  25.831  1.00  0.00     0.188 C 
ENDROOT
BRANCH   1   2
ATOM      2  C   UNL A   1      33.316  28.886  24.727  1.00  0.00     0.188 C 
BRANCH   2   3
ATOM      3  O   UNL A   1      33.329  27.464  24.752  1.00  0.00    -0.376 OA
BRANCH   3   4
ATOM      4  C   UNL A   1      33.077  26.768  25.974  1.00  0.00     0.202 C 
BRANCH   4   5
ATOM      5  C   UNL A   1      31.694  27.007  26.602  1.00  0.00     0.261 C 
BRANCH   5   6
ATOM      6  O   UNL A   1      30.872  25.822  26.756  1.00  0.00    -0.463 OA
BRANCH   6   7
ATOM      7  C   UNL A   1      30.319  25.310  25.625  1.00  0.00     0.308 C 
ATOM      8  O   UNL A   1      29.311  25.788  25.110  1.00  0.00    -0.252 OA
BRANCH   7   9
ATOM      9  C   UNL A   1      31.001  24.078  25.009  1.00  0.00     0.160 C 
BRANCH   9  10
ATOM     10  C   UNL A   1      30.880  23.755  23.529  1.00  0.00     0.184 C 
ATOM     11  N   UNL A   1      33.106  22.803  22.976  1.00  0.00    -0.330 N 
ATOM     12  C   UNL A   1      33.143  23.684  21.819  1.00  0.00     0.291 C 
ATOM     13  C   UNL A   1      31.674  22.534  23.104  1.00  0.00     0.295 C 
ATOM     14  H   UNL A   1      33.694  21.982  22.832  1.00  0.00     0.348 HD
ATOM     15  C   UNL A   1      32.557  25.035  22.208  1.00  0.00     0.222 C 
ATOM     16  O   UNL A   1      31.197  24.921  22.700  1.00  0.00    -0.366 OA
BRANCH  11  17
ATOM     17  C   UNL A   1      34.009  22.896  24.154  1.00  0.00     0.270 C 
BRANCH  17  18
ATOM     18  C   UNL A   1      34.552  21.937  25.281  1.00  0.00     0.032 C 
ATOM     19  C   UNL A   1      35.690  21.031  24.763  1.00  0.00     0.015 C 
ATOM     20  C   UNL A   1      34.458  20.408  25.293  1.00  0.00     0.015 C 
BRANCH  18  21
ATOM     21  C   UNL A   1      34.961  22.494  26.629  1.00  0.00     0.133 C 
BRANCH  21  22
ATOM     22  C   UNL A   1      33.710  22.506  27.493  1.00  0.00     0.063 C 
ATOM     23  N   UNL A   1      32.673  22.515  28.209  1.00  0.00    -0.198 NA
ENDBRANCH  21  22
ENDBRANCH  18  21
ENDBRANCH  17  18
ENDBRANCH  11  17
ENDBRANCH   9  10
ENDBRANCH   7   9
ENDBRANCH   6   7
ENDBRANCH   5   6
ENDBRANCH   4   5
ENDBRANCH   3   4
ENDBRANCH   2   3
ENDBRANCH   1   2
BRANCH   1  24
ATOM     24  O   UNL A   1      33.205  30.495  26.574  1.00  0.00    -0.377 OA
BRANCH  24  25
ATOM     25  C   UNL A   1      33.873  30.972  27.746  1.00  0.00     0.188 C 
BRANCH  25  26
ATOM     26  C   UNL A   1      33.804  32.496  27.721  1.00  0.00     0.188 C 
BRANCH  26  27
ATOM     27  O   UNL A   1      34.861  33.188  28.388  1.00  0.00    -0.376 OA
BRANCH  27  28
ATOM     28  C   UNL A   1      34.556  33.889  29.597  1.00  0.00     0.202 C 
BRANCH  28  29
ATOM     29  C   UNL A   1      35.564  33.756  30.739  1.00  0.00     0.261 C 
BRANCH  29  30
ATOM     30  O   UNL A   1      36.903  33.846  30.223  1.00  0.00    -0.460 OA
BRANCH  30  31
ATOM     31  C   UNL A   1      37.884  33.455  31.070  1.00  0.00     0.338 C 
ATOM     32  O   UNL A   1      37.837  32.595  31.923  1.00  0.00    -0.246 OA
BRANCH  31  33
ATOM     33  C   UNL A   1      39.129  34.105  30.638  1.00  0.00     0.060 A 
ATOM     34  C   UNL A   1      39.258  34.452  29.287  1.00  0.00     0.016 A 
ATOM     35  C   UNL A   1      40.179  34.292  31.537  1.00  0.00     0.016 A 
ATOM     36  C   UNL A   1      40.462  34.952  28.815  1.00  0.00     0.010 A 
ATOM     37  C   UNL A   1      41.403  34.749  31.054  1.00  0.00     0.010 A 
ATOM     38  C   UNL A   1      41.555  35.021  29.683  1.00  0.00    -0.014 A 
BRANCH  38  39
ATOM     39  C   UNL A   1      42.903  35.044  29.083  1.00  0.00     0.031 A 
ATOM     40  C   UNL A   1      43.434  36.379  28.637  1.00  0.00     0.074 A 
ATOM     41  C   UNL A   1      43.644  33.929  28.993  1.00  0.00     0.049 A 
ATOM     42  N   UNL A   1      44.575  36.673  28.078  1.00  0.00    -0.248 NA
ATOM     43  C   UNL A   1      42.555  37.543  28.856  1.00  0.00     0.031 C 
ATOM     44  C   UNL A   1      43.231  32.599  29.437  1.00  0.00     0.029 A 
ATOM     45  N   UNL A   1      44.899  33.744  28.479  1.00  0.00    -0.354 N 
ATOM     46  C   UNL A   1      44.536  38.043  27.847  1.00  0.00     0.074 A 
ATOM     47  C   UNL A   1      43.259  38.524  28.316  1.00  0.00     0.031 C 
ATOM     48  C   UNL A   1      44.209  31.724  29.142  1.00  0.00     0.029 A 
ATOM     49  C   UNL A   1      45.296  32.431  28.471  1.00  0.00     0.049 A 
ATOM     50  H   UNL A   1      45.461  34.482  28.147  1.00  0.00     0.167 HD
ATOM     51  C   UNL A   1      45.488  38.832  27.298  1.00  0.00     0.034 A 
ATOM     52  C   UNL A   1      46.405  31.871  27.951  1.00  0.00     0.034 A 
ATOM     53  C   UNL A   1      46.755  38.338  26.841  1.00  0.00     0.049 A 
ATOM     54  C   UNL A   1      47.437  32.766  27.317  1.00  0.00     0.074 A 
ATOM     55  C   UNL A   1      47.805  39.043  26.284  1.00  0.00     0.029 A 
ATOM     56  N   UNL A   1      47.137  37.005  26.873  1.00  0.00    -0.354 N 
ATOM     57  N   UNL A   1      47.423  34.070  27.168  1.00  0.00    -0.248 NA
ATOM     58  C   UNL A   1      48.656  32.119  26.816  1.00  0.00     0.031 C 
ATOM     59  C   UNL A   1      48.807  38.129  25.943  1.00  0.00     0.029 A 
ATOM     60  C   UNL A   1      48.404  36.863  26.342  1.00  0.00     0.049 A 
ATOM     61  H   UNL A   1      46.585  36.268  27.223  1.00  0.00     0.167 HD
ATOM     62  C   UNL A   1      48.650  34.405  26.605  1.00  0.00     0.074 A 
ATOM     63  C   UNL A   1      49.385  33.166  26.452  1.00  0.00     0.031 C 
ATOM     64  C   UNL A   1      49.130  35.623  26.248  1.00  0.00     0.034 A 
BRANCH  51  65
ATOM     65  C   UNL A   1      45.180  40.299  27.155  1.00  0.00     0.023 A 
ATOM     66  C   UNL A   1      44.605  40.792  25.966  1.00  0.00     0.012 A 
ATOM     67  C   UNL A   1      45.438  41.187  28.216  1.00  0.00     0.148 A 
ATOM     68  C   UNL A   1      44.326  42.151  25.822  1.00  0.00     0.002 A 
ATOM     69  C   UNL A   1      45.110  42.531  28.086  1.00  0.00     0.091 A 
ATOM     70  F   UNL A   1      46.013  40.706  29.327  1.00  0.00    -0.205 F 
ATOM     71  C   UNL A   1      44.568  43.017  26.884  1.00  0.00     0.022 A 
BRANCH  69  72
ATOM     72  S   UNL A   1      45.305  43.709  29.425  1.00  0.00     0.127 S 
ATOM     73  O   UNL A   1      46.652  43.397  29.900  1.00  0.00    -0.237 OA
ATOM     74  O   UNL A   1      45.186  44.988  28.727  1.00  0.00    -0.237 OA
ATOM     75  O   UNL A   1      44.232  43.429  30.370  1.00  0.00    -0.744 OA
ENDBRANCH  69  72
ENDBRANCH  51  65
BRANCH  52  76
ATOM     76  C   UNL A   1      46.607  30.397  28.031  1.00  0.00     0.023 A 
ATOM     77  C   UNL A   1      47.313  29.842  29.115  1.00  0.00     0.012 A 
ATOM     78  C   UNL A   1      46.092  29.543  27.037  1.00  0.00     0.148 A 
ATOM     79  C   UNL A   1      47.536  28.467  29.189  1.00  0.00     0.002 A 
ATOM     80  C   UNL A   1      46.268  28.170  27.145  1.00  0.00     0.091 A 
ATOM     81  F   UNL A   1      45.431  30.092  26.008  1.00  0.00    -0.205 F 
ATOM     82  C   UNL A   1      47.007  27.630  28.209  1.00  0.00     0.022 A 
BRANCH  80  83
ATOM     83  S   UNL A   1      45.514  27.008  26.001  1.00  0.00     0.127 S 
ATOM     84  O   UNL A   1      44.143  26.945  26.500  1.00  0.00    -0.237 OA
ATOM     85  O   UNL A   1      45.676  27.700  24.723  1.00  0.00    -0.237 OA
ATOM     86  O   UNL A   1      46.286  25.779  26.120  1.00  0.00    -0.744 OA
ENDBRANCH  80  83
ENDBRANCH  52  76
BRANCH  64  87
ATOM     87  C   UNL A   1      50.543  35.688  25.730  1.00  0.00     0.023 A 
ATOM     88  C   UNL A   1      50.799  35.697  24.345  1.00  0.00     0.012 A 
ATOM     89  C   UNL A   1      51.619  35.794  26.633  1.00  0.00     0.148 A 
ATOM     90  C   UNL A   1      52.108  35.759  23.868  1.00  0.00     0.002 A 
ATOM     91  C   UNL A   1      52.914  35.917  26.151  1.00  0.00     0.091 A 
ATOM     92  F   UNL A   1      51.357  35.768  27.949  1.00  0.00    -0.205 F 
ATOM     93  C   UNL A   1      53.163  35.880  24.770  1.00  0.00     0.022 A 
BRANCH  91  94
ATOM     94  S   UNL A   1      54.319  36.187  27.238  1.00  0.00     0.127 S 
ATOM     95  O   UNL A   1      55.415  36.315  26.279  1.00  0.00    -0.237 OA
ATOM     96  O   UNL A   1      53.952  37.431  27.915  1.00  0.00    -0.237 OA
ATOM     97  O   UNL A   1      54.381  35.022  28.110  1.00  0.00    -0.744 OA
ENDBRANCH  91  94
ENDBRANCH  64  87
ENDBRANCH  38  39
ENDBRANCH  31  33
ENDBRANCH  30  31
ENDBRANCH  29  30
ENDBRANCH  28  29
ENDBRANCH  27  28
ENDBRANCH  26  27
ENDBRANCH  25  26
ENDBRANCH  24  25
ENDBRANCH   1  24
TORSDOF 28
ENDMDL
MODEL 3
REMARK VINA RESULT:      -7.3     10.178     15.488
REMARK SMILES N#CCC1(C[N@@H+]2CCO[C@H](CC(=O)OCCOCCOCCOCCOC(=O)c3ccc(-c4c5nc(c(-c6cccc(S(=O)(=O)[O-])c6F)c6ccc([nH]6)c(-c6cccc(S(=O)(=O)[O-])c6F)c6nc(c(-c7cccc(S(=O)(=O)[O-])c7F)c7ccc4[nH]7)C=C6)C=C5)cc3)C2)CC1
REMARK SMILES IDX 19 1 18 2 17 3 16 4 15 5 14 6 12 7 13 8 11 9 10 10 6 11 7 12
REMARK SMILES IDX 92 13 8 15 9 16 5 17 4 18 93 19 94 20 3 21 2 22 1 23 20 24
REMARK SMILES IDX 21 25 22 26 23 27 24 28 25 29 26 30 27 31 28 32 29 33 30 34
REMARK SMILES IDX 91 35 31 36 90 37 32 38 33 39 34 40 84 41 35 42 89 43 83 44
REMARK SMILES IDX 85 45 36 46 88 47 82 48 81 49 37 51 69 52 49 53 68 54 50 55
REMARK SMILES IDX 53 56 67 57 86 58 51 59 52 60 66 62 87 63 54 64 38 65 39 66
REMARK SMILES IDX 47 67 40 68 42 69 48 70 41 71 43 72 44 73 45 74 46 75 70 76
REMARK SMILES IDX 71 77 79 78 72 79 74 80 80 81 73 82 75 83 76 84 77 85 78 86
REMARK SMILES IDX 55 87 56 88 64 89 57 90 59 91 65 92 58 93 60 94 61 95 62 96
REMARK SMILES IDX 63 97
REMARK H PARENT 6 14 85 50 53 61
REMARK Flexibility Score: inf
ROOT
ATOM      1  C   UNL A   1      47.972  19.969  38.458  1.00  0.00     0.188 C 
ENDROOT
BRANCH   1   2
ATOM      2  C   UNL A   1      46.762  19.214  37.944  1.00  0.00     0.188 C 
BRANCH   2   3
ATOM      3  O   UNL A   1      45.998  18.452  38.871  1.00  0.00    -0.376 OA
BRANCH   3   4
ATOM      4  C   UNL A   1      46.658  17.646  39.849  1.00  0.00     0.202 C 
BRANCH   4   5
ATOM      5  C   UNL A   1      45.927  16.354  40.249  1.00  0.00     0.261 C 
BRANCH   5   6
ATOM      6  O   UNL A   1      45.128  16.445  41.456  1.00  0.00    -0.463 OA
BRANCH   6   7
ATOM      7  C   UNL A   1      43.782  16.338  41.309  1.00  0.00     0.308 C 
ATOM      8  O   UNL A   1      43.167  16.922  40.419  1.00  0.00    -0.252 OA
BRANCH   7   9
ATOM      9  C   UNL A   1      43.035  15.457  42.323  1.00  0.00     0.160 C 
BRANCH   9  10
ATOM     10  C   UNL A   1      41.671  14.863  42.014  1.00  0.00     0.184 C 
ATOM     11  N   UNL A   1      41.489  12.991  43.636  1.00  0.00    -0.330 N 
ATOM     12  C   UNL A   1      41.065  12.140  42.535  1.00  0.00     0.291 C 
ATOM     13  C   UNL A   1      40.963  14.294  43.230  1.00  0.00     0.295 C 
ATOM     14  H   UNL A   1      41.142  12.639  44.528  1.00  0.00     0.348 HD
ATOM     15  C   UNL A   1      41.885  12.489  41.299  1.00  0.00     0.222 C 
ATOM     16  O   UNL A   1      41.748  13.884  40.927  1.00  0.00    -0.366 OA
BRANCH  11  17
ATOM     17  C   UNL A   1      42.761  12.846  44.393  1.00  0.00     0.270 C 
BRANCH  17  18
ATOM     18  C   UNL A   1      43.535  11.705  45.159  1.00  0.00     0.032 C 
ATOM     19  C   UNL A   1      44.574  11.010  44.252  1.00  0.00     0.015 C 
ATOM     20  C   UNL A   1      43.483  10.206  44.845  1.00  0.00     0.015 C 
BRANCH  18  21
ATOM     21  C   UNL A   1      44.183  11.986  46.499  1.00  0.00     0.133 C 
BRANCH  21  22
ATOM     22  C   UNL A   1      43.630  13.318  46.979  1.00  0.00     0.063 C 
ATOM     23  N   UNL A   1      43.171  14.424  47.376  1.00  0.00    -0.198 NA
ENDBRANCH  21  22
ENDBRANCH  18  21
ENDBRANCH  17  18
ENDBRANCH  11  17
ENDBRANCH   9  10
ENDBRANCH   7   9
ENDBRANCH   6   7
ENDBRANCH   5   6
ENDBRANCH   4   5
ENDBRANCH   3   4
ENDBRANCH   2   3
ENDBRANCH   1   2
BRANCH   1  24
ATOM     24  O   UNL A   1      49.196  19.302  38.226  1.00  0.00    -0.377 OA
BRANCH  24  25
ATOM     25  C   UNL A   1      49.787  19.729  36.995  1.00  0.00     0.188 C 
BRANCH  25  26
ATOM     26  C   UNL A   1      49.664  21.249  36.932  1.00  0.00     0.188 C 
BRANCH  26  27
ATOM     27  O   UNL A   1      49.301  21.802  35.666  1.00  0.00    -0.376 OA
BRANCH  27  28
ATOM     28  C   UNL A   1      48.932  20.905  34.616  1.00  0.00     0.202 C 
BRANCH  28  29
ATOM     29  C   UNL A   1      47.436  20.646  34.431  1.00  0.00     0.261 C 
BRANCH  29  30
ATOM     30  O   UNL A   1      46.680  21.495  35.311  1.00  0.00    -0.460 OA
BRANCH  30  31
ATOM     31  C   UNL A   1      45.350  21.559  35.062  1.00  0.00     0.338 C 
ATOM     32  O   UNL A   1      44.533  20.667  35.133  1.00  0.00    -0.246 OA
BRANCH  31  33
ATOM     33  C   UNL A   1      44.997  22.976  34.899  1.00  0.00     0.060 A 
ATOM     34  C   UNL A   1      43.691  23.289  34.502  1.00  0.00     0.016 A 
ATOM     35  C   UNL A   1      45.963  23.969  35.057  1.00  0.00     0.016 A 
ATOM     36  C   UNL A   1      43.352  24.603  34.217  1.00  0.00     0.010 A 
ATOM     37  C   UNL A   1      45.637  25.282  34.725  1.00  0.00     0.010 A 
ATOM     38  C   UNL A   1      44.348  25.583  34.249  1.00  0.00    -0.014 A 
BRANCH  38  39
ATOM     39  C   UNL A   1      44.121  26.814  33.469  1.00  0.00     0.031 A 
ATOM     40  C   UNL A   1      43.738  28.051  34.234  1.00  0.00     0.074 A 
ATOM     41  C   UNL A   1      44.305  26.840  32.141  1.00  0.00     0.049 A 
ATOM     42  N   UNL A   1      43.477  29.251  33.794  1.00  0.00    -0.248 NA
ATOM     43  C   UNL A   1      43.638  27.914  35.700  1.00  0.00     0.031 C 
ATOM     44  C   UNL A   1      44.717  25.703  31.320  1.00  0.00     0.029 A 
ATOM     45  N   UNL A   1      44.151  27.868  31.249  1.00  0.00    -0.354 N 
ATOM     46  C   UNL A   1      43.149  29.999  34.919  1.00  0.00     0.074 A 
ATOM     47  C   UNL A   1      43.234  29.121  36.061  1.00  0.00     0.031 C 
ATOM     48  C   UNL A   1      44.750  26.090  30.032  1.00  0.00     0.029 A 
ATOM     49  C   UNL A   1      44.338  27.489  29.944  1.00  0.00     0.049 A 
ATOM     50  H   UNL A   1      43.927  28.788  31.519  1.00  0.00     0.167 HD
ATOM     51  C   UNL A   1      42.814  31.307  34.993  1.00  0.00     0.034 A 
ATOM     52  C   UNL A   1      44.166  28.195  28.811  1.00  0.00     0.034 A 
ATOM     53  C   UNL A   1      42.739  32.168  33.846  1.00  0.00     0.049 A 
ATOM     54  C   UNL A   1      43.762  29.643  28.916  1.00  0.00     0.074 A 
ATOM     55  C   UNL A   1      42.429  33.514  33.798  1.00  0.00     0.029 A 
ATOM     56  N   UNL A   1      42.963  31.758  32.540  1.00  0.00    -0.354 N 
ATOM     57  N   UNL A   1      43.525  30.360  29.988  1.00  0.00    -0.248 NA
ATOM     58  C   UNL A   1      43.643  30.389  27.657  1.00  0.00     0.031 C 
ATOM     59  C   UNL A   1      42.425  33.909  32.457  1.00  0.00     0.029 A 
ATOM     60  C   UNL A   1      42.791  32.822  31.676  1.00  0.00     0.049 A 
ATOM     61  H   UNL A   1      43.206  30.844  32.269  1.00  0.00     0.167 HD
ATOM     62  C   UNL A   1      43.280  31.653  29.539  1.00  0.00     0.074 A 
ATOM     63  C   UNL A   1      43.410  31.619  28.096  1.00  0.00     0.031 C 
ATOM     64  C   UNL A   1      42.977  32.769  30.248  1.00  0.00     0.034 A 
BRANCH  51  65
ATOM     65  C   UNL A   1      42.494  31.870  36.352  1.00  0.00     0.023 A 
ATOM     66  C   UNL A   1      43.531  32.170  37.259  1.00  0.00     0.012 A 
ATOM     67  C   UNL A   1      41.160  32.127  36.719  1.00  0.00     0.148 A 
ATOM     68  C   UNL A   1      43.241  32.682  38.524  1.00  0.00     0.002 A 
ATOM     69  C   UNL A   1      40.882  32.685  37.961  1.00  0.00     0.091 A 
ATOM     70  F   UNL A   1      40.186  31.806  35.855  1.00  0.00    -0.205 F 
ATOM     71  C   UNL A   1      41.920  32.950  38.870  1.00  0.00     0.022 A 
BRANCH  69  72
ATOM     72  S   UNL A   1      39.222  33.144  38.466  1.00  0.00     0.127 S 
ATOM     73  O   UNL A   1      38.947  34.277  37.584  1.00  0.00    -0.237 OA
ATOM     74  O   UNL A   1      38.464  31.932  38.157  1.00  0.00    -0.237 OA
ATOM     75  O   UNL A   1      39.305  33.465  39.883  1.00  0.00    -0.744 OA
ENDBRANCH  69  72
ENDBRANCH  51  65
BRANCH  52  76
ATOM     76  C   UNL A   1      44.398  27.553  27.487  1.00  0.00     0.023 A 
ATOM     77  C   UNL A   1      43.396  26.752  26.908  1.00  0.00     0.012 A 
ATOM     78  C   UNL A   1      45.611  27.744  26.795  1.00  0.00     0.148 A 
ATOM     79  C   UNL A   1      43.610  26.120  25.683  1.00  0.00     0.002 A 
ATOM     80  C   UNL A   1      45.796  27.158  25.549  1.00  0.00     0.091 A 
ATOM     81  F   UNL A   1      46.556  28.502  27.368  1.00  0.00    -0.205 F 
ATOM     82  C   UNL A   1      44.806  26.329  25.000  1.00  0.00     0.022 A 
BRANCH  80  83
ATOM     83  S   UNL A   1      47.248  27.475  24.542  1.00  0.00     0.127 S 
ATOM     84  O   UNL A   1      46.780  28.553  23.674  1.00  0.00    -0.237 OA
ATOM     85  O   UNL A   1      48.230  27.876  25.550  1.00  0.00    -0.237 OA
ATOM     86  O   UNL A   1      47.551  26.216  23.876  1.00  0.00    -0.744 OA
ENDBRANCH  80  83
ENDBRANCH  52  76
BRANCH  64  87
ATOM     87  C   UNL A   1      42.842  34.062  29.486  1.00  0.00     0.023 A 
ATOM     88  C   UNL A   1      41.571  34.573  29.159  1.00  0.00     0.012 A 
ATOM     89  C   UNL A   1      43.994  34.798  29.142  1.00  0.00     0.148 A 
ATOM     90  C   UNL A   1      41.450  35.770  28.456  1.00  0.00     0.002 A 
ATOM     91  C   UNL A   1      43.863  36.019  28.495  1.00  0.00     0.091 A 
ATOM     92  F   UNL A   1      45.196  34.288  29.448  1.00  0.00    -0.205 F 
ATOM     93  C   UNL A   1      42.594  36.498  28.134  1.00  0.00     0.022 A 
BRANCH  91  94
ATOM     94  S   UNL A   1      45.276  37.070  28.142  1.00  0.00     0.127 S 
ATOM     95  O   UNL A   1      45.824  36.437  26.944  1.00  0.00    -0.237 OA
ATOM     96  O   UNL A   1      44.645  38.370  27.911  1.00  0.00    -0.237 OA
ATOM     97  O   UNL A   1      46.124  37.013  29.325  1.00  0.00    -0.744 OA
ENDBRANCH  91  94
ENDBRANCH  64  87
ENDBRANCH  38  39
ENDBRANCH  31  33
ENDBRANCH  30  31
ENDBRANCH  29  30
ENDBRANCH  28  29
ENDBRANCH  27  28
ENDBRANCH  26  27
ENDBRANCH  25  26
ENDBRANCH  24  25
ENDBRANCH   1  24
TORSDOF 28
ENDMDL
