MODEL 1
REMARK VINA RESULT:     -11.1      0.000      0.000
REMARK SMILES O=C(OCCOCCOCCOCCOC(=O)[C@H]1C[C@H]2CCCC[C@@H]2[N@@H+]1CC[C@@H]1CCCO1)c1ccc(-c2c3nc(c(-c4cccc(S(=O)(=O)[O-])c4F)c4ccc([nH]4)c(-c4cccc(S(=O)(=O)[O-])c4F)c4nc(c(-c5cccc(S(=O)(=O)[O-])c5F)c5ccc2[nH]5)C=C4)C=C3)cc1
REMARK SMILES IDX 9 1 8 2 7 3 6 4 5 5 4 6 3 7 2 8 1 9 34 10 35 11 96 12 36 13
REMARK SMILES IDX 95 14 37 15 38 16 39 17 89 18 40 19 94 20 88 21 90 22 41 23
REMARK SMILES IDX 93 24 87 25 86 26 42 28 74 29 54 30 73 31 55 32 58 33 72 34
REMARK SMILES IDX 91 35 56 36 57 37 71 39 92 40 59 41 43 42 44 43 52 44 45 45
REMARK SMILES IDX 47 46 53 47 46 48 48 49 49 50 50 51 51 52 75 53 76 54 84 55
REMARK SMILES IDX 77 56 79 57 85 58 78 59 80 60 81 61 82 62 83 63 60 64 61 65
REMARK SMILES IDX 69 66 62 67 64 68 70 69 63 70 65 71 66 72 67 73 68 74 10 75
REMARK SMILES IDX 11 76 12 77 13 78 14 79 15 80 16 81 17 82 18 83 19 84 26 85
REMARK SMILES IDX 20 86 25 87 21 89 24 90 22 91 23 92 27 93 28 94 29 95 30 96
REMARK SMILES IDX 33 97 31 98 32 99
REMARK H PARENT 90 27 58 38 26 88
REMARK Flexibility Score: inf
ROOT
ATOM      1  O   UNL A   1      30.570  29.993  24.225  1.00  0.00    -0.377 OA
ENDROOT
BRANCH   1   2
ATOM      2  C   UNL A   1      31.743  29.397  24.721  1.00  0.00     0.188 C 
BRANCH   2   3
ATOM      3  C   UNL A   1      31.696  29.012  26.192  1.00  0.00     0.188 C 
BRANCH   3   4
ATOM      4  O   UNL A   1      32.138  29.976  27.139  1.00  0.00    -0.376 OA
BRANCH   4   5
ATOM      5  C   UNL A   1      32.541  31.275  26.721  1.00  0.00     0.202 C 
BRANCH   5   6
ATOM      6  C   UNL A   1      31.779  32.509  27.218  1.00  0.00     0.261 C 
BRANCH   6   7
ATOM      7  O   UNL A   1      32.537  33.691  27.502  1.00  0.00    -0.460 OA
BRANCH   7   8
ATOM      8  C   UNL A   1      33.392  33.987  28.511  1.00  0.00     0.338 C 
ATOM      9  O   UNL A   1      33.177  35.014  29.154  1.00  0.00    -0.246 OA
BRANCH   8  10
ATOM     10  C   UNL A   1      34.639  33.218  28.819  1.00  0.00     0.060 A 
ATOM     11  C   UNL A   1      34.670  31.894  29.249  1.00  0.00     0.016 A 
ATOM     12  C   UNL A   1      35.874  33.857  28.598  1.00  0.00     0.016 A 
ATOM     13  C   UNL A   1      35.848  31.186  29.377  1.00  0.00     0.010 A 
ATOM     14  C   UNL A   1      37.082  33.188  28.828  1.00  0.00     0.010 A 
ATOM     15  C   UNL A   1      37.056  31.851  29.237  1.00  0.00    -0.014 A 
BRANCH  15  16
ATOM     16  C   UNL A   1      38.188  31.190  29.899  1.00  0.00     0.031 A 
ATOM     17  C   UNL A   1      38.353  31.468  31.364  1.00  0.00     0.074 A 
ATOM     18  C   UNL A   1      38.843  30.195  29.279  1.00  0.00     0.049 A 
ATOM     19  N   UNL A   1      39.233  31.003  32.203  1.00  0.00    -0.248 NA
ATOM     20  C   UNL A   1      37.355  32.367  31.978  1.00  0.00     0.031 C 
ATOM     21  C   UNL A   1      38.571  29.722  27.919  1.00  0.00     0.029 A 
ATOM     22  N   UNL A   1      39.842  29.377  29.726  1.00  0.00    -0.354 N 
ATOM     23  C   UNL A   1      38.938  31.607  33.419  1.00  0.00     0.074 A 
ATOM     24  C   UNL A   1      37.776  32.437  33.228  1.00  0.00     0.031 C 
ATOM     25  C   UNL A   1      39.398  28.702  27.639  1.00  0.00     0.029 A 
ATOM     26  C   UNL A   1      40.297  28.502  28.769  1.00  0.00     0.049 A 
ATOM     27  H   UNL A   1      40.201  29.412  30.642  1.00  0.00     0.167 HD
ATOM     28  C   UNL A   1      39.605  31.488  34.587  1.00  0.00     0.034 A 
ATOM     29  C   UNL A   1      41.358  27.676  28.809  1.00  0.00     0.034 A 
ATOM     30  C   UNL A   1      40.759  30.651  34.729  1.00  0.00     0.049 A 
ATOM     31  C   UNL A   1      42.162  27.651  30.083  1.00  0.00     0.074 A 
ATOM     32  C   UNL A   1      41.588  30.493  35.820  1.00  0.00     0.029 A 
ATOM     33  N   UNL A   1      41.253  29.835  33.718  1.00  0.00    -0.354 N 
ATOM     34  N   UNL A   1      41.921  28.265  31.220  1.00  0.00    -0.248 NA
ATOM     35  C   UNL A   1      43.372  26.823  30.089  1.00  0.00     0.031 C 
ATOM     36  C   UNL A   1      42.611  29.612  35.450  1.00  0.00     0.029 A 
ATOM     37  C   UNL A   1      42.386  29.180  34.150  1.00  0.00     0.049 A 
ATOM     38  H   UNL A   1      40.851  29.739  32.824  1.00  0.00     0.167 HD
ATOM     39  C   UNL A   1      42.931  27.872  32.089  1.00  0.00     0.074 A 
ATOM     40  C   UNL A   1      43.773  26.951  31.346  1.00  0.00     0.031 C 
ATOM     41  C   UNL A   1      43.158  28.239  33.375  1.00  0.00     0.034 A 
BRANCH  28  42
ATOM     42  C   UNL A   1      39.150  32.362  35.723  1.00  0.00     0.023 A 
ATOM     43  C   UNL A   1      39.558  33.709  35.811  1.00  0.00     0.012 A 
ATOM     44  C   UNL A   1      38.362  31.811  36.753  1.00  0.00     0.148 A 
ATOM     45  C   UNL A   1      39.229  34.478  36.928  1.00  0.00     0.002 A 
ATOM     46  C   UNL A   1      37.998  32.596  37.839  1.00  0.00     0.091 A 
ATOM     47  F   UNL A   1      38.019  30.518  36.670  1.00  0.00    -0.205 F 
ATOM     48  C   UNL A   1      38.444  33.924  37.938  1.00  0.00     0.022 A 
BRANCH  46  49
ATOM     49  S   UNL A   1      36.943  31.994  39.160  1.00  0.00     0.127 S 
ATOM     50  O   UNL A   1      37.515  32.661  40.325  1.00  0.00    -0.237 OA
ATOM     51  O   UNL A   1      35.631  32.487  38.751  1.00  0.00    -0.237 OA
ATOM     52  O   UNL A   1      37.077  30.536  39.149  1.00  0.00    -0.744 OA
ENDBRANCH  46  49
ENDBRANCH  28  42
BRANCH  29  53
ATOM     53  C   UNL A   1      41.739  26.859  27.620  1.00  0.00     0.023 A 
ATOM     54  C   UNL A   1      42.302  27.481  26.490  1.00  0.00     0.012 A 
ATOM     55  C   UNL A   1      41.538  25.462  27.600  1.00  0.00     0.148 A 
ATOM     56  C   UNL A   1      42.627  26.735  25.353  1.00  0.00     0.002 A 
ATOM     57  C   UNL A   1      41.913  24.719  26.487  1.00  0.00     0.091 A 
ATOM     58  F   UNL A   1      40.981  24.886  28.675  1.00  0.00    -0.205 F 
ATOM     59  C   UNL A   1      42.440  25.356  25.354  1.00  0.00     0.022 A 
BRANCH  57  60
ATOM     60  S   UNL A   1      41.811  22.925  26.445  1.00  0.00     0.127 S 
ATOM     61  O   UNL A   1      42.355  22.626  25.123  1.00  0.00    -0.237 OA
ATOM     62  O   UNL A   1      42.673  22.548  27.565  1.00  0.00    -0.237 OA
ATOM     63  O   UNL A   1      40.403  22.604  26.635  1.00  0.00    -0.744 OA
ENDBRANCH  57  60
ENDBRANCH  29  53
BRANCH  41  64
ATOM     64  C   UNL A   1      44.324  27.598  34.070  1.00  0.00     0.023 A 
ATOM     65  C   UNL A   1      45.604  28.180  33.989  1.00  0.00     0.012 A 
ATOM     66  C   UNL A   1      44.119  26.466  34.882  1.00  0.00     0.148 A 
ATOM     67  C   UNL A   1      46.674  27.618  34.680  1.00  0.00     0.002 A 
ATOM     68  C   UNL A   1      45.176  25.952  35.617  1.00  0.00     0.091 A 
ATOM     69  F   UNL A   1      42.893  25.923  34.925  1.00  0.00    -0.205 F 
ATOM     70  C   UNL A   1      46.457  26.516  35.506  1.00  0.00     0.022 A 
BRANCH  68  71
ATOM     71  S   UNL A   1      44.956  24.616  36.793  1.00  0.00     0.127 S 
ATOM     72  O   UNL A   1      46.321  24.423  37.282  1.00  0.00    -0.237 OA
ATOM     73  O   UNL A   1      44.035  25.207  37.765  1.00  0.00    -0.237 OA
ATOM     74  O   UNL A   1      44.400  23.501  36.037  1.00  0.00    -0.744 OA
ENDBRANCH  68  71
ENDBRANCH  41  64
ENDBRANCH  15  16
ENDBRANCH   8  10
ENDBRANCH   7   8
ENDBRANCH   6   7
ENDBRANCH   5   6
ENDBRANCH   4   5
ENDBRANCH   3   4
ENDBRANCH   2   3
ENDBRANCH   1   2
BRANCH   1  75
ATOM     75  C   UNL A   1      29.800  29.228  23.321  1.00  0.00     0.188 C 
BRANCH  75  76
ATOM     76  C   UNL A   1      30.167  27.807  22.831  1.00  0.00     0.188 C 
BRANCH  76  77
ATOM     77  O   UNL A   1      29.815  26.801  23.739  1.00  0.00    -0.376 OA
BRANCH  77  78
ATOM     78  C   UNL A   1      30.309  25.499  23.489  1.00  0.00     0.202 C 
BRANCH  78  79
ATOM     79  C   UNL A   1      30.353  24.413  24.593  1.00  0.00     0.261 C 
BRANCH  79  80
ATOM     80  O   UNL A   1      31.121  24.650  25.798  1.00  0.00    -0.459 OA
BRANCH  80  81
ATOM     81  C   UNL A   1      31.768  23.619  26.397  1.00  0.00     0.365 C 
ATOM     82  O   UNL A   1      31.788  23.467  27.616  1.00  0.00    -0.245 OA
BRANCH  81  83
ATOM     83  C   UNL A   1      32.417  22.580  25.417  1.00  0.00     0.295 C 
ATOM     84  C   UNL A   1      33.014  23.045  24.063  1.00  0.00     0.087 C 
ATOM     85  N   UNL A   1      33.498  21.761  26.053  1.00  0.00    -0.320 N 
ATOM     86  C   UNL A   1      34.495  22.644  24.107  1.00  0.00     0.054 C 
ATOM     87  C   UNL A   1      34.774  22.322  25.566  1.00  0.00     0.188 C 
ATOM     88  H   UNL A   1      33.521  21.824  27.071  1.00  0.00     0.349 HD
ATOM     89  C   UNL A   1      35.637  23.416  23.457  1.00  0.00     0.010 C 
ATOM     90  C   UNL A   1      36.090  21.557  25.775  1.00  0.00     0.065 C 
ATOM     91  C   UNL A   1      36.898  22.532  23.518  1.00  0.00     0.001 C 
ATOM     92  C   UNL A   1      37.258  22.133  24.954  1.00  0.00     0.006 C 
BRANCH  85  93
ATOM     93  C   UNL A   1      33.258  20.310  25.876  1.00  0.00     0.265 C 
BRANCH  93  94
ATOM     94  C   UNL A   1      32.460  19.742  24.663  1.00  0.00     0.093 C 
BRANCH  94  95
ATOM     95  C   UNL A   1      32.709  18.271  24.346  1.00  0.00     0.123 C 
ATOM     96  C   UNL A   1      32.555  17.322  25.530  1.00  0.00     0.034 C 
ATOM     97  O   UNL A   1      34.045  17.993  23.905  1.00  0.00    -0.378 OA
ATOM     98  C   UNL A   1      33.201  16.059  25.001  1.00  0.00     0.031 C 
ATOM     99  C   UNL A   1      34.114  16.554  23.886  1.00  0.00     0.160 C 
ENDBRANCH  94  95
ENDBRANCH  93  94
ENDBRANCH  85  93
ENDBRANCH  81  83
ENDBRANCH  80  81
ENDBRANCH  79  80
ENDBRANCH  78  79
ENDBRANCH  77  78
ENDBRANCH  76  77
ENDBRANCH  75  76
ENDBRANCH   1  75
TORSDOF 26
ENDMDL
MODEL 2
REMARK VINA RESULT:     -11.0      1.175      2.447
REMARK SMILES O=C(OCCOCCOCCOCCOC(=O)[C@H]1C[C@H]2CCCC[C@@H]2[N@@H+]1CC[C@@H]1CCCO1)c1ccc(-c2c3nc(c(-c4cccc(S(=O)(=O)[O-])c4F)c4ccc([nH]4)c(-c4cccc(S(=O)(=O)[O-])c4F)c4nc(c(-c5cccc(S(=O)(=O)[O-])c5F)c5ccc2[nH]5)C=C4)C=C3)cc1
REMARK SMILES IDX 9 1 8 2 7 3 6 4 5 5 4 6 3 7 2 8 1 9 34 10 35 11 96 12 36 13
REMARK SMILES IDX 95 14 37 15 38 16 39 17 89 18 40 19 94 20 88 21 90 22 41 23
REMARK SMILES IDX 93 24 87 25 86 26 42 28 74 29 54 30 73 31 55 32 58 33 72 34
REMARK SMILES IDX 91 35 56 36 57 37 71 39 92 40 59 41 43 42 44 43 52 44 45 45
REMARK SMILES IDX 47 46 53 47 46 48 48 49 49 50 50 51 51 52 75 53 76 54 84 55
REMARK SMILES IDX 77 56 79 57 85 58 78 59 80 60 81 61 82 62 83 63 60 64 61 65
REMARK SMILES IDX 69 66 62 67 64 68 70 69 63 70 65 71 66 72 67 73 68 74 10 75
REMARK SMILES IDX 11 76 12 77 13 78 14 79 15 80 16 81 17 82 18 83 19 84 26 85
REMARK SMILES IDX 20 86 25 87 21 89 24 90 22 91 23 92 27 93 28 94 29 95 30 96
REMARK SMILES IDX 33 97 31 98 32 99
REMARK H PARENT 90 27 58 38 26 88
REMARK Flexibility Score: inf
ROOT
ATOM      1  O   UNL A   1      31.159  29.275  24.788  1.00  0.00    -0.377 OA
ENDROOT
BRANCH   1   2
ATOM      2  C   UNL A   1      31.830  28.599  25.821  1.00  0.00     0.188 C 
BRANCH   2   3
ATOM      3  C   UNL A   1      31.821  29.308  27.167  1.00  0.00     0.188 C 
BRANCH   3   4
ATOM      4  O   UNL A   1      32.860  30.245  27.424  1.00  0.00    -0.376 OA
BRANCH   4   5
ATOM      5  C   UNL A   1      32.891  31.499  26.753  1.00  0.00     0.202 C 
BRANCH   5   6
ATOM      6  C   UNL A   1      31.935  32.619  27.181  1.00  0.00     0.261 C 
BRANCH   6   7
ATOM      7  O   UNL A   1      32.512  33.855  27.622  1.00  0.00    -0.460 OA
BRANCH   7   8
ATOM      8  C   UNL A   1      33.398  34.129  28.609  1.00  0.00     0.338 C 
ATOM      9  O   UNL A   1      33.255  35.187  29.222  1.00  0.00    -0.246 OA
BRANCH   8  10
ATOM     10  C   UNL A   1      34.601  33.295  28.926  1.00  0.00     0.060 A 
ATOM     11  C   UNL A   1      34.567  32.077  29.598  1.00  0.00     0.016 A 
ATOM     12  C   UNL A   1      35.849  33.742  28.454  1.00  0.00     0.016 A 
ATOM     13  C   UNL A   1      35.684  31.277  29.734  1.00  0.00     0.010 A 
ATOM     14  C   UNL A   1      37.013  32.996  28.679  1.00  0.00     0.010 A 
ATOM     15  C   UNL A   1      36.920  31.766  29.339  1.00  0.00    -0.014 A 
BRANCH  15  16
ATOM     16  C   UNL A   1      38.062  31.116  29.992  1.00  0.00     0.031 A 
ATOM     17  C   UNL A   1      38.214  31.362  31.464  1.00  0.00     0.074 A 
ATOM     18  C   UNL A   1      38.742  30.150  29.353  1.00  0.00     0.049 A 
ATOM     19  N   UNL A   1      39.100  30.898  32.297  1.00  0.00    -0.248 NA
ATOM     20  C   UNL A   1      37.193  32.225  32.093  1.00  0.00     0.031 C 
ATOM     21  C   UNL A   1      38.488  29.704  27.981  1.00  0.00     0.029 A 
ATOM     22  N   UNL A   1      39.757  29.344  29.786  1.00  0.00    -0.354 N 
ATOM     23  C   UNL A   1      38.786  31.466  33.525  1.00  0.00     0.074 A 
ATOM     24  C   UNL A   1      37.606  32.275  33.347  1.00  0.00     0.031 C 
ATOM     25  C   UNL A   1      39.339  28.709  27.681  1.00  0.00     0.029 A 
ATOM     26  C   UNL A   1      40.236  28.502  28.811  1.00  0.00     0.049 A 
ATOM     27  H   UNL A   1      40.111  29.365  30.705  1.00  0.00     0.167 HD
ATOM     28  C   UNL A   1      39.449  31.335  34.694  1.00  0.00     0.034 A 
ATOM     29  C   UNL A   1      41.315  27.699  28.837  1.00  0.00     0.034 A 
ATOM     30  C   UNL A   1      40.620  30.520  34.822  1.00  0.00     0.049 A 
ATOM     31  C   UNL A   1      42.112  27.662  30.116  1.00  0.00     0.074 A 
ATOM     32  C   UNL A   1      41.447  30.355  35.914  1.00  0.00     0.029 A 
ATOM     33  N   UNL A   1      41.137  29.739  33.795  1.00  0.00    -0.354 N 
ATOM     34  N   UNL A   1      41.853  28.243  31.265  1.00  0.00    -0.248 NA
ATOM     35  C   UNL A   1      43.341  26.861  30.108  1.00  0.00     0.031 C 
ATOM     36  C   UNL A   1      42.491  29.505  35.530  1.00  0.00     0.029 A 
ATOM     37  C   UNL A   1      42.283  29.099  34.218  1.00  0.00     0.049 A 
ATOM     38  H   UNL A   1      40.742  29.655  32.897  1.00  0.00     0.167 HD
ATOM     39  C   UNL A   1      42.867  27.852  32.130  1.00  0.00     0.074 A 
ATOM     40  C   UNL A   1      43.733  26.968  31.371  1.00  0.00     0.031 C 
ATOM     41  C   UNL A   1      43.079  28.194  33.426  1.00  0.00     0.034 A 
BRANCH  28  42
ATOM     42  C   UNL A   1      38.969  32.171  35.848  1.00  0.00     0.023 A 
ATOM     43  C   UNL A   1      39.306  33.537  35.943  1.00  0.00     0.012 A 
ATOM     44  C   UNL A   1      38.231  31.569  36.885  1.00  0.00     0.148 A 
ATOM     45  C   UNL A   1      38.957  34.275  37.075  1.00  0.00     0.002 A 
ATOM     46  C   UNL A   1      37.845  32.321  37.986  1.00  0.00     0.091 A 
ATOM     47  F   UNL A   1      37.955  30.260  36.794  1.00  0.00    -0.205 F 
ATOM     48  C   UNL A   1      38.221  33.670  38.092  1.00  0.00     0.022 A 
BRANCH  46  49
ATOM     49  S   UNL A   1      36.847  31.651  39.319  1.00  0.00     0.127 S 
ATOM     50  O   UNL A   1      37.856  31.377  40.337  1.00  0.00    -0.237 OA
ATOM     51  O   UNL A   1      35.954  32.765  39.620  1.00  0.00    -0.237 OA
ATOM     52  O   UNL A   1      36.183  30.468  38.768  1.00  0.00    -0.744 OA
ENDBRANCH  46  49
ENDBRANCH  28  42
BRANCH  29  53
ATOM     53  C   UNL A   1      41.720  26.919  27.632  1.00  0.00     0.023 A 
ATOM     54  C   UNL A   1      42.274  27.580  26.520  1.00  0.00     0.012 A 
ATOM     55  C   UNL A   1      41.550  25.519  27.578  1.00  0.00     0.148 A 
ATOM     56  C   UNL A   1      42.621  26.868  25.368  1.00  0.00     0.002 A 
ATOM     57  C   UNL A   1      41.946  24.810  26.451  1.00  0.00     0.091 A 
ATOM     58  F   UNL A   1      41.000  24.905  28.636  1.00  0.00    -0.205 F 
ATOM     59  C   UNL A   1      42.466  25.485  25.336  1.00  0.00     0.022 A 
BRANCH  57  60
ATOM     60  S   UNL A   1      41.885  23.016  26.366  1.00  0.00     0.127 S 
ATOM     61  O   UNL A   1      40.447  22.764  26.418  1.00  0.00    -0.237 OA
ATOM     62  O   UNL A   1      42.509  22.754  25.068  1.00  0.00    -0.237 OA
ATOM     63  O   UNL A   1      42.651  22.539  27.508  1.00  0.00    -0.744 OA
ENDBRANCH  57  60
ENDBRANCH  29  53
BRANCH  41  64
ATOM     64  C   UNL A   1      44.256  27.563  34.112  1.00  0.00     0.023 A 
ATOM     65  C   UNL A   1      45.510  28.201  34.097  1.00  0.00     0.012 A 
ATOM     66  C   UNL A   1      44.081  26.378  34.851  1.00  0.00     0.148 A 
ATOM     67  C   UNL A   1      46.588  27.645  34.782  1.00  0.00     0.002 A 
ATOM     68  C   UNL A   1      45.142  25.866  35.582  1.00  0.00     0.091 A 
ATOM     69  F   UNL A   1      42.879  25.782  34.832  1.00  0.00    -0.205 F 
ATOM     70  C   UNL A   1      46.400  26.489  35.537  1.00  0.00     0.022 A 
BRANCH  68  71
ATOM     71  S   UNL A   1      44.953  24.455  36.673  1.00  0.00     0.127 S 
ATOM     72  O   UNL A   1      44.528  23.412  35.740  1.00  0.00    -0.237 OA
ATOM     73  O   UNL A   1      46.308  24.288  37.200  1.00  0.00    -0.237 OA
ATOM     74  O   UNL A   1      43.963  24.844  37.668  1.00  0.00    -0.744 OA
ENDBRANCH  68  71
ENDBRANCH  41  64
ENDBRANCH  15  16
ENDBRANCH   8  10
ENDBRANCH   7   8
ENDBRANCH   6   7
ENDBRANCH   5   6
ENDBRANCH   4   5
ENDBRANCH   3   4
ENDBRANCH   2   3
ENDBRANCH   1   2
BRANCH   1  75
ATOM     75  C   UNL A   1      30.951  28.560  23.588  1.00  0.00     0.188 C 
BRANCH  75  76
ATOM     76  C   UNL A   1      30.121  27.260  23.467  1.00  0.00     0.188 C 
BRANCH  76  77
ATOM     77  O   UNL A   1      30.864  26.103  23.734  1.00  0.00    -0.376 OA
BRANCH  77  78
ATOM     78  C   UNL A   1      32.032  25.889  22.966  1.00  0.00     0.202 C 
BRANCH  78  79
ATOM     79  C   UNL A   1      32.118  24.773  21.895  1.00  0.00     0.261 C 
BRANCH  79  80
ATOM     80  O   UNL A   1      33.387  24.121  21.643  1.00  0.00    -0.459 OA
BRANCH  80  81
ATOM     81  C   UNL A   1      33.792  23.106  22.446  1.00  0.00     0.365 C 
ATOM     82  O   UNL A   1      34.971  22.918  22.735  1.00  0.00    -0.245 OA
BRANCH  81  83
ATOM     83  C   UNL A   1      32.637  22.236  23.054  1.00  0.00     0.295 C 
ATOM     84  C   UNL A   1      31.981  21.106  22.219  1.00  0.00     0.087 C 
ATOM     85  N   UNL A   1      33.004  21.589  24.354  1.00  0.00    -0.320 N 
ATOM     86  C   UNL A   1      32.217  19.815  23.015  1.00  0.00     0.054 C 
ATOM     87  C   UNL A   1      33.279  20.174  24.042  1.00  0.00     0.188 C 
ATOM     88  H   UNL A   1      33.852  21.965  24.780  1.00  0.00     0.349 HD
ATOM     89  C   UNL A   1      32.439  18.434  22.411  1.00  0.00     0.010 C 
ATOM     90  C   UNL A   1      33.404  19.137  25.170  1.00  0.00     0.065 C 
ATOM     91  C   UNL A   1      32.366  17.402  23.554  1.00  0.00     0.001 C 
ATOM     92  C   UNL A   1      33.392  17.685  24.658  1.00  0.00     0.006 C 
BRANCH  85  93
ATOM     93  C   UNL A   1      32.013  21.892  25.413  1.00  0.00     0.265 C 
BRANCH  93  94
ATOM     94  C   UNL A   1      32.406  22.618  26.735  1.00  0.00     0.093 C 
BRANCH  94  95
ATOM     95  C   UNL A   1      33.779  23.283  26.735  1.00  0.00     0.123 C 
ATOM     96  C   UNL A   1      33.914  24.480  25.799  1.00  0.00     0.034 C 
ATOM     97  O   UNL A   1      34.836  22.425  26.285  1.00  0.00    -0.378 OA
ATOM     98  C   UNL A   1      35.415  24.668  25.751  1.00  0.00     0.031 C 
ATOM     99  C   UNL A   1      35.968  23.306  26.152  1.00  0.00     0.160 C 
ENDBRANCH  94  95
ENDBRANCH  93  94
ENDBRANCH  85  93
ENDBRANCH  81  83
ENDBRANCH  80  81
ENDBRANCH  79  80
ENDBRANCH  78  79
ENDBRANCH  77  78
ENDBRANCH  76  77
ENDBRANCH  75  76
ENDBRANCH   1  75
TORSDOF 26
ENDMDL
MODEL 3
REMARK VINA RESULT:     -10.1      2.077      7.990
REMARK SMILES O=C(OCCOCCOCCOCCOC(=O)[C@H]1C[C@H]2CCCC[C@@H]2[N@@H+]1CC[C@@H]1CCCO1)c1ccc(-c2c3nc(c(-c4cccc(S(=O)(=O)[O-])c4F)c4ccc([nH]4)c(-c4cccc(S(=O)(=O)[O-])c4F)c4nc(c(-c5cccc(S(=O)(=O)[O-])c5F)c5ccc2[nH]5)C=C4)C=C3)cc1
REMARK SMILES IDX 9 1 8 2 7 3 6 4 5 5 4 6 3 7 2 8 1 9 34 10 35 11 96 12 36 13
REMARK SMILES IDX 95 14 37 15 38 16 39 17 89 18 40 19 94 20 88 21 90 22 41 23
REMARK SMILES IDX 93 24 87 25 86 26 42 28 74 29 54 30 73 31 55 32 58 33 72 34
REMARK SMILES IDX 91 35 56 36 57 37 71 39 92 40 59 41 43 42 44 43 52 44 45 45
REMARK SMILES IDX 47 46 53 47 46 48 48 49 49 50 50 51 51 52 75 53 76 54 84 55
REMARK SMILES IDX 77 56 79 57 85 58 78 59 80 60 81 61 82 62 83 63 60 64 61 65
REMARK SMILES IDX 69 66 62 67 64 68 70 69 63 70 65 71 66 72 67 73 68 74 10 75
REMARK SMILES IDX 11 76 12 77 13 78 14 79 15 80 16 81 17 82 18 83 19 84 26 85
REMARK SMILES IDX 20 86 25 87 21 89 24 90 22 91 23 92 27 93 28 94 29 95 30 96
REMARK SMILES IDX 33 97 31 98 32 99
REMARK H PARENT 90 27 58 38 26 88
REMARK Flexibility Score: inf
ROOT
ATOM      1  O   UNL A   1      31.967  29.705  24.636  1.00  0.00    -0.377 OA
ENDROOT
BRANCH   1   2
ATOM      2  C   UNL A   1      31.827  29.572  26.028  1.00  0.00     0.188 C 
BRANCH   2   3
ATOM      3  C   UNL A   1      31.806  30.882  26.802  1.00  0.00     0.188 C 
BRANCH   3   4
ATOM      4  O   UNL A   1      32.972  31.230  27.539  1.00  0.00    -0.376 OA
BRANCH   4   5
ATOM      5  C   UNL A   1      33.441  32.573  27.569  1.00  0.00     0.202 C 
BRANCH   5   6
ATOM      6  C   UNL A   1      32.440  33.730  27.669  1.00  0.00     0.261 C 
BRANCH   6   7
ATOM      7  O   UNL A   1      32.793  34.846  28.496  1.00  0.00    -0.460 OA
BRANCH   7   8
ATOM      8  C   UNL A   1      33.329  34.907  29.739  1.00  0.00     0.338 C 
ATOM      9  O   UNL A   1      32.891  35.766  30.504  1.00  0.00    -0.246 OA
BRANCH   8  10
ATOM     10  C   UNL A   1      34.489  34.083  30.204  1.00  0.00     0.060 A 
ATOM     11  C   UNL A   1      34.416  33.076  31.162  1.00  0.00     0.016 A 
ATOM     12  C   UNL A   1      35.734  34.296  29.581  1.00  0.00     0.016 A 
ATOM     13  C   UNL A   1      35.482  32.247  31.447  1.00  0.00     0.010 A 
ATOM     14  C   UNL A   1      36.856  33.537  29.937  1.00  0.00     0.010 A 
ATOM     15  C   UNL A   1      36.721  32.522  30.889  1.00  0.00    -0.014 A 
BRANCH  15  16
ATOM     16  C   UNL A   1      37.856  31.963  31.634  1.00  0.00     0.031 A 
ATOM     17  C   UNL A   1      38.652  30.903  30.933  1.00  0.00     0.074 A 
ATOM     18  C   UNL A   1      38.296  32.572  32.747  1.00  0.00     0.049 A 
ATOM     19  N   UNL A   1      39.713  30.262  31.330  1.00  0.00    -0.248 NA
ATOM     20  C   UNL A   1      38.211  30.546  29.569  1.00  0.00     0.031 C 
ATOM     21  C   UNL A   1      37.690  33.759  33.357  1.00  0.00     0.029 A 
ATOM     22  N   UNL A   1      39.378  32.303  33.537  1.00  0.00    -0.354 N 
ATOM     23  C   UNL A   1      40.019  29.381  30.300  1.00  0.00     0.074 A 
ATOM     24  C   UNL A   1      39.066  29.594  29.241  1.00  0.00     0.031 C 
ATOM     25  C   UNL A   1      38.406  34.106  34.439  1.00  0.00     0.029 A 
ATOM     26  C   UNL A   1      39.470  33.128  34.632  1.00  0.00     0.049 A 
ATOM     27  H   UNL A   1      40.026  31.588  33.342  1.00  0.00     0.167 HD
ATOM     28  C   UNL A   1      41.005  28.458  30.263  1.00  0.00     0.034 A 
ATOM     29  C   UNL A   1      40.301  33.051  35.687  1.00  0.00     0.034 A 
ATOM     30  C   UNL A   1      41.929  28.282  31.344  1.00  0.00     0.049 A 
ATOM     31  C   UNL A   1      41.314  31.935  35.682  1.00  0.00     0.074 A 
ATOM     32  C   UNL A   1      42.923  27.336  31.490  1.00  0.00     0.029 A 
ATOM     33  N   UNL A   1      41.950  29.077  32.483  1.00  0.00    -0.354 N 
ATOM     34  N   UNL A   1      41.572  31.061  34.735  1.00  0.00    -0.248 NA
ATOM     35  C   UNL A   1      42.153  31.795  36.877  1.00  0.00     0.031 C 
ATOM     36  C   UNL A   1      43.517  27.536  32.741  1.00  0.00     0.029 A 
ATOM     37  C   UNL A   1      42.930  28.638  33.348  1.00  0.00     0.049 A 
ATOM     38  H   UNL A   1      41.353  29.842  32.648  1.00  0.00     0.167 HD
ATOM     39  C   UNL A   1      42.625  30.287  35.205  1.00  0.00     0.074 A 
ATOM     40  C   UNL A   1      42.967  30.813  36.514  1.00  0.00     0.031 C 
ATOM     41  C   UNL A   1      43.251  29.233  34.623  1.00  0.00     0.034 A 
BRANCH  28  42
ATOM     42  C   UNL A   1      41.032  27.537  29.075  1.00  0.00     0.023 A 
ATOM     43  C   UNL A   1      40.308  26.327  29.080  1.00  0.00     0.012 A 
ATOM     44  C   UNL A   1      41.846  27.851  27.969  1.00  0.00     0.148 A 
ATOM     45  C   UNL A   1      40.433  25.423  28.023  1.00  0.00     0.002 A 
ATOM     46  C   UNL A   1      41.927  26.970  26.900  1.00  0.00     0.091 A 
ATOM     47  F   UNL A   1      42.556  28.987  28.003  1.00  0.00    -0.205 F 
ATOM     48  C   UNL A   1      41.236  25.747  26.931  1.00  0.00     0.022 A 
BRANCH  46  49
ATOM     49  S   UNL A   1      42.887  27.321  25.424  1.00  0.00     0.127 S 
ATOM     50  O   UNL A   1      44.225  27.508  25.976  1.00  0.00    -0.237 OA
ATOM     51  O   UNL A   1      42.706  26.099  24.646  1.00  0.00    -0.237 OA
ATOM     52  O   UNL A   1      42.286  28.517  24.829  1.00  0.00    -0.744 OA
ENDBRANCH  46  49
ENDBRANCH  28  42
BRANCH  29  53
ATOM     53  C   UNL A   1      40.183  34.005  36.828  1.00  0.00     0.023 A 
ATOM     54  C   UNL A   1      40.715  35.303  36.717  1.00  0.00     0.012 A 
ATOM     55  C   UNL A   1      39.549  33.628  38.031  1.00  0.00     0.148 A 
ATOM     56  C   UNL A   1      40.648  36.195  37.791  1.00  0.00     0.002 A 
ATOM     57  C   UNL A   1      39.438  34.538  39.076  1.00  0.00     0.091 A 
ATOM     58  F   UNL A   1      39.065  32.381  38.131  1.00  0.00    -0.205 F 
ATOM     59  C   UNL A   1      40.004  35.816  38.965  1.00  0.00     0.022 A 
BRANCH  57  60
ATOM     60  S   UNL A   1      38.529  34.172  40.582  1.00  0.00     0.127 S 
ATOM     61  O   UNL A   1      37.369  33.452  40.063  1.00  0.00    -0.237 OA
ATOM     62  O   UNL A   1      39.486  33.348  41.320  1.00  0.00    -0.237 OA
ATOM     63  O   UNL A   1      38.247  35.462  41.197  1.00  0.00    -0.744 OA
ENDBRANCH  57  60
ENDBRANCH  29  53
BRANCH  41  64
ATOM     64  C   UNL A   1      44.400  28.624  35.374  1.00  0.00     0.023 A 
ATOM     65  C   UNL A   1      45.702  29.133  35.209  1.00  0.00     0.012 A 
ATOM     66  C   UNL A   1      44.159  27.606  36.315  1.00  0.00     0.148 A 
ATOM     67  C   UNL A   1      46.758  28.607  35.948  1.00  0.00     0.002 A 
ATOM     68  C   UNL A   1      45.205  27.133  37.093  1.00  0.00     0.091 A 
ATOM     69  F   UNL A   1      42.911  27.129  36.438  1.00  0.00    -0.205 F 
ATOM     70  C   UNL A   1      46.507  27.620  36.900  1.00  0.00     0.022 A 
BRANCH  68  71
ATOM     71  S   UNL A   1      44.946  25.955  38.421  1.00  0.00     0.127 S 
ATOM     72  O   UNL A   1      43.973  26.658  39.256  1.00  0.00    -0.237 OA
ATOM     73  O   UNL A   1      44.414  24.795  37.705  1.00  0.00    -0.237 OA
ATOM     74  O   UNL A   1      46.253  25.741  39.029  1.00  0.00    -0.744 OA
ENDBRANCH  68  71
ENDBRANCH  41  64
ENDBRANCH  15  16
ENDBRANCH   8  10
ENDBRANCH   7   8
ENDBRANCH   6   7
ENDBRANCH   5   6
ENDBRANCH   4   5
ENDBRANCH   3   4
ENDBRANCH   2   3
ENDBRANCH   1   2
BRANCH   1  75
ATOM     75  C   UNL A   1      31.746  28.546  23.860  1.00  0.00     0.188 C 
BRANCH  75  76
ATOM     76  C   UNL A   1      30.435  28.227  23.103  1.00  0.00     0.188 C 
BRANCH  76  77
ATOM     77  O   UNL A   1      30.466  26.993  22.440  1.00  0.00    -0.376 OA
BRANCH  77  78
ATOM     78  C   UNL A   1      31.354  26.011  22.936  1.00  0.00     0.202 C 
BRANCH  78  79
ATOM     79  C   UNL A   1      32.667  25.644  22.198  1.00  0.00     0.261 C 
BRANCH  79  80
ATOM     80  O   UNL A   1      33.382  24.440  22.570  1.00  0.00    -0.459 OA
BRANCH  80  81
ATOM     81  C   UNL A   1      33.100  23.270  21.944  1.00  0.00     0.365 C 
ATOM     82  O   UNL A   1      33.554  22.983  20.839  1.00  0.00    -0.245 OA
BRANCH  81  83
ATOM     83  C   UNL A   1      32.221  22.267  22.769  1.00  0.00     0.295 C 
ATOM     84  C   UNL A   1      31.666  20.980  22.107  1.00  0.00     0.087 C 
ATOM     85  N   UNL A   1      32.883  21.797  24.028  1.00  0.00    -0.320 N 
ATOM     86  C   UNL A   1      32.244  19.815  22.923  1.00  0.00     0.054 C 
ATOM     87  C   UNL A   1      33.361  20.429  23.751  1.00  0.00     0.188 C 
ATOM     88  H   UNL A   1      33.702  22.345  24.296  1.00  0.00     0.349 HD
ATOM     89  C   UNL A   1      32.622  18.448  22.365  1.00  0.00     0.010 C 
ATOM     90  C   UNL A   1      33.833  19.521  24.898  1.00  0.00     0.065 C 
ATOM     91  C   UNL A   1      32.902  17.513  23.557  1.00  0.00     0.001 C 
ATOM     92  C   UNL A   1      34.009  18.053  24.470  1.00  0.00     0.006 C 
BRANCH  85  93
ATOM     93  C   UNL A   1      32.017  22.010  25.212  1.00  0.00     0.265 C 
BRANCH  93  94
ATOM     94  C   UNL A   1      32.583  22.510  26.575  1.00  0.00     0.093 C 
BRANCH  94  95
ATOM     95  C   UNL A   1      33.517  23.713  26.495  1.00  0.00     0.123 C 
ATOM     96  C   UNL A   1      32.864  25.005  26.014  1.00  0.00     0.034 C 
ATOM     97  O   UNL A   1      34.592  23.549  25.561  1.00  0.00    -0.378 OA
ATOM     98  C   UNL A   1      34.070  25.864  25.702  1.00  0.00     0.031 C 
ATOM     99  C   UNL A   1      35.192  24.856  25.486  1.00  0.00     0.160 C 
ENDBRANCH  94  95
ENDBRANCH  93  94
ENDBRANCH  85  93
ENDBRANCH  81  83
ENDBRANCH  80  81
ENDBRANCH  79  80
ENDBRANCH  78  79
ENDBRANCH  77  78
ENDBRANCH  76  77
ENDBRANCH  75  76
ENDBRANCH   1  75
TORSDOF 26
ENDMDL
