MODEL 1
REMARK VINA RESULT:      -8.8      0.000      0.000
REMARK SMILES Cc1ccc(NC(=O)c2cnn3c2NC2=C(C(=O)CCC2)[C@H]3c2ccc(C(=O)OCCOCCOCCOCCOC(=O)c3ccc(-c4c5nc(c(-c6cccc(S(=O)(=O)[O-])c6F)c6ccc([nH]6)c(-c6cccc(S(=O)(=O)[O-])c6F)c6nc(c(-c7cccc(S(=O)(=O)[O-])c7F)c7ccc4[nH]7)C=C6)C=C5)cc3)cc2)cc1
REMARK SMILES IDX 35 1 34 2 33 3 32 4 31 5 30 6 29 7 27 8 28 9 26 10 23 11
REMARK SMILES IDX 24 12 108 13 25 14 107 15 22 16 9 17 10 18 13 19 11 20 12 21
REMARK SMILES IDX 14 22 15 23 16 25 21 26 17 27 20 28 18 29 19 30 7 31 6 32
REMARK SMILES IDX 8 34 5 35 1 36 2 37 3 38 110 39 4 40 109 41 36 42 37 43
REMARK SMILES IDX 38 44 39 45 40 46 41 47 42 48 43 49 44 50 45 51 106 52 46 53
REMARK SMILES IDX 105 54 47 55 48 56 49 57 99 58 50 59 104 60 98 61 100 62
REMARK SMILES IDX 51 63 103 64 97 65 96 66 52 68 84 69 64 70 83 71 65 72 68 73
REMARK SMILES IDX 82 74 101 75 66 76 67 77 81 79 102 80 69 81 53 82 54 83
REMARK SMILES IDX 62 84 55 85 57 86 63 87 56 88 58 89 59 90 60 91 61 92 85 93
REMARK SMILES IDX 86 94 94 95 87 96 89 97 95 98 88 99 90 100 91 101 92 102
REMARK SMILES IDX 93 103 70 104 71 105 79 106 72 107 74 108 80 109 73 110
REMARK SMILES IDX 75 111 76 112 77 113 78 114
REMARK H PARENT 14 24 6 33 100 67 68 78
REMARK Flexibility Score: inf
ROOT
ATOM      1  O   UNL A   1      49.174  34.915  30.286  1.00  0.00    -0.377 OA
ENDROOT
BRANCH   1   2
ATOM      2  C   UNL A   1      48.990  33.051  30.304  1.00  0.00     0.188 C 
BRANCH   2   3
ATOM      3  C   UNL A   1      49.549  31.705  29.163  1.00  0.00     0.188 C 
BRANCH   3   4
ATOM      4  O   UNL A   1      50.939  30.979  28.883  1.00  0.00    -0.376 OA
BRANCH   4   5
ATOM      5  C   UNL A   1      51.501  29.611  29.250  1.00  0.00     0.202 C 
BRANCH   5   6
ATOM      6  C   UNL A   1      52.271  28.582  28.296  1.00  0.00     0.261 C 
BRANCH   6   7
ATOM      7  O   UNL A   1      51.530  27.605  27.626  1.00  0.00    -0.460 OA
BRANCH   7   8
ATOM      8  C   UNL A   1      51.701  26.484  28.311  1.00  0.00     0.338 C 
ATOM      9  O   UNL A   1      52.761  25.895  28.416  1.00  0.00    -0.246 OA
BRANCH   8  10
ATOM     10  C   UNL A   1      50.448  26.098  28.977  1.00  0.00     0.060 A 
ATOM     11  C   UNL A   1      47.903  26.067  29.996  1.00  0.00    -0.019 A 
ATOM     12  C   UNL A   1      48.104  25.842  28.621  1.00  0.00     0.007 A 
ATOM     13  C   UNL A   1      49.001  25.874  30.867  1.00  0.00     0.007 A 
ATOM     14  C   UNL A   1      49.395  25.810  28.123  1.00  0.00     0.016 A 
ATOM     15  C   UNL A   1      50.278  26.054  30.361  1.00  0.00     0.016 A 
BRANCH  11  16
ATOM     16  C   UNL A   1      46.751  27.088  30.398  1.00  0.00     0.175 C 
ATOM     17  C   UNL A   1      44.181  26.189  28.117  1.00  0.00     0.102 A 
ATOM     18  C   UNL A   1      44.334  27.598  27.941  1.00  0.00     0.151 A 
ATOM     19  C   UNL A   1      44.820  25.949  29.325  1.00  0.00     0.142 A 
ATOM     20  N   UNL A   1      45.306  28.115  28.688  1.00  0.00    -0.178 NA
ATOM     21  N   UNL A   1      45.672  27.057  29.419  1.00  0.00    -0.237 N 
ATOM     22  N   UNL A   1      44.957  24.975  30.310  1.00  0.00    -0.343 N 
ATOM     23  C   UNL A   1      45.617  25.293  31.535  1.00  0.00     0.026 C 
ATOM     24  H   UNL A   1      44.598  24.070  30.163  1.00  0.00     0.168 HD
ATOM     25  C   UNL A   1      46.073  26.561  31.657  1.00  0.00     0.044 C 
ATOM     26  C   UNL A   1      45.419  24.604  32.852  1.00  0.00     0.055 C 
ATOM     27  C   UNL A   1      44.871  27.313  32.214  1.00  0.00     0.163 C 
ATOM     28  C   UNL A   1      44.265  25.276  33.595  1.00  0.00     0.014 C 
ATOM     29  O   UNL A   1      44.769  28.529  32.073  1.00  0.00    -0.294 OA
ATOM     30  C   UNL A   1      43.713  26.461  32.794  1.00  0.00     0.081 C 
BRANCH  17  31
ATOM     31  C   UNL A   1      43.458  25.310  27.230  1.00  0.00     0.261 C 
ATOM     32  N   UNL A   1      42.080  25.469  27.099  1.00  0.00    -0.322 N 
ATOM     33  H   UNL A   1      41.631  24.684  26.708  1.00  0.00     0.170 HD
ATOM     34  O   UNL A   1      44.009  24.381  26.643  1.00  0.00    -0.269 OA
BRANCH  32  35
ATOM     35  C   UNL A   1      41.187  26.529  27.414  1.00  0.00     0.041 A 
ATOM     36  C   UNL A   1      38.395  29.795  28.070  1.00  0.00     0.044 C 
ATOM     37  C   UNL A   1      39.387  28.691  27.845  1.00  0.00    -0.051 A 
ATOM     38  C   UNL A   1      39.362  27.563  28.664  1.00  0.00     0.005 A 
ATOM     39  C   UNL A   1      40.341  28.750  26.827  1.00  0.00     0.005 A 
ATOM     40  C   UNL A   1      40.281  26.522  28.477  1.00  0.00     0.026 A 
ATOM     41  C   UNL A   1      41.231  27.680  26.615  1.00  0.00     0.026 A 
ENDBRANCH  32  35
ENDBRANCH  17  31
ENDBRANCH  11  16
ENDBRANCH   8  10
ENDBRANCH   7   8
ENDBRANCH   6   7
ENDBRANCH   5   6
ENDBRANCH   4   5
ENDBRANCH   3   4
ENDBRANCH   2   3
ENDBRANCH   1   2
BRANCH   1  42
ATOM     42  C   UNL A   1      48.026  36.325  29.357  1.00  0.00     0.188 C 
BRANCH  42  43
ATOM     43  C   UNL A   1      46.170  35.858  28.871  1.00  0.00     0.188 C 
BRANCH  43  44
ATOM     44  O   UNL A   1      45.259  36.311  27.590  1.00  0.00    -0.376 OA
BRANCH  44  45
ATOM     45  C   UNL A   1      44.443  35.550  26.594  1.00  0.00     0.202 C 
BRANCH  45  46
ATOM     46  C   UNL A   1      43.813  34.266  27.113  1.00  0.00     0.261 C 
BRANCH  46  47
ATOM     47  O   UNL A   1      43.744  33.112  26.266  1.00  0.00    -0.460 OA
BRANCH  47  48
ATOM     48  C   UNL A   1      44.553  32.050  26.523  1.00  0.00     0.338 C 
ATOM     49  O   UNL A   1      45.412  31.700  25.729  1.00  0.00    -0.246 OA
BRANCH  48  50
ATOM     50  C   UNL A   1      44.328  31.462  27.890  1.00  0.00     0.060 A 
ATOM     51  C   UNL A   1      43.130  30.829  28.157  1.00  0.00     0.016 A 
ATOM     52  C   UNL A   1      45.146  31.723  28.989  1.00  0.00     0.016 A 
ATOM     53  C   UNL A   1      42.597  30.849  29.473  1.00  0.00     0.010 A 
ATOM     54  C   UNL A   1      44.575  31.746  30.292  1.00  0.00     0.010 A 
ATOM     55  C   UNL A   1      43.191  31.551  30.526  1.00  0.00    -0.014 A 
BRANCH  55  56
ATOM     56  C   UNL A   1      42.513  31.704  31.931  1.00  0.00     0.031 A 
ATOM     57  C   UNL A   1      41.358  32.750  31.780  1.00  0.00     0.074 A 
ATOM     58  C   UNL A   1      42.663  31.077  33.218  1.00  0.00     0.049 A 
ATOM     59  N   UNL A   1      40.381  32.915  32.614  1.00  0.00    -0.248 NA
ATOM     60  C   UNL A   1      41.214  33.672  30.641  1.00  0.00     0.031 C 
ATOM     61  C   UNL A   1      42.256  29.758  33.895  1.00  0.00     0.029 A 
ATOM     62  N   UNL A   1      43.632  31.268  34.171  1.00  0.00    -0.354 N 
ATOM     63  C   UNL A   1      39.384  33.671  32.056  1.00  0.00     0.074 A 
ATOM     64  C   UNL A   1      39.993  34.191  30.849  1.00  0.00     0.031 C 
ATOM     65  C   UNL A   1      42.741  29.406  35.065  1.00  0.00     0.029 A 
ATOM     66  C   UNL A   1      43.549  30.501  35.365  1.00  0.00     0.049 A 
ATOM     67  H   UNL A   1      44.361  31.915  34.031  1.00  0.00     0.167 HD
ATOM     68  C   UNL A   1      38.161  33.679  32.673  1.00  0.00     0.034 A 
ATOM     69  C   UNL A   1      44.317  29.958  36.324  1.00  0.00     0.034 A 
ATOM     70  C   UNL A   1      38.204  33.145  34.122  1.00  0.00     0.049 A 
ATOM     71  C   UNL A   1      43.358  30.991  37.181  1.00  0.00     0.074 A 
ATOM     72  C   UNL A   1      37.420  32.272  34.868  1.00  0.00     0.029 A 
ATOM     73  N   UNL A   1      39.252  33.480  35.034  1.00  0.00    -0.354 N 
ATOM     74  N   UNL A   1      41.990  31.053  37.110  1.00  0.00    -0.248 NA
ATOM     75  C   UNL A   1      43.845  32.075  38.014  1.00  0.00     0.031 C 
ATOM     76  C   UNL A   1      37.985  32.098  36.194  1.00  0.00     0.029 A 
ATOM     77  C   UNL A   1      39.228  32.742  36.270  1.00  0.00     0.049 A 
ATOM     78  H   UNL A   1      39.936  34.160  34.833  1.00  0.00     0.167 HD
ATOM     79  C   UNL A   1      41.500  32.294  37.568  1.00  0.00     0.074 A 
ATOM     80  C   UNL A   1      42.727  32.803  38.231  1.00  0.00     0.031 C 
ATOM     81  C   UNL A   1      40.270  32.987  37.362  1.00  0.00     0.034 A 
BRANCH  68  82
ATOM     82  C   UNL A   1      36.828  34.009  31.905  1.00  0.00     0.023 A 
ATOM     83  C   UNL A   1      35.914  34.888  32.533  1.00  0.00     0.012 A 
ATOM     84  C   UNL A   1      36.346  33.462  30.674  1.00  0.00     0.148 A 
ATOM     85  C   UNL A   1      34.624  35.162  32.043  1.00  0.00     0.002 A 
ATOM     86  C   UNL A   1      35.078  33.785  30.145  1.00  0.00     0.091 A 
ATOM     87  F   UNL A   1      37.075  32.579  29.995  1.00  0.00    -0.205 F 
ATOM     88  C   UNL A   1      34.204  34.616  30.844  1.00  0.00     0.022 A 
BRANCH  86  89
ATOM     89  S   UNL A   1      34.474  33.184  28.546  1.00  0.00     0.127 S 
ATOM     90  O   UNL A   1      35.476  33.709  27.616  1.00  0.00    -0.237 OA
ATOM     91  O   UNL A   1      34.521  31.732  28.722  1.00  0.00    -0.237 OA
ATOM     92  O   UNL A   1      33.136  33.733  28.374  1.00  0.00    -0.744 OA
ENDBRANCH  86  89
ENDBRANCH  68  82
BRANCH  69  93
ATOM     93  C   UNL A   1      45.635  29.351  35.444  1.00  0.00     0.023 A 
ATOM     94  C   UNL A   1      46.962  30.489  35.161  1.00  0.00     0.012 A 
ATOM     95  C   UNL A   1      46.053  27.877  36.103  1.00  0.00     0.148 A 
ATOM     96  C   UNL A   1      48.619  30.311  35.809  1.00  0.00     0.002 A 
ATOM     97  C   UNL A   1      47.601  27.526  36.977  1.00  0.00     0.091 A 
ATOM     98  F   UNL A   1      45.026  27.005  36.172  1.00  0.00    -0.205 F 
ATOM     99  C   UNL A   1      48.960  28.825  36.878  1.00  0.00     0.022 A 
BRANCH  97 100
ATOM    100  S   UNL A   1      47.395  25.644  36.939  1.00  0.00     0.127 S 
ATOM    101  O   UNL A   1      48.590  25.193  37.657  1.00  0.00    -0.237 OA
ATOM    102  O   UNL A   1      46.165  25.323  37.627  1.00  0.00    -0.237 OA
ATOM    103  O   UNL A   1      47.425  25.364  35.506  1.00  0.00    -0.744 OA
ENDBRANCH  97 100
ENDBRANCH  69  93
BRANCH  81 104
ATOM    104  C   UNL A   1      39.879  34.198  38.242  1.00  0.00     0.023 A 
ATOM    105  C   UNL A   1      40.130  35.528  37.863  1.00  0.00     0.012 A 
ATOM    106  C   UNL A   1      39.334  34.029  39.550  1.00  0.00     0.148 A 
ATOM    107  C   UNL A   1      39.629  36.610  38.598  1.00  0.00     0.002 A 
ATOM    108  C   UNL A   1      38.898  35.100  40.312  1.00  0.00     0.091 A 
ATOM    109  F   UNL A   1      39.283  32.825  40.121  1.00  0.00    -0.205 F 
ATOM    110  C   UNL A   1      38.982  36.393  39.808  1.00  0.00     0.022 A 
BRANCH 108 111
ATOM    111  S   UNL A   1      38.266  34.876  41.981  1.00  0.00     0.127 S 
ATOM    112  O   UNL A   1      39.103  33.775  42.459  1.00  0.00    -0.237 OA
ATOM    113  O   UNL A   1      38.557  36.176  42.584  1.00  0.00    -0.237 OA
ATOM    114  O   UNL A   1      36.848  34.567  41.860  1.00  0.00    -0.744 OA
ENDBRANCH 108 111
ENDBRANCH  81 104
ENDBRANCH  55  56
ENDBRANCH  48  50
ENDBRANCH  47  48
ENDBRANCH  46  47
ENDBRANCH  45  46
ENDBRANCH  44  45
ENDBRANCH  43  44
ENDBRANCH  42  43
ENDBRANCH   1  42
TORSDOF 26
ENDMDL
MODEL 2
REMARK VINA RESULT:      -8.7      3.954     11.999
REMARK SMILES Cc1ccc(NC(=O)c2cnn3c2NC2=C(C(=O)CCC2)[C@H]3c2ccc(C(=O)OCCOCCOCCOCCOC(=O)c3ccc(-c4c5nc(c(-c6cccc(S(=O)(=O)[O-])c6F)c6ccc([nH]6)c(-c6cccc(S(=O)(=O)[O-])c6F)c6nc(c(-c7cccc(S(=O)(=O)[O-])c7F)c7ccc4[nH]7)C=C6)C=C5)cc3)cc2)cc1
REMARK SMILES IDX 35 1 34 2 33 3 32 4 31 5 30 6 29 7 27 8 28 9 26 10 23 11
REMARK SMILES IDX 24 12 108 13 25 14 107 15 22 16 9 17 10 18 13 19 11 20 12 21
REMARK SMILES IDX 14 22 15 23 16 25 21 26 17 27 20 28 18 29 19 30 7 31 6 32
REMARK SMILES IDX 8 34 5 35 1 36 2 37 3 38 110 39 4 40 109 41 36 42 37 43
REMARK SMILES IDX 38 44 39 45 40 46 41 47 42 48 43 49 44 50 45 51 106 52 46 53
REMARK SMILES IDX 105 54 47 55 48 56 49 57 99 58 50 59 104 60 98 61 100 62
REMARK SMILES IDX 51 63 103 64 97 65 96 66 52 68 84 69 64 70 83 71 65 72 68 73
REMARK SMILES IDX 82 74 101 75 66 76 67 77 81 79 102 80 69 81 53 82 54 83
REMARK SMILES IDX 62 84 55 85 57 86 63 87 56 88 58 89 59 90 60 91 61 92 85 93
REMARK SMILES IDX 86 94 94 95 87 96 89 97 95 98 88 99 90 100 91 101 92 102
REMARK SMILES IDX 93 103 70 104 71 105 79 106 72 107 74 108 80 109 73 110
REMARK SMILES IDX 75 111 76 112 77 113 78 114
REMARK H PARENT 14 24 6 33 100 67 68 78
REMARK Flexibility Score: inf
ROOT
ATOM      1  O   UNL A   1      45.414  36.935  33.963  1.00  0.00    -0.377 OA
ENDROOT
BRANCH   1   2
ATOM      2  C   UNL A   1      44.084  36.189  35.053  1.00  0.00     0.188 C 
BRANCH   2   3
ATOM      3  C   UNL A   1      42.325  35.697  34.759  1.00  0.00     0.188 C 
BRANCH   3   4
ATOM      4  O   UNL A   1      41.469  35.316  33.470  1.00  0.00    -0.376 OA
BRANCH   4   5
ATOM      5  C   UNL A   1      41.795  34.589  32.171  1.00  0.00     0.202 C 
BRANCH   5   6
ATOM      6  C   UNL A   1      42.574  33.202  31.996  1.00  0.00     0.261 C 
BRANCH   6   7
ATOM      7  O   UNL A   1      41.887  32.010  32.243  1.00  0.00    -0.460 OA
BRANCH   7   8
ATOM      8  C   UNL A   1      42.304  31.588  33.427  1.00  0.00     0.338 C 
ATOM      9  O   UNL A   1      41.967  32.072  34.491  1.00  0.00    -0.246 OA
BRANCH   8  10
ATOM     10  C   UNL A   1      43.175  30.411  33.271  1.00  0.00     0.060 A 
ATOM     11  C   UNL A   1      44.805  28.257  33.734  1.00  0.00    -0.019 A 
ATOM     12  C   UNL A   1      43.413  28.125  33.901  1.00  0.00     0.007 A 
ATOM     13  C   UNL A   1      45.278  29.325  32.937  1.00  0.00     0.007 A 
ATOM     14  C   UNL A   1      42.593  29.203  33.618  1.00  0.00     0.016 A 
ATOM     15  C   UNL A   1      44.503  30.471  32.851  1.00  0.00     0.016 A 
BRANCH  11  16
ATOM     16  C   UNL A   1      45.728  27.667  34.888  1.00  0.00     0.175 C 
ATOM     17  C   UNL A   1      44.270  24.469  35.396  1.00  0.00     0.102 A 
ATOM     18  C   UNL A   1      44.306  25.053  36.699  1.00  0.00     0.151 A 
ATOM     19  C   UNL A   1      45.146  25.260  34.669  1.00  0.00     0.142 A 
ATOM     20  N   UNL A   1      44.782  26.296  36.701  1.00  0.00    -0.178 NA
ATOM     21  N   UNL A   1      45.157  26.439  35.426  1.00  0.00    -0.237 N 
ATOM     22  N   UNL A   1      45.848  25.288  33.466  1.00  0.00    -0.343 N 
ATOM     23  C   UNL A   1      46.832  26.297  33.242  1.00  0.00     0.026 C 
ATOM     24  H   UNL A   1      45.666  24.613  32.773  1.00  0.00     0.168 HD
ATOM     25  C   UNL A   1      47.024  27.179  34.250  1.00  0.00     0.044 C 
ATOM     26  C   UNL A   1      48.000  26.202  32.306  1.00  0.00     0.055 C 
ATOM     27  C   UNL A   1      48.060  26.490  35.127  1.00  0.00     0.163 C 
ATOM     28  C   UNL A   1      49.179  25.574  33.046  1.00  0.00     0.014 C 
ATOM     29  O   UNL A   1      48.176  26.785  36.314  1.00  0.00    -0.294 OA
ATOM     30  C   UNL A   1      48.821  25.288  34.509  1.00  0.00     0.081 C 
BRANCH  17  31
ATOM     31  C   UNL A   1      43.521  23.291  35.030  1.00  0.00     0.261 C 
ATOM     32  N   UNL A   1      44.194  22.080  34.890  1.00  0.00    -0.322 N 
ATOM     33  H   UNL A   1      43.685  21.405  34.384  1.00  0.00     0.170 HD
ATOM     34  O   UNL A   1      42.320  23.340  34.767  1.00  0.00    -0.269 OA
BRANCH  32  35
ATOM     35  C   UNL A   1      45.465  21.615  35.326  1.00  0.00     0.041 A 
ATOM     36  C   UNL A   1      49.202  20.023  36.873  1.00  0.00     0.044 C 
ATOM     37  C   UNL A   1      47.916  20.603  36.358  1.00  0.00    -0.051 A 
ATOM     38  C   UNL A   1      47.696  20.682  34.984  1.00  0.00     0.005 A 
ATOM     39  C   UNL A   1      46.916  21.065  37.218  1.00  0.00     0.005 A 
ATOM     40  C   UNL A   1      46.506  21.225  34.480  1.00  0.00     0.026 A 
ATOM     41  C   UNL A   1      45.705  21.565  36.705  1.00  0.00     0.026 A 
ENDBRANCH  32  35
ENDBRANCH  17  31
ENDBRANCH  11  16
ENDBRANCH   8  10
ENDBRANCH   7   8
ENDBRANCH   6   7
ENDBRANCH   5   6
ENDBRANCH   4   5
ENDBRANCH   3   4
ENDBRANCH   2   3
ENDBRANCH   1   2
BRANCH   1  42
ATOM     42  C   UNL A   1      45.527  38.803  33.148  1.00  0.00     0.188 C 
BRANCH  42  43
ATOM     43  C   UNL A   1      44.958  39.050  31.274  1.00  0.00     0.188 C 
BRANCH  43  44
ATOM     44  O   UNL A   1      43.917  38.186  30.354  1.00  0.00    -0.376 OA
BRANCH  44  45
ATOM     45  C   UNL A   1      43.934  36.785  29.831  1.00  0.00     0.202 C 
BRANCH  45  46
ATOM     46  C   UNL A   1      45.227  36.359  29.153  1.00  0.00     0.261 C 
BRANCH  46  47
ATOM     47  O   UNL A   1      45.377  36.521  27.736  1.00  0.00    -0.460 OA
BRANCH  47  48
ATOM     48  C   UNL A   1      44.500  35.906  26.901  1.00  0.00     0.338 C 
ATOM     49  O   UNL A   1      43.595  36.525  26.363  1.00  0.00    -0.246 OA
BRANCH  48  50
ATOM     50  C   UNL A   1      44.839  34.460  26.659  1.00  0.00     0.060 A 
ATOM     51  C   UNL A   1      43.997  33.698  25.874  1.00  0.00     0.016 A 
ATOM     52  C   UNL A   1      45.814  33.764  27.373  1.00  0.00     0.016 A 
ATOM     53  C   UNL A   1      43.863  32.306  26.123  1.00  0.00     0.010 A 
ATOM     54  C   UNL A   1      45.642  32.373  27.613  1.00  0.00     0.010 A 
ATOM     55  C   UNL A   1      44.493  31.658  27.190  1.00  0.00    -0.014 A 
BRANCH  55  56
ATOM     56  C   UNL A   1      44.212  30.160  27.556  1.00  0.00     0.031 A 
ATOM     57  C   UNL A   1      45.409  29.315  27.007  1.00  0.00     0.074 A 
ATOM     58  C   UNL A   1      43.203  29.456  28.303  1.00  0.00     0.049 A 
ATOM     59  N   UNL A   1      45.705  28.107  27.370  1.00  0.00    -0.248 NA
ATOM     60  C   UNL A   1      46.385  29.799  26.016  1.00  0.00     0.031 C 
ATOM     61  C   UNL A   1      42.851  29.197  29.777  1.00  0.00     0.029 A 
ATOM     62  N   UNL A   1      41.919  29.133  27.940  1.00  0.00    -0.354 N 
ATOM     63  C   UNL A   1      46.965  27.765  26.953  1.00  0.00     0.074 A 
ATOM     64  C   UNL A   1      47.315  28.829  26.036  1.00  0.00     0.031 C 
ATOM     65  C   UNL A   1      41.707  28.655  30.127  1.00  0.00     0.029 A 
ATOM     66  C   UNL A   1      41.118  28.433  28.883  1.00  0.00     0.049 A 
ATOM     67  H   UNL A   1      41.566  29.378  27.054  1.00  0.00     0.167 HD
ATOM     68  C   UNL A   1      47.549  26.659  27.512  1.00  0.00     0.034 A 
ATOM     69  C   UNL A   1      39.841  28.269  29.265  1.00  0.00     0.034 A 
ATOM     70  C   UNL A   1      46.545  25.740  28.243  1.00  0.00     0.049 A 
ATOM     71  C   UNL A   1      40.283  26.738  28.835  1.00  0.00     0.074 A 
ATOM     72  C   UNL A   1      46.535  25.075  29.463  1.00  0.00     0.029 A 
ATOM     73  N   UNL A   1      45.253  25.437  27.711  1.00  0.00    -0.354 N 
ATOM     74  N   UNL A   1      41.401  26.078  29.275  1.00  0.00    -0.248 NA
ATOM     75  C   UNL A   1      39.624  25.942  27.816  1.00  0.00     0.031 C 
ATOM     76  C   UNL A   1      45.270  24.387  29.650  1.00  0.00     0.029 A 
ATOM     77  C   UNL A   1      44.387  24.724  28.615  1.00  0.00     0.049 A 
ATOM     78  H   UNL A   1      44.977  25.695  26.802  1.00  0.00     0.167 HD
ATOM     79  C   UNL A   1      41.757  25.023  28.410  1.00  0.00     0.074 A 
ATOM     80  C   UNL A   1      40.510  24.942  27.609  1.00  0.00     0.031 C 
ATOM     81  C   UNL A   1      42.975  24.310  28.200  1.00  0.00     0.034 A 
BRANCH  68  82
ATOM     82  C   UNL A   1      49.109  26.465  27.569  1.00  0.00     0.023 A 
ATOM     83  C   UNL A   1      49.719  25.766  26.501  1.00  0.00     0.012 A 
ATOM     84  C   UNL A   1      50.016  26.815  28.619  1.00  0.00     0.148 A 
ATOM     85  C   UNL A   1      51.073  25.386  26.481  1.00  0.00     0.002 A 
ATOM     86  C   UNL A   1      51.390  26.494  28.573  1.00  0.00     0.091 A 
ATOM     87  F   UNL A   1      49.577  27.431  29.714  1.00  0.00    -0.205 F 
ATOM     88  C   UNL A   1      51.915  25.755  27.515  1.00  0.00     0.022 A 
BRANCH  86  89
ATOM     89  S   UNL A   1      52.582  27.003  29.839  1.00  0.00     0.127 S 
ATOM     90  O   UNL A   1      52.353  26.018  30.899  1.00  0.00    -0.237 OA
ATOM     91  O   UNL A   1      53.859  26.850  29.143  1.00  0.00    -0.237 OA
ATOM     92  O   UNL A   1      52.246  28.374  30.198  1.00  0.00    -0.744 OA
ENDBRANCH  86  89
ENDBRANCH  68  82
BRANCH  69  93
ATOM     93  C   UNL A   1      39.220  29.845  29.168  1.00  0.00     0.023 A 
ATOM     94  C   UNL A   1      38.108  30.155  27.824  1.00  0.00     0.012 A 
ATOM     95  C   UNL A   1      38.681  30.275  30.687  1.00  0.00     0.148 A 
ATOM     96  C   UNL A   1      36.380  30.576  28.002  1.00  0.00     0.002 A 
ATOM     97  C   UNL A   1      36.950  30.562  31.138  1.00  0.00     0.091 A 
ATOM     98  F   UNL A   1      39.617  30.141  31.650  1.00  0.00    -0.205 F 
ATOM     99  C   UNL A   1      35.701  30.675  29.733  1.00  0.00     0.022 A 
BRANCH  97 100
ATOM    100  S   UNL A   1      37.340  31.391  32.794  1.00  0.00     0.127 S 
ATOM    101  O   UNL A   1      37.740  30.248  33.620  1.00  0.00    -0.237 OA
ATOM    102  O   UNL A   1      38.415  32.332  32.572  1.00  0.00    -0.237 OA
ATOM    103  O   UNL A   1      36.048  31.962  33.161  1.00  0.00    -0.744 OA
ENDBRANCH  97 100
ENDBRANCH  69  93
BRANCH  81 104
ATOM    104  C   UNL A   1      42.997  22.984  27.401  1.00  0.00     0.023 A 
ATOM    105  C   UNL A   1      42.200  21.877  27.740  1.00  0.00     0.012 A 
ATOM    106  C   UNL A   1      43.915  22.770  26.330  1.00  0.00     0.148 A 
ATOM    107  C   UNL A   1      42.120  20.749  26.914  1.00  0.00     0.002 A 
ATOM    108  C   UNL A   1      43.887  21.627  25.551  1.00  0.00     0.091 A 
ATOM    109  F   UNL A   1      44.890  23.645  26.078  1.00  0.00    -0.205 F 
ATOM    110  C   UNL A   1      42.940  20.638  25.798  1.00  0.00     0.022 A 
BRANCH 108 111
ATOM    111  S   UNL A   1      45.088  21.346  24.242  1.00  0.00     0.127 S 
ATOM    112  O   UNL A   1      44.530  20.159  23.592  1.00  0.00    -0.237 OA
ATOM    113  O   UNL A   1      44.976  22.581  23.467  1.00  0.00    -0.237 OA
ATOM    114  O   UNL A   1      46.379  21.147  24.886  1.00  0.00    -0.744 OA
ENDBRANCH 108 111
ENDBRANCH  81 104
ENDBRANCH  55  56
ENDBRANCH  48  50
ENDBRANCH  47  48
ENDBRANCH  46  47
ENDBRANCH  45  46
ENDBRANCH  44  45
ENDBRANCH  43  44
ENDBRANCH  42  43
ENDBRANCH   1  42
TORSDOF 26
ENDMDL
MODEL 3
REMARK VINA RESULT:      -8.7      4.507     11.121
REMARK SMILES Cc1ccc(NC(=O)c2cnn3c2NC2=C(C(=O)CCC2)[C@H]3c2ccc(C(=O)OCCOCCOCCOCCOC(=O)c3ccc(-c4c5nc(c(-c6cccc(S(=O)(=O)[O-])c6F)c6ccc([nH]6)c(-c6cccc(S(=O)(=O)[O-])c6F)c6nc(c(-c7cccc(S(=O)(=O)[O-])c7F)c7ccc4[nH]7)C=C6)C=C5)cc3)cc2)cc1
REMARK SMILES IDX 35 1 34 2 33 3 32 4 31 5 30 6 29 7 27 8 28 9 26 10 23 11
REMARK SMILES IDX 24 12 108 13 25 14 107 15 22 16 9 17 10 18 13 19 11 20 12 21
REMARK SMILES IDX 14 22 15 23 16 25 21 26 17 27 20 28 18 29 19 30 7 31 6 32
REMARK SMILES IDX 8 34 5 35 1 36 2 37 3 38 110 39 4 40 109 41 36 42 37 43
REMARK SMILES IDX 38 44 39 45 40 46 41 47 42 48 43 49 44 50 45 51 106 52 46 53
REMARK SMILES IDX 105 54 47 55 48 56 49 57 99 58 50 59 104 60 98 61 100 62
REMARK SMILES IDX 51 63 103 64 97 65 96 66 52 68 84 69 64 70 83 71 65 72 68 73
REMARK SMILES IDX 82 74 101 75 66 76 67 77 81 79 102 80 69 81 53 82 54 83
REMARK SMILES IDX 62 84 55 85 57 86 63 87 56 88 58 89 59 90 60 91 61 92 85 93
REMARK SMILES IDX 86 94 94 95 87 96 89 97 95 98 88 99 90 100 91 101 92 102
REMARK SMILES IDX 93 103 70 104 71 105 79 106 72 107 74 108 80 109 73 110
REMARK SMILES IDX 75 111 76 112 77 113 78 114
REMARK H PARENT 14 24 6 33 100 67 68 78
REMARK Flexibility Score: inf
ROOT
ATOM      1  O   UNL A   1      46.896  30.823  37.032  1.00  0.00    -0.377 OA
ENDROOT
BRANCH   1   2
ATOM      2  C   UNL A   1      48.249  31.713  36.088  1.00  0.00     0.188 C 
BRANCH   2   3
ATOM      3  C   UNL A   1      48.827  31.653  34.332  1.00  0.00     0.188 C 
BRANCH   3   4
ATOM      4  O   UNL A   1      48.920  32.714  33.146  1.00  0.00    -0.376 OA
BRANCH   4   5
ATOM      5  C   UNL A   1      48.000  33.828  32.660  1.00  0.00     0.202 C 
BRANCH   5   6
ATOM      6  C   UNL A   1      46.431  33.988  32.932  1.00  0.00     0.261 C 
BRANCH   6   7
ATOM      7  O   UNL A   1      45.605  34.392  31.879  1.00  0.00    -0.460 OA
BRANCH   7   8
ATOM      8  C   UNL A   1      44.403  34.568  32.407  1.00  0.00     0.338 C 
ATOM      9  O   UNL A   1      43.729  33.683  32.900  1.00  0.00    -0.246 OA
BRANCH   8  10
ATOM     10  C   UNL A   1      44.035  35.992  32.372  1.00  0.00     0.060 A 
ATOM     11  C   UNL A   1      44.097  38.733  32.362  1.00  0.00    -0.019 A 
ATOM     12  C   UNL A   1      44.410  38.025  31.185  1.00  0.00     0.007 A 
ATOM     13  C   UNL A   1      43.357  38.060  33.361  1.00  0.00     0.007 A 
ATOM     14  C   UNL A   1      44.329  36.644  31.185  1.00  0.00     0.016 A 
ATOM     15  C   UNL A   1      43.471  36.681  33.446  1.00  0.00     0.016 A 
BRANCH  11  16
ATOM     16  C   UNL A   1      45.074  39.920  32.770  1.00  0.00     0.175 C 
ATOM     17  C   UNL A   1      45.347  41.697  29.707  1.00  0.00     0.102 A 
ATOM     18  C   UNL A   1      46.699  41.454  30.098  1.00  0.00     0.151 A 
ATOM     19  C   UNL A   1      44.633  41.465  30.874  1.00  0.00     0.142 A 
ATOM     20  N   UNL A   1      46.799  40.741  31.217  1.00  0.00    -0.178 NA
ATOM     21  N   UNL A   1      45.519  40.649  31.590  1.00  0.00    -0.237 N 
ATOM     22  N   UNL A   1      43.378  41.667  31.441  1.00  0.00    -0.343 N 
ATOM     23  C   UNL A   1      43.176  41.402  32.829  1.00  0.00     0.026 C 
ATOM     24  H   UNL A   1      42.632  41.992  30.886  1.00  0.00     0.168 HD
ATOM     25  C   UNL A   1      44.256  40.966  33.518  1.00  0.00     0.044 C 
ATOM     26  C   UNL A   1      42.121  42.014  33.702  1.00  0.00     0.055 C 
ATOM     27  C   UNL A   1      44.936  42.257  33.955  1.00  0.00     0.163 C 
ATOM     28  C   UNL A   1      42.660  43.318  34.290  1.00  0.00     0.014 C 
ATOM     29  O   UNL A   1      46.132  42.272  34.238  1.00  0.00    -0.294 OA
ATOM     30  C   UNL A   1      44.107  43.563  33.849  1.00  0.00     0.081 C 
BRANCH  17  31
ATOM     31  C   UNL A   1      44.922  42.143  28.402  1.00  0.00     0.261 C 
ATOM     32  N   UNL A   1      44.388  41.214  27.513  1.00  0.00    -0.322 N 
ATOM     33  H   UNL A   1      44.382  41.525  26.579  1.00  0.00     0.170 HD
ATOM     34  O   UNL A   1      45.086  43.303  28.026  1.00  0.00    -0.269 OA
BRANCH  32  35
ATOM     35  C   UNL A   1      43.850  39.908  27.675  1.00  0.00     0.041 A 
ATOM     36  C   UNL A   1      41.943  36.019  28.036  1.00  0.00     0.044 C 
ATOM     37  C   UNL A   1      42.593  37.369  27.946  1.00  0.00    -0.051 A 
ATOM     38  C   UNL A   1      43.908  37.473  27.495  1.00  0.00     0.005 A 
ATOM     39  C   UNL A   1      41.917  38.540  28.294  1.00  0.00     0.005 A 
ATOM     40  C   UNL A   1      44.539  38.721  27.408  1.00  0.00     0.026 A 
ATOM     41  C   UNL A   1      42.541  39.795  28.160  1.00  0.00     0.026 A 
ENDBRANCH  32  35
ENDBRANCH  17  31
ENDBRANCH  11  16
ENDBRANCH   8  10
ENDBRANCH   7   8
ENDBRANCH   6   7
ENDBRANCH   5   6
ENDBRANCH   4   5
ENDBRANCH   3   4
ENDBRANCH   2   3
ENDBRANCH   1   2
BRANCH   1  42
ATOM     42  C   UNL A   1      47.047  29.511  38.589  1.00  0.00     0.188 C 
BRANCH  42  43
ATOM     43  C   UNL A   1      45.625  29.507  39.959  1.00  0.00     0.188 C 
BRANCH  43  44
ATOM     44  O   UNL A   1      44.762  28.271  40.595  1.00  0.00    -0.376 OA
BRANCH  44  45
ATOM     45  C   UNL A   1      45.056  26.821  40.809  1.00  0.00     0.202 C 
BRANCH  45  46
ATOM     46  C   UNL A   1      44.324  25.864  39.881  1.00  0.00     0.261 C 
BRANCH  46  47
ATOM     47  O   UNL A   1      43.937  26.297  38.570  1.00  0.00    -0.460 OA
BRANCH  47  48
ATOM     48  C   UNL A   1      44.718  25.972  37.506  1.00  0.00     0.338 C 
ATOM     49  O   UNL A   1      45.851  25.544  37.658  1.00  0.00    -0.246 OA
BRANCH  48  50
ATOM     50  C   UNL A   1      43.998  26.105  36.191  1.00  0.00     0.060 A 
ATOM     51  C   UNL A   1      44.680  26.615  35.104  1.00  0.00     0.016 A 
ATOM     52  C   UNL A   1      42.617  25.979  36.049  1.00  0.00     0.016 A 
ATOM     53  C   UNL A   1      43.980  27.349  34.111  1.00  0.00     0.010 A 
ATOM     54  C   UNL A   1      41.947  26.739  35.050  1.00  0.00     0.010 A 
ATOM     55  C   UNL A   1      42.620  27.659  34.207  1.00  0.00    -0.014 A 
BRANCH  55  56
ATOM     56  C   UNL A   1      41.893  28.607  33.193  1.00  0.00     0.031 A 
ATOM     57  C   UNL A   1      41.252  29.771  34.020  1.00  0.00     0.074 A 
ATOM     58  C   UNL A   1      41.763  28.674  31.760  1.00  0.00     0.049 A 
ATOM     59  N   UNL A   1      40.845  30.901  33.535  1.00  0.00    -0.248 NA
ATOM     60  C   UNL A   1      41.056  29.745  35.479  1.00  0.00     0.031 C 
ATOM     61  C   UNL A   1      42.613  29.125  30.562  1.00  0.00     0.029 A 
ATOM     62  N   UNL A   1      40.977  27.924  30.922  1.00  0.00    -0.354 N 
ATOM     63  C   UNL A   1      40.631  31.814  34.535  1.00  0.00     0.074 A 
ATOM     64  C   UNL A   1      40.695  31.013  35.739  1.00  0.00     0.031 C 
ATOM     65  C   UNL A   1      42.256  28.859  29.325  1.00  0.00     0.029 A 
ATOM     66  C   UNL A   1      41.048  28.193  29.528  1.00  0.00     0.049 A 
ATOM     67  H   UNL A   1      40.384  27.222  31.276  1.00  0.00     0.167 HD
ATOM     68  C   UNL A   1      40.503  33.132  34.185  1.00  0.00     0.034 A 
ATOM     69  C   UNL A   1      40.916  27.596  28.332  1.00  0.00     0.034 A 
ATOM     70  C   UNL A   1      40.229  33.342  32.679  1.00  0.00     0.049 A 
ATOM     71  C   UNL A   1      39.754  28.766  28.275  1.00  0.00     0.074 A 
ATOM     72  C   UNL A   1      40.722  34.202  31.704  1.00  0.00     0.029 A 
ATOM     73  N   UNL A   1      39.328  32.514  31.939  1.00  0.00    -0.354 N 
ATOM     74  N   UNL A   1      39.945  30.094  28.555  1.00  0.00    -0.248 NA
ATOM     75  C   UNL A   1      38.339  28.518  28.067  1.00  0.00     0.031 C 
ATOM     76  C   UNL A   1      40.123  33.898  30.418  1.00  0.00     0.029 A 
ATOM     77  C   UNL A   1      39.345  32.736  30.516  1.00  0.00     0.049 A 
ATOM     78  H   UNL A   1      38.744  31.847  32.368  1.00  0.00     0.167 HD
ATOM     79  C   UNL A   1      38.733  30.738  28.878  1.00  0.00     0.074 A 
ATOM     80  C   UNL A   1      37.781  29.699  28.414  1.00  0.00     0.031 C 
ATOM     81  C   UNL A   1      38.433  31.945  29.579  1.00  0.00     0.034 A 
BRANCH  68  82
ATOM     82  C   UNL A   1      40.807  34.306  35.187  1.00  0.00     0.023 A 
ATOM     83  C   UNL A   1      39.916  35.404  35.195  1.00  0.00     0.012 A 
ATOM     84  C   UNL A   1      41.938  34.477  36.047  1.00  0.00     0.148 A 
ATOM     85  C   UNL A   1      40.133  36.588  35.924  1.00  0.00     0.002 A 
ATOM     86  C   UNL A   1      42.127  35.636  36.831  1.00  0.00     0.091 A 
ATOM     87  F   UNL A   1      42.889  33.548  36.106  1.00  0.00    -0.205 F 
ATOM     88  C   UNL A   1      41.236  36.704  36.749  1.00  0.00     0.022 A 
BRANCH  86  89
ATOM     89  S   UNL A   1      43.496  35.845  38.000  1.00  0.00     0.127 S 
ATOM     90  O   UNL A   1      43.019  36.939  38.848  1.00  0.00    -0.237 OA
ATOM     91  O   UNL A   1      43.537  34.542  38.665  1.00  0.00    -0.237 OA
ATOM     92  O   UNL A   1      44.676  36.159  37.205  1.00  0.00    -0.744 OA
ENDBRANCH  86  89
ENDBRANCH  68  82
BRANCH  69  93
ATOM     93  C   UNL A   1      41.671  26.097  28.580  1.00  0.00     0.023 A 
ATOM     94  C   UNL A   1      40.606  24.683  28.550  1.00  0.00     0.012 A 
ATOM     95  C   UNL A   1      43.014  26.032  27.593  1.00  0.00     0.148 A 
ATOM     96  C   UNL A   1      40.680  23.371  27.337  1.00  0.00     0.002 A 
ATOM     97  C   UNL A   1      43.220  24.913  26.183  1.00  0.00     0.091 A 
ATOM     98  F   UNL A   1      43.856  27.074  27.756  1.00  0.00    -0.205 F 
ATOM     99  C   UNL A   1      41.963  23.522  25.997  1.00  0.00     0.022 A 
BRANCH  97 100
ATOM    100  S   UNL A   1      45.079  25.215  25.995  1.00  0.00     0.127 S 
ATOM    101  O   UNL A   1      45.332  24.719  24.640  1.00  0.00    -0.237 OA
ATOM    102  O   UNL A   1      45.308  26.635  26.130  1.00  0.00    -0.237 OA
ATOM    103  O   UNL A   1      45.633  24.369  27.048  1.00  0.00    -0.744 OA
ENDBRANCH  97 100
ENDBRANCH  69  93
BRANCH  81 104
ATOM    104  C   UNL A   1      37.020  32.574  29.517  1.00  0.00     0.023 A 
ATOM    105  C   UNL A   1      36.380  32.891  28.306  1.00  0.00     0.012 A 
ATOM    106  C   UNL A   1      36.325  32.972  30.697  1.00  0.00     0.148 A 
ATOM    107  C   UNL A   1      35.044  33.312  28.269  1.00  0.00     0.002 A 
ATOM    108  C   UNL A   1      35.028  33.453  30.663  1.00  0.00     0.091 A 
ATOM    109  F   UNL A   1      36.929  32.957  31.886  1.00  0.00    -0.205 F 
ATOM    110  C   UNL A   1      34.356  33.561  29.450  1.00  0.00     0.022 A 
BRANCH 108 111
ATOM    111  S   UNL A   1      34.185  34.005  32.153  1.00  0.00     0.127 S 
ATOM    112  O   UNL A   1      33.104  34.813  31.588  1.00  0.00    -0.237 OA
ATOM    113  O   UNL A   1      33.761  32.735  32.741  1.00  0.00    -0.237 OA
ATOM    114  O   UNL A   1      35.160  34.744  32.943  1.00  0.00    -0.744 OA
ENDBRANCH 108 111
ENDBRANCH  81 104
ENDBRANCH  55  56
ENDBRANCH  48  50
ENDBRANCH  47  48
ENDBRANCH  46  47
ENDBRANCH  45  46
ENDBRANCH  44  45
ENDBRANCH  43  44
ENDBRANCH  42  43
ENDBRANCH   1  42
TORSDOF 26
ENDMDL
