MODEL 1
REMARK VINA RESULT:      -8.3      0.000      0.000
REMARK SMILES C#CCN(CC(=O)OCCOCCOCCOCCOC(=O)c1ccc(-c2c3nc(c(-c4cccc(S(=O)(=O)[O-])c4F)c4ccc([nH]4)c(-c4cccc(S(=O)(=O)[O-])c4F)c4nc(c(-c5cccc(S(=O)(=O)[O-])c5F)c5ccc2[nH]5)C=C4)C=C3)cc1)C(=O)CCOc1ccc(C)cc1
REMARK SMILES IDX 12 1 11 2 10 3 9 4 8 5 6 6 7 7 5 8 4 9 3 10 2 11 1 12 86 13
REMARK SMILES IDX 87 14 88 15 89 16 90 17 91 18 92 19 97 20 93 21 96 22 94 23
REMARK SMILES IDX 95 24 13 25 14 26 15 27 16 28 17 29 18 30 19 31 20 32 21 33
REMARK SMILES IDX 22 34 23 35 24 36 85 37 25 38 84 39 26 40 27 41 28 42 78 43
REMARK SMILES IDX 29 44 83 45 77 46 79 47 30 48 82 49 76 50 75 51 31 53 63 54
REMARK SMILES IDX 43 55 62 56 44 57 47 58 61 59 80 60 45 61 46 62 60 64 81 65
REMARK SMILES IDX 48 66 32 67 33 68 41 69 34 70 36 71 42 72 35 73 37 74 38 75
REMARK SMILES IDX 39 76 40 77 64 78 65 79 73 80 66 81 68 82 74 83 67 84 69 85
REMARK SMILES IDX 70 86 71 87 72 88 49 89 50 90 58 91 51 92 53 93 59 94 52 95
REMARK SMILES IDX 54 96 55 97 56 98 57 99
REMARK H PARENT 79 52 47 63
REMARK Flexibility Score: inf
ROOT
ATOM      1  C   UNL A   1      37.113  23.655  25.554  1.00  0.00     0.188 C 
ENDROOT
BRANCH   1   2
ATOM      2  O   UNL A   1      35.852  24.288  25.686  1.00  0.00    -0.376 OA
BRANCH   2   3
ATOM      3  C   UNL A   1      34.871  23.596  26.463  1.00  0.00     0.202 C 
BRANCH   3   4
ATOM      4  C   UNL A   1      33.409  24.120  26.446  1.00  0.00     0.261 C 
BRANCH   4   5
ATOM      5  O   UNL A   1      32.356  23.142  26.757  1.00  0.00    -0.462 OA
BRANCH   5   6
ATOM      6  C   UNL A   1      31.087  23.610  26.823  1.00  0.00     0.325 C 
ATOM      7  O   UNL A   1      30.229  23.091  27.541  1.00  0.00    -0.250 OA
BRANCH   6   8
ATOM      8  C   UNL A   1      30.721  24.920  26.048  1.00  0.00     0.243 C 
BRANCH   8   9
ATOM      9  N   UNL A   1      30.478  25.261  24.613  1.00  0.00    -0.320 N 
BRANCH   9  10
ATOM     10  C   UNL A   1      29.806  26.566  24.291  1.00  0.00     0.210 C 
BRANCH  10  11
ATOM     11  C   UNL A   1      30.757  27.752  24.311  1.00  0.00    -0.085 C 
ATOM     12  C   UNL A   1      31.572  28.768  24.328  1.00  0.00     0.006 C 
ENDBRANCH  10  11
ENDBRANCH   9  10
BRANCH   9  13
ATOM     13  C   UNL A   1      30.953  24.508  23.539  1.00  0.00     0.227 C 
ATOM     14  O   UNL A   1      30.233  23.703  22.937  1.00  0.00    -0.275 OA
BRANCH  13  15
ATOM     15  C   UNL A   1      32.380  24.724  23.006  1.00  0.00     0.141 C 
BRANCH  15  16
ATOM     16  C   UNL A   1      33.040  23.512  22.329  1.00  0.00     0.239 C 
BRANCH  16  17
ATOM     17  O   UNL A   1      33.851  22.689  23.200  1.00  0.00    -0.493 OA
BRANCH  17  18
ATOM     18  C   UNL A   1      33.373  21.466  23.581  1.00  0.00     0.119 A 
ATOM     19  C   UNL A   1      33.956  20.810  24.662  1.00  0.00     0.046 A 
ATOM     20  C   UNL A   1      32.370  20.802  22.914  1.00  0.00     0.046 A 
ATOM     21  C   UNL A   1      33.636  19.463  24.948  1.00  0.00     0.007 A 
ATOM     22  C   UNL A   1      32.103  19.452  23.138  1.00  0.00     0.007 A 
ATOM     23  C   UNL A   1      32.770  18.748  24.120  1.00  0.00    -0.051 A 
ATOM     24  C   UNL A   1      32.485  17.283  24.249  1.00  0.00     0.044 C 
ENDBRANCH  17  18
ENDBRANCH  16  17
ENDBRANCH  15  16
ENDBRANCH  13  15
ENDBRANCH   9  13
ENDBRANCH   8   9
ENDBRANCH   6   8
ENDBRANCH   5   6
ENDBRANCH   4   5
ENDBRANCH   3   4
ENDBRANCH   2   3
ENDBRANCH   1   2
BRANCH   1  25
ATOM     25  C   UNL A   1      37.115  22.203  25.069  1.00  0.00     0.188 C 
BRANCH  25  26
ATOM     26  O   UNL A   1      38.383  21.584  25.040  1.00  0.00    -0.377 OA
BRANCH  26  27
ATOM     27  C   UNL A   1      39.114  21.389  26.240  1.00  0.00     0.188 C 
BRANCH  27  28
ATOM     28  C   UNL A   1      40.192  20.307  26.213  1.00  0.00     0.188 C 
BRANCH  28  29
ATOM     29  O   UNL A   1      41.228  20.381  27.202  1.00  0.00    -0.376 OA
BRANCH  29  30
ATOM     30  C   UNL A   1      42.587  20.190  26.800  1.00  0.00     0.202 C 
BRANCH  30  31
ATOM     31  C   UNL A   1      42.964  20.900  25.503  1.00  0.00     0.261 C 
BRANCH  31  32
ATOM     32  O   UNL A   1      42.329  22.183  25.415  1.00  0.00    -0.460 OA
BRANCH  32  33
ATOM     33  C   UNL A   1      43.163  23.232  25.256  1.00  0.00     0.338 C 
ATOM     34  O   UNL A   1      43.958  23.415  24.344  1.00  0.00    -0.246 OA
BRANCH  33  35
ATOM     35  C   UNL A   1      42.841  24.256  26.262  1.00  0.00     0.060 A 
ATOM     36  C   UNL A   1      43.545  25.465  26.212  1.00  0.00     0.016 A 
ATOM     37  C   UNL A   1      41.895  24.021  27.264  1.00  0.00     0.016 A 
ATOM     38  C   UNL A   1      43.354  26.419  27.200  1.00  0.00     0.010 A 
ATOM     39  C   UNL A   1      41.717  24.972  28.269  1.00  0.00     0.010 A 
ATOM     40  C   UNL A   1      42.485  26.148  28.263  1.00  0.00    -0.014 A 
BRANCH  40  41
ATOM     41  C   UNL A   1      42.566  27.012  29.458  1.00  0.00     0.031 A 
ATOM     42  C   UNL A   1      43.512  26.620  30.557  1.00  0.00     0.074 A 
ATOM     43  C   UNL A   1      41.867  28.157  29.516  1.00  0.00     0.049 A 
ATOM     44  N   UNL A   1      43.810  27.257  31.656  1.00  0.00    -0.248 NA
ATOM     45  C   UNL A   1      44.224  25.339  30.394  1.00  0.00     0.031 C 
ATOM     46  C   UNL A   1      40.932  28.628  28.495  1.00  0.00     0.029 A 
ATOM     47  N   UNL A   1      41.832  29.125  30.484  1.00  0.00    -0.354 N 
ATOM     48  C   UNL A   1      44.715  26.446  32.330  1.00  0.00     0.074 A 
ATOM     49  C   UNL A   1      44.918  25.266  31.521  1.00  0.00     0.031 C 
ATOM     50  C   UNL A   1      40.393  29.790  28.904  1.00  0.00     0.029 A 
ATOM     51  C   UNL A   1      40.931  30.129  30.219  1.00  0.00     0.049 A 
ATOM     52  H   UNL A   1      42.395  29.105  31.290  1.00  0.00     0.167 HD
ATOM     53  C   UNL A   1      45.324  26.670  33.515  1.00  0.00     0.034 A 
ATOM     54  C   UNL A   1      40.570  31.187  30.971  1.00  0.00     0.034 A 
ATOM     55  C   UNL A   1      45.126  27.857  34.302  1.00  0.00     0.049 A 
ATOM     56  C   UNL A   1      41.265  31.407  32.289  1.00  0.00     0.074 A 
ATOM     57  C   UNL A   1      45.739  28.213  35.489  1.00  0.00     0.029 A 
ATOM     58  N   UNL A   1      44.230  28.867  33.993  1.00  0.00    -0.354 N 
ATOM     59  N   UNL A   1      42.214  30.698  32.853  1.00  0.00    -0.248 NA
ATOM     60  C   UNL A   1      40.868  32.595  33.057  1.00  0.00     0.031 C 
ATOM     61  C   UNL A   1      45.177  29.417  35.923  1.00  0.00     0.029 A 
ATOM     62  C   UNL A   1      44.252  29.837  34.979  1.00  0.00     0.049 A 
ATOM     63  H   UNL A   1      43.660  28.891  33.189  1.00  0.00     0.167 HD
ATOM     64  C   UNL A   1      42.548  31.368  34.024  1.00  0.00     0.074 A 
ATOM     65  C   UNL A   1      41.721  32.557  34.069  1.00  0.00     0.031 C 
ATOM     66  C   UNL A   1      43.443  31.029  34.985  1.00  0.00     0.034 A 
BRANCH  53  67
ATOM     67  C   UNL A   1      46.255  25.611  34.042  1.00  0.00     0.023 A 
ATOM     68  C   UNL A   1      47.635  25.676  33.770  1.00  0.00     0.012 A 
ATOM     69  C   UNL A   1      45.760  24.583  34.868  1.00  0.00     0.148 A 
ATOM     70  C   UNL A   1      48.507  24.721  34.293  1.00  0.00     0.002 A 
ATOM     71  C   UNL A   1      46.639  23.664  35.425  1.00  0.00     0.091 A 
ATOM     72  F   UNL A   1      44.439  24.523  35.091  1.00  0.00    -0.205 F 
ATOM     73  C   UNL A   1      48.012  23.724  35.130  1.00  0.00     0.022 A 
BRANCH  71  74
ATOM     74  S   UNL A   1      46.111  22.394  36.579  1.00  0.00     0.127 S 
ATOM     75  O   UNL A   1      47.383  21.764  36.929  1.00  0.00    -0.237 OA
ATOM     76  O   UNL A   1      45.507  23.187  37.650  1.00  0.00    -0.237 OA
ATOM     77  O   UNL A   1      45.179  21.545  35.849  1.00  0.00    -0.744 OA
ENDBRANCH  71  74
ENDBRANCH  53  67
BRANCH  54  78
ATOM     78  C   UNL A   1      39.508  32.115  30.495  1.00  0.00     0.023 A 
ATOM     79  C   UNL A   1      39.855  33.326  29.866  1.00  0.00     0.012 A 
ATOM     80  C   UNL A   1      38.146  31.796  30.666  1.00  0.00     0.148 A 
ATOM     81  C   UNL A   1      38.866  34.221  29.455  1.00  0.00     0.002 A 
ATOM     82  C   UNL A   1      37.167  32.662  30.196  1.00  0.00     0.091 A 
ATOM     83  F   UNL A   1      37.835  30.646  31.281  1.00  0.00    -0.205 F 
ATOM     84  C   UNL A   1      37.524  33.885  29.610  1.00  0.00     0.022 A 
BRANCH  82  85
ATOM     85  S   UNL A   1      35.421  32.243  30.233  1.00  0.00     0.127 S 
ATOM     86  O   UNL A   1      35.371  31.091  29.337  1.00  0.00    -0.237 OA
ATOM     87  O   UNL A   1      35.216  31.933  31.648  1.00  0.00    -0.237 OA
ATOM     88  O   UNL A   1      34.721  33.435  29.775  1.00  0.00    -0.744 OA
ENDBRANCH  82  85
ENDBRANCH  54  78
BRANCH  66  89
ATOM     89  C   UNL A   1      43.600  31.975  36.148  1.00  0.00     0.023 A 
ATOM     90  C   UNL A   1      44.569  32.997  36.100  1.00  0.00     0.012 A 
ATOM     91  C   UNL A   1      42.756  31.874  37.271  1.00  0.00     0.148 A 
ATOM     92  C   UNL A   1      44.730  33.871  37.175  1.00  0.00     0.002 A 
ATOM     93  C   UNL A   1      42.883  32.784  38.312  1.00  0.00     0.091 A 
ATOM     94  F   UNL A   1      41.850  30.885  37.305  1.00  0.00    -0.205 F 
ATOM     95  C   UNL A   1      43.882  33.771  38.275  1.00  0.00     0.022 A 
BRANCH  93  96
ATOM     96  S   UNL A   1      41.767  32.794  39.719  1.00  0.00     0.127 S 
ATOM     97  O   UNL A   1      42.064  34.092  40.324  1.00  0.00    -0.237 OA
ATOM     98  O   UNL A   1      40.456  32.707  39.075  1.00  0.00    -0.237 OA
ATOM     99  O   UNL A   1      42.123  31.633  40.522  1.00  0.00    -0.744 OA
ENDBRANCH  93  96
ENDBRANCH  66  89
ENDBRANCH  40  41
ENDBRANCH  33  35
ENDBRANCH  32  33
ENDBRANCH  31  32
ENDBRANCH  30  31
ENDBRANCH  29  30
ENDBRANCH  28  29
ENDBRANCH  27  28
ENDBRANCH  26  27
ENDBRANCH  25  26
ENDBRANCH   1  25
TORSDOF 31
ENDMDL
MODEL 2
REMARK VINA RESULT:      -7.6      4.761      5.558
REMARK SMILES C#CCN(CC(=O)OCCOCCOCCOCCOC(=O)c1ccc(-c2c3nc(c(-c4cccc(S(=O)(=O)[O-])c4F)c4ccc([nH]4)c(-c4cccc(S(=O)(=O)[O-])c4F)c4nc(c(-c5cccc(S(=O)(=O)[O-])c5F)c5ccc2[nH]5)C=C4)C=C3)cc1)C(=O)CCOc1ccc(C)cc1
REMARK SMILES IDX 12 1 11 2 10 3 9 4 8 5 6 6 7 7 5 8 4 9 3 10 2 11 1 12 86 13
REMARK SMILES IDX 87 14 88 15 89 16 90 17 91 18 92 19 97 20 93 21 96 22 94 23
REMARK SMILES IDX 95 24 13 25 14 26 15 27 16 28 17 29 18 30 19 31 20 32 21 33
REMARK SMILES IDX 22 34 23 35 24 36 85 37 25 38 84 39 26 40 27 41 28 42 78 43
REMARK SMILES IDX 29 44 83 45 77 46 79 47 30 48 82 49 76 50 75 51 31 53 63 54
REMARK SMILES IDX 43 55 62 56 44 57 47 58 61 59 80 60 45 61 46 62 60 64 81 65
REMARK SMILES IDX 48 66 32 67 33 68 41 69 34 70 36 71 42 72 35 73 37 74 38 75
REMARK SMILES IDX 39 76 40 77 64 78 65 79 73 80 66 81 68 82 74 83 67 84 69 85
REMARK SMILES IDX 70 86 71 87 72 88 49 89 50 90 58 91 51 92 53 93 59 94 52 95
REMARK SMILES IDX 54 96 55 97 56 98 57 99
REMARK H PARENT 79 52 47 63
REMARK Flexibility Score: inf
ROOT
ATOM      1  C   UNL A   1      36.612  22.724  24.983  1.00  0.00     0.188 C 
ENDROOT
BRANCH   1   2
ATOM      2  O   UNL A   1      35.263  23.104  24.779  1.00  0.00    -0.376 OA
BRANCH   2   3
ATOM      3  C   UNL A   1      35.026  24.097  23.777  1.00  0.00     0.202 C 
BRANCH   3   4
ATOM      4  C   UNL A   1      33.679  24.063  23.005  1.00  0.00     0.261 C 
BRANCH   4   5
ATOM      5  O   UNL A   1      33.386  25.219  22.144  1.00  0.00    -0.462 OA
BRANCH   5   6
ATOM      6  C   UNL A   1      32.082  25.550  21.988  1.00  0.00     0.325 C 
ATOM      7  O   UNL A   1      31.659  26.108  20.972  1.00  0.00    -0.250 OA
BRANCH   6   8
ATOM      8  C   UNL A   1      31.052  25.115  23.085  1.00  0.00     0.243 C 
BRANCH   8   9
ATOM      9  N   UNL A   1      30.864  25.426  24.534  1.00  0.00    -0.320 N 
BRANCH   9  10
ATOM     10  C   UNL A   1      30.280  26.759  24.910  1.00  0.00     0.210 C 
BRANCH  10  11
ATOM     11  C   UNL A   1      29.950  27.630  23.709  1.00  0.00    -0.085 C 
ATOM     12  C   UNL A   1      29.668  28.377  22.679  1.00  0.00     0.006 C 
ENDBRANCH  10  11
ENDBRANCH   9  10
BRANCH   9  13
ATOM     13  C   UNL A   1      31.071  24.509  25.565  1.00  0.00     0.227 C 
ATOM     14  O   UNL A   1      31.381  24.870  26.707  1.00  0.00    -0.275 OA
BRANCH  13  15
ATOM     15  C   UNL A   1      30.829  23.008  25.334  1.00  0.00     0.141 C 
BRANCH  15  16
ATOM     16  C   UNL A   1      32.085  22.127  25.233  1.00  0.00     0.239 C 
BRANCH  16  17
ATOM     17  O   UNL A   1      32.200  21.362  24.010  1.00  0.00    -0.493 OA
BRANCH  17  18
ATOM     18  C   UNL A   1      32.367  20.007  24.097  1.00  0.00     0.119 A 
ATOM     19  C   UNL A   1      32.722  19.438  25.317  1.00  0.00     0.046 A 
ATOM     20  C   UNL A   1      32.262  19.159  23.019  1.00  0.00     0.046 A 
ATOM     21  C   UNL A   1      33.110  18.081  25.396  1.00  0.00     0.007 A 
ATOM     22  C   UNL A   1      32.716  17.842  23.069  1.00  0.00     0.007 A 
ATOM     23  C   UNL A   1      33.198  17.300  24.243  1.00  0.00    -0.051 A 
ATOM     24  C   UNL A   1      33.740  15.904  24.201  1.00  0.00     0.044 C 
ENDBRANCH  17  18
ENDBRANCH  16  17
ENDBRANCH  15  16
ENDBRANCH  13  15
ENDBRANCH   9  13
ENDBRANCH   8   9
ENDBRANCH   6   8
ENDBRANCH   5   6
ENDBRANCH   4   5
ENDBRANCH   3   4
ENDBRANCH   2   3
ENDBRANCH   1   2
BRANCH   1  25
ATOM     25  C   UNL A   1      36.877  21.257  25.334  1.00  0.00     0.188 C 
BRANCH  25  26
ATOM     26  O   UNL A   1      38.214  20.836  25.175  1.00  0.00    -0.377 OA
BRANCH  26  27
ATOM     27  C   UNL A   1      39.204  21.221  26.115  1.00  0.00     0.188 C 
BRANCH  27  28
ATOM     28  C   UNL A   1      40.431  20.316  26.222  1.00  0.00     0.188 C 
BRANCH  28  29
ATOM     29  O   UNL A   1      41.711  20.948  26.351  1.00  0.00    -0.376 OA
BRANCH  29  30
ATOM     30  C   UNL A   1      42.882  20.133  26.447  1.00  0.00     0.202 C 
BRANCH  30  31
ATOM     31  C   UNL A   1      43.967  20.469  25.429  1.00  0.00     0.261 C 
BRANCH  31  32
ATOM     32  O   UNL A   1      44.559  21.746  25.711  1.00  0.00    -0.460 OA
BRANCH  32  33
ATOM     33  C   UNL A   1      44.129  22.765  24.938  1.00  0.00     0.338 C 
ATOM     34  O   UNL A   1      43.874  22.733  23.741  1.00  0.00    -0.246 OA
BRANCH  33  35
ATOM     35  C   UNL A   1      43.813  23.917  25.797  1.00  0.00     0.060 A 
ATOM     36  C   UNL A   1      43.147  25.003  25.216  1.00  0.00     0.016 A 
ATOM     37  C   UNL A   1      44.201  23.952  27.140  1.00  0.00     0.016 A 
ATOM     38  C   UNL A   1      42.922  26.154  25.956  1.00  0.00     0.010 A 
ATOM     39  C   UNL A   1      43.992  25.117  27.879  1.00  0.00     0.010 A 
ATOM     40  C   UNL A   1      43.399  26.234  27.269  1.00  0.00    -0.014 A 
BRANCH  40  41
ATOM     41  C   UNL A   1      43.456  27.568  27.902  1.00  0.00     0.031 A 
ATOM     42  C   UNL A   1      44.783  28.271  27.961  1.00  0.00     0.074 A 
ATOM     43  C   UNL A   1      42.333  28.162  28.338  1.00  0.00     0.049 A 
ATOM     44  N   UNL A   1      45.062  29.470  28.393  1.00  0.00    -0.248 NA
ATOM     45  C   UNL A   1      45.952  27.525  27.461  1.00  0.00     0.031 C 
ATOM     46  C   UNL A   1      40.999  27.565  28.313  1.00  0.00     0.029 A 
ATOM     47  N   UNL A   1      42.143  29.397  28.896  1.00  0.00    -0.354 N 
ATOM     48  C   UNL A   1      46.437  29.613  28.249  1.00  0.00     0.074 A 
ATOM     49  C   UNL A   1      46.940  28.377  27.692  1.00  0.00     0.031 C 
ATOM     50  C   UNL A   1      40.127  28.429  28.858  1.00  0.00     0.029 A 
ATOM     51  C   UNL A   1      40.846  29.627  29.285  1.00  0.00     0.049 A 
ATOM     52  H   UNL A   1      42.865  30.057  29.008  1.00  0.00     0.167 HD
ATOM     53  C   UNL A   1      47.208  30.681  28.549  1.00  0.00     0.034 A 
ATOM     54  C   UNL A   1      40.312  30.679  29.935  1.00  0.00     0.034 A 
ATOM     55  C   UNL A   1      46.692  31.910  29.086  1.00  0.00     0.049 A 
ATOM     56  C   UNL A   1      41.198  31.853  30.260  1.00  0.00     0.074 A 
ATOM     57  C   UNL A   1      47.377  33.078  29.372  1.00  0.00     0.029 A 
ATOM     58  N   UNL A   1      45.370  32.121  29.443  1.00  0.00    -0.354 N 
ATOM     59  N   UNL A   1      42.472  32.025  30.000  1.00  0.00    -0.248 NA
ATOM     60  C   UNL A   1      40.564  32.995  30.933  1.00  0.00     0.031 C 
ATOM     61  C   UNL A   1      46.475  33.979  29.946  1.00  0.00     0.029 A 
ATOM     62  C   UNL A   1      45.219  33.392  29.970  1.00  0.00     0.049 A 
ATOM     63  H   UNL A   1      44.644  31.465  29.337  1.00  0.00     0.167 HD
ATOM     64  C   UNL A   1      42.785  33.303  30.448  1.00  0.00     0.074 A 
ATOM     65  C   UNL A   1      41.557  33.871  30.966  1.00  0.00     0.031 C 
ATOM     66  C   UNL A   1      43.979  33.947  30.448  1.00  0.00     0.034 A 
BRANCH  53  67
ATOM     67  C   UNL A   1      48.691  30.570  28.316  1.00  0.00     0.023 A 
ATOM     68  C   UNL A   1      49.255  31.002  27.100  1.00  0.00     0.012 A 
ATOM     69  C   UNL A   1      49.534  30.095  29.339  1.00  0.00     0.148 A 
ATOM     70  C   UNL A   1      50.634  30.942  26.896  1.00  0.00     0.002 A 
ATOM     71  C   UNL A   1      50.909  30.083  29.149  1.00  0.00     0.091 A 
ATOM     72  F   UNL A   1      48.974  29.662  30.478  1.00  0.00    -0.205 F 
ATOM     73  C   UNL A   1      51.461  30.495  27.924  1.00  0.00     0.022 A 
BRANCH  71  74
ATOM     74  S   UNL A   1      52.062  29.603  30.439  1.00  0.00     0.127 S 
ATOM     75  O   UNL A   1      51.160  29.347  31.561  1.00  0.00    -0.237 OA
ATOM     76  O   UNL A   1      52.680  28.407  29.867  1.00  0.00    -0.237 OA
ATOM     77  O   UNL A   1      52.965  30.733  30.616  1.00  0.00    -0.744 OA
ENDBRANCH  71  74
ENDBRANCH  53  67
BRANCH  54  78
ATOM     78  C   UNL A   1      38.872  30.672  30.314  1.00  0.00     0.023 A 
ATOM     79  C   UNL A   1      38.419  29.847  31.360  1.00  0.00     0.012 A 
ATOM     80  C   UNL A   1      37.947  31.488  29.633  1.00  0.00     0.148 A 
ATOM     81  C   UNL A   1      37.064  29.803  31.694  1.00  0.00     0.002 A 
ATOM     82  C   UNL A   1      36.611  31.487  30.013  1.00  0.00     0.091 A 
ATOM     83  F   UNL A   1      38.394  32.255  28.629  1.00  0.00    -0.205 F 
ATOM     84  C   UNL A   1      36.163  30.630  31.028  1.00  0.00     0.022 A 
BRANCH  82  85
ATOM     85  S   UNL A   1      35.413  32.619  29.300  1.00  0.00     0.127 S 
ATOM     86  O   UNL A   1      35.996  33.917  29.627  1.00  0.00    -0.237 OA
ATOM     87  O   UNL A   1      35.464  32.259  27.882  1.00  0.00    -0.237 OA
ATOM     88  O   UNL A   1      34.146  32.310  29.949  1.00  0.00    -0.744 OA
ENDBRANCH  82  85
ENDBRANCH  54  78
BRANCH  66  89
ATOM     89  C   UNL A   1      44.007  35.352  30.994  1.00  0.00     0.023 A 
ATOM     90  C   UNL A   1      44.227  35.570  32.369  1.00  0.00     0.012 A 
ATOM     91  C   UNL A   1      43.857  36.457  30.134  1.00  0.00     0.148 A 
ATOM     92  C   UNL A   1      44.243  36.865  32.886  1.00  0.00     0.002 A 
ATOM     93  C   UNL A   1      43.932  37.745  30.647  1.00  0.00     0.091 A 
ATOM     94  F   UNL A   1      43.633  36.229  28.831  1.00  0.00    -0.205 F 
ATOM     95  C   UNL A   1      44.107  37.951  32.026  1.00  0.00     0.022 A 
BRANCH  93  96
ATOM     96  S   UNL A   1      43.871  39.201  29.598  1.00  0.00     0.127 S 
ATOM     97  O   UNL A   1      45.072  39.030  28.783  1.00  0.00    -0.237 OA
ATOM     98  O   UNL A   1      42.612  39.012  28.878  1.00  0.00    -0.237 OA
ATOM     99  O   UNL A   1      43.883  40.345  30.499  1.00  0.00    -0.744 OA
ENDBRANCH  93  96
ENDBRANCH  66  89
ENDBRANCH  40  41
ENDBRANCH  33  35
ENDBRANCH  32  33
ENDBRANCH  31  32
ENDBRANCH  30  31
ENDBRANCH  29  30
ENDBRANCH  28  29
ENDBRANCH  27  28
ENDBRANCH  26  27
ENDBRANCH  25  26
ENDBRANCH   1  25
TORSDOF 31
ENDMDL
MODEL 3
REMARK VINA RESULT:      -7.4      4.147      8.285
REMARK SMILES C#CCN(CC(=O)OCCOCCOCCOCCOC(=O)c1ccc(-c2c3nc(c(-c4cccc(S(=O)(=O)[O-])c4F)c4ccc([nH]4)c(-c4cccc(S(=O)(=O)[O-])c4F)c4nc(c(-c5cccc(S(=O)(=O)[O-])c5F)c5ccc2[nH]5)C=C4)C=C3)cc1)C(=O)CCOc1ccc(C)cc1
REMARK SMILES IDX 12 1 11 2 10 3 9 4 8 5 6 6 7 7 5 8 4 9 3 10 2 11 1 12 86 13
REMARK SMILES IDX 87 14 88 15 89 16 90 17 91 18 92 19 97 20 93 21 96 22 94 23
REMARK SMILES IDX 95 24 13 25 14 26 15 27 16 28 17 29 18 30 19 31 20 32 21 33
REMARK SMILES IDX 22 34 23 35 24 36 85 37 25 38 84 39 26 40 27 41 28 42 78 43
REMARK SMILES IDX 29 44 83 45 77 46 79 47 30 48 82 49 76 50 75 51 31 53 63 54
REMARK SMILES IDX 43 55 62 56 44 57 47 58 61 59 80 60 45 61 46 62 60 64 81 65
REMARK SMILES IDX 48 66 32 67 33 68 41 69 34 70 36 71 42 72 35 73 37 74 38 75
REMARK SMILES IDX 39 76 40 77 64 78 65 79 73 80 66 81 68 82 74 83 67 84 69 85
REMARK SMILES IDX 70 86 71 87 72 88 49 89 50 90 58 91 51 92 53 93 59 94 52 95
REMARK SMILES IDX 54 96 55 97 56 98 57 99
REMARK H PARENT 79 52 47 63
REMARK Flexibility Score: inf
ROOT
ATOM      1  C   UNL A   1      38.727  21.854  25.406  1.00  0.00     0.188 C 
ENDROOT
BRANCH   1   2
ATOM      2  O   UNL A   1      37.399  22.347  25.407  1.00  0.00    -0.376 OA
BRANCH   2   3
ATOM      3  C   UNL A   1      36.991  23.082  24.249  1.00  0.00     0.202 C 
BRANCH   3   4
ATOM      4  C   UNL A   1      35.692  22.649  23.517  1.00  0.00     0.261 C 
BRANCH   4   5
ATOM      5  O   UNL A   1      35.110  23.621  22.579  1.00  0.00    -0.462 OA
BRANCH   5   6
ATOM      6  C   UNL A   1      33.807  23.450  22.251  1.00  0.00     0.325 C 
ATOM      7  O   UNL A   1      33.312  23.945  21.235  1.00  0.00    -0.250 OA
BRANCH   6   8
ATOM      8  C   UNL A   1      32.922  22.504  23.130  1.00  0.00     0.243 C 
BRANCH   8   9
ATOM      9  N   UNL A   1      31.968  22.707  24.262  1.00  0.00    -0.320 N 
BRANCH   9  10
ATOM     10  C   UNL A   1      32.163  21.902  25.516  1.00  0.00     0.210 C 
BRANCH  10  11
ATOM     11  C   UNL A   1      32.888  20.587  25.279  1.00  0.00    -0.085 C 
ATOM     12  C   UNL A   1      33.509  19.460  25.076  1.00  0.00     0.006 C 
ENDBRANCH  10  11
ENDBRANCH   9  10
BRANCH   9  13
ATOM     13  C   UNL A   1      30.981  23.694  24.287  1.00  0.00     0.227 C 
ATOM     14  O   UNL A   1      30.160  23.818  23.371  1.00  0.00    -0.275 OA
BRANCH  13  15
ATOM     15  C   UNL A   1      30.827  24.612  25.511  1.00  0.00     0.141 C 
BRANCH  15  16
ATOM     16  C   UNL A   1      31.776  25.820  25.576  1.00  0.00     0.239 C 
BRANCH  16  17
ATOM     17  O   UNL A   1      31.165  27.057  26.013  1.00  0.00    -0.493 OA
BRANCH  17  18
ATOM     18  C   UNL A   1      31.970  28.136  26.258  1.00  0.00     0.119 A 
ATOM     19  C   UNL A   1      33.157  27.957  26.962  1.00  0.00     0.046 A 
ATOM     20  C   UNL A   1      31.645  29.422  25.897  1.00  0.00     0.046 A 
ATOM     21  C   UNL A   1      33.901  29.069  27.417  1.00  0.00     0.007 A 
ATOM     22  C   UNL A   1      32.327  30.526  26.405  1.00  0.00     0.007 A 
ATOM     23  C   UNL A   1      33.431  30.368  27.217  1.00  0.00    -0.051 A 
ATOM     24  C   UNL A   1      34.065  31.600  27.788  1.00  0.00     0.044 C 
ENDBRANCH  17  18
ENDBRANCH  16  17
ENDBRANCH  15  16
ENDBRANCH  13  15
ENDBRANCH   9  13
ENDBRANCH   8   9
ENDBRANCH   6   8
ENDBRANCH   5   6
ENDBRANCH   4   5
ENDBRANCH   3   4
ENDBRANCH   2   3
ENDBRANCH   1   2
BRANCH   1  25
ATOM     25  C   UNL A   1      38.973  20.520  26.115  1.00  0.00     0.188 C 
BRANCH  25  26
ATOM     26  O   UNL A   1      40.106  19.805  25.668  1.00  0.00    -0.377 OA
BRANCH  26  27
ATOM     27  C   UNL A   1      41.350  19.944  26.335  1.00  0.00     0.188 C 
BRANCH  27  28
ATOM     28  C   UNL A   1      42.553  19.265  25.680  1.00  0.00     0.188 C 
BRANCH  28  29
ATOM     29  O   UNL A   1      43.851  19.802  25.964  1.00  0.00    -0.376 OA
BRANCH  29  30
ATOM     30  C   UNL A   1      44.994  19.233  25.318  1.00  0.00     0.202 C 
BRANCH  30  31
ATOM     31  C   UNL A   1      45.445  19.980  24.066  1.00  0.00     0.261 C 
BRANCH  31  32
ATOM     32  O   UNL A   1      45.788  21.339  24.373  1.00  0.00    -0.460 OA
BRANCH  32  33
ATOM     33  C   UNL A   1      44.979  22.275  23.833  1.00  0.00     0.338 C 
ATOM     34  O   UNL A   1      44.238  22.147  22.868  1.00  0.00    -0.246 OA
BRANCH  33  35
ATOM     35  C   UNL A   1      44.963  23.457  24.710  1.00  0.00     0.060 A 
ATOM     36  C   UNL A   1      46.178  23.870  25.272  1.00  0.00     0.016 A 
ATOM     37  C   UNL A   1      43.773  24.125  25.011  1.00  0.00     0.016 A 
ATOM     38  C   UNL A   1      46.198  24.911  26.188  1.00  0.00     0.010 A 
ATOM     39  C   UNL A   1      43.790  25.160  25.947  1.00  0.00     0.010 A 
ATOM     40  C   UNL A   1      44.996  25.516  26.572  1.00  0.00    -0.014 A 
BRANCH  40  41
ATOM     41  C   UNL A   1      45.006  26.363  27.782  1.00  0.00     0.031 A 
ATOM     42  C   UNL A   1      45.066  27.854  27.607  1.00  0.00     0.074 A 
ATOM     43  C   UNL A   1      44.885  25.809  28.999  1.00  0.00     0.049 A 
ATOM     44  N   UNL A   1      45.007  28.794  28.510  1.00  0.00    -0.248 NA
ATOM     45  C   UNL A   1      45.206  28.355  26.227  1.00  0.00     0.031 C 
ATOM     46  C   UNL A   1      44.809  24.374  29.270  1.00  0.00     0.029 A 
ATOM     47  N   UNL A   1      44.814  26.393  30.236  1.00  0.00    -0.354 N 
ATOM     48  C   UNL A   1      45.134  29.992  27.818  1.00  0.00     0.074 A 
ATOM     49  C   UNL A   1      45.277  29.664  26.418  1.00  0.00     0.031 C 
ATOM     50  C   UNL A   1      44.726  24.187  30.598  1.00  0.00     0.029 A 
ATOM     51  C   UNL A   1      44.764  25.485  31.266  1.00  0.00     0.049 A 
ATOM     52  H   UNL A   1      44.800  27.367  30.374  1.00  0.00     0.167 HD
ATOM     53  C   UNL A   1      45.126  31.252  28.308  1.00  0.00     0.034 A 
ATOM     54  C   UNL A   1      44.772  25.689  32.598  1.00  0.00     0.034 A 
ATOM     55  C   UNL A   1      44.965  31.563  29.702  1.00  0.00     0.049 A 
ATOM     56  C   UNL A   1      44.767  27.104  33.113  1.00  0.00     0.074 A 
ATOM     57  C   UNL A   1      44.882  32.808  30.300  1.00  0.00     0.029 A 
ATOM     58  N   UNL A   1      44.888  30.623  30.716  1.00  0.00    -0.354 N 
ATOM     59  N   UNL A   1      44.757  28.229  32.439  1.00  0.00    -0.248 NA
ATOM     60  C   UNL A   1      44.735  27.278  34.571  1.00  0.00     0.031 C 
ATOM     61  C   UNL A   1      44.804  32.619  31.683  1.00  0.00     0.029 A 
ATOM     62  C   UNL A   1      44.785  31.257  31.942  1.00  0.00     0.049 A 
ATOM     63  H   UNL A   1      44.905  29.647  30.585  1.00  0.00     0.167 HD
ATOM     64  C   UNL A   1      44.687  29.242  33.388  1.00  0.00     0.074 A 
ATOM     65  C   UNL A   1      44.624  28.593  34.682  1.00  0.00     0.031 C 
ATOM     66  C   UNL A   1      44.689  30.588  33.214  1.00  0.00     0.034 A 
BRANCH  53  67
ATOM     67  C   UNL A   1      45.306  32.388  27.338  1.00  0.00     0.023 A 
ATOM     68  C   UNL A   1      44.205  32.888  26.615  1.00  0.00     0.012 A 
ATOM     69  C   UNL A   1      46.564  33.003  27.195  1.00  0.00     0.148 A 
ATOM     70  C   UNL A   1      44.358  33.970  25.748  1.00  0.00     0.002 A 
ATOM     71  C   UNL A   1      46.701  34.110  26.367  1.00  0.00     0.091 A 
ATOM     72  F   UNL A   1      47.605  32.493  27.870  1.00  0.00    -0.205 F 
ATOM     73  C   UNL A   1      45.601  34.588  25.634  1.00  0.00     0.022 A 
BRANCH  71  74
ATOM     74  S   UNL A   1      48.239  35.024  26.216  1.00  0.00     0.127 S 
ATOM     75  O   UNL A   1      48.804  34.451  24.996  1.00  0.00    -0.237 OA
ATOM     76  O   UNL A   1      47.763  36.401  26.081  1.00  0.00    -0.237 OA
ATOM     77  O   UNL A   1      48.991  34.754  27.434  1.00  0.00    -0.744 OA
ENDBRANCH  71  74
ENDBRANCH  53  67
BRANCH  54  78
ATOM     78  C   UNL A   1      44.780  24.528  33.531  1.00  0.00     0.023 A 
ATOM     79  C   UNL A   1      43.567  23.951  33.954  1.00  0.00     0.012 A 
ATOM     80  C   UNL A   1      45.995  23.994  34.002  1.00  0.00     0.148 A 
ATOM     81  C   UNL A   1      43.564  22.890  34.861  1.00  0.00     0.002 A 
ATOM     82  C   UNL A   1      45.986  22.898  34.855  1.00  0.00     0.091 A 
ATOM     83  F   UNL A   1      47.139  24.567  33.602  1.00  0.00    -0.205 F 
ATOM     84  C   UNL A   1      44.772  22.358  35.303  1.00  0.00     0.022 A 
BRANCH  82  85
ATOM     85  S   UNL A   1      47.496  22.067  35.361  1.00  0.00     0.127 S 
ATOM     86  O   UNL A   1      47.435  22.193  36.814  1.00  0.00    -0.237 OA
ATOM     87  O   UNL A   1      47.280  20.712  34.849  1.00  0.00    -0.237 OA
ATOM     88  O   UNL A   1      48.579  22.787  34.705  1.00  0.00    -0.744 OA
ENDBRANCH  82  85
ENDBRANCH  54  78
BRANCH  66  89
ATOM     89  C   UNL A   1      44.586  31.445  34.449  1.00  0.00     0.023 A 
ATOM     90  C   UNL A   1      43.323  31.850  34.923  1.00  0.00     0.012 A 
ATOM     91  C   UNL A   1      45.743  31.812  35.164  1.00  0.00     0.148 A 
ATOM     92  C   UNL A   1      43.217  32.653  36.059  1.00  0.00     0.002 A 
ATOM     93  C   UNL A   1      45.626  32.563  36.326  1.00  0.00     0.091 A 
ATOM     94  F   UNL A   1      46.939  31.430  34.689  1.00  0.00    -0.205 F 
ATOM     95  C   UNL A   1      44.365  32.999  36.765  1.00  0.00     0.022 A 
BRANCH  93  96
ATOM     96  S   UNL A   1      47.041  32.967  37.355  1.00  0.00     0.127 S 
ATOM     97  O   UNL A   1      47.912  33.657  36.404  1.00  0.00    -0.237 OA
ATOM     98  O   UNL A   1      46.447  33.829  38.376  1.00  0.00    -0.237 OA
ATOM     99  O   UNL A   1      47.547  31.697  37.858  1.00  0.00    -0.744 OA
ENDBRANCH  93  96
ENDBRANCH  66  89
ENDBRANCH  40  41
ENDBRANCH  33  35
ENDBRANCH  32  33
ENDBRANCH  31  32
ENDBRANCH  30  31
ENDBRANCH  29  30
ENDBRANCH  28  29
ENDBRANCH  27  28
ENDBRANCH  26  27
ENDBRANCH  25  26
ENDBRANCH   1  25
TORSDOF 31
ENDMDL
