MODEL 1
REMARK VINA RESULT:     -11.0      0.000      0.000
REMARK SMILES C[NH+]1CCC([NH+]2CCC(Oc3ccc4ccccc4c3)(C(=O)OCCOCCOCCOCCOC(=O)c3ccc(-c4c5nc(c(-c6cccc(S(=O)(=O)[O-])c6F)c6ccc([nH]6)c(-c6cccc(S(=O)(=O)[O-])c6F)c6nc(c(-c7cccc(S(=O)(=O)[O-])c7F)c7ccc4[nH]7)C=C6)C=C5)cc3)CC2)CC1
REMARK SMILES IDX 30 1 29 2 28 3 27 4 26 5 25 6 24 7 23 8 21 9 22 10 9 11 6 12
REMARK SMILES IDX 7 13 102 14 8 16 101 17 5 18 1 19 2 20 3 21 104 22 4 24
REMARK SMILES IDX 103 25 10 26 11 27 12 28 20 29 13 30 19 31 14 32 18 33 15 34
REMARK SMILES IDX 17 35 16 36 31 37 32 38 33 39 34 40 35 41 36 42 37 43 38 44
REMARK SMILES IDX 39 45 100 46 40 47 99 48 41 49 42 50 43 51 93 52 44 53 98 54
REMARK SMILES IDX 92 55 94 56 45 57 97 58 91 59 90 60 46 62 78 63 58 64 77 65
REMARK SMILES IDX 59 66 62 67 76 68 95 69 60 70 61 71 75 73 96 74 63 75 47 76
REMARK SMILES IDX 48 77 56 78 49 79 51 80 57 81 50 82 52 83 53 84 54 85 55 86
REMARK SMILES IDX 79 87 80 88 88 89 81 90 83 91 89 92 82 93 84 94 85 95 86 96
REMARK SMILES IDX 87 97 64 98 65 99 73 100 66 101 68 102 74 103 67 104 69 105
REMARK SMILES IDX 70 106 71 107 72 108
REMARK H PARENT 6 15 2 23 94 61 62 72
REMARK Flexibility Score: inf
ROOT
ATOM      1  C   UNL A   1      40.714  22.222  27.241  1.00  0.00     0.188 C 
ENDROOT
BRANCH   1   2
ATOM      2  O   UNL A   1      39.403  22.404  26.737  1.00  0.00    -0.377 OA
BRANCH   2   3
ATOM      3  C   UNL A   1      38.959  21.442  25.809  1.00  0.00     0.188 C 
BRANCH   3   4
ATOM      4  C   UNL A   1      37.480  21.484  25.407  1.00  0.00     0.188 C 
BRANCH   4   5
ATOM      5  O   UNL A   1      37.104  21.809  24.078  1.00  0.00    -0.376 OA
BRANCH   5   6
ATOM      6  C   UNL A   1      36.004  22.679  23.856  1.00  0.00     0.202 C 
BRANCH   6   7
ATOM      7  C   UNL A   1      35.841  23.953  24.713  1.00  0.00     0.261 C 
BRANCH   7   8
ATOM      8  O   UNL A   1      34.514  24.312  25.170  1.00  0.00    -0.460 OA
BRANCH   8   9
ATOM      9  C   UNL A   1      33.590  24.609  24.212  1.00  0.00     0.351 C 
ATOM     10  O   UNL A   1      33.900  25.099  23.126  1.00  0.00    -0.247 OA
BRANCH   9  11
ATOM     11  C   UNL A   1      32.106  24.356  24.630  1.00  0.00     0.216 C 
ATOM     12  N   UNL A   1      30.053  26.484  23.920  1.00  0.00    -0.332 N 
ATOM     13  C   UNL A   1      30.188  25.312  23.051  1.00  0.00     0.267 C 
ATOM     14  C   UNL A   1      31.250  26.751  24.718  1.00  0.00     0.267 C 
ATOM     15  H   UNL A   1      29.335  26.230  24.598  1.00  0.00     0.348 HD
ATOM     16  C   UNL A   1      31.029  24.118  23.551  1.00  0.00     0.122 C 
ATOM     17  C   UNL A   1      31.668  25.523  25.541  1.00  0.00     0.122 C 
BRANCH  12  18
ATOM     18  C   UNL A   1      29.485  27.696  23.235  1.00  0.00     0.195 C 
ATOM     19  C   UNL A   1      27.654  31.657  23.130  1.00  0.00     0.332 C 
ATOM     20  N   UNL A   1      28.245  30.360  23.453  1.00  0.00    -0.337 N 
ATOM     21  C   UNL A   1      29.626  30.257  22.970  1.00  0.00     0.268 C 
ATOM     22  C   UNL A   1      27.456  29.254  22.907  1.00  0.00     0.268 C 
ATOM     23  H   UNL A   1      28.247  30.292  24.471  1.00  0.00     0.347 HD
ATOM     24  C   UNL A   1      30.277  28.995  23.540  1.00  0.00     0.126 C 
ATOM     25  C   UNL A   1      27.972  27.920  23.455  1.00  0.00     0.126 C 
ENDBRANCH  12  18
BRANCH  11  26
ATOM     26  O   UNL A   1      32.413  23.091  25.305  1.00  0.00    -0.475 OA
BRANCH  26  27
ATOM     27  C   UNL A   1      32.390  21.953  24.565  1.00  0.00     0.121 A 
ATOM     28  C   UNL A   1      31.980  21.963  23.236  1.00  0.00     0.047 A 
ATOM     29  C   UNL A   1      32.940  20.804  25.122  1.00  0.00     0.055 A 
ATOM     30  C   UNL A   1      31.966  20.782  22.503  1.00  0.00     0.012 A 
ATOM     31  C   UNL A   1      33.000  19.622  24.372  1.00  0.00    -0.015 A 
ATOM     32  C   UNL A   1      32.468  19.603  23.061  1.00  0.00    -0.018 A 
ATOM     33  C   UNL A   1      33.596  18.463  24.887  1.00  0.00     0.009 A 
ATOM     34  C   UNL A   1      32.492  18.414  22.322  1.00  0.00     0.009 A 
ATOM     35  C   UNL A   1      33.645  17.296  24.126  1.00  0.00     0.001 A 
ATOM     36  C   UNL A   1      33.081  17.267  22.852  1.00  0.00     0.001 A 
ENDBRANCH  26  27
ENDBRANCH  11  26
ENDBRANCH   9  11
ENDBRANCH   8   9
ENDBRANCH   7   8
ENDBRANCH   6   7
ENDBRANCH   5   6
ENDBRANCH   4   5
ENDBRANCH   3   4
ENDBRANCH   2   3
ENDBRANCH   1   2
BRANCH   1  37
ATOM     37  C   UNL A   1      41.710  21.536  26.290  1.00  0.00     0.188 C 
BRANCH  37  38
ATOM     38  O   UNL A   1      42.219  20.288  26.760  1.00  0.00    -0.376 OA
BRANCH  38  39
ATOM     39  C   UNL A   1      42.212  19.166  25.886  1.00  0.00     0.202 C 
BRANCH  39  40
ATOM     40  C   UNL A   1      43.563  18.693  25.320  1.00  0.00     0.261 C 
BRANCH  40  41
ATOM     41  O   UNL A   1      44.013  19.395  24.157  1.00  0.00    -0.460 OA
BRANCH  41  42
ATOM     42  C   UNL A   1      45.257  19.924  24.208  1.00  0.00     0.338 C 
ATOM     43  O   UNL A   1      46.259  19.505  23.680  1.00  0.00    -0.246 OA
BRANCH  42  44
ATOM     44  C   UNL A   1      45.115  21.254  24.827  1.00  0.00     0.060 A 
ATOM     45  C   UNL A   1      44.673  22.307  24.018  1.00  0.00     0.016 A 
ATOM     46  C   UNL A   1      45.379  21.449  26.184  1.00  0.00     0.016 A 
ATOM     47  C   UNL A   1      44.514  23.574  24.560  1.00  0.00     0.010 A 
ATOM     48  C   UNL A   1      45.258  22.730  26.720  1.00  0.00     0.010 A 
ATOM     49  C   UNL A   1      44.860  23.798  25.898  1.00  0.00    -0.014 A 
BRANCH  49  50
ATOM     50  C   UNL A   1      45.047  25.193  26.340  1.00  0.00     0.031 A 
ATOM     51  C   UNL A   1      46.439  25.754  26.294  1.00  0.00     0.074 A 
ATOM     52  C   UNL A   1      44.001  25.947  26.712  1.00  0.00     0.049 A 
ATOM     53  N   UNL A   1      46.860  26.949  26.606  1.00  0.00    -0.248 NA
ATOM     54  C   UNL A   1      47.501  24.845  25.824  1.00  0.00     0.031 C 
ATOM     55  C   UNL A   1      42.610  25.502  26.758  1.00  0.00     0.029 A 
ATOM     56  N   UNL A   1      43.957  27.249  27.138  1.00  0.00    -0.354 N 
ATOM     57  C   UNL A   1      48.234  26.927  26.397  1.00  0.00     0.074 A 
ATOM     58  C   UNL A   1      48.580  25.601  25.941  1.00  0.00     0.031 C 
ATOM     59  C   UNL A   1      41.847  26.509  27.216  1.00  0.00     0.029 A 
ATOM     60  C   UNL A   1      42.702  27.656  27.520  1.00  0.00     0.049 A 
ATOM     61  H   UNL A   1      44.747  27.834  27.166  1.00  0.00     0.167 HD
ATOM     62  C   UNL A   1      49.125  27.930  26.566  1.00  0.00     0.034 A 
ATOM     63  C   UNL A   1      42.304  28.816  28.076  1.00  0.00     0.034 A 
ATOM     64  C   UNL A   1      48.766  29.242  27.022  1.00  0.00     0.049 A 
ATOM     65  C   UNL A   1      43.326  29.902  28.298  1.00  0.00     0.074 A 
ATOM     66  C   UNL A   1      49.583  30.343  27.203  1.00  0.00     0.029 A 
ATOM     67  N   UNL A   1      47.485  29.625  27.388  1.00  0.00    -0.354 N 
ATOM     68  N   UNL A   1      44.606  29.903  28.009  1.00  0.00    -0.248 NA
ATOM     69  C   UNL A   1      42.845  31.156  28.892  1.00  0.00     0.031 C 
ATOM     70  C   UNL A   1      48.802  31.380  27.723  1.00  0.00     0.029 A 
ATOM     71  C   UNL A   1      47.489  30.941  27.814  1.00  0.00     0.049 A 
ATOM     72  H   UNL A   1      46.689  29.046  27.351  1.00  0.00     0.167 HD
ATOM     73  C   UNL A   1      45.074  31.168  28.349  1.00  0.00     0.074 A 
ATOM     74  C   UNL A   1      43.934  31.910  28.849  1.00  0.00     0.031 C 
ATOM     75  C   UNL A   1      46.331  31.671  28.265  1.00  0.00     0.034 A 
BRANCH  62  76
ATOM     76  C   UNL A   1      50.570  27.634  26.265  1.00  0.00     0.023 A 
ATOM     77  C   UNL A   1      51.440  27.226  27.296  1.00  0.00     0.012 A 
ATOM     78  C   UNL A   1      51.058  27.731  24.947  1.00  0.00     0.148 A 
ATOM     79  C   UNL A   1      52.780  26.953  27.027  1.00  0.00     0.002 A 
ATOM     80  C   UNL A   1      52.381  27.409  24.678  1.00  0.00     0.091 A 
ATOM     81  F   UNL A   1      50.221  28.148  23.986  1.00  0.00    -0.205 F 
ATOM     82  C   UNL A   1      53.248  27.033  25.718  1.00  0.00     0.022 A 
BRANCH  80  83
ATOM     83  S   UNL A   1      53.058  27.406  23.015  1.00  0.00     0.127 S 
ATOM     84  O   UNL A   1      54.290  26.638  23.200  1.00  0.00    -0.237 OA
ATOM     85  O   UNL A   1      52.014  26.711  22.263  1.00  0.00    -0.237 OA
ATOM     86  O   UNL A   1      53.245  28.803  22.652  1.00  0.00    -0.744 OA
ENDBRANCH  80  83
ENDBRANCH  62  76
BRANCH  63  87
ATOM     87  C   UNL A   1      40.875  29.016  28.451  1.00  0.00     0.023 A 
ATOM     88  C   UNL A   1      39.931  29.359  27.465  1.00  0.00     0.012 A 
ATOM     89  C   UNL A   1      40.450  28.860  29.785  1.00  0.00     0.148 A 
ATOM     90  C   UNL A   1      38.595  29.576  27.805  1.00  0.00     0.002 A 
ATOM     91  C   UNL A   1      39.108  29.022  30.109  1.00  0.00     0.091 A 
ATOM     92  F   UNL A   1      41.368  28.549  30.712  1.00  0.00    -0.205 F 
ATOM     93  C   UNL A   1      38.182  29.399  29.124  1.00  0.00     0.022 A 
BRANCH  91  94
ATOM     94  S   UNL A   1      38.466  28.698  31.754  1.00  0.00     0.127 S 
ATOM     95  O   UNL A   1      38.827  27.294  31.942  1.00  0.00    -0.237 OA
ATOM     96  O   UNL A   1      39.230  29.646  32.564  1.00  0.00    -0.237 OA
ATOM     97  O   UNL A   1      37.038  28.978  31.683  1.00  0.00    -0.744 OA
ENDBRANCH  91  94
ENDBRANCH  63  87
BRANCH  75  98
ATOM     98  C   UNL A   1      46.537  33.105  28.674  1.00  0.00     0.023 A 
ATOM     99  C   UNL A   1      46.909  33.420  29.995  1.00  0.00     0.012 A 
ATOM    100  C   UNL A   1      46.437  34.136  27.718  1.00  0.00     0.148 A 
ATOM    101  C   UNL A   1      47.140  34.743  30.369  1.00  0.00     0.002 A 
ATOM    102  C   UNL A   1      46.725  35.446  28.083  1.00  0.00     0.091 A 
ATOM    103  F   UNL A   1      46.069  33.818  26.468  1.00  0.00    -0.205 F 
ATOM    104  C   UNL A   1      47.061  35.753  29.411  1.00  0.00     0.022 A 
BRANCH 102 105
ATOM    105  S   UNL A   1      46.750  36.793  26.896  1.00  0.00     0.127 S 
ATOM    106  O   UNL A   1      47.659  36.272  25.876  1.00  0.00    -0.237 OA
ATOM    107  O   UNL A   1      45.348  36.867  26.484  1.00  0.00    -0.237 OA
ATOM    108  O   UNL A   1      47.231  37.961  27.620  1.00  0.00    -0.744 OA
ENDBRANCH 102 105
ENDBRANCH  75  98
ENDBRANCH  49  50
ENDBRANCH  42  44
ENDBRANCH  41  42
ENDBRANCH  40  41
ENDBRANCH  39  40
ENDBRANCH  38  39
ENDBRANCH  37  38
ENDBRANCH   1  37
TORSDOF 26
ENDMDL
MODEL 2
REMARK VINA RESULT:     -10.6      1.835      4.642
REMARK SMILES C[NH+]1CCC([NH+]2CCC(Oc3ccc4ccccc4c3)(C(=O)OCCOCCOCCOCCOC(=O)c3ccc(-c4c5nc(c(-c6cccc(S(=O)(=O)[O-])c6F)c6ccc([nH]6)c(-c6cccc(S(=O)(=O)[O-])c6F)c6nc(c(-c7cccc(S(=O)(=O)[O-])c7F)c7ccc4[nH]7)C=C6)C=C5)cc3)CC2)CC1
REMARK SMILES IDX 30 1 29 2 28 3 27 4 26 5 25 6 24 7 23 8 21 9 22 10 9 11 6 12
REMARK SMILES IDX 7 13 102 14 8 16 101 17 5 18 1 19 2 20 3 21 104 22 4 24
REMARK SMILES IDX 103 25 10 26 11 27 12 28 20 29 13 30 19 31 14 32 18 33 15 34
REMARK SMILES IDX 17 35 16 36 31 37 32 38 33 39 34 40 35 41 36 42 37 43 38 44
REMARK SMILES IDX 39 45 100 46 40 47 99 48 41 49 42 50 43 51 93 52 44 53 98 54
REMARK SMILES IDX 92 55 94 56 45 57 97 58 91 59 90 60 46 62 78 63 58 64 77 65
REMARK SMILES IDX 59 66 62 67 76 68 95 69 60 70 61 71 75 73 96 74 63 75 47 76
REMARK SMILES IDX 48 77 56 78 49 79 51 80 57 81 50 82 52 83 53 84 54 85 55 86
REMARK SMILES IDX 79 87 80 88 88 89 81 90 83 91 89 92 82 93 84 94 85 95 86 96
REMARK SMILES IDX 87 97 64 98 65 99 73 100 66 101 68 102 74 103 67 104 69 105
REMARK SMILES IDX 70 106 71 107 72 108
REMARK H PARENT 6 15 2 23 94 61 62 72
REMARK Flexibility Score: inf
ROOT
ATOM      1  C   UNL A   1      40.575  22.671  26.926  1.00  0.00     0.188 C 
ENDROOT
BRANCH   1   2
ATOM      2  O   UNL A   1      39.178  22.477  27.070  1.00  0.00    -0.377 OA
BRANCH   2   3
ATOM      3  C   UNL A   1      38.374  22.989  26.034  1.00  0.00     0.188 C 
BRANCH   3   4
ATOM      4  C   UNL A   1      37.415  22.014  25.342  1.00  0.00     0.188 C 
BRANCH   4   5
ATOM      5  O   UNL A   1      37.258  22.037  23.932  1.00  0.00    -0.376 OA
BRANCH   5   6
ATOM      6  C   UNL A   1      36.059  22.550  23.371  1.00  0.00     0.202 C 
BRANCH   6   7
ATOM      7  C   UNL A   1      35.493  23.901  23.859  1.00  0.00     0.261 C 
BRANCH   7   8
ATOM      8  O   UNL A   1      34.541  24.596  23.017  1.00  0.00    -0.460 OA
BRANCH   8   9
ATOM      9  C   UNL A   1      33.528  23.853  22.487  1.00  0.00     0.351 C 
ATOM     10  O   UNL A   1      33.470  23.576  21.288  1.00  0.00    -0.247 OA
BRANCH   9  11
ATOM     11  C   UNL A   1      32.410  23.450  23.500  1.00  0.00     0.216 C 
ATOM     12  N   UNL A   1      32.658  20.754  24.884  1.00  0.00    -0.332 N 
ATOM     13  C   UNL A   1      33.105  21.957  25.591  1.00  0.00     0.267 C 
ATOM     14  C   UNL A   1      32.632  20.916  23.430  1.00  0.00     0.267 C 
ATOM     15  H   UNL A   1      31.681  20.635  25.154  1.00  0.00     0.348 HD
ATOM     16  C   UNL A   1      32.735  23.336  25.005  1.00  0.00     0.122 C 
ATOM     17  C   UNL A   1      31.783  22.126  23.010  1.00  0.00     0.122 C 
BRANCH  12  18
ATOM     18  C   UNL A   1      33.315  19.485  25.352  1.00  0.00     0.195 C 
ATOM     19  C   UNL A   1      34.753  15.392  24.869  1.00  0.00     0.332 C 
ATOM     20  N   UNL A   1      34.178  16.731  24.758  1.00  0.00    -0.337 N 
ATOM     21  C   UNL A   1      35.196  17.774  24.921  1.00  0.00     0.268 C 
ATOM     22  C   UNL A   1      33.105  16.943  25.731  1.00  0.00     0.268 C 
ATOM     23  H   UNL A   1      33.787  16.798  23.817  1.00  0.00     0.347 HD
ATOM     24  C   UNL A   1      34.600  19.136  24.555  1.00  0.00     0.126 C 
ATOM     25  C   UNL A   1      32.379  18.258  25.435  1.00  0.00     0.126 C 
ENDBRANCH  12  18
BRANCH  11  26
ATOM     26  O   UNL A   1      31.622  24.664  23.259  1.00  0.00    -0.475 OA
BRANCH  26  27
ATOM     27  C   UNL A   1      31.567  25.593  24.248  1.00  0.00     0.121 A 
ATOM     28  C   UNL A   1      30.671  25.472  25.304  1.00  0.00     0.047 A 
ATOM     29  C   UNL A   1      32.541  26.585  24.262  1.00  0.00     0.055 A 
ATOM     30  C   UNL A   1      30.636  26.440  26.301  1.00  0.00     0.012 A 
ATOM     31  C   UNL A   1      32.567  27.526  25.299  1.00  0.00    -0.015 A 
ATOM     32  C   UNL A   1      31.576  27.475  26.308  1.00  0.00    -0.018 A 
ATOM     33  C   UNL A   1      33.566  28.505  25.369  1.00  0.00     0.009 A 
ATOM     34  C   UNL A   1      31.575  28.437  27.326  1.00  0.00     0.009 A 
ATOM     35  C   UNL A   1      33.574  29.435  26.409  1.00  0.00     0.001 A 
ATOM     36  C   UNL A   1      32.572  29.410  27.376  1.00  0.00     0.001 A 
ENDBRANCH  26  27
ENDBRANCH  11  26
ENDBRANCH   9  11
ENDBRANCH   8   9
ENDBRANCH   7   8
ENDBRANCH   6   7
ENDBRANCH   5   6
ENDBRANCH   4   5
ENDBRANCH   3   4
ENDBRANCH   2   3
ENDBRANCH   1   2
BRANCH   1  37
ATOM     37  C   UNL A   1      41.295  21.690  25.986  1.00  0.00     0.188 C 
BRANCH  37  38
ATOM     38  O   UNL A   1      41.542  20.401  26.546  1.00  0.00    -0.376 OA
BRANCH  38  39
ATOM     39  C   UNL A   1      41.849  19.317  25.677  1.00  0.00     0.202 C 
BRANCH  39  40
ATOM     40  C   UNL A   1      43.331  18.934  25.509  1.00  0.00     0.261 C 
BRANCH  40  41
ATOM     41  O   UNL A   1      43.947  19.408  24.307  1.00  0.00    -0.460 OA
BRANCH  41  42
ATOM     42  C   UNL A   1      45.186  19.937  24.426  1.00  0.00     0.338 C 
ATOM     43  O   UNL A   1      46.223  19.496  23.991  1.00  0.00    -0.246 OA
BRANCH  42  44
ATOM     44  C   UNL A   1      45.006  21.293  24.976  1.00  0.00     0.060 A 
ATOM     45  C   UNL A   1      44.802  22.343  24.073  1.00  0.00     0.016 A 
ATOM     46  C   UNL A   1      45.001  21.516  26.354  1.00  0.00     0.016 A 
ATOM     47  C   UNL A   1      44.615  23.633  24.546  1.00  0.00     0.010 A 
ATOM     48  C   UNL A   1      44.854  22.818  26.829  1.00  0.00     0.010 A 
ATOM     49  C   UNL A   1      44.697  23.880  25.921  1.00  0.00    -0.014 A 
BRANCH  49  50
ATOM     50  C   UNL A   1      44.877  25.276  26.364  1.00  0.00     0.031 A 
ATOM     51  C   UNL A   1      46.265  25.846  26.313  1.00  0.00     0.074 A 
ATOM     52  C   UNL A   1      43.828  26.023  26.741  1.00  0.00     0.049 A 
ATOM     53  N   UNL A   1      46.680  27.043  26.625  1.00  0.00    -0.248 NA
ATOM     54  C   UNL A   1      47.331  24.944  25.839  1.00  0.00     0.031 C 
ATOM     55  C   UNL A   1      42.440  25.569  26.791  1.00  0.00     0.029 A 
ATOM     56  N   UNL A   1      43.777  27.324  27.167  1.00  0.00    -0.354 N 
ATOM     57  C   UNL A   1      48.053  27.030  26.412  1.00  0.00     0.074 A 
ATOM     58  C   UNL A   1      48.406  25.707  25.953  1.00  0.00     0.031 C 
ATOM     59  C   UNL A   1      41.672  26.572  27.253  1.00  0.00     0.029 A 
ATOM     60  C   UNL A   1      42.521  27.723  27.554  1.00  0.00     0.049 A 
ATOM     61  H   UNL A   1      44.564  27.915  27.193  1.00  0.00     0.167 HD
ATOM     62  C   UNL A   1      48.939  28.038  26.578  1.00  0.00     0.034 A 
ATOM     63  C   UNL A   1      42.117  28.881  28.113  1.00  0.00     0.034 A 
ATOM     64  C   UNL A   1      48.573  29.348  27.036  1.00  0.00     0.049 A 
ATOM     65  C   UNL A   1      43.134  29.972  28.332  1.00  0.00     0.074 A 
ATOM     66  C   UNL A   1      49.383  30.453  27.216  1.00  0.00     0.029 A 
ATOM     67  N   UNL A   1      47.291  29.723  27.408  1.00  0.00    -0.354 N 
ATOM     68  N   UNL A   1      44.413  29.982  28.038  1.00  0.00    -0.248 NA
ATOM     69  C   UNL A   1      42.646  31.223  28.929  1.00  0.00     0.031 C 
ATOM     70  C   UNL A   1      48.598  31.485  27.739  1.00  0.00     0.029 A 
ATOM     71  C   UNL A   1      47.288  31.038  27.835  1.00  0.00     0.049 A 
ATOM     72  H   UNL A   1      46.499  29.139  27.373  1.00  0.00     0.167 HD
ATOM     73  C   UNL A   1      44.874  31.249  28.378  1.00  0.00     0.074 A 
ATOM     74  C   UNL A   1      43.730  31.984  28.883  1.00  0.00     0.031 C 
ATOM     75  C   UNL A   1      46.127  31.760  28.290  1.00  0.00     0.034 A 
BRANCH  62  76
ATOM     76  C   UNL A   1      50.384  27.751  26.272  1.00  0.00     0.023 A 
ATOM     77  C   UNL A   1      51.283  27.449  27.315  1.00  0.00     0.012 A 
ATOM     78  C   UNL A   1      50.844  27.752  24.940  1.00  0.00     0.148 A 
ATOM     79  C   UNL A   1      52.625  27.185  27.040  1.00  0.00     0.002 A 
ATOM     80  C   UNL A   1      52.170  27.439  24.671  1.00  0.00     0.091 A 
ATOM     81  F   UNL A   1      49.980  28.070  23.967  1.00  0.00    -0.205 F 
ATOM     82  C   UNL A   1      53.065  27.169  25.720  1.00  0.00     0.022 A 
BRANCH  80  83
ATOM     83  S   UNL A   1      52.815  27.316  23.000  1.00  0.00     0.127 S 
ATOM     84  O   UNL A   1      53.085  28.719  22.684  1.00  0.00    -0.237 OA
ATOM     85  O   UNL A   1      54.009  26.494  23.194  1.00  0.00    -0.237 OA
ATOM     86  O   UNL A   1      51.765  26.691  22.207  1.00  0.00    -0.744 OA
ENDBRANCH  80  83
ENDBRANCH  62  76
BRANCH  63  87
ATOM     87  C   UNL A   1      40.689  29.071  28.493  1.00  0.00     0.023 A 
ATOM     88  C   UNL A   1      39.736  29.387  27.508  1.00  0.00     0.012 A 
ATOM     89  C   UNL A   1      40.273  28.933  29.832  1.00  0.00     0.148 A 
ATOM     90  C   UNL A   1      38.399  29.595  27.852  1.00  0.00     0.002 A 
ATOM     91  C   UNL A   1      38.932  29.086  30.161  1.00  0.00     0.091 A 
ATOM     92  F   UNL A   1      41.199  28.647  30.758  1.00  0.00    -0.205 F 
ATOM     93  C   UNL A   1      37.996  29.436  29.175  1.00  0.00     0.022 A 
BRANCH  91  94
ATOM     94  S   UNL A   1      38.303  28.782  31.815  1.00  0.00     0.127 S 
ATOM     95  O   UNL A   1      36.870  29.004  31.635  1.00  0.00    -0.237 OA
ATOM     96  O   UNL A   1      38.690  27.387  32.029  1.00  0.00    -0.237 OA
ATOM     97  O   UNL A   1      38.985  29.736  32.679  1.00  0.00    -0.744 OA
ENDBRANCH  91  94
ENDBRANCH  63  87
BRANCH  75  98
ATOM     98  C   UNL A   1      46.326  33.196  28.700  1.00  0.00     0.023 A 
ATOM     99  C   UNL A   1      46.872  33.505  29.961  1.00  0.00     0.012 A 
ATOM    100  C   UNL A   1      46.041  34.237  27.794  1.00  0.00     0.148 A 
ATOM    101  C   UNL A   1      47.095  34.831  30.329  1.00  0.00     0.002 A 
ATOM    102  C   UNL A   1      46.320  35.552  28.145  1.00  0.00     0.091 A 
ATOM    103  F   UNL A   1      45.509  33.923  26.603  1.00  0.00    -0.205 F 
ATOM    104  C   UNL A   1      46.831  35.852  29.418  1.00  0.00     0.022 A 
BRANCH 102 105
ATOM    105  S   UNL A   1      46.111  36.920  27.000  1.00  0.00     0.127 S 
ATOM    106  O   UNL A   1      46.809  36.423  25.815  1.00  0.00    -0.237 OA
ATOM    107  O   UNL A   1      44.656  36.990  26.866  1.00  0.00    -0.237 OA
ATOM    108  O   UNL A   1      46.717  38.079  27.639  1.00  0.00    -0.744 OA
ENDBRANCH 102 105
ENDBRANCH  75  98
ENDBRANCH  49  50
ENDBRANCH  42  44
ENDBRANCH  41  42
ENDBRANCH  40  41
ENDBRANCH  39  40
ENDBRANCH  38  39
ENDBRANCH  37  38
ENDBRANCH   1  37
TORSDOF 26
ENDMDL
MODEL 3
REMARK VINA RESULT:      -9.8      1.463      4.647
REMARK SMILES C[NH+]1CCC([NH+]2CCC(Oc3ccc4ccccc4c3)(C(=O)OCCOCCOCCOCCOC(=O)c3ccc(-c4c5nc(c(-c6cccc(S(=O)(=O)[O-])c6F)c6ccc([nH]6)c(-c6cccc(S(=O)(=O)[O-])c6F)c6nc(c(-c7cccc(S(=O)(=O)[O-])c7F)c7ccc4[nH]7)C=C6)C=C5)cc3)CC2)CC1
REMARK SMILES IDX 30 1 29 2 28 3 27 4 26 5 25 6 24 7 23 8 21 9 22 10 9 11 6 12
REMARK SMILES IDX 7 13 102 14 8 16 101 17 5 18 1 19 2 20 3 21 104 22 4 24
REMARK SMILES IDX 103 25 10 26 11 27 12 28 20 29 13 30 19 31 14 32 18 33 15 34
REMARK SMILES IDX 17 35 16 36 31 37 32 38 33 39 34 40 35 41 36 42 37 43 38 44
REMARK SMILES IDX 39 45 100 46 40 47 99 48 41 49 42 50 43 51 93 52 44 53 98 54
REMARK SMILES IDX 92 55 94 56 45 57 97 58 91 59 90 60 46 62 78 63 58 64 77 65
REMARK SMILES IDX 59 66 62 67 76 68 95 69 60 70 61 71 75 73 96 74 63 75 47 76
REMARK SMILES IDX 48 77 56 78 49 79 51 80 57 81 50 82 52 83 53 84 54 85 55 86
REMARK SMILES IDX 79 87 80 88 88 89 81 90 83 91 89 92 82 93 84 94 85 95 86 96
REMARK SMILES IDX 87 97 64 98 65 99 73 100 66 101 68 102 74 103 67 104 69 105
REMARK SMILES IDX 70 106 71 107 72 108
REMARK H PARENT 6 15 2 23 94 61 62 72
REMARK Flexibility Score: inf
ROOT
ATOM      1  C   UNL A   1      38.173  22.163  26.124  1.00  0.00     0.188 C 
ENDROOT
BRANCH   1   2
ATOM      2  O   UNL A   1      37.353  21.090  25.697  1.00  0.00    -0.377 OA
BRANCH   2   3
ATOM      3  C   UNL A   1      36.516  21.353  24.595  1.00  0.00     0.188 C 
BRANCH   3   4
ATOM      4  C   UNL A   1      37.043  22.320  23.528  1.00  0.00     0.188 C 
BRANCH   4   5
ATOM      5  O   UNL A   1      36.261  23.427  23.111  1.00  0.00    -0.376 OA
BRANCH   5   6
ATOM      6  C   UNL A   1      35.173  23.857  23.916  1.00  0.00     0.202 C 
BRANCH   6   7
ATOM      7  C   UNL A   1      35.438  24.642  25.219  1.00  0.00     0.261 C 
BRANCH   7   8
ATOM      8  O   UNL A   1      34.392  25.506  25.729  1.00  0.00    -0.460 OA
BRANCH   8   9
ATOM      9  C   UNL A   1      33.306  25.700  24.928  1.00  0.00     0.351 C 
ATOM     10  O   UNL A   1      33.274  26.573  24.060  1.00  0.00    -0.247 OA
BRANCH   9  11
ATOM     11  C   UNL A   1      32.081  24.786  25.250  1.00  0.00     0.216 C 
ATOM     12  N   UNL A   1      32.241  21.863  24.425  1.00  0.00    -0.332 N 
ATOM     13  C   UNL A   1      32.552  22.227  25.811  1.00  0.00     0.267 C 
ATOM     14  C   UNL A   1      32.397  22.976  23.489  1.00  0.00     0.267 C 
ATOM     15  H   UNL A   1      31.243  21.655  24.424  1.00  0.00     0.348 HD
ATOM     16  C   UNL A   1      32.213  23.654  26.291  1.00  0.00     0.122 C 
ATOM     17  C   UNL A   1      31.569  24.197  23.917  1.00  0.00     0.122 C 
BRANCH  12  18
ATOM     18  C   UNL A   1      32.876  20.579  23.969  1.00  0.00     0.195 C 
ATOM     19  C   UNL A   1      33.288  16.237  23.806  1.00  0.00     0.332 C 
ATOM     20  N   UNL A   1      32.935  17.634  24.048  1.00  0.00    -0.337 N 
ATOM     21  C   UNL A   1      32.493  18.302  22.820  1.00  0.00     0.268 C 
ATOM     22  C   UNL A   1      34.050  18.381  24.633  1.00  0.00     0.268 C 
ATOM     23  H   UNL A   1      32.161  17.624  24.713  1.00  0.00     0.347 HD
ATOM     24  C   UNL A   1      31.907  19.674  23.163  1.00  0.00     0.126 C 
ATOM     25  C   UNL A   1      33.577  19.767  25.081  1.00  0.00     0.126 C 
ENDBRANCH  12  18
BRANCH  11  26
ATOM     26  O   UNL A   1      31.290  25.884  25.815  1.00  0.00    -0.475 OA
BRANCH  26  27
ATOM     27  C   UNL A   1      30.403  26.514  25.002  1.00  0.00     0.121 A 
ATOM     28  C   UNL A   1      29.164  25.954  24.713  1.00  0.00     0.047 A 
ATOM     29  C   UNL A   1      30.702  27.809  24.594  1.00  0.00     0.055 A 
ATOM     30  C   UNL A   1      28.277  26.621  23.876  1.00  0.00     0.012 A 
ATOM     31  C   UNL A   1      29.788  28.524  23.810  1.00  0.00    -0.015 A 
ATOM     32  C   UNL A   1      28.579  27.905  23.413  1.00  0.00    -0.018 A 
ATOM     33  C   UNL A   1      30.038  29.849  23.428  1.00  0.00     0.009 A 
ATOM     34  C   UNL A   1      27.680  28.604  22.598  1.00  0.00     0.009 A 
ATOM     35  C   UNL A   1      29.116  30.544  22.645  1.00  0.00     0.001 A 
ATOM     36  C   UNL A   1      27.947  29.918  22.219  1.00  0.00     0.001 A 
ENDBRANCH  26  27
ENDBRANCH  11  26
ENDBRANCH   9  11
ENDBRANCH   8   9
ENDBRANCH   7   8
ENDBRANCH   6   7
ENDBRANCH   5   6
ENDBRANCH   4   5
ENDBRANCH   3   4
ENDBRANCH   2   3
ENDBRANCH   1   2
BRANCH   1  37
ATOM     37  C   UNL A   1      39.682  21.869  26.193  1.00  0.00     0.188 C 
BRANCH  37  38
ATOM     38  O   UNL A   1      40.018  20.625  26.805  1.00  0.00    -0.376 OA
BRANCH  38  39
ATOM     39  C   UNL A   1      41.024  19.813  26.211  1.00  0.00     0.202 C 
BRANCH  39  40
ATOM     40  C   UNL A   1      42.394  20.460  25.939  1.00  0.00     0.261 C 
BRANCH  40  41
ATOM     41  O   UNL A   1      43.453  19.540  25.654  1.00  0.00    -0.460 OA
BRANCH  41  42
ATOM     42  C   UNL A   1      44.285  19.865  24.638  1.00  0.00     0.338 C 
ATOM     43  O   UNL A   1      44.459  19.264  23.605  1.00  0.00    -0.246 OA
BRANCH  42  44
ATOM     44  C   UNL A   1      44.759  21.234  24.913  1.00  0.00     0.060 A 
ATOM     45  C   UNL A   1      45.219  21.519  26.203  1.00  0.00     0.016 A 
ATOM     46  C   UNL A   1      44.781  22.203  23.908  1.00  0.00     0.016 A 
ATOM     47  C   UNL A   1      45.687  22.790  26.504  1.00  0.00     0.010 A 
ATOM     48  C   UNL A   1      45.212  23.492  24.221  1.00  0.00     0.010 A 
ATOM     49  C   UNL A   1      45.630  23.792  25.528  1.00  0.00    -0.014 A 
BRANCH  49  50
ATOM     50  C   UNL A   1      45.765  25.194  25.967  1.00  0.00     0.031 A 
ATOM     51  C   UNL A   1      47.148  25.778  26.006  1.00  0.00     0.074 A 
ATOM     52  C   UNL A   1      44.686  25.934  26.263  1.00  0.00     0.049 A 
ATOM     53  N   UNL A   1      47.530  26.982  26.332  1.00  0.00    -0.248 NA
ATOM     54  C   UNL A   1      48.252  24.881  25.615  1.00  0.00     0.031 C 
ATOM     55  C   UNL A   1      43.302  25.467  26.223  1.00  0.00     0.029 A 
ATOM     56  N   UNL A   1      44.593  27.239  26.672  1.00  0.00    -0.354 N 
ATOM     57  C   UNL A   1      48.914  26.981  26.214  1.00  0.00     0.074 A 
ATOM     58  C   UNL A   1      49.310  25.656  25.794  1.00  0.00     0.031 C 
ATOM     59  C   UNL A   1      42.495  26.466  26.621  1.00  0.00     0.029 A 
ATOM     60  C   UNL A   1      43.310  27.629  26.967  1.00  0.00     0.049 A 
ATOM     61  H   UNL A   1      45.371  27.838  26.745  1.00  0.00     0.167 HD
ATOM     62  C   UNL A   1      49.776  27.999  26.429  1.00  0.00     0.034 A 
ATOM     63  C   UNL A   1      42.858  28.788  27.485  1.00  0.00     0.034 A 
ATOM     64  C   UNL A   1      49.368  29.310  26.847  1.00  0.00     0.049 A 
ATOM     65  C   UNL A   1      43.847  29.892  27.761  1.00  0.00     0.074 A 
ATOM     66  C   UNL A   1      50.153  30.425  27.070  1.00  0.00     0.029 A 
ATOM     67  N   UNL A   1      48.060  29.675  27.126  1.00  0.00    -0.354 N 
ATOM     68  N   UNL A   1      45.143  29.912  27.555  1.00  0.00    -0.248 NA
ATOM     69  C   UNL A   1      43.308  31.143  28.310  1.00  0.00     0.031 C 
ATOM     70  C   UNL A   1      49.324  31.454  27.527  1.00  0.00     0.029 A 
ATOM     71  C   UNL A   1      48.015  30.995  27.538  1.00  0.00     0.049 A 
ATOM     72  H   UNL A   1      47.277  29.083  27.044  1.00  0.00     0.167 HD
ATOM     73  C   UNL A   1      45.567  31.187  27.912  1.00  0.00     0.074 A 
ATOM     74  C   UNL A   1      44.385  31.915  28.329  1.00  0.00     0.031 C 
ATOM     75  C   UNL A   1      46.819  31.710  27.905  1.00  0.00     0.034 A 
BRANCH  62  76
ATOM     76  C   UNL A   1      51.242  27.724  26.226  1.00  0.00     0.023 A 
ATOM     77  C   UNL A   1      52.074  27.461  27.333  1.00  0.00     0.012 A 
ATOM     78  C   UNL A   1      51.788  27.697  24.928  1.00  0.00     0.148 A 
ATOM     79  C   UNL A   1      53.434  27.209  27.154  1.00  0.00     0.002 A 
ATOM     80  C   UNL A   1      53.133  27.395  24.754  1.00  0.00     0.091 A 
ATOM     81  F   UNL A   1      50.986  27.978  23.891  1.00  0.00    -0.205 F 
ATOM     82  C   UNL A   1      53.960  27.164  25.865  1.00  0.00     0.022 A 
BRANCH  80  83
ATOM     83  S   UNL A   1      53.887  27.237  23.132  1.00  0.00     0.127 S 
ATOM     84  O   UNL A   1      55.311  27.220  23.470  1.00  0.00    -0.237 OA
ATOM     85  O   UNL A   1      53.355  25.955  22.672  1.00  0.00    -0.237 OA
ATOM     86  O   UNL A   1      53.444  28.393  22.366  1.00  0.00    -0.744 OA
ENDBRANCH  80  83
ENDBRANCH  62  76
BRANCH  63  87
ATOM     87  C   UNL A   1      41.405  28.967  27.764  1.00  0.00     0.023 A 
ATOM     88  C   UNL A   1      40.498  29.119  26.699  1.00  0.00     0.012 A 
ATOM     89  C   UNL A   1      40.920  28.982  29.087  1.00  0.00     0.148 A 
ATOM     90  C   UNL A   1      39.139  29.315  26.945  1.00  0.00     0.002 A 
ATOM     91  C   UNL A   1      39.558  29.122  29.324  1.00  0.00     0.091 A 
ATOM     92  F   UNL A   1      41.803  28.852  30.088  1.00  0.00    -0.205 F 
ATOM     93  C   UNL A   1      38.668  29.307  28.256  1.00  0.00     0.022 A 
BRANCH  91  94
ATOM     94  S   UNL A   1      38.849  29.003  30.969  1.00  0.00     0.127 S 
ATOM     95  O   UNL A   1      39.463  27.776  31.471  1.00  0.00    -0.237 OA
ATOM     96  O   UNL A   1      39.332  30.235  31.592  1.00  0.00    -0.237 OA
ATOM     97  O   UNL A   1      37.406  28.951  30.774  1.00  0.00    -0.744 OA
ENDBRANCH  91  94
ENDBRANCH  63  87
BRANCH  75  98
ATOM     98  C   UNL A   1      46.975  33.151  28.312  1.00  0.00     0.023 A 
ATOM     99  C   UNL A   1      47.069  33.498  29.673  1.00  0.00     0.012 A 
ATOM    100  C   UNL A   1      47.109  34.154  27.330  1.00  0.00     0.148 A 
ATOM    101  C   UNL A   1      47.254  34.827  30.053  1.00  0.00     0.002 A 
ATOM    102  C   UNL A   1      47.350  35.467  27.715  1.00  0.00     0.091 A 
ATOM    103  F   UNL A   1      47.003  33.805  26.039  1.00  0.00    -0.205 F 
ATOM    104  C   UNL A   1      47.407  35.807  29.076  1.00  0.00     0.022 A 
BRANCH 102 105
ATOM    105  S   UNL A   1      47.665  36.776  26.526  1.00  0.00     0.127 S 
ATOM    106  O   UNL A   1      47.988  37.901  27.402  1.00  0.00    -0.237 OA
ATOM    107  O   UNL A   1      48.800  36.242  25.774  1.00  0.00    -0.237 OA
ATOM    108  O   UNL A   1      46.440  36.921  25.751  1.00  0.00    -0.744 OA
ENDBRANCH 102 105
ENDBRANCH  75  98
ENDBRANCH  49  50
ENDBRANCH  42  44
ENDBRANCH  41  42
ENDBRANCH  40  41
ENDBRANCH  39  40
ENDBRANCH  38  39
ENDBRANCH  37  38
ENDBRANCH   1  37
TORSDOF 26
ENDMDL
