MODEL 1
REMARK VINA RESULT:      -8.6      0.000      0.000
REMARK SMILES O=C(OCCOCCOCCOCCOC(=O)[C@]1(NC(=O)C2CCN(C(=O)C3CC3)CC2)CCCc2ccccc21)c1ccc(-c2c3nc(c(-c4cccc(S(=O)(=O)[O-])c4F)c4ccc([nH]4)c(-c4cccc(S(=O)(=O)[O-])c4F)c4nc(c(-c5cccc(S(=O)(=O)[O-])c5F)c5ccc2[nH]5)C=C4)C=C3)cc1
REMARK SMILES IDX 9 1 8 2 7 3 6 4 5 5 4 6 3 7 2 8 1 9 42 10 43 11 104 12 44 13
REMARK SMILES IDX 103 14 45 15 46 16 47 17 97 18 48 19 102 20 96 21 98 22
REMARK SMILES IDX 49 23 101 24 95 25 94 26 50 28 82 29 62 30 81 31 63 32 66 33
REMARK SMILES IDX 80 34 99 35 64 36 65 37 79 39 100 40 67 41 51 42 52 43 60 44
REMARK SMILES IDX 53 45 55 46 61 47 54 48 56 49 57 50 58 51 59 52 83 53 84 54
REMARK SMILES IDX 92 55 85 56 87 57 93 58 86 59 88 60 89 61 90 62 91 63 68 64
REMARK SMILES IDX 69 65 77 66 70 67 72 68 78 69 71 70 73 71 74 72 75 73 76 74
REMARK SMILES IDX 10 75 11 76 12 77 13 78 14 79 15 80 16 81 17 82 18 83 33 84
REMARK SMILES IDX 41 85 34 86 36 87 40 88 35 89 37 90 39 91 38 92 19 93 20 94
REMARK SMILES IDX 21 96 22 97 23 98 32 99 24 100 31 101 25 102 26 103 27 104
REMARK SMILES IDX 28 105 29 106 30 107
REMARK H PARENT 98 27 66 38 19 95
REMARK Flexibility Score: inf
ROOT
ATOM      1  O   UNL A   1      40.669  20.774  27.024  1.00  0.00    -0.377 OA
ENDROOT
BRANCH   1   2
ATOM      2  C   UNL A   1      40.760  19.690  26.094  1.00  0.00     0.188 C 
BRANCH   2   3
ATOM      3  C   UNL A   1      42.025  18.848  26.104  1.00  0.00     0.188 C 
BRANCH   3   4
ATOM      4  O   UNL A   1      42.888  19.221  25.058  1.00  0.00    -0.376 OA
BRANCH   4   5
ATOM      5  C   UNL A   1      44.268  18.991  25.239  1.00  0.00     0.202 C 
BRANCH   5   6
ATOM      6  C   UNL A   1      44.987  19.518  23.998  1.00  0.00     0.261 C 
BRANCH   6   7
ATOM      7  O   UNL A   1      45.522  20.843  24.213  1.00  0.00    -0.460 OA
BRANCH   7   8
ATOM      8  C   UNL A   1      44.879  22.026  24.021  1.00  0.00     0.338 C 
ATOM      9  O   UNL A   1      44.358  22.242  22.927  1.00  0.00    -0.246 OA
BRANCH   8  10
ATOM     10  C   UNL A   1      44.617  23.000  25.136  1.00  0.00     0.060 A 
ATOM     11  C   UNL A   1      44.429  24.378  24.992  1.00  0.00     0.016 A 
ATOM     12  C   UNL A   1      44.494  22.458  26.429  1.00  0.00     0.016 A 
ATOM     13  C   UNL A   1      44.153  25.198  26.083  1.00  0.00     0.010 A 
ATOM     14  C   UNL A   1      44.247  23.277  27.539  1.00  0.00     0.010 A 
ATOM     15  C   UNL A   1      44.111  24.658  27.365  1.00  0.00    -0.014 A 
BRANCH  15  16
ATOM     16  C   UNL A   1      44.194  25.596  28.499  1.00  0.00     0.031 A 
ATOM     17  C   UNL A   1      45.560  25.852  29.073  1.00  0.00     0.074 A 
ATOM     18  C   UNL A   1      43.117  26.284  28.914  1.00  0.00     0.049 A 
ATOM     19  N   UNL A   1      45.921  26.664  30.027  1.00  0.00    -0.248 NA
ATOM     20  C   UNL A   1      46.675  25.101  28.467  1.00  0.00     0.031 C 
ATOM     21  C   UNL A   1      41.772  26.168  28.351  1.00  0.00     0.029 A 
ATOM     22  N   UNL A   1      42.992  27.229  29.897  1.00  0.00    -0.354 N 
ATOM     23  C   UNL A   1      47.294  26.496  30.159  1.00  0.00     0.074 A 
ATOM     24  C   UNL A   1      47.707  25.517  29.182  1.00  0.00     0.031 C 
ATOM     25  C   UNL A   1      40.952  27.008  29.009  1.00  0.00     0.029 A 
ATOM     26  C   UNL A   1      41.708  27.697  30.051  1.00  0.00     0.049 A 
ATOM     27  H   UNL A   1      43.750  27.544  30.443  1.00  0.00     0.167 HD
ATOM     28  C   UNL A   1      48.138  27.107  31.021  1.00  0.00     0.034 A 
ATOM     29  C   UNL A   1      41.214  28.574  30.948  1.00  0.00     0.034 A 
ATOM     30  C   UNL A   1      47.711  28.078  31.986  1.00  0.00     0.049 A 
ATOM     31  C   UNL A   1      42.168  29.202  31.934  1.00  0.00     0.074 A 
ATOM     32  C   UNL A   1      48.462  28.739  32.937  1.00  0.00     0.029 A 
ATOM     33  N   UNL A   1      46.402  28.518  32.124  1.00  0.00    -0.354 N 
ATOM     34  N   UNL A   1      43.472  29.071  32.021  1.00  0.00    -0.248 NA
ATOM     35  C   UNL A   1      41.589  30.112  32.932  1.00  0.00     0.031 C 
ATOM     36  C   UNL A   1      47.601  29.567  33.665  1.00  0.00     0.029 A 
ATOM     37  C   UNL A   1      46.319  29.439  33.150  1.00  0.00     0.049 A 
ATOM     38  H   UNL A   1      45.644  28.218  31.571  1.00  0.00     0.167 HD
ATOM     39  C   UNL A   1      43.873  29.902  33.061  1.00  0.00     0.074 A 
ATOM     40  C   UNL A   1      42.674  30.550  33.558  1.00  0.00     0.031 C 
ATOM     41  C   UNL A   1      45.112  30.103  33.576  1.00  0.00     0.034 A 
BRANCH  28  42
ATOM     42  C   UNL A   1      49.585  26.706  30.955  1.00  0.00     0.023 A 
ATOM     43  C   UNL A   1      50.061  25.655  31.766  1.00  0.00     0.012 A 
ATOM     44  C   UNL A   1      50.483  27.398  30.122  1.00  0.00     0.148 A 
ATOM     45  C   UNL A   1      51.416  25.326  31.776  1.00  0.00     0.002 A 
ATOM     46  C   UNL A   1      51.826  27.041  30.111  1.00  0.00     0.091 A 
ATOM     47  F   UNL A   1      50.016  28.419  29.388  1.00  0.00    -0.205 F 
ATOM     48  C   UNL A   1      52.297  26.014  30.946  1.00  0.00     0.022 A 
BRANCH  46  49
ATOM     49  S   UNL A   1      53.026  27.839  29.040  1.00  0.00     0.127 S 
ATOM     50  O   UNL A   1      52.731  29.252  29.268  1.00  0.00    -0.237 OA
ATOM     51  O   UNL A   1      54.296  27.382  29.607  1.00  0.00    -0.237 OA
ATOM     52  O   UNL A   1      52.752  27.348  27.697  1.00  0.00    -0.744 OA
ENDBRANCH  46  49
ENDBRANCH  28  42
BRANCH  29  53
ATOM     53  C   UNL A   1      39.765  28.936  30.934  1.00  0.00     0.023 A 
ATOM     54  C   UNL A   1      38.851  28.182  31.696  1.00  0.00     0.012 A 
ATOM     55  C   UNL A   1      39.287  30.030  30.184  1.00  0.00     0.148 A 
ATOM     56  C   UNL A   1      37.489  28.493  31.691  1.00  0.00     0.002 A 
ATOM     57  C   UNL A   1      37.939  30.368  30.227  1.00  0.00     0.091 A 
ATOM     58  F   UNL A   1      40.162  30.722  29.442  1.00  0.00    -0.205 F 
ATOM     59  C   UNL A   1      37.035  29.592  30.967  1.00  0.00     0.022 A 
BRANCH  57  60
ATOM     60  S   UNL A   1      37.293  31.843  29.430  1.00  0.00     0.127 S 
ATOM     61  O   UNL A   1      36.898  31.328  28.122  1.00  0.00    -0.237 OA
ATOM     62  O   UNL A   1      36.182  32.204  30.311  1.00  0.00    -0.237 OA
ATOM     63  O   UNL A   1      38.391  32.800  29.432  1.00  0.00    -0.744 OA
ENDBRANCH  57  60
ENDBRANCH  29  53
BRANCH  41  64
ATOM     64  C   UNL A   1      45.241  31.078  34.713  1.00  0.00     0.023 A 
ATOM     65  C   UNL A   1      45.693  32.387  34.460  1.00  0.00     0.012 A 
ATOM     66  C   UNL A   1      44.816  30.726  36.008  1.00  0.00     0.148 A 
ATOM     67  C   UNL A   1      45.745  33.326  35.488  1.00  0.00     0.002 A 
ATOM     68  C   UNL A   1      44.826  31.681  37.017  1.00  0.00     0.091 A 
ATOM     69  F   UNL A   1      44.410  29.467  36.231  1.00  0.00    -0.205 F 
ATOM     70  C   UNL A   1      45.299  32.978  36.762  1.00  0.00     0.022 A 
BRANCH  68  71
ATOM     71  S   UNL A   1      44.170  31.341  38.654  1.00  0.00     0.127 S 
ATOM     72  O   UNL A   1      44.505  32.569  39.371  1.00  0.00    -0.237 OA
ATOM     73  O   UNL A   1      42.742  31.159  38.389  1.00  0.00    -0.237 OA
ATOM     74  O   UNL A   1      44.852  30.137  39.112  1.00  0.00    -0.744 OA
ENDBRANCH  68  71
ENDBRANCH  41  64
ENDBRANCH  15  16
ENDBRANCH   8  10
ENDBRANCH   7   8
ENDBRANCH   6   7
ENDBRANCH   5   6
ENDBRANCH   4   5
ENDBRANCH   3   4
ENDBRANCH   2   3
ENDBRANCH   1   2
BRANCH   1  75
ATOM     75  C   UNL A   1      41.048  22.089  26.600  1.00  0.00     0.188 C 
BRANCH  75  76
ATOM     76  C   UNL A   1      39.989  22.926  25.878  1.00  0.00     0.188 C 
BRANCH  76  77
ATOM     77  O   UNL A   1      38.766  22.874  26.587  1.00  0.00    -0.376 OA
BRANCH  77  78
ATOM     78  C   UNL A   1      38.294  24.067  27.201  1.00  0.00     0.202 C 
BRANCH  78  79
ATOM     79  C   UNL A   1      36.825  24.511  27.062  1.00  0.00     0.261 C 
BRANCH  79  80
ATOM     80  O   UNL A   1      36.103  24.074  25.877  1.00  0.00    -0.461 OA
BRANCH  80  81
ATOM     81  C   UNL A   1      35.009  23.280  26.122  1.00  0.00     0.336 C 
ATOM     82  O   UNL A   1      34.645  23.024  27.273  1.00  0.00    -0.249 OA
BRANCH  81  83
ATOM     83  C   UNL A   1      34.420  22.495  24.871  1.00  0.00     0.164 C 
ATOM     84  C   UNL A   1      32.935  22.059  24.887  1.00  0.00     0.046 C 
ATOM     85  C   UNL A   1      35.372  21.290  24.651  1.00  0.00    -0.008 A 
ATOM     86  C   UNL A   1      32.545  20.623  25.256  1.00  0.00     0.008 C 
ATOM     87  C   UNL A   1      35.015  19.971  24.952  1.00  0.00    -0.042 A 
ATOM     88  C   UNL A   1      36.713  21.539  24.262  1.00  0.00     0.007 A 
ATOM     89  C   UNL A   1      33.623  19.553  25.298  1.00  0.00     0.036 C 
ATOM     90  C   UNL A   1      36.008  18.966  24.952  1.00  0.00     0.004 A 
ATOM     91  C   UNL A   1      37.681  20.538  24.262  1.00  0.00     0.000 A 
ATOM     92  C   UNL A   1      37.332  19.250  24.629  1.00  0.00     0.000 A 
BRANCH  83  93
ATOM     93  N   UNL A   1      34.568  23.361  23.637  1.00  0.00    -0.336 N 
ATOM     94  C   UNL A   1      33.763  24.315  23.087  1.00  0.00     0.224 C 
ATOM     95  H   UNL A   1      35.402  23.207  23.137  1.00  0.00     0.164 HD
ATOM     96  O   UNL A   1      33.751  24.423  21.859  1.00  0.00    -0.275 OA
BRANCH  94  97
ATOM     97  C   UNL A   1      33.001  25.295  23.965  1.00  0.00     0.082 C 
ATOM     98  C   UNL A   1      31.619  25.639  23.382  1.00  0.00     0.035 C 
ATOM     99  C   UNL A   1      33.887  26.507  24.312  1.00  0.00     0.035 C 
ATOM    100  C   UNL A   1      31.638  26.845  22.439  1.00  0.00     0.120 C 
ATOM    101  C   UNL A   1      33.778  27.599  23.267  1.00  0.00     0.120 C 
ATOM    102  N   UNL A   1      32.381  27.924  23.081  1.00  0.00    -0.342 N 
ATOM    103  C   UNL A   1      31.657  28.965  23.661  1.00  0.00     0.225 C 
ATOM    104  O   UNL A   1      30.516  29.210  23.308  1.00  0.00    -0.275 OA
BRANCH 103 105
ATOM    105  C   UNL A   1      32.170  29.764  24.818  1.00  0.00     0.079 C 
ATOM    106  C   UNL A   1      31.526  30.537  25.934  1.00  0.00     0.014 C 
ATOM    107  C   UNL A   1      32.033  29.153  26.198  1.00  0.00     0.014 C 
ENDBRANCH 103 105
ENDBRANCH  94  97
ENDBRANCH  83  93
ENDBRANCH  81  83
ENDBRANCH  80  81
ENDBRANCH  79  80
ENDBRANCH  78  79
ENDBRANCH  77  78
ENDBRANCH  76  77
ENDBRANCH  75  76
ENDBRANCH   1  75
TORSDOF 26
ENDMDL
MODEL 2
REMARK VINA RESULT:      -8.5      4.571      7.824
REMARK SMILES O=C(OCCOCCOCCOCCOC(=O)[C@]1(NC(=O)C2CCN(C(=O)C3CC3)CC2)CCCc2ccccc21)c1ccc(-c2c3nc(c(-c4cccc(S(=O)(=O)[O-])c4F)c4ccc([nH]4)c(-c4cccc(S(=O)(=O)[O-])c4F)c4nc(c(-c5cccc(S(=O)(=O)[O-])c5F)c5ccc2[nH]5)C=C4)C=C3)cc1
REMARK SMILES IDX 9 1 8 2 7 3 6 4 5 5 4 6 3 7 2 8 1 9 42 10 43 11 104 12 44 13
REMARK SMILES IDX 103 14 45 15 46 16 47 17 97 18 48 19 102 20 96 21 98 22
REMARK SMILES IDX 49 23 101 24 95 25 94 26 50 28 82 29 62 30 81 31 63 32 66 33
REMARK SMILES IDX 80 34 99 35 64 36 65 37 79 39 100 40 67 41 51 42 52 43 60 44
REMARK SMILES IDX 53 45 55 46 61 47 54 48 56 49 57 50 58 51 59 52 83 53 84 54
REMARK SMILES IDX 92 55 85 56 87 57 93 58 86 59 88 60 89 61 90 62 91 63 68 64
REMARK SMILES IDX 69 65 77 66 70 67 72 68 78 69 71 70 73 71 74 72 75 73 76 74
REMARK SMILES IDX 10 75 11 76 12 77 13 78 14 79 15 80 16 81 17 82 18 83 33 84
REMARK SMILES IDX 41 85 34 86 36 87 40 88 35 89 37 90 39 91 38 92 19 93 20 94
REMARK SMILES IDX 21 96 22 97 23 98 32 99 24 100 31 101 25 102 26 103 27 104
REMARK SMILES IDX 28 105 29 106 30 107
REMARK H PARENT 98 27 66 38 19 95
REMARK Flexibility Score: inf
ROOT
ATOM      1  O   UNL A   1      42.598  23.879  27.997  1.00  0.00    -0.377 OA
ENDROOT
BRANCH   1   2
ATOM      2  C   UNL A   1      42.084  23.047  26.952  1.00  0.00     0.188 C 
BRANCH   2   3
ATOM      3  C   UNL A   1      42.486  23.370  25.523  1.00  0.00     0.188 C 
BRANCH   3   4
ATOM      4  O   UNL A   1      43.174  22.293  24.936  1.00  0.00    -0.376 OA
BRANCH   4   5
ATOM      5  C   UNL A   1      44.381  22.579  24.265  1.00  0.00     0.202 C 
BRANCH   5   6
ATOM      6  C   UNL A   1      45.222  23.457  25.192  1.00  0.00     0.261 C 
BRANCH   6   7
ATOM      7  O   UNL A   1      45.344  24.805  24.685  1.00  0.00    -0.460 OA
BRANCH   7   8
ATOM      8  C   UNL A   1      46.286  25.725  25.026  1.00  0.00     0.338 C 
ATOM      9  O   UNL A   1      47.384  25.676  24.471  1.00  0.00    -0.246 OA
BRANCH   8  10
ATOM     10  C   UNL A   1      45.990  26.905  25.909  1.00  0.00     0.060 A 
ATOM     11  C   UNL A   1      46.920  27.849  26.355  1.00  0.00     0.016 A 
ATOM     12  C   UNL A   1      44.642  27.100  26.266  1.00  0.00     0.016 A 
ATOM     13  C   UNL A   1      46.543  28.934  27.142  1.00  0.00     0.010 A 
ATOM     14  C   UNL A   1      44.255  28.171  27.083  1.00  0.00     0.010 A 
ATOM     15  C   UNL A   1      45.219  29.070  27.550  1.00  0.00    -0.014 A 
BRANCH  15  16
ATOM     16  C   UNL A   1      44.945  29.993  28.667  1.00  0.00     0.031 A 
ATOM     17  C   UNL A   1      45.150  29.461  30.057  1.00  0.00     0.074 A 
ATOM     18  C   UNL A   1      44.651  31.285  28.445  1.00  0.00     0.049 A 
ATOM     19  N   UNL A   1      45.036  30.069  31.205  1.00  0.00    -0.248 NA
ATOM     20  C   UNL A   1      45.565  28.049  30.162  1.00  0.00     0.031 C 
ATOM     21  C   UNL A   1      44.525  31.910  27.128  1.00  0.00     0.029 A 
ATOM     22  N   UNL A   1      44.418  32.307  29.327  1.00  0.00    -0.354 N 
ATOM     23  C   UNL A   1      45.328  29.109  32.165  1.00  0.00     0.074 A 
ATOM     24  C   UNL A   1      45.639  27.881  31.472  1.00  0.00     0.031 C 
ATOM     25  C   UNL A   1      44.228  33.212  27.292  1.00  0.00     0.029 A 
ATOM     26  C   UNL A   1      44.117  33.502  28.719  1.00  0.00     0.049 A 
ATOM     27  H   UNL A   1      44.462  32.196  30.305  1.00  0.00     0.167 HD
ATOM     28  C   UNL A   1      45.338  29.240  33.511  1.00  0.00     0.034 A 
ATOM     29  C   UNL A   1      43.780  34.686  29.268  1.00  0.00     0.034 A 
ATOM     30  C   UNL A   1      45.028  30.468  34.185  1.00  0.00     0.049 A 
ATOM     31  C   UNL A   1      43.746  34.792  30.772  1.00  0.00     0.074 A 
ATOM     32  C   UNL A   1      44.967  30.717  35.542  1.00  0.00     0.029 A 
ATOM     33  N   UNL A   1      44.714  31.655  33.539  1.00  0.00    -0.354 N 
ATOM     34  N   UNL A   1      44.069  33.891  31.672  1.00  0.00    -0.248 NA
ATOM     35  C   UNL A   1      43.323  36.080  31.340  1.00  0.00     0.031 C 
ATOM     36  C   UNL A   1      44.597  32.055  35.715  1.00  0.00     0.029 A 
ATOM     37  C   UNL A   1      44.451  32.643  34.467  1.00  0.00     0.049 A 
ATOM     38  H   UNL A   1      44.683  31.775  32.562  1.00  0.00     0.167 HD
ATOM     39  C   UNL A   1      43.915  34.510  32.908  1.00  0.00     0.074 A 
ATOM     40  C   UNL A   1      43.494  35.872  32.639  1.00  0.00     0.031 C 
ATOM     41  C   UNL A   1      44.088  34.003  34.155  1.00  0.00     0.034 A 
BRANCH  28  42
ATOM     42  C   UNL A   1      45.671  28.012  34.312  1.00  0.00     0.023 A 
ATOM     43  C   UNL A   1      47.003  27.769  34.707  1.00  0.00     0.012 A 
ATOM     44  C   UNL A   1      44.671  27.077  34.638  1.00  0.00     0.148 A 
ATOM     45  C   UNL A   1      47.339  26.595  35.380  1.00  0.00     0.002 A 
ATOM     46  C   UNL A   1      45.008  25.927  35.340  1.00  0.00     0.091 A 
ATOM     47  F   UNL A   1      43.418  27.310  34.221  1.00  0.00    -0.205 F 
ATOM     48  C   UNL A   1      46.342  25.678  35.702  1.00  0.00     0.022 A 
BRANCH  46  49
ATOM     49  S   UNL A   1      43.786  24.711  35.840  1.00  0.00     0.127 S 
ATOM     50  O   UNL A   1      43.308  24.223  34.547  1.00  0.00    -0.237 OA
ATOM     51  O   UNL A   1      44.595  23.751  36.592  1.00  0.00    -0.237 OA
ATOM     52  O   UNL A   1      42.806  25.433  36.639  1.00  0.00    -0.744 OA
ENDBRANCH  46  49
ENDBRANCH  28  42
BRANCH  29  53
ATOM     53  C   UNL A   1      43.483  35.866  28.402  1.00  0.00     0.023 A 
ATOM     54  C   UNL A   1      42.158  36.122  28.002  1.00  0.00     0.012 A 
ATOM     55  C   UNL A   1      44.503  36.745  27.983  1.00  0.00     0.148 A 
ATOM     56  C   UNL A   1      41.856  37.213  27.182  1.00  0.00     0.002 A 
ATOM     57  C   UNL A   1      44.189  37.861  27.213  1.00  0.00     0.091 A 
ATOM     58  F   UNL A   1      45.764  36.475  28.347  1.00  0.00    -0.205 F 
ATOM     59  C   UNL A   1      42.869  38.088  26.798  1.00  0.00     0.022 A 
BRANCH  57  60
ATOM     60  S   UNL A   1      45.410  39.107  26.784  1.00  0.00     0.127 S 
ATOM     61  O   UNL A   1      45.854  39.558  28.100  1.00  0.00    -0.237 OA
ATOM     62  O   UNL A   1      46.394  38.325  26.036  1.00  0.00    -0.237 OA
ATOM     63  O   UNL A   1      44.697  40.091  25.982  1.00  0.00    -0.744 OA
ENDBRANCH  57  60
ENDBRANCH  29  53
BRANCH  41  64
ATOM     64  C   UNL A   1      43.849  34.925  35.318  1.00  0.00     0.023 A 
ATOM     65  C   UNL A   1      44.850  35.838  35.700  1.00  0.00     0.012 A 
ATOM     66  C   UNL A   1      42.598  34.953  35.962  1.00  0.00     0.148 A 
ATOM     67  C   UNL A   1      44.617  36.752  36.725  1.00  0.00     0.002 A 
ATOM     68  C   UNL A   1      42.356  35.899  36.951  1.00  0.00     0.091 A 
ATOM     69  F   UNL A   1      41.667  34.060  35.596  1.00  0.00    -0.205 F 
ATOM     70  C   UNL A   1      43.367  36.792  37.341  1.00  0.00     0.022 A 
BRANCH  68  71
ATOM     71  S   UNL A   1      40.742  36.083  37.716  1.00  0.00     0.127 S 
ATOM     72  O   UNL A   1      41.033  37.008  38.808  1.00  0.00    -0.237 OA
ATOM     73  O   UNL A   1      39.942  36.652  36.629  1.00  0.00    -0.237 OA
ATOM     74  O   UNL A   1      40.338  34.741  38.117  1.00  0.00    -0.744 OA
ENDBRANCH  68  71
ENDBRANCH  41  64
ENDBRANCH  15  16
ENDBRANCH   8  10
ENDBRANCH   7   8
ENDBRANCH   6   7
ENDBRANCH   5   6
ENDBRANCH   4   5
ENDBRANCH   3   4
ENDBRANCH   2   3
ENDBRANCH   1   2
BRANCH   1  75
ATOM     75  C   UNL A   1      41.922  25.101  28.311  1.00  0.00     0.188 C 
BRANCH  75  76
ATOM     76  C   UNL A   1      40.395  25.108  28.197  1.00  0.00     0.188 C 
BRANCH  76  77
ATOM     77  O   UNL A   1      39.919  26.438  28.154  1.00  0.00    -0.376 OA
BRANCH  77  78
ATOM     78  C   UNL A   1      39.029  26.867  29.178  1.00  0.00     0.202 C 
BRANCH  78  79
ATOM     79  C   UNL A   1      39.260  28.187  29.938  1.00  0.00     0.261 C 
BRANCH  79  80
ATOM     80  O   UNL A   1      38.339  29.282  29.674  1.00  0.00    -0.461 OA
BRANCH  80  81
ATOM     81  C   UNL A   1      38.932  30.478  29.355  1.00  0.00     0.336 C 
ATOM     82  O   UNL A   1      40.046  30.522  28.825  1.00  0.00    -0.249 OA
BRANCH  81  83
ATOM     83  C   UNL A   1      38.243  31.782  29.949  1.00  0.00     0.164 C 
ATOM     84  C   UNL A   1      38.152  33.053  29.070  1.00  0.00     0.046 C 
ATOM     85  C   UNL A   1      38.969  32.060  31.291  1.00  0.00    -0.008 A 
ATOM     86  C   UNL A   1      39.161  34.195  29.240  1.00  0.00     0.008 C 
ATOM     87  C   UNL A   1      39.866  33.120  31.468  1.00  0.00    -0.042 A 
ATOM     88  C   UNL A   1      38.835  31.125  32.348  1.00  0.00     0.007 A 
ATOM     89  C   UNL A   1      40.049  34.218  30.473  1.00  0.00     0.036 C 
ATOM     90  C   UNL A   1      40.664  33.167  32.632  1.00  0.00     0.004 A 
ATOM     91  C   UNL A   1      39.626  31.185  33.494  1.00  0.00     0.000 A 
ATOM     92  C   UNL A   1      40.559  32.198  33.627  1.00  0.00     0.000 A 
BRANCH  83  93
ATOM     93  N   UNL A   1      36.812  31.451  30.321  1.00  0.00    -0.336 N 
ATOM     94  C   UNL A   1      35.636  31.592  29.646  1.00  0.00     0.224 C 
ATOM     95  H   UNL A   1      36.712  31.063  31.221  1.00  0.00     0.164 HD
ATOM     96  O   UNL A   1      34.622  31.851  30.297  1.00  0.00    -0.275 OA
BRANCH  94  97
ATOM     97  C   UNL A   1      35.554  31.313  28.153  1.00  0.00     0.082 C 
ATOM     98  C   UNL A   1      34.346  32.009  27.501  1.00  0.00     0.035 C 
ATOM     99  C   UNL A   1      35.665  29.800  27.881  1.00  0.00     0.035 C 
ATOM    100  C   UNL A   1      33.077  31.154  27.502  1.00  0.00     0.120 C 
ATOM    101  C   UNL A   1      34.311  29.121  27.924  1.00  0.00     0.120 C 
ATOM    102  N   UNL A   1      33.416  29.818  27.027  1.00  0.00    -0.342 N 
ATOM    103  C   UNL A   1      33.090  29.487  25.711  1.00  0.00     0.225 C 
ATOM    104  O   UNL A   1      32.211  30.082  25.113  1.00  0.00    -0.275 OA
BRANCH 103 105
ATOM    105  C   UNL A   1      33.859  28.481  24.914  1.00  0.00     0.079 C 
ATOM    106  C   UNL A   1      33.521  27.549  23.784  1.00  0.00     0.014 C 
ATOM    107  C   UNL A   1      34.206  28.846  23.484  1.00  0.00     0.014 C 
ENDBRANCH 103 105
ENDBRANCH  94  97
ENDBRANCH  83  93
ENDBRANCH  81  83
ENDBRANCH  80  81
ENDBRANCH  79  80
ENDBRANCH  78  79
ENDBRANCH  77  78
ENDBRANCH  76  77
ENDBRANCH  75  76
ENDBRANCH   1  75
TORSDOF 26
ENDMDL
MODEL 3
REMARK VINA RESULT:      -8.2      5.103     10.967
REMARK SMILES O=C(OCCOCCOCCOCCOC(=O)[C@]1(NC(=O)C2CCN(C(=O)C3CC3)CC2)CCCc2ccccc21)c1ccc(-c2c3nc(c(-c4cccc(S(=O)(=O)[O-])c4F)c4ccc([nH]4)c(-c4cccc(S(=O)(=O)[O-])c4F)c4nc(c(-c5cccc(S(=O)(=O)[O-])c5F)c5ccc2[nH]5)C=C4)C=C3)cc1
REMARK SMILES IDX 9 1 8 2 7 3 6 4 5 5 4 6 3 7 2 8 1 9 42 10 43 11 104 12 44 13
REMARK SMILES IDX 103 14 45 15 46 16 47 17 97 18 48 19 102 20 96 21 98 22
REMARK SMILES IDX 49 23 101 24 95 25 94 26 50 28 82 29 62 30 81 31 63 32 66 33
REMARK SMILES IDX 80 34 99 35 64 36 65 37 79 39 100 40 67 41 51 42 52 43 60 44
REMARK SMILES IDX 53 45 55 46 61 47 54 48 56 49 57 50 58 51 59 52 83 53 84 54
REMARK SMILES IDX 92 55 85 56 87 57 93 58 86 59 88 60 89 61 90 62 91 63 68 64
REMARK SMILES IDX 69 65 77 66 70 67 72 68 78 69 71 70 73 71 74 72 75 73 76 74
REMARK SMILES IDX 10 75 11 76 12 77 13 78 14 79 15 80 16 81 17 82 18 83 33 84
REMARK SMILES IDX 41 85 34 86 36 87 40 88 35 89 37 90 39 91 38 92 19 93 20 94
REMARK SMILES IDX 21 96 22 97 23 98 32 99 24 100 31 101 25 102 26 103 27 104
REMARK SMILES IDX 28 105 29 106 30 107
REMARK H PARENT 98 27 66 38 19 95
REMARK Flexibility Score: inf
ROOT
ATOM      1  O   UNL A   1      33.752  33.872  28.579  1.00  0.00    -0.377 OA
ENDROOT
BRANCH   1   2
ATOM      2  C   UNL A   1      33.960  34.384  29.900  1.00  0.00     0.188 C 
BRANCH   2   3
ATOM      3  C   UNL A   1      33.632  35.845  30.157  1.00  0.00     0.188 C 
BRANCH   3   4
ATOM      4  O   UNL A   1      32.459  35.971  30.923  1.00  0.00    -0.376 OA
BRANCH   4   5
ATOM      5  C   UNL A   1      32.600  36.387  32.264  1.00  0.00     0.202 C 
BRANCH   5   6
ATOM      6  C   UNL A   1      34.080  36.687  32.497  1.00  0.00     0.261 C 
BRANCH   6   7
ATOM      7  O   UNL A   1      34.574  36.041  33.693  1.00  0.00    -0.460 OA
BRANCH   7   8
ATOM      8  C   UNL A   1      34.897  34.728  33.839  1.00  0.00     0.338 C 
ATOM      9  O   UNL A   1      34.189  33.883  33.291  1.00  0.00    -0.246 OA
BRANCH   8  10
ATOM     10  C   UNL A   1      36.175  34.271  34.484  1.00  0.00     0.060 A 
ATOM     11  C   UNL A   1      36.307  33.783  35.787  1.00  0.00     0.016 A 
ATOM     12  C   UNL A   1      37.327  34.283  33.673  1.00  0.00     0.016 A 
ATOM     13  C   UNL A   1      37.532  33.346  36.285  1.00  0.00     0.010 A 
ATOM     14  C   UNL A   1      38.570  33.875  34.173  1.00  0.00     0.010 A 
ATOM     15  C   UNL A   1      38.675  33.437  35.497  1.00  0.00    -0.014 A 
BRANCH  15  16
ATOM     16  C   UNL A   1      39.979  33.325  36.178  1.00  0.00     0.031 A 
ATOM     17  C   UNL A   1      40.683  32.001  36.087  1.00  0.00     0.074 A 
ATOM     18  C   UNL A   1      40.564  34.395  36.742  1.00  0.00     0.049 A 
ATOM     19  N   UNL A   1      41.854  31.649  36.542  1.00  0.00    -0.248 NA
ATOM     20  C   UNL A   1      39.974  30.932  35.359  1.00  0.00     0.031 C 
ATOM     21  C   UNL A   1      39.993  35.741  36.792  1.00  0.00     0.029 A 
ATOM     22  N   UNL A   1      41.776  34.518  37.367  1.00  0.00    -0.354 N 
ATOM     23  C   UNL A   1      42.005  30.314  36.189  1.00  0.00     0.074 A 
ATOM     24  C   UNL A   1      40.817  29.918  35.470  1.00  0.00     0.031 C 
ATOM     25  C   UNL A   1      40.857  36.555  37.427  1.00  0.00     0.029 A 
ATOM     26  C   UNL A   1      42.023  35.782  37.848  1.00  0.00     0.049 A 
ATOM     27  H   UNL A   1      42.412  33.771  37.464  1.00  0.00     0.167 HD
ATOM     28  C   UNL A   1      43.046  29.490  36.440  1.00  0.00     0.034 A 
ATOM     29  C   UNL A   1      43.072  36.244  38.557  1.00  0.00     0.034 A 
ATOM     30  C   UNL A   1      44.220  29.899  37.156  1.00  0.00     0.049 A 
ATOM     31  C   UNL A   1      44.197  35.289  38.871  1.00  0.00     0.074 A 
ATOM     32  C   UNL A   1      45.324  29.148  37.506  1.00  0.00     0.029 A 
ATOM     33  N   UNL A   1      44.431  31.182  37.640  1.00  0.00    -0.354 N 
ATOM     34  N   UNL A   1      44.352  34.040  38.493  1.00  0.00    -0.248 NA
ATOM     35  C   UNL A   1      45.301  35.808  39.691  1.00  0.00     0.031 C 
ATOM     36  C   UNL A   1      46.197  29.975  38.221  1.00  0.00     0.029 A 
ATOM     37  C   UNL A   1      45.646  31.247  38.294  1.00  0.00     0.049 A 
ATOM     38  H   UNL A   1      43.806  31.936  37.533  1.00  0.00     0.167 HD
ATOM     39  C   UNL A   1      45.581  33.634  39.003  1.00  0.00     0.074 A 
ATOM     40  C   UNL A   1      46.139  34.778  39.697  1.00  0.00     0.031 C 
ATOM     41  C   UNL A   1      46.189  32.424  38.925  1.00  0.00     0.034 A 
BRANCH  28  42
ATOM     42  C   UNL A   1      42.925  28.071  35.955  1.00  0.00     0.023 A 
ATOM     43  C   UNL A   1      42.087  27.165  36.637  1.00  0.00     0.012 A 
ATOM     44  C   UNL A   1      43.672  27.626  34.850  1.00  0.00     0.148 A 
ATOM     45  C   UNL A   1      42.026  25.827  36.249  1.00  0.00     0.002 A 
ATOM     46  C   UNL A   1      43.579  26.300  34.446  1.00  0.00     0.091 A 
ATOM     47  F   UNL A   1      44.491  28.496  34.240  1.00  0.00    -0.205 F 
ATOM     48  C   UNL A   1      42.767  25.396  35.151  1.00  0.00     0.022 A 
BRANCH  46  49
ATOM     49  S   UNL A   1      44.459  25.664  33.017  1.00  0.00     0.127 S 
ATOM     50  O   UNL A   1      44.031  24.266  33.004  1.00  0.00    -0.237 OA
ATOM     51  O   UNL A   1      43.912  26.478  31.931  1.00  0.00    -0.237 OA
ATOM     52  O   UNL A   1      45.873  25.886  33.286  1.00  0.00    -0.744 OA
ENDBRANCH  46  49
ENDBRANCH  28  42
BRANCH  29  53
ATOM     53  C   UNL A   1      43.128  37.673  38.985  1.00  0.00     0.023 A 
ATOM     54  C   UNL A   1      42.545  38.058  40.208  1.00  0.00     0.012 A 
ATOM     55  C   UNL A   1      43.766  38.652  38.196  1.00  0.00     0.148 A 
ATOM     56  C   UNL A   1      42.574  39.391  40.625  1.00  0.00     0.002 A 
ATOM     57  C   UNL A   1      43.840  39.967  38.643  1.00  0.00     0.091 A 
ATOM     58  F   UNL A   1      44.292  38.279  37.021  1.00  0.00    -0.205 F 
ATOM     59  C   UNL A   1      43.231  40.342  39.850  1.00  0.00     0.022 A 
BRANCH  57  60
ATOM     60  S   UNL A   1      44.777  41.228  37.771  1.00  0.00     0.127 S 
ATOM     61  O   UNL A   1      43.911  42.395  37.909  1.00  0.00    -0.237 OA
ATOM     62  O   UNL A   1      46.014  41.282  38.550  1.00  0.00    -0.237 OA
ATOM     63  O   UNL A   1      44.947  40.719  36.416  1.00  0.00    -0.744 OA
ENDBRANCH  57  60
ENDBRANCH  29  53
BRANCH  41  64
ATOM     64  C   UNL A   1      47.535  32.281  39.579  1.00  0.00     0.023 A 
ATOM     65  C   UNL A   1      47.619  31.834  40.911  1.00  0.00     0.012 A 
ATOM     66  C   UNL A   1      48.715  32.492  38.840  1.00  0.00     0.148 A 
ATOM     67  C   UNL A   1      48.860  31.623  41.508  1.00  0.00     0.002 A 
ATOM     68  C   UNL A   1      49.948  32.233  39.426  1.00  0.00     0.091 A 
ATOM     69  F   UNL A   1      48.611  32.938  37.579  1.00  0.00    -0.205 F 
ATOM     70  C   UNL A   1      50.023  31.809  40.762  1.00  0.00     0.022 A 
BRANCH  68  71
ATOM     71  S   UNL A   1      51.483  32.347  38.500  1.00  0.00     0.127 S 
ATOM     72  O   UNL A   1      51.225  31.443  37.383  1.00  0.00    -0.237 OA
ATOM     73  O   UNL A   1      51.527  33.766  38.140  1.00  0.00    -0.237 OA
ATOM     74  O   UNL A   1      52.532  31.930  39.421  1.00  0.00    -0.744 OA
ENDBRANCH  68  71
ENDBRANCH  41  64
ENDBRANCH  15  16
ENDBRANCH   8  10
ENDBRANCH   7   8
ENDBRANCH   6   7
ENDBRANCH   5   6
ENDBRANCH   4   5
ENDBRANCH   3   4
ENDBRANCH   2   3
ENDBRANCH   1   2
BRANCH   1  75
ATOM     75  C   UNL A   1      34.192  32.545  28.270  1.00  0.00     0.188 C 
BRANCH  75  76
ATOM     76  C   UNL A   1      33.168  31.595  27.642  1.00  0.00     0.188 C 
BRANCH  76  77
ATOM     77  O   UNL A   1      33.811  30.720  26.737  1.00  0.00    -0.376 OA
BRANCH  77  78
ATOM     78  C   UNL A   1      34.383  29.523  27.252  1.00  0.00     0.202 C 
BRANCH  78  79
ATOM     79  C   UNL A   1      33.797  28.142  26.903  1.00  0.00     0.261 C 
BRANCH  79  80
ATOM     80  O   UNL A   1      32.440  28.103  26.378  1.00  0.00    -0.461 OA
BRANCH  80  81
ATOM     81  C   UNL A   1      31.975  26.852  26.056  1.00  0.00     0.336 C 
ATOM     82  O   UNL A   1      31.712  26.019  26.928  1.00  0.00    -0.249 OA
BRANCH  81  83
ATOM     83  C   UNL A   1      32.061  26.448  24.521  1.00  0.00     0.164 C 
ATOM     84  C   UNL A   1      33.272  26.924  23.683  1.00  0.00     0.046 C 
ATOM     85  C   UNL A   1      30.715  26.901  23.897  1.00  0.00    -0.008 A 
ATOM     86  C   UNL A   1      33.158  28.152  22.771  1.00  0.00     0.008 C 
ATOM     87  C   UNL A   1      30.603  27.998  23.036  1.00  0.00    -0.042 A 
ATOM     88  C   UNL A   1      29.517  26.270  24.321  1.00  0.00     0.007 A 
ATOM     89  C   UNL A   1      31.781  28.707  22.450  1.00  0.00     0.036 C 
ATOM     90  C   UNL A   1      29.323  28.492  22.703  1.00  0.00     0.004 A 
ATOM     91  C   UNL A   1      28.260  26.765  23.981  1.00  0.00     0.000 A 
ATOM     92  C   UNL A   1      28.163  27.893  23.186  1.00  0.00     0.000 A 
BRANCH  83  93
ATOM     93  N   UNL A   1      32.071  24.937  24.413  1.00  0.00    -0.336 N 
ATOM     94  C   UNL A   1      32.919  24.071  23.788  1.00  0.00     0.224 C 
ATOM     95  H   UNL A   1      31.325  24.497  24.882  1.00  0.00     0.164 HD
ATOM     96  O   UNL A   1      32.443  23.037  23.313  1.00  0.00    -0.275 OA
BRANCH  94  97
ATOM     97  C   UNL A   1      34.421  24.311  23.788  1.00  0.00     0.082 C 
ATOM     98  C   UNL A   1      35.199  23.101  23.240  1.00  0.00     0.035 C 
ATOM     99  C   UNL A   1      34.884  24.820  25.167  1.00  0.00     0.035 C 
ATOM    100  C   UNL A   1      35.588  22.087  24.319  1.00  0.00     0.120 C 
ATOM    101  C   UNL A   1      35.224  23.676  26.102  1.00  0.00     0.120 C 
ATOM    102  N   UNL A   1      36.175  22.808  25.444  1.00  0.00    -0.342 N 
ATOM    103  C   UNL A   1      37.563  22.797  25.576  1.00  0.00     0.225 C 
ATOM    104  O   UNL A   1      38.236  21.916  25.070  1.00  0.00    -0.275 OA
BRANCH 103 105
ATOM    105  C   UNL A   1      38.324  23.905  26.235  1.00  0.00     0.079 C 
ATOM    106  C   UNL A   1      38.561  24.319  27.659  1.00  0.00     0.014 C 
ATOM    107  C   UNL A   1      39.614  23.537  26.940  1.00  0.00     0.014 C 
ENDBRANCH 103 105
ENDBRANCH  94  97
ENDBRANCH  83  93
ENDBRANCH  81  83
ENDBRANCH  80  81
ENDBRANCH  79  80
ENDBRANCH  78  79
ENDBRANCH  77  78
ENDBRANCH  76  77
ENDBRANCH  75  76
ENDBRANCH   1  75
TORSDOF 26
ENDMDL
